MODEL 1
REMARK minimizedAffinity 10.187623
REMARK minimizedRMSD -1
REMARK  0 active torsions:
REMARK  status: ('A' for Active; 'I' for Inactive)
ROOT
ATOM      1  C1  DEN d   1       4.680  -5.833  -5.936  0.00  0.00     0.130 A 
ATOM      2  C2  DEN d   1       5.601  -4.701  -5.989  0.00  0.00    -0.031 A 
ATOM      3  C3  DEN d   1       4.806  -3.460  -5.896  0.00  0.00     0.027 A 
ATOM      4  C4  DEN d   1       2.252  -3.183  -5.672  0.00  0.00     0.027 A 
ATOM      5  C5  DEN d   1       1.052  -3.855  -5.597  0.00  0.00    -0.003 A 
ATOM      6  C6  DEN d   1       0.975  -5.221  -5.664  0.00  0.00     0.001 A 
ATOM      7  C7  DEN d   1       2.123  -5.961  -5.764  0.00  0.00     0.017 A 
ATOM      8  C8  DEN d   1       3.336  -5.290  -5.847  0.00  0.00    -0.094 A 
ATOM      9  C9  DEN d   1       3.394  -3.909  -5.766  0.00  0.00    -0.072 A 
ENDROOT
TORSDOF 0
ENDMDL
