MODEL 1
REMARK minimizedAffinity 13.038599
REMARK minimizedRMSD -1
REMARK  0 active torsions:
REMARK  status: ('A' for Active; 'I' for Inactive)
ROOT
ATOM      1  C1  DEN d   1       0.420  -1.162   1.183  0.00  0.00     0.130 A 
ATOM      2  C2  DEN d   1       1.818  -0.740   1.159  0.00  0.00    -0.031 A 
ATOM      3  C3  DEN d   1       2.660  -1.948   1.273  0.00  0.00     0.027 A 
ATOM      4  C4  DEN d   1       1.940  -4.416   1.477  0.00  0.00     0.027 A 
ATOM      5  C5  DEN d   1       0.860  -5.268   1.552  0.00  0.00    -0.003 A 
ATOM      6  C6  DEN d   1      -0.431  -4.812   1.544  0.00  0.00     0.001 A 
ATOM      7  C7  DEN d   1      -0.677  -3.470   1.413  0.00  0.00     0.017 A 
ATOM      8  C8  DEN d   1       0.407  -2.605   1.344  0.00  0.00    -0.094 A 
ATOM      9  C9  DEN d   1       1.705  -3.086   1.341  0.00  0.00    -0.072 A 
ENDROOT
TORSDOF 0
ENDMDL
