MODEL 1
REMARK minimizedAffinity 10.368144
REMARK minimizedRMSD -1
REMARK  0 active torsions:
REMARK  status: ('A' for Active; 'I' for Inactive)
ROOT
ATOM      1  C1  DEN d   1       1.497   0.379   0.924  0.00  0.00     0.130 A 
ATOM      2  C2  DEN d   1       2.847  -0.105   0.649  0.00  0.00    -0.031 A 
ATOM      3  C3  DEN d   1       2.937  -1.500   1.125  0.00  0.00     0.027 A 
ATOM      4  C4  DEN d   1       1.125  -2.951   2.249  0.00  0.00     0.027 A 
ATOM      5  C5  DEN d   1      -0.176  -2.972   2.702  0.00  0.00    -0.003 A 
ATOM      6  C6  DEN d   1      -0.993  -1.875   2.625  0.00  0.00     0.001 A 
ATOM      7  C7  DEN d   1      -0.532  -0.724   2.042  0.00  0.00     0.017 A 
ATOM      8  C8  DEN d   1       0.781  -0.694   1.590  0.00  0.00    -0.094 A 
ATOM      9  C9  DEN d   1       1.588  -1.817   1.665  0.00  0.00    -0.072 A 
ENDROOT
TORSDOF 0
ENDMDL
