MODEL 1
REMARK minimizedAffinity 2.06149578
REMARK minimizedRMSD -1
REMARK  0 active torsions:
REMARK  status: ('A' for Active; 'I' for Inactive)
ROOT
ATOM      1  C1  DEN d   1      -5.714  -4.846   3.274  0.00  0.00     0.130 A 
ATOM      2  C2  DEN d   1      -4.872  -3.738   3.718  0.00  0.00    -0.031 A 
ATOM      3  C3  DEN d   1      -4.093  -3.263   2.557  0.00  0.00     0.027 A 
ATOM      4  C4  DEN d   1      -4.112  -4.126   0.127  0.00  0.00     0.027 A 
ATOM      5  C5  DEN d   1      -4.656  -5.058  -0.729  0.00  0.00    -0.003 A 
ATOM      6  C6  DEN d   1      -5.558  -5.999  -0.307  0.00  0.00     0.001 A 
ATOM      7  C7  DEN d   1      -5.977  -6.000   0.997  0.00  0.00     0.017 A 
ATOM      8  C8  DEN d   1      -5.427  -5.068   1.868  0.00  0.00    -0.094 A 
ATOM      9  C9  DEN d   1      -4.526  -4.118   1.419  0.00  0.00    -0.072 A 
ENDROOT
TORSDOF 0
ENDMDL
