MODEL 1
REMARK minimizedAffinity 10.0758018
REMARK minimizedRMSD -1
REMARK  0 active torsions:
REMARK  status: ('A' for Active; 'I' for Inactive)
ROOT
ATOM      1  C1  DEN d   1      -4.404  -3.152   4.237  0.00  0.00     0.130 A 
ATOM      2  C2  DEN d   1      -5.232  -3.573   5.364  0.00  0.00    -0.031 A 
ATOM      3  C3  DEN d   1      -5.999  -4.764   4.947  0.00  0.00     0.027 A 
ATOM      4  C4  DEN d   1      -5.981  -5.993   2.679  0.00  0.00     0.027 A 
ATOM      5  C5  DEN d   1      -5.446  -5.999   1.410  0.00  0.00    -0.003 A 
ATOM      6  C6  DEN d   1      -4.559  -5.045   0.987  0.00  0.00     0.001 A 
ATOM      7  C7  DEN d   1      -4.146  -4.070   1.855  0.00  0.00     0.017 A 
ATOM      8  C8  DEN d   1      -4.687  -4.052   3.134  0.00  0.00    -0.094 A 
ATOM      9  C9  DEN d   1      -5.573  -5.033   3.547  0.00  0.00    -0.072 A 
ENDROOT
TORSDOF 0
ENDMDL
