MODEL 1
REMARK minimizedAffinity 7.52968502
REMARK minimizedRMSD -1
REMARK  0 active torsions:
REMARK  status: ('A' for Active; 'I' for Inactive)
ROOT
ATOM      1  C1  DEN d   1      -4.269  -3.033   4.885  0.00  0.00     0.130 A 
ATOM      2  C2  DEN d   1      -5.168  -3.317   5.999  0.00  0.00    -0.031 A 
ATOM      3  C3  DEN d   1      -5.998  -4.482   5.630  0.00  0.00     0.027 A 
ATOM      4  C4  DEN d   1      -5.974  -5.868   3.455  0.00  0.00     0.027 A 
ATOM      5  C5  DEN d   1      -5.390  -6.000   2.215  0.00  0.00    -0.003 A 
ATOM      6  C6  DEN d   1      -4.423  -5.138   1.767  0.00  0.00     0.001 A 
ATOM      7  C7  DEN d   1      -3.979  -4.133   2.585  0.00  0.00     0.017 A 
ATOM      8  C8  DEN d   1      -4.568  -3.989   3.834  0.00  0.00    -0.094 A 
ATOM      9  C9  DEN d   1      -5.535  -4.877   4.273  0.00  0.00    -0.072 A 
ENDROOT
TORSDOF 0
ENDMDL
