MODEL 1
REMARK minimizedAffinity 17.3127842
REMARK minimizedRMSD -1
REMARK  0 active torsions:
REMARK  status: ('A' for Active; 'I' for Inactive)
ROOT
ATOM      1  C1  DEN d   1      -0.098  -2.796  -2.570  0.00  0.00     0.130 A 
ATOM      2  C2  DEN d   1       0.098  -4.049  -3.295  0.00  0.00    -0.031 A 
ATOM      3  C3  DEN d   1       0.750  -5.007  -2.380  0.00  0.00     0.027 A 
ATOM      4  C4  DEN d   1       1.466  -4.677   0.076  0.00  0.00     0.027 A 
ATOM      5  C5  DEN d   1       1.516  -3.779   1.119  0.00  0.00    -0.003 A 
ATOM      6  C6  DEN d   1       1.067  -2.491   0.997  0.00  0.00     0.001 A 
ATOM      7  C7  DEN d   1       0.505  -2.078  -0.182  0.00  0.00     0.017 A 
ATOM      8  C8  DEN d   1       0.458  -2.975  -1.241  0.00  0.00    -0.094 A 
ATOM      9  C9  DEN d   1       0.906  -4.276  -1.094  0.00  0.00    -0.072 A 
ENDROOT
TORSDOF 0
ENDMDL
