MODEL 1
REMARK minimizedAffinity 9.23115158
REMARK minimizedRMSD -1
REMARK  0 active torsions:
REMARK  status: ('A' for Active; 'I' for Inactive)
ROOT
ATOM      1  C1  DEN d   1      -0.673  -0.795   3.667  0.00  0.00     0.130 A 
ATOM      2  C2  DEN d   1      -1.691  -1.773   3.292  0.00  0.00    -0.031 A 
ATOM      3  C3  DEN d   1      -1.168  -2.566   2.161  0.00  0.00     0.027 A 
ATOM      4  C4  DEN d   1       1.109  -2.380   0.964  0.00  0.00     0.027 A 
ATOM      5  C5  DEN d   1       2.302  -1.691   0.921  0.00  0.00    -0.003 A 
ATOM      6  C6  DEN d   1       2.570  -0.642   1.760  0.00  0.00     0.001 A 
ATOM      7  C7  DEN d   1       1.652  -0.280   2.709  0.00  0.00     0.017 A 
ATOM      8  C8  DEN d   1       0.444  -0.965   2.755  0.00  0.00    -0.094 A 
ATOM      9  C9  DEN d   1       0.197  -2.031   1.906  0.00  0.00    -0.072 A 
ENDROOT
TORSDOF 0
ENDMDL
