MODEL 1
REMARK minimizedAffinity 14.3832178
REMARK minimizedRMSD -1
REMARK  0 active torsions:
REMARK  status: ('A' for Active; 'I' for Inactive)
ROOT
ATOM      1  C1  DEN d   1      -3.249   3.633  -2.178  0.00  0.00     0.130 A 
ATOM      2  C2  DEN d   1      -3.459   4.852  -1.401  0.00  0.00    -0.031 A 
ATOM      3  C3  DEN d   1      -3.002   5.996  -2.215  0.00  0.00     0.027 A 
ATOM      4  C4  DEN d   1      -2.000   6.000  -4.592  0.00  0.00     0.027 A 
ATOM      5  C5  DEN d   1      -1.617   5.205  -5.650  0.00  0.00    -0.003 A 
ATOM      6  C6  DEN d   1      -1.719   3.840  -5.612  0.00  0.00     0.001 A 
ATOM      7  C7  DEN d   1      -2.258   3.230  -4.510  0.00  0.00     0.017 A 
ATOM      8  C8  DEN d   1      -2.639   4.024  -3.436  0.00  0.00    -0.094 A 
ATOM      9  C9  DEN d   1      -2.539   5.403  -3.499  0.00  0.00    -0.072 A 
ENDROOT
TORSDOF 0
ENDMDL
