MODEL 1
REMARK minimizedAffinity 13.5305367
REMARK minimizedRMSD -1
REMARK  0 active torsions:
REMARK  status: ('A' for Active; 'I' for Inactive)
ROOT
ATOM      1  C1  DEN d   1      -2.342  -5.491  -0.331  0.00  0.00     0.130 A 
ATOM      2  C2  DEN d   1      -1.522  -4.319  -0.037  0.00  0.00    -0.031 A 
ATOM      3  C3  DEN d   1      -2.377  -3.321   0.637  0.00  0.00     0.027 A 
ATOM      4  C4  DEN d   1      -4.876  -3.479   1.255  0.00  0.00     0.027 A 
ATOM      5  C5  DEN d   1      -5.999  -4.275   1.197  0.00  0.00    -0.003 A 
ATOM      6  C6  DEN d   1      -5.990  -5.508   0.601  0.00  0.00     0.001 A 
ATOM      7  C7  DEN d   1      -4.824  -6.000   0.077  0.00  0.00     0.017 A 
ATOM      8  C8  DEN d   1      -3.689  -5.200   0.125  0.00  0.00    -0.094 A 
ATOM      9  C9  DEN d   1      -3.716  -3.962   0.744  0.00  0.00    -0.072 A 
ENDROOT
TORSDOF 0
ENDMDL
