MODEL 1
REMARK minimizedAffinity 13.5750732
REMARK minimizedRMSD -1
REMARK  0 active torsions:
REMARK  status: ('A' for Active; 'I' for Inactive)
ROOT
ATOM      1  C1  DEN d   1      -6.000  -5.505   3.843  0.00  0.00     0.130 A 
ATOM      2  C2  DEN d   1      -6.000  -4.886   5.166  0.00  0.00    -0.031 A 
ATOM      3  C3  DEN d   1      -5.042  -3.762   5.144  0.00  0.00     0.027 A 
ATOM      4  C4  DEN d   1      -3.570  -2.923   3.199  0.00  0.00     0.027 A 
ATOM      5  C5  DEN d   1      -3.217  -3.138   1.885  0.00  0.00    -0.003 A 
ATOM      6  C6  DEN d   1      -3.736  -4.169   1.148  0.00  0.00     0.001 A 
ATOM      7  C7  DEN d   1      -4.673  -4.997   1.707  0.00  0.00     0.017 A 
ATOM      8  C8  DEN d   1      -5.029  -4.792   3.033  0.00  0.00    -0.094 A 
ATOM      9  C9  DEN d   1      -4.501  -3.737   3.758  0.00  0.00    -0.072 A 
ENDROOT
TORSDOF 0
ENDMDL
