MODEL 1
REMARK minimizedAffinity 19.3537331
REMARK minimizedRMSD -1
REMARK  0 active torsions:
REMARK  status: ('A' for Active; 'I' for Inactive)
ROOT
ATOM      1  C1  DEN d   1      -3.560  -2.708   4.531  0.00  0.00     0.130 A 
ATOM      2  C2  DEN d   1      -4.071  -3.593   3.489  0.00  0.00    -0.031 A 
ATOM      3  C3  DEN d   1      -3.108  -3.584   2.369  0.00  0.00     0.027 A 
ATOM      4  C4  DEN d   1      -0.884  -2.297   2.153  0.00  0.00     0.027 A 
ATOM      5  C5  DEN d   1      -0.035  -1.409   2.776  0.00  0.00    -0.003 A 
ATOM      6  C6  DEN d   1      -0.316  -0.870   4.004  0.00  0.00     0.001 A 
ATOM      7  C7  DEN d   1      -1.453  -1.249   4.667  0.00  0.00     0.017 A 
ATOM      8  C8  DEN d   1      -2.317  -2.138   4.042  0.00  0.00    -0.094 A 
ATOM      9  C9  DEN d   1      -2.010  -2.681   2.806  0.00  0.00    -0.072 A 
ENDROOT
TORSDOF 0
ENDMDL
