MODEL 1
REMARK minimizedAffinity 14.6028118
REMARK minimizedRMSD -1
REMARK  0 active torsions:
REMARK  status: ('A' for Active; 'I' for Inactive)
ROOT
ATOM      1  C1  DEN d   1      -4.461   4.599  -1.100  0.00  0.00     0.130 A 
ATOM      2  C2  DEN d   1      -5.172   3.324  -1.114  0.00  0.00    -0.031 A 
ATOM      3  C3  DEN d   1      -4.523   2.450  -2.111  0.00  0.00     0.027 A 
ATOM      4  C4  DEN d   1      -2.492   2.942  -3.623  0.00  0.00     0.027 A 
ATOM      5  C5  DEN d   1      -1.560   3.893  -3.976  0.00  0.00    -0.003 A 
ATOM      6  C6  DEN d   1      -1.551   5.147  -3.425  0.00  0.00     0.001 A 
ATOM      7  C7  DEN d   1      -2.464   5.469  -2.457  0.00  0.00     0.017 A 
ATOM      8  C8  DEN d   1      -3.412   4.519  -2.100  0.00  0.00    -0.094 A 
ATOM      9  C9  DEN d   1      -3.397   3.252  -2.660  0.00  0.00    -0.072 A 
ENDROOT
TORSDOF 0
ENDMDL
