MODEL 1
REMARK minimizedAffinity 4.97180319
REMARK minimizedRMSD -1
REMARK  0 active torsions:
REMARK  status: ('A' for Active; 'I' for Inactive)
ROOT
ATOM      1  C1  DEN d   1      -3.274  -3.240   2.242  0.00  0.00     0.130 A 
ATOM      2  C2  DEN d   1      -4.124  -3.650   3.357  0.00  0.00    -0.031 A 
ATOM      3  C3  DEN d   1      -4.931  -4.805   2.916  0.00  0.00     0.027 A 
ATOM      4  C4  DEN d   1      -4.944  -5.996   0.628  0.00  0.00     0.027 A 
ATOM      5  C5  DEN d   1      -4.402  -6.000  -0.639  0.00  0.00    -0.003 A 
ATOM      6  C6  DEN d   1      -3.479  -5.071  -1.041  0.00  0.00     0.001 A 
ATOM      7  C7  DEN d   1      -3.036  -4.126  -0.154  0.00  0.00     0.017 A 
ATOM      8  C8  DEN d   1      -3.583  -4.111   1.122  0.00  0.00    -0.094 A 
ATOM      9  C9  DEN d   1      -4.506  -5.066   1.514  0.00  0.00    -0.072 A 
ENDROOT
TORSDOF 0
ENDMDL
