MODEL 1
REMARK minimizedAffinity 18.6409111
REMARK minimizedRMSD -1
REMARK  0 active torsions:
REMARK  status: ('A' for Active; 'I' for Inactive)
ROOT
ATOM      1  C1  DEN d   1       4.896  -3.698  -5.443  0.00  0.00     0.130 A 
ATOM      2  C2  DEN d   1       5.639  -4.921  -5.732  0.00  0.00    -0.031 A 
ATOM      3  C3  DEN d   1       4.662  -5.999  -5.986  0.00  0.00     0.027 A 
ATOM      4  C4  DEN d   1       2.085  -5.892  -5.965  0.00  0.00     0.027 A 
ATOM      5  C5  DEN d   1       0.997  -5.073  -5.760  0.00  0.00    -0.003 A 
ATOM      6  C6  DEN d   1       1.131  -3.757  -5.404  0.00  0.00     0.001 A 
ATOM      7  C7  DEN d   1       2.382  -3.209  -5.287  0.00  0.00     0.017 A 
ATOM      8  C8  DEN d   1       3.483  -4.031  -5.485  0.00  0.00    -0.094 A 
ATOM      9  C9  DEN d   1       3.327  -5.356  -5.856  0.00  0.00    -0.072 A 
ENDROOT
TORSDOF 0
ENDMDL
