MODEL 1
REMARK minimizedAffinity 2.58388019
REMARK minimizedRMSD -1
REMARK  0 active torsions:
REMARK  status: ('A' for Active; 'I' for Inactive)
ROOT
ATOM      1  C1  DEN d   1       4.635  -4.700  -6.000  0.00  0.00     0.130 A 
ATOM      2  C2  DEN d   1       5.006  -3.342  -5.611  0.00  0.00    -0.031 A 
ATOM      3  C3  DEN d   1       3.826  -2.706  -4.991  0.00  0.00     0.027 A 
ATOM      4  C4  DEN d   1       1.475  -3.689  -4.592  0.00  0.00     0.027 A 
ATOM      5  C5  DEN d   1       0.680  -4.801  -4.762  0.00  0.00    -0.003 A 
ATOM      6  C6  DEN d   1       1.132  -5.935  -5.382  0.00  0.00     0.001 A 
ATOM      7  C7  DEN d   1       2.430  -6.000  -5.815  0.00  0.00     0.017 A 
ATOM      8  C8  DEN d   1       3.237  -4.881  -5.653  0.00  0.00    -0.094 A 
ATOM      9  C9  DEN d   1       2.764  -3.748  -5.013  0.00  0.00    -0.072 A 
ENDROOT
TORSDOF 0
ENDMDL
