MODEL 1
REMARK minimizedAffinity 9.07193375
REMARK minimizedRMSD -1
REMARK  0 active torsions:
REMARK  status: ('A' for Active; 'I' for Inactive)
ROOT
ATOM      1  C   UNL d   1      -0.333   0.029  -4.281  0.00  0.00     0.023 A 
ATOM      2  C1  UNL d   1       0.208  -0.357  -5.507  0.00  0.00     0.003 A 
ATOM      3  C2  UNL d   1      -0.022  -1.644  -5.999  0.00  0.00     0.048 A 
ATOM      4  C3  UNL d   1      -0.796  -2.538  -5.260  0.00  0.00     0.023 A 
ATOM      5  C4  UNL d   1      -1.340  -2.156  -4.033  0.00  0.00     0.048 A 
ATOM      6  C5  UNL d   1      -1.106  -0.869  -3.545  0.00  0.00     0.003 A 
ATOM      7  I   UNL d   1      -1.140  -4.453  -5.991  0.00  0.00    -0.146 I 
ENDROOT
TORSDOF 0
ENDMDL
