MODEL 1
REMARK minimizedAffinity 8.47189236
REMARK minimizedRMSD -1
REMARK  0 active torsions:
REMARK  status: ('A' for Active; 'I' for Inactive)
ROOT
ATOM      1  C   UNL d   1       3.848  -0.765   5.971  0.00  0.00     0.023 A 
ATOM      2  C1  UNL d   1       3.781   0.510   5.410  0.00  0.00     0.003 A 
ATOM      3  C2  UNL d   1       2.820   0.797   4.437  0.00  0.00     0.048 A 
ATOM      4  C3  UNL d   1       1.929  -0.196   4.032  0.00  0.00     0.023 A 
ATOM      5  C4  UNL d   1       1.992  -1.473   4.591  0.00  0.00     0.048 A 
ATOM      6  C5  UNL d   1       2.954  -1.756   5.563  0.00  0.00     0.003 A 
ATOM      7  I   UNL d   1       0.499   0.228   2.585  0.00  0.00    -0.146 I 
ENDROOT
TORSDOF 0
ENDMDL
