MODEL 1
REMARK minimizedAffinity 13.1750803
REMARK minimizedRMSD -1
REMARK  0 active torsions:
REMARK  status: ('A' for Active; 'I' for Inactive)
ROOT
ATOM      1  C   UNL d   1      -0.802   2.915   3.425  0.00  0.00     0.023 A 
ATOM      2  C1  UNL d   1      -0.624   2.060   2.337  0.00  0.00     0.003 A 
ATOM      3  C2  UNL d   1       0.123   0.889   2.482  0.00  0.00     0.048 A 
ATOM      4  C3  UNL d   1       0.687   0.578   3.718  0.00  0.00     0.023 A 
ATOM      5  C4  UNL d   1       0.510   1.429   4.810  0.00  0.00     0.048 A 
ATOM      6  C5  UNL d   1      -0.236   2.600   4.660  0.00  0.00     0.003 A 
ATOM      7  I   UNL d   1       1.798  -1.165   3.937  0.00  0.00    -0.146 I 
ENDROOT
TORSDOF 0
ENDMDL
