MODEL 1
REMARK minimizedAffinity 5.60190487
REMARK minimizedRMSD -1
REMARK  0 active torsions:
REMARK  status: ('A' for Active; 'I' for Inactive)
ROOT
ATOM      1  C   UNL d   1      -1.832  -5.744  -5.186  0.00  0.00     0.023 A 
ATOM      2  C1  UNL d   1      -1.514  -5.998  -3.852  0.00  0.00     0.003 A 
ATOM      3  C2  UNL d   1      -1.225  -4.940  -2.988  0.00  0.00     0.048 A 
ATOM      4  C3  UNL d   1      -1.258  -3.630  -3.464  0.00  0.00     0.023 A 
ATOM      5  C4  UNL d   1      -1.577  -3.370  -4.798  0.00  0.00     0.048 A 
ATOM      6  C5  UNL d   1      -1.864  -4.431  -5.658  0.00  0.00     0.003 A 
ATOM      7  I   UNL d   1      -0.829  -2.053  -2.179  0.00  0.00    -0.146 I 
ENDROOT
TORSDOF 0
ENDMDL
