MODEL 1
REMARK minimizedAffinity 14.7786674
REMARK minimizedRMSD -1
REMARK  0 active torsions:
REMARK  status: ('A' for Active; 'I' for Inactive)
ROOT
ATOM      1  C   UNL d   1       3.248   0.984   2.934  0.00  0.00     0.023 A 
ATOM      2  C1  UNL d   1       2.636  -0.270   2.941  0.00  0.00     0.003 A 
ATOM      3  C2  UNL d   1       3.262  -1.350   3.568  0.00  0.00     0.048 A 
ATOM      4  C3  UNL d   1       4.498  -1.169   4.186  0.00  0.00     0.023 A 
ATOM      5  C4  UNL d   1       5.114   0.084   4.182  0.00  0.00     0.048 A 
ATOM      6  C5  UNL d   1       4.486   1.160   3.553  0.00  0.00     0.003 A 
ATOM      7  I   UNL d   1       5.431  -2.775   5.119  0.00  0.00    -0.146 I 
ENDROOT
TORSDOF 0
ENDMDL
