MODEL 1
REMARK minimizedAffinity 6.84625435
REMARK minimizedRMSD -1
REMARK  0 active torsions:
REMARK  status: ('A' for Active; 'I' for Inactive)
ROOT
ATOM      1  C   UNL d   1       2.605  -0.805   3.373  0.00  0.00     0.023 A 
ATOM      2  C1  UNL d   1       2.190  -2.137   3.382  0.00  0.00     0.003 A 
ATOM      3  C2  UNL d   1       2.889  -3.083   4.134  0.00  0.00     0.048 A 
ATOM      4  C3  UNL d   1       4.002  -2.690   4.877  0.00  0.00     0.023 A 
ATOM      5  C4  UNL d   1       4.420  -1.359   4.872  0.00  0.00     0.048 A 
ATOM      6  C5  UNL d   1       3.719  -0.417   4.118  0.00  0.00     0.003 A 
ATOM      7  I   UNL d   1       5.044  -4.096   5.998  0.00  0.00    -0.146 I 
ENDROOT
TORSDOF 0
ENDMDL
