MODEL 1
REMARK minimizedAffinity 6.95748377
REMARK minimizedRMSD -1
REMARK  1 active torsions:
REMARK  status: ('A' for Active; 'I' for Inactive)
REMARK    1  A    between atoms: C1_2  and  C2_3 
ROOT
ATOM      1  C2  UNL d   1      -4.631   0.804  -5.898  0.00  0.00    -0.081 A 
ATOM      2  C3  UNL d   1      -4.632   2.201  -6.000  0.00  0.00     0.006 A 
ATOM      3  C4  UNL d   1      -3.432   2.914  -5.973  0.00  0.00     0.002 A 
ATOM      4  C5  UNL d   1      -2.210   2.243  -5.852  0.00  0.00    -0.080 A 
ATOM      5  C6  UNL d   1      -0.912   2.994  -5.852  0.00  0.00     0.076 C 
ATOM      6  C7  UNL d   1      -2.210   0.849  -5.733  0.00  0.00     0.002 A 
ATOM      7  C8  UNL d   1      -3.410   0.135  -5.760  0.00  0.00     0.006 A 
ENDROOT
BRANCH   1   8
ATOM      8  C1  UNL d   1      -5.919   0.027  -5.992  0.00  0.00     0.054 C 
ATOM      9  C   UNL d   1      -5.961  -1.101  -4.972  0.00  0.00     0.018 C 
ENDBRANCH   1   8
TORSDOF 1
ENDMDL
