MODEL 1
REMARK minimizedAffinity 4.16192913
REMARK minimizedRMSD -1
REMARK  1 active torsions:
REMARK  status: ('A' for Active; 'I' for Inactive)
REMARK    1  A    between atoms: C1_2  and  C2_3 
ROOT
ATOM      1  C2  UNL d   1       2.298   1.388  -0.863  0.00  0.00    -0.081 A 
ATOM      2  C3  UNL d   1       2.190   0.362  -1.810  0.00  0.00     0.006 A 
ATOM      3  C4  UNL d   1       1.233  -0.645  -1.658  0.00  0.00     0.002 A 
ATOM      4  C5  UNL d   1       0.365  -0.639  -0.562  0.00  0.00    -0.080 A 
ATOM      5  C6  UNL d   1      -0.686  -1.697  -0.402  0.00  0.00     0.076 C 
ATOM      6  C7  UNL d   1       0.484   0.376   0.394  0.00  0.00     0.002 A 
ATOM      7  C8  UNL d   1       1.440   1.383   0.242  0.00  0.00     0.006 A 
ENDROOT
BRANCH   1   8
ATOM      8  C1  UNL d   1       3.284   2.510  -1.058  0.00  0.00     0.054 C 
ATOM      9  C   UNL d   1       4.717   1.998  -1.036  0.00  0.00     0.018 C 
ENDBRANCH   1   8
TORSDOF 1
ENDMDL
