MODEL 1
REMARK minimizedAffinity -2.68222284
REMARK minimizedRMSD -1
REMARK  1 active torsions:
REMARK  status: ('A' for Active; 'I' for Inactive)
REMARK    1  A    between atoms: C1_2  and  C2_3 
ROOT
ATOM      1  C2  UNL d   1      -3.271   1.892  -5.930  0.00  0.00    -0.081 A 
ATOM      2  C3  UNL d   1      -4.640   2.182  -5.987  0.00  0.00     0.006 A 
ATOM      3  C4  UNL d   1      -5.083   3.507  -5.995  0.00  0.00     0.002 A 
ATOM      4  C5  UNL d   1      -4.165   4.563  -5.956  0.00  0.00    -0.080 A 
ATOM      5  C6  UNL d   1      -4.626   5.989  -5.995  0.00  0.00     0.076 C 
ATOM      6  C7  UNL d   1      -2.798   4.272  -5.881  0.00  0.00     0.002 A 
ATOM      7  C8  UNL d   1      -2.355   2.948  -5.872  0.00  0.00     0.006 A 
ENDROOT
BRANCH   1   8
ATOM      8  C1  UNL d   1      -2.788   0.465  -5.986  0.00  0.00     0.054 C 
ATOM      9  C   UNL d   1      -3.954  -0.514  -6.000  0.00  0.00     0.018 C 
ENDBRANCH   1   8
TORSDOF 1
ENDMDL
