MODEL 1
REMARK minimizedAffinity 0.656666398
REMARK minimizedRMSD -1
REMARK  1 active torsions:
REMARK  status: ('A' for Active; 'I' for Inactive)
REMARK    1  A    between atoms: C1_2  and  C2_3 
ROOT
ATOM      1  C2  UNL d   1      -0.007  -0.852  -0.822  0.00  0.00    -0.081 A 
ATOM      2  C3  UNL d   1       0.724  -0.828  -2.016  0.00  0.00     0.006 A 
ATOM      3  C4  UNL d   1       1.815   0.032  -2.162  0.00  0.00     0.002 A 
ATOM      4  C5  UNL d   1       2.198   0.876  -1.114  0.00  0.00    -0.080 A 
ATOM      5  C6  UNL d   1       3.386   1.782  -1.247  0.00  0.00     0.076 C 
ATOM      6  C7  UNL d   1       1.458   0.865   0.073  0.00  0.00     0.002 A 
ATOM      7  C8  UNL d   1       0.366   0.006   0.219  0.00  0.00     0.006 A 
ENDROOT
BRANCH   1   8
ATOM      8  C1  UNL d   1      -1.144  -1.824  -0.638  0.00  0.00     0.054 C 
ATOM      9  C   UNL d   1      -1.007  -2.596   0.667  0.00  0.00     0.018 C 
ENDBRANCH   1   8
TORSDOF 1
ENDMDL
