MODEL 1
REMARK minimizedAffinity 0.621611476
REMARK minimizedRMSD -1
REMARK  1 active torsions:
REMARK  status: ('A' for Active; 'I' for Inactive)
REMARK    1  A    between atoms: C1_2  and  C2_3 
ROOT
ATOM      1  C2  UNL d   1      -3.176   1.592  -5.941  0.00  0.00    -0.081 A 
ATOM      2  C3  UNL d   1      -2.058   0.751  -5.890  0.00  0.00     0.006 A 
ATOM      3  C4  UNL d   1      -2.216  -0.637  -5.896  0.00  0.00     0.002 A 
ATOM      4  C5  UNL d   1      -3.493  -1.206  -5.962  0.00  0.00    -0.080 A 
ATOM      5  C6  UNL d   1      -3.674  -2.695  -6.000  0.00  0.00     0.076 C 
ATOM      6  C7  UNL d   1      -4.610  -0.365  -5.995  0.00  0.00     0.002 A 
ATOM      7  C8  UNL d   1      -4.453   1.022  -5.988  0.00  0.00     0.006 A 
ENDROOT
BRANCH   1   8
ATOM      8  C1  UNL d   1      -3.006   3.089  -6.000  0.00  0.00     0.054 C 
ATOM      9  C   UNL d   1      -3.980   3.793  -5.065  0.00  0.00     0.018 C 
ENDBRANCH   1   8
TORSDOF 1
ENDMDL
