MODEL 1
REMARK minimizedAffinity 0.714094758
REMARK minimizedRMSD -1
REMARK  1 active torsions:
REMARK  status: ('A' for Active; 'I' for Inactive)
REMARK    1  A    between atoms: C1_2  and  C2_3 
ROOT
ATOM      1  C2  UNL d   1       1.279  -0.573  -1.478  0.00  0.00    -0.081 A 
ATOM      2  C3  UNL d   1       2.359   0.300  -1.655  0.00  0.00     0.006 A 
ATOM      3  C4  UNL d   1       2.547   1.379  -0.787  0.00  0.00     0.002 A 
ATOM      4  C5  UNL d   1       1.663   1.598   0.274  0.00  0.00    -0.080 A 
ATOM      5  C6  UNL d   1       1.871   2.735   1.231  0.00  0.00     0.076 C 
ATOM      6  C7  UNL d   1       0.574   0.737   0.440  0.00  0.00     0.002 A 
ATOM      7  C8  UNL d   1       0.385  -0.342  -0.427  0.00  0.00     0.006 A 
ENDROOT
BRANCH   1   8
ATOM      8  C1  UNL d   1       1.110  -1.775  -2.372  0.00  0.00     0.054 C 
ATOM      9  C   UNL d   1       2.171  -2.828  -2.089  0.00  0.00     0.018 C 
ENDBRANCH   1   8
TORSDOF 1
ENDMDL
