MODEL 1
REMARK minimizedAffinity -3.31897211
REMARK minimizedRMSD -1
REMARK  1 active torsions:
REMARK  status: ('A' for Active; 'I' for Inactive)
REMARK    1  A    between atoms: C1_2  and  C2_3 
ROOT
ATOM      1  C2  UNL d   1      -3.428   4.201  -5.882  0.00  0.00    -0.081 A 
ATOM      2  C3  UNL d   1      -2.630   3.054  -5.974  0.00  0.00     0.006 A 
ATOM      3  C4  UNL d   1      -3.214   1.786  -6.000  0.00  0.00     0.002 A 
ATOM      4  C5  UNL d   1      -4.605   1.643  -5.942  0.00  0.00    -0.080 A 
ATOM      5  C6  UNL d   1      -5.246   0.289  -5.999  0.00  0.00     0.076 C 
ATOM      6  C7  UNL d   1      -5.401   2.788  -5.832  0.00  0.00     0.002 A 
ATOM      7  C8  UNL d   1      -4.818   4.057  -5.806  0.00  0.00     0.006 A 
ENDROOT
BRANCH   1   8
ATOM      8  C1  UNL d   1      -2.805   5.573  -5.920  0.00  0.00     0.054 C 
ATOM      9  C   UNL d   1      -1.290   5.497  -5.785  0.00  0.00     0.018 C 
ENDBRANCH   1   8
TORSDOF 1
ENDMDL
