MODEL 1
REMARK minimizedAffinity -2.41027951
REMARK minimizedRMSD -1
REMARK  1 active torsions:
REMARK  status: ('A' for Active; 'I' for Inactive)
REMARK    1  A    between atoms: C1_2  and  C2_3 
ROOT
ATOM      1  C2  UNL d   1      -3.726   2.847  -5.925  0.00  0.00    -0.081 A 
ATOM      2  C3  UNL d   1      -5.099   2.570  -5.925  0.00  0.00     0.006 A 
ATOM      3  C4  UNL d   1      -5.555   1.249  -5.956  0.00  0.00     0.002 A 
ATOM      4  C5  UNL d   1      -4.647   0.185  -5.980  0.00  0.00    -0.080 A 
ATOM      5  C6  UNL d   1      -5.123  -1.237  -5.983  0.00  0.00     0.076 C 
ATOM      6  C7  UNL d   1      -3.275   0.463  -5.998  0.00  0.00     0.002 A 
ATOM      7  C8  UNL d   1      -2.819   1.782  -5.967  0.00  0.00     0.006 A 
ENDROOT
BRANCH   1   8
ATOM      8  C1  UNL d   1      -3.231   4.267  -5.826  0.00  0.00     0.054 C 
ATOM      9  C   UNL d   1      -4.371   5.263  -5.989  0.00  0.00     0.018 C 
ENDBRANCH   1   8
TORSDOF 1
ENDMDL
