MODEL 1
REMARK minimizedAffinity -2.11938095
REMARK minimizedRMSD -1
REMARK  1 active torsions:
REMARK  status: ('A' for Active; 'I' for Inactive)
REMARK    1  A    between atoms: C1_2  and  C2_3 
ROOT
ATOM      1  C2  UNL d   1       0.543  -1.051  -1.766  0.00  0.00    -0.081 A 
ATOM      2  C3  UNL d   1       1.637  -0.263  -2.146  0.00  0.00     0.006 A 
ATOM      3  C4  UNL d   1       2.072   0.785  -1.331  0.00  0.00     0.002 A 
ATOM      4  C5  UNL d   1       1.425   1.058  -0.120  0.00  0.00    -0.080 A 
ATOM      5  C6  UNL d   1       1.901   2.161   0.778  0.00  0.00     0.076 C 
ATOM      6  C7  UNL d   1       0.322   0.282   0.250  0.00  0.00     0.002 A 
ATOM      7  C8  UNL d   1      -0.114  -0.765  -0.564  0.00  0.00     0.006 A 
ENDROOT
BRANCH   1   8
ATOM      8  C1  UNL d   1       0.112  -2.222  -2.611  0.00  0.00     0.054 C 
ATOM      9  C   UNL d   1       1.305  -3.067  -3.035  0.00  0.00     0.018 C 
ENDBRANCH   1   8
TORSDOF 1
ENDMDL
