MODEL 1
REMARK minimizedAffinity -3.08972025
REMARK minimizedRMSD -1
REMARK  0 active torsions:
REMARK  status: ('A' for Active; 'I' for Inactive)
ROOT
ATOM      1  C   UNL d   1       0.438   0.174   0.414  0.00  0.00     0.172 C 
ATOM      2  N   UNL d   1      -0.837  -0.497   0.511  0.00  0.00    -0.070 N 
ATOM      3  C1  UNL d   1      -1.024  -1.808   0.856  0.00  0.00    -0.004 A 
ATOM      4  C2  UNL d   1      -2.379  -2.061   0.834  0.00  0.00    -0.047 A 
ATOM      5  C3  UNL d   1      -3.028  -0.860   0.461  0.00  0.00    -0.047 A 
ATOM      6  C4  UNL d   1      -2.050   0.092   0.267  0.00  0.00    -0.004 A 
ENDROOT
TORSDOF 0
ENDMDL
