MODEL 1
REMARK minimizedAffinity -2.73750329
REMARK minimizedRMSD -1
REMARK  0 active torsions:
REMARK  status: ('A' for Active; 'I' for Inactive)
ROOT
ATOM      1  C   UNL d   1       0.918   0.014  -0.171  0.00  0.00     0.172 C 
ATOM      2  N   UNL d   1      -0.512  -0.174  -0.221  0.00  0.00    -0.070 N 
ATOM      3  C1  UNL d   1      -1.411   0.283   0.705  0.00  0.00    -0.004 A 
ATOM      4  C2  UNL d   1      -2.670  -0.100   0.297  0.00  0.00    -0.047 A 
ATOM      5  C3  UNL d   1      -2.523  -0.814  -0.917  0.00  0.00    -0.047 A 
ATOM      6  C4  UNL d   1      -1.177  -0.845  -1.214  0.00  0.00    -0.004 A 
ENDROOT
TORSDOF 0
ENDMDL
