MODEL 1
REMARK minimizedAffinity -3.83318615
REMARK minimizedRMSD -1
REMARK  0 active torsions:
REMARK  status: ('A' for Active; 'I' for Inactive)
ROOT
ATOM      1  C   UNL d   1       0.486  -0.216  -0.007  0.00  0.00     0.172 C 
ATOM      2  N   UNL d   1      -0.903  -0.608   0.029  0.00  0.00    -0.070 N 
ATOM      3  C1  UNL d   1      -1.886  -0.143  -0.803  0.00  0.00    -0.004 A 
ATOM      4  C2  UNL d   1      -3.066  -0.758  -0.447  0.00  0.00    -0.047 A 
ATOM      5  C3  UNL d   1      -2.783  -1.623   0.637  0.00  0.00    -0.047 A 
ATOM      6  C4  UNL d   1      -1.437  -1.510   0.911  0.00  0.00    -0.004 A 
ENDROOT
TORSDOF 0
ENDMDL
