MODEL 1
REMARK minimizedAffinity 0.652483881
REMARK minimizedRMSD -1
REMARK  0 active torsions:
REMARK  status: ('A' for Active; 'I' for Inactive)
ROOT
ATOM      1  C   UNL d   1      -0.281   0.338  -1.461  0.00  0.00     0.172 C 
ATOM      2  N   UNL d   1      -1.301  -0.483  -0.852  0.00  0.00    -0.070 N 
ATOM      3  C1  UNL d   1      -2.231  -1.231  -1.524  0.00  0.00    -0.004 A 
ATOM      4  C2  UNL d   1      -3.019  -1.866  -0.588  0.00  0.00    -0.047 A 
ATOM      5  C3  UNL d   1      -2.546  -1.486   0.691  0.00  0.00    -0.047 A 
ATOM      6  C4  UNL d   1      -1.483  -0.630   0.498  0.00  0.00    -0.004 A 
ENDROOT
TORSDOF 0
ENDMDL
