MODEL 1
REMARK minimizedAffinity -2.65034652
REMARK minimizedRMSD -1
REMARK  0 active torsions:
REMARK  status: ('A' for Active; 'I' for Inactive)
ROOT
ATOM      1  C   UNL d   1       1.618   0.217   0.609  0.00  0.00     0.172 C 
ATOM      2  N   UNL d   1       0.287  -0.035   0.108  0.00  0.00    -0.070 N 
ATOM      3  C1  UNL d   1      -0.724  -0.645   0.802  0.00  0.00    -0.004 A 
ATOM      4  C2  UNL d   1      -1.829  -0.695  -0.021  0.00  0.00    -0.047 A 
ATOM      5  C3  UNL d   1      -1.469  -0.095  -1.251  0.00  0.00    -0.047 A 
ATOM      6  C4  UNL d   1      -0.154   0.304  -1.144  0.00  0.00    -0.004 A 
ENDROOT
TORSDOF 0
ENDMDL
