MODEL 1
REMARK minimizedAffinity -2.43405318
REMARK minimizedRMSD -1
REMARK  0 active torsions:
REMARK  status: ('A' for Active; 'I' for Inactive)
ROOT
ATOM      1  C   UNL d   1      -2.701  -0.959  -0.511  0.00  0.00     0.172 C 
ATOM      2  N   UNL d   1      -1.310  -0.658  -0.267  0.00  0.00    -0.070 N 
ATOM      3  C1  UNL d   1      -0.555  -1.150   0.764  0.00  0.00    -0.004 A 
ATOM      4  C2  UNL d   1       0.714  -0.627   0.646  0.00  0.00    -0.047 A 
ATOM      5  C3  UNL d   1       0.723   0.210  -0.495  0.00  0.00    -0.047 A 
ATOM      6  C4  UNL d   1      -0.543   0.173  -1.041  0.00  0.00    -0.004 A 
ENDROOT
TORSDOF 0
ENDMDL
