MODEL 1
REMARK minimizedAffinity -2.57181787
REMARK minimizedRMSD -1
REMARK  0 active torsions:
REMARK  status: ('A' for Active; 'I' for Inactive)
ROOT
ATOM      1  C   UNL d   1       0.641   0.310  -0.080  0.00  0.00     0.172 C 
ATOM      2  N   UNL d   1      -0.697  -0.177  -0.322  0.00  0.00    -0.070 N 
ATOM      3  C1  UNL d   1      -1.317  -1.183   0.370  0.00  0.00    -0.004 A 
ATOM      4  C2  UNL d   1      -2.578  -1.346  -0.163  0.00  0.00    -0.047 A 
ATOM      5  C3  UNL d   1      -2.719  -0.406  -1.211  0.00  0.00    -0.047 A 
ATOM      6  C4  UNL d   1      -1.540   0.305  -1.288  0.00  0.00    -0.004 A 
ENDROOT
TORSDOF 0
ENDMDL
