MODEL 1
REMARK minimizedAffinity -3.33160901
REMARK minimizedRMSD -1
REMARK  0 active torsions:
REMARK  status: ('A' for Active; 'I' for Inactive)
ROOT
ATOM      1  C   UNL d   1      -1.565  -2.962   1.824  0.00  0.00     0.172 C 
ATOM      2  N   UNL d   1      -1.860  -1.850   0.952  0.00  0.00    -0.070 N 
ATOM      3  C1  UNL d   1      -1.058  -0.758   0.752  0.00  0.00    -0.004 A 
ATOM      4  C2  UNL d   1      -1.691   0.072  -0.147  0.00  0.00    -0.047 A 
ATOM      5  C3  UNL d   1      -2.917  -0.541  -0.499  0.00  0.00    -0.047 A 
ATOM      6  C4  UNL d   1      -2.996  -1.730   0.196  0.00  0.00    -0.004 A 
ENDROOT
TORSDOF 0
ENDMDL
