MODEL 1
REMARK minimizedAffinity -2.81612492
REMARK minimizedRMSD -1
REMARK  0 active torsions:
REMARK  status: ('A' for Active; 'I' for Inactive)
ROOT
ATOM      1  C   UNL d   1      -3.243  -0.527  -1.452  0.00  0.00     0.172 C 
ATOM      2  N   UNL d   1      -1.832  -0.223  -1.401  0.00  0.00    -0.070 N 
ATOM      3  C1  UNL d   1      -0.933  -0.753  -0.514  0.00  0.00    -0.004 A 
ATOM      4  C2  UNL d   1       0.303  -0.212  -0.793  0.00  0.00    -0.047 A 
ATOM      5  C3  UNL d   1       0.142   0.673  -1.885  0.00  0.00    -0.047 A 
ATOM      6  C4  UNL d   1      -1.190   0.647  -2.242  0.00  0.00    -0.004 A 
ENDROOT
TORSDOF 0
ENDMDL
