MODEL 1
REMARK minimizedAffinity -3.77136731
REMARK minimizedRMSD -1
REMARK  0 active torsions:
REMARK  status: ('A' for Active; 'I' for Inactive)
ROOT
ATOM      1  C   UNL d   1      -1.426  -2.708   1.944  0.00  0.00     0.172 C 
ATOM      2  N   UNL d   1      -1.619  -1.735   0.896  0.00  0.00    -0.070 N 
ATOM      3  C1  UNL d   1      -0.734  -0.748   0.550  0.00  0.00    -0.004 A 
ATOM      4  C2  UNL d   1      -1.285  -0.033  -0.492  0.00  0.00    -0.047 A 
ATOM      5  C3  UNL d   1      -2.544  -0.610  -0.782  0.00  0.00    -0.047 A 
ATOM      6  C4  UNL d   1      -2.726  -1.661   0.092  0.00  0.00    -0.004 A 
ENDROOT
TORSDOF 0
ENDMDL
