MODEL 1
REMARK minimizedAffinity -3.9557302
REMARK minimizedRMSD -1
REMARK  0 active torsions:
REMARK  status: ('A' for Active; 'I' for Inactive)
ROOT
ATOM      1  C   UNL d   1       0.014  -0.167   0.008  0.00  0.00     0.172 C 
ATOM      2  N   UNL d   1      -1.066  -1.065   0.343  0.00  0.00    -0.070 N 
ATOM      3  C1  UNL d   1      -2.363  -0.948  -0.082  0.00  0.00    -0.004 A 
ATOM      4  C2  UNL d   1      -3.079  -1.997   0.453  0.00  0.00    -0.047 A 
ATOM      5  C3  UNL d   1      -2.182  -2.771   1.226  0.00  0.00    -0.047 A 
ATOM      6  C4  UNL d   1      -0.943  -2.172   1.140  0.00  0.00    -0.004 A 
ENDROOT
TORSDOF 0
ENDMDL
