MODEL 1
REMARK minimizedAffinity -3.10737395
REMARK minimizedRMSD -1
REMARK  0 active torsions:
REMARK  status: ('A' for Active; 'I' for Inactive)
ROOT
ATOM      1  C   UNL d   1      -0.886   0.319  -0.449  0.00  0.00     0.172 C 
ATOM      2  N   UNL d   1      -1.748  -0.804  -0.168  0.00  0.00    -0.070 N 
ATOM      3  C1  UNL d   1      -2.821  -1.196  -0.924  0.00  0.00    -0.004 A 
ATOM      4  C2  UNL d   1      -3.378  -2.304  -0.323  0.00  0.00    -0.047 A 
ATOM      5  C3  UNL d   1      -2.614  -2.588   0.834  0.00  0.00    -0.047 A 
ATOM      6  C4  UNL d   1      -1.612  -1.644   0.906  0.00  0.00    -0.004 A 
ENDROOT
TORSDOF 0
ENDMDL
