MODEL 1
REMARK minimizedAffinity -4.03037548
REMARK minimizedRMSD -1
REMARK  0 active torsions:
REMARK  status: ('A' for Active; 'I' for Inactive)
ROOT
ATOM      1  C   UNL d   1       0.350   0.122   0.027  0.00  0.00     0.172 C 
ATOM      2  N   UNL d   1      -0.859  -0.660   0.136  0.00  0.00    -0.070 N 
ATOM      3  C1  UNL d   1      -2.005  -0.462  -0.586  0.00  0.00    -0.004 A 
ATOM      4  C2  UNL d   1      -2.923  -1.411  -0.190  0.00  0.00    -0.047 A 
ATOM      5  C3  UNL d   1      -2.306  -2.207   0.804  0.00  0.00    -0.047 A 
ATOM      6  C4  UNL d   1      -1.029  -1.720   0.987  0.00  0.00    -0.004 A 
ENDROOT
TORSDOF 0
ENDMDL
