MODEL 1
REMARK minimizedAffinity -3.17840171
REMARK minimizedRMSD -1
REMARK  0 active torsions:
REMARK  status: ('A' for Active; 'I' for Inactive)
ROOT
ATOM      1  C   UNL d   1       1.039   0.067   0.123  0.00  0.00     0.172 C 
ATOM      2  N   UNL d   1      -0.288  -0.133  -0.413  0.00  0.00    -0.070 N 
ATOM      3  C1  UNL d   1      -0.709   0.240  -1.661  0.00  0.00    -0.004 A 
ATOM      4  C2  UNL d   1      -2.032  -0.125  -1.787  0.00  0.00    -0.047 A 
ATOM      5  C3  UNL d   1      -2.420  -0.737  -0.571  0.00  0.00    -0.047 A 
ATOM      6  C4  UNL d   1      -1.321  -0.728   0.262  0.00  0.00    -0.004 A 
ENDROOT
TORSDOF 0
ENDMDL
