MODEL 1
REMARK minimizedAffinity -3.19173455
REMARK minimizedRMSD -1
REMARK  0 active torsions:
REMARK  status: ('A' for Active; 'I' for Inactive)
ROOT
ATOM      1  C   UNL d   1       0.685   0.737   0.333  0.00  0.00     0.172 C 
ATOM      2  N   UNL d   1      -0.615   0.266  -0.082  0.00  0.00    -0.070 N 
ATOM      3  C1  UNL d   1      -1.595  -0.208   0.749  0.00  0.00    -0.004 A 
ATOM      4  C2  UNL d   1      -2.677  -0.554  -0.031  0.00  0.00    -0.047 A 
ATOM      5  C3  UNL d   1      -2.336  -0.280  -1.376  0.00  0.00    -0.047 A 
ATOM      6  C4  UNL d   1      -1.054   0.227  -1.379  0.00  0.00    -0.004 A 
ENDROOT
TORSDOF 0
ENDMDL
