MODEL 1
REMARK minimizedAffinity -4.38059044
REMARK minimizedRMSD -1
REMARK  0 active torsions:
REMARK  status: ('A' for Active; 'I' for Inactive)
ROOT
ATOM      1  C   UNL d   1      -0.171  -0.174  -0.313  0.00  0.00     0.172 C 
ATOM      2  N   UNL d   1      -1.121  -1.171   0.122  0.00  0.00    -0.070 N 
ATOM      3  C1  UNL d   1      -0.895  -2.125   1.077  0.00  0.00    -0.004 A 
ATOM      4  C2  UNL d   1      -2.043  -2.878   1.202  0.00  0.00    -0.047 A 
ATOM      5  C3  UNL d   1      -2.992  -2.357   0.289  0.00  0.00    -0.047 A 
ATOM      6  C4  UNL d   1      -2.395  -1.302  -0.366  0.00  0.00    -0.004 A 
ENDROOT
TORSDOF 0
ENDMDL
