MODEL 1
REMARK minimizedAffinity -2.70280647
REMARK minimizedRMSD -1
REMARK  0 active torsions:
REMARK  status: ('A' for Active; 'I' for Inactive)
ROOT
ATOM      1  C   UNL d   1      -3.057  -1.306  -0.355  0.00  0.00     0.172 C 
ATOM      2  N   UNL d   1      -1.843  -0.636  -0.758  0.00  0.00    -0.070 N 
ATOM      3  C1  UNL d   1      -0.782  -0.346   0.058  0.00  0.00    -0.004 A 
ATOM      4  C2  UNL d   1       0.173   0.292  -0.703  0.00  0.00    -0.047 A 
ATOM      5  C3  UNL d   1      -0.331   0.389  -2.022  0.00  0.00    -0.047 A 
ATOM      6  C4  UNL d   1      -1.580  -0.193  -2.028  0.00  0.00    -0.004 A 
ENDROOT
TORSDOF 0
ENDMDL
