MODEL 1
REMARK minimizedAffinity 5.24672031
REMARK minimizedRMSD -1
REMARK  2 active torsions:
REMARK  status: ('A' for Active; 'I' for Inactive)
REMARK    1  A    between atoms: C1_2  and  C2_3 
REMARK    2  A    between atoms: C2_3  and  C3_4 
ROOT
ATOM      1  C3  UNL d   1       0.132   3.576  -0.728  0.00  0.00    -0.075 A 
ATOM      2  C4  UNL d   1      -0.732   3.607  -1.833  0.00  0.00     0.002 A 
ATOM      3  C5  UNL d   1      -0.721   4.691  -2.711  0.00  0.00     0.002 A 
ATOM      4  C6  UNL d   1       0.144   5.761  -2.490  0.00  0.00    -0.004 A 
ATOM      5  C7  UNL d   1       0.995   5.748  -1.387  0.00  0.00     0.002 A 
ATOM      6  C8  UNL d   1       0.989   4.663  -0.509  0.00  0.00     0.002 A 
ENDROOT
BRANCH   1   7
ATOM      7  C2  UNL d   1       0.145   2.392   0.209  0.00  0.00     0.056 C 
BRANCH   7   8
ATOM      8  C1  UNL d   1       0.798   2.677   1.565  0.00  0.00     0.007 C 
ATOM      9  C   UNL d   1      -0.027   2.180   2.745  0.00  0.00     0.009 C 
ENDBRANCH   7   8
ENDBRANCH   1   7
TORSDOF 2
ENDMDL
