MODEL 1
REMARK minimizedAffinity 5.01740646
REMARK minimizedRMSD -1
REMARK  2 active torsions:
REMARK  status: ('A' for Active; 'I' for Inactive)
REMARK    1  A    between atoms: C1_2  and  C2_3 
REMARK    2  A    between atoms: C2_3  and  C3_4 
ROOT
ATOM      1  C3  UNL d   1      -4.465   2.692  -3.572  0.00  0.00    -0.075 A 
ATOM      2  C4  UNL d   1      -4.032   3.099  -4.843  0.00  0.00     0.002 A 
ATOM      3  C5  UNL d   1      -4.589   2.540  -5.993  0.00  0.00     0.002 A 
ATOM      4  C6  UNL d   1      -5.574   1.561  -5.889  0.00  0.00    -0.004 A 
ATOM      5  C7  UNL d   1      -6.000   1.137  -4.632  0.00  0.00     0.002 A 
ATOM      6  C8  UNL d   1      -5.448   1.698  -3.479  0.00  0.00     0.002 A 
ENDROOT
BRANCH   1   7
ATOM      7  C2  UNL d   1      -3.888   3.315  -2.323  0.00  0.00     0.056 C 
BRANCH   7   8
ATOM      8  C1  UNL d   1      -2.610   4.126  -2.564  0.00  0.00     0.007 C 
ATOM      9  C   UNL d   1      -1.510   3.827  -1.554  0.00  0.00     0.009 C 
ENDBRANCH   7   8
ENDBRANCH   1   7
TORSDOF 2
ENDMDL
