MODEL 1
REMARK minimizedAffinity 2.4762013
REMARK minimizedRMSD -1
REMARK  2 active torsions:
REMARK  status: ('A' for Active; 'I' for Inactive)
REMARK    1  A    between atoms: C1_2  and  C2_3 
REMARK    2  A    between atoms: C2_3  and  C3_4 
ROOT
ATOM      1  C3  UNL d   1      -1.387   4.822   0.091  0.00  0.00    -0.075 A 
ATOM      2  C4  UNL d   1      -1.406   4.845  -1.311  0.00  0.00     0.002 A 
ATOM      3  C5  UNL d   1      -0.954   3.747  -2.044  0.00  0.00     0.002 A 
ATOM      4  C6  UNL d   1      -0.468   2.619  -1.386  0.00  0.00    -0.004 A 
ATOM      5  C7  UNL d   1      -0.430   2.592   0.006  0.00  0.00     0.002 A 
ATOM      6  C8  UNL d   1      -0.886   3.687   0.742  0.00  0.00     0.002 A 
ENDROOT
BRANCH   1   7
ATOM      7  C2  UNL d   1      -1.902   5.995   0.890  0.00  0.00     0.056 C 
BRANCH   7   8
ATOM      8  C1  UNL d   1      -3.060   5.648   1.832  0.00  0.00     0.007 C 
ATOM      9  C   UNL d   1      -2.776   5.995   3.287  0.00  0.00     0.009 C 
ENDBRANCH   7   8
ENDBRANCH   1   7
TORSDOF 2
ENDMDL
