MODEL 1
REMARK minimizedAffinity 11.2614079
REMARK minimizedRMSD -1
REMARK  2 active torsions:
REMARK  status: ('A' for Active; 'I' for Inactive)
REMARK    1  A    between atoms: C1_2  and  C2_3 
REMARK    2  A    between atoms: C2_3  and  C3_4 
ROOT
ATOM      1  C3  UNL d   1       2.609  -4.871  -0.758  0.00  0.00    -0.075 A 
ATOM      2  C4  UNL d   1       3.198  -3.605  -0.629  0.00  0.00     0.002 A 
ATOM      3  C5  UNL d   1       4.586  -3.471  -0.589  0.00  0.00     0.002 A 
ATOM      4  C6  UNL d   1       5.401  -4.598  -0.667  0.00  0.00    -0.004 A 
ATOM      5  C7  UNL d   1       4.826  -5.862  -0.779  0.00  0.00     0.002 A 
ATOM      6  C8  UNL d   1       3.437  -5.999  -0.824  0.00  0.00     0.002 A 
ENDROOT
BRANCH   1   7
ATOM      7  C2  UNL d   1       1.108  -5.021  -0.832  0.00  0.00     0.056 C 
BRANCH   7   8
ATOM      8  C1  UNL d   1       0.356  -3.695  -0.994  0.00  0.00     0.007 C 
ATOM      9  C   UNL d   1      -0.315  -3.547  -2.353  0.00  0.00     0.009 C 
ENDBRANCH   7   8
ENDBRANCH   1   7
TORSDOF 2
ENDMDL
