MODEL 1
REMARK minimizedAffinity 10.8237305
REMARK minimizedRMSD -1
REMARK  2 active torsions:
REMARK  status: ('A' for Active; 'I' for Inactive)
REMARK    1  A    between atoms: C1_2  and  C2_3 
REMARK    2  A    between atoms: C2_3  and  C3_4 
ROOT
ATOM      1  C3  UNL d   1      -0.377   3.136  -0.293  0.00  0.00    -0.075 A 
ATOM      2  C4  UNL d   1      -1.075   4.241   0.214  0.00  0.00     0.002 A 
ATOM      3  C5  UNL d   1      -1.390   5.320  -0.613  0.00  0.00     0.002 A 
ATOM      4  C6  UNL d   1      -1.004   5.312  -1.952  0.00  0.00    -0.004 A 
ATOM      5  C7  UNL d   1      -0.296   4.226  -2.462  0.00  0.00     0.002 A 
ATOM      6  C8  UNL d   1       0.018   3.144  -1.638  0.00  0.00     0.002 A 
ENDROOT
BRANCH   1   7
ATOM      7  C2  UNL d   1      -0.058   1.952   0.589  0.00  0.00     0.056 C 
BRANCH   7   8
ATOM      8  C1  UNL d   1      -0.787   0.664   0.192  0.00  0.00     0.007 C 
ATOM      9  C   UNL d   1       0.118  -0.352  -0.491  0.00  0.00     0.009 C 
ENDBRANCH   7   8
ENDBRANCH   1   7
TORSDOF 2
ENDMDL
