MODEL 1
REMARK minimizedAffinity 11.9532766
REMARK minimizedRMSD -1
REMARK  2 active torsions:
REMARK  status: ('A' for Active; 'I' for Inactive)
REMARK    1  A    between atoms: C1_2  and  C2_3 
REMARK    2  A    between atoms: C2_3  and  C3_4 
ROOT
ATOM      1  C3  UNL d   1      -0.132   3.595  -0.345  0.00  0.00    -0.075 A 
ATOM      2  C4  UNL d   1       0.184   4.903   0.051  0.00  0.00     0.002 A 
ATOM      3  C5  UNL d   1      -0.345   5.998  -0.634  0.00  0.00     0.002 A 
ATOM      4  C6  UNL d   1      -1.185   5.800  -1.727  0.00  0.00    -0.004 A 
ATOM      5  C7  UNL d   1      -1.492   4.505  -2.140  0.00  0.00     0.002 A 
ATOM      6  C8  UNL d   1      -0.968   3.408  -1.454  0.00  0.00     0.002 A 
ENDROOT
BRANCH   1   7
ATOM      7  C2  UNL d   1       0.413   2.407   0.410  0.00  0.00     0.056 C 
BRANCH   7   8
ATOM      8  C1  UNL d   1      -0.237   2.187   1.780  0.00  0.00     0.007 C 
ATOM      9  C   UNL d   1       0.695   1.528   2.788  0.00  0.00     0.009 C 
ENDBRANCH   7   8
ENDBRANCH   1   7
TORSDOF 2
ENDMDL
