MODEL 1
REMARK minimizedAffinity 5.39392185
REMARK minimizedRMSD -1
REMARK  2 active torsions:
REMARK  status: ('A' for Active; 'I' for Inactive)
REMARK    1  A    between atoms: C1_2  and  C2_3 
REMARK    2  A    between atoms: C2_3  and  C3_4 
ROOT
ATOM      1  C3  UNL d   1       0.692   2.668   1.750  0.00  0.00    -0.075 A 
ATOM      2  C4  UNL d   1       1.474   3.583   2.470  0.00  0.00     0.002 A 
ATOM      3  C5  UNL d   1       2.406   3.135   3.407  0.00  0.00     0.002 A 
ATOM      4  C6  UNL d   1       2.560   1.771   3.643  0.00  0.00    -0.004 A 
ATOM      5  C7  UNL d   1       1.776   0.854   2.946  0.00  0.00     0.002 A 
ATOM      6  C8  UNL d   1       0.846   1.299   2.005  0.00  0.00     0.002 A 
ENDROOT
BRANCH   1   7
ATOM      7  C2  UNL d   1      -0.298   3.145   0.714  0.00  0.00     0.056 C 
BRANCH   7   8
ATOM      8  C1  UNL d   1       0.286   4.142  -0.293  0.00  0.00     0.007 C 
ATOM      9  C   UNL d   1      -0.582   4.321  -1.532  0.00  0.00     0.009 C 
ENDBRANCH   7   8
ENDBRANCH   1   7
TORSDOF 2
ENDMDL
