MODEL 1
REMARK minimizedAffinity 9.72076225
REMARK minimizedRMSD -1
REMARK  2 active torsions:
REMARK  status: ('A' for Active; 'I' for Inactive)
REMARK    1  A    between atoms: C1_2  and  C2_3 
REMARK    2  A    between atoms: C2_3  and  C3_4 
ROOT
ATOM      1  C3  UNL d   1       0.162   3.925  -0.337  0.00  0.00    -0.075 A 
ATOM      2  C4  UNL d   1      -0.354   3.580  -1.595  0.00  0.00     0.002 A 
ATOM      3  C5  UNL d   1      -1.220   4.444  -2.267  0.00  0.00     0.002 A 
ATOM      4  C6  UNL d   1      -1.589   5.655  -1.686  0.00  0.00    -0.004 A 
ATOM      5  C7  UNL d   1      -1.096   6.000  -0.429  0.00  0.00     0.002 A 
ATOM      6  C8  UNL d   1      -0.226   5.140   0.243  0.00  0.00     0.002 A 
ENDROOT
BRANCH   1   7
ATOM      7  C2  UNL d   1       1.123   3.008   0.381  0.00  0.00     0.056 C 
BRANCH   7   8
ATOM      8  C1  UNL d   1       0.531   2.335   1.624  0.00  0.00     0.007 C 
ATOM      9  C   UNL d   1       1.581   1.967   2.664  0.00  0.00     0.009 C 
ENDBRANCH   7   8
ENDBRANCH   1   7
TORSDOF 2
ENDMDL
