MODEL 1
REMARK minimizedAffinity 3.29729438
REMARK minimizedRMSD -1
REMARK  2 active torsions:
REMARK  status: ('A' for Active; 'I' for Inactive)
REMARK    1  A    between atoms: C1_2  and  C2_3 
REMARK    2  A    between atoms: C2_3  and  C3_4 
ROOT
ATOM      1  C3  UNL d   1       0.142   4.223  -1.914  0.00  0.00    -0.075 A 
ATOM      2  C4  UNL d   1      -1.095   4.611  -1.379  0.00  0.00     0.002 A 
ATOM      3  C5  UNL d   1      -1.318   4.559  -0.003  0.00  0.00     0.002 A 
ATOM      4  C6  UNL d   1      -0.315   4.110   0.853  0.00  0.00    -0.004 A 
ATOM      5  C7  UNL d   1       0.912   3.706   0.330  0.00  0.00     0.002 A 
ATOM      6  C8  UNL d   1       1.140   3.761  -1.046  0.00  0.00     0.002 A 
ENDROOT
BRANCH   1   7
ATOM      7  C2  UNL d   1       0.401   4.305  -3.400  0.00  0.00     0.056 C 
BRANCH   7   8
ATOM      8  C1  UNL d   1       1.005   5.638  -3.855  0.00  0.00     0.007 C 
ATOM      9  C   UNL d   1       0.669   5.987  -5.299  0.00  0.00     0.009 C 
ENDBRANCH   7   8
ENDBRANCH   1   7
TORSDOF 2
ENDMDL
