MODEL 1
REMARK minimizedAffinity 7.53081322
REMARK minimizedRMSD -1
REMARK  0 active torsions:
REMARK  status: ('A' for Active; 'I' for Inactive)
ROOT
ATOM      1  C   UNL d   1      -2.286   5.107  -3.487  0.00  0.00     0.077 C 
ATOM      2  C1  UNL d   1      -3.584   4.599  -4.041  0.00  0.00    -0.074 A 
ATOM      3  C2  UNL d   1      -4.211   5.245  -5.111  0.00  0.00    -0.005 A 
ATOM      4  C3  UNL d   1      -5.413   4.756  -5.622  0.00  0.00     0.006 A 
ATOM      5  C4  UNL d   1      -6.000   3.617  -5.069  0.00  0.00    -0.005 A 
ATOM      6  C5  UNL d   1      -5.388   2.958  -3.998  0.00  0.00    -0.074 A 
ATOM      7  C6  UNL d   1      -6.000   1.727  -3.398  0.00  0.00     0.077 C 
ATOM      8  C7  UNL d   1      -4.176   3.452  -3.495  0.00  0.00    -0.001 A 
ENDROOT
TORSDOF 0
ENDMDL
