MODEL 1
REMARK minimizedAffinity 6.93205404
REMARK minimizedRMSD -1
REMARK  0 active torsions:
REMARK  status: ('A' for Active; 'I' for Inactive)
ROOT
ATOM      1  C   UNL d   1       2.635   6.000  -1.499  0.00  0.00     0.077 C 
ATOM      2  C1  UNL d   1       1.572   5.183  -0.826  0.00  0.00    -0.074 A 
ATOM      3  C2  UNL d   1       0.241   5.612  -0.805  0.00  0.00    -0.005 A 
ATOM      4  C3  UNL d   1      -0.738   4.837  -0.183  0.00  0.00     0.006 A 
ATOM      5  C4  UNL d   1      -0.397   3.627   0.422  0.00  0.00    -0.005 A 
ATOM      6  C5  UNL d   1       0.929   3.182   0.411  0.00  0.00    -0.074 A 
ATOM      7  C6  UNL d   1       1.311   1.879   1.049  0.00  0.00     0.077 C 
ATOM      8  C7  UNL d   1       1.906   3.963  -0.222  0.00  0.00    -0.001 A 
ENDROOT
TORSDOF 0
ENDMDL
