MODEL 1
REMARK minimizedAffinity 1.9180851
REMARK minimizedRMSD -1
REMARK  0 active torsions:
REMARK  status: ('A' for Active; 'I' for Inactive)
ROOT
ATOM      1  C   UNL d   1       0.585   2.501   0.413  0.00  0.00     0.077 C 
ATOM      2  C1  UNL d   1       0.903   1.097  -0.008  0.00  0.00    -0.074 A 
ATOM      3  C2  UNL d   1       1.500   0.197   0.881  0.00  0.00    -0.005 A 
ATOM      4  C3  UNL d   1       1.781  -1.108   0.478  0.00  0.00     0.006 A 
ATOM      5  C4  UNL d   1       1.469  -1.526  -0.816  0.00  0.00    -0.005 A 
ATOM      6  C5  UNL d   1       0.871  -0.641  -1.719  0.00  0.00    -0.074 A 
ATOM      7  C6  UNL d   1       0.520  -1.077  -3.110  0.00  0.00     0.077 C 
ATOM      8  C7  UNL d   1       0.585   0.667  -1.304  0.00  0.00    -0.001 A 
ENDROOT
TORSDOF 0
ENDMDL
