MODEL 1
REMARK minimizedAffinity 9.96625042
REMARK minimizedRMSD -1
REMARK  0 active torsions:
REMARK  status: ('A' for Active; 'I' for Inactive)
ROOT
ATOM      1  C   UNL d   1       4.883  -5.623   1.109  0.00  0.00     0.077 C 
ATOM      2  C1  UNL d   1       4.891  -4.311   0.383  0.00  0.00    -0.074 A 
ATOM      3  C2  UNL d   1       6.000  -3.914  -0.372  0.00  0.00    -0.005 A 
ATOM      4  C3  UNL d   1       5.989  -2.695  -1.050  0.00  0.00     0.006 A 
ATOM      5  C4  UNL d   1       4.872  -1.862  -0.980  0.00  0.00    -0.005 A 
ATOM      6  C5  UNL d   1       3.753  -2.243  -0.232  0.00  0.00    -0.074 A 
ATOM      7  C6  UNL d   1       2.540  -1.364  -0.155  0.00  0.00     0.077 C 
ATOM      8  C7  UNL d   1       3.769  -3.472   0.441  0.00  0.00    -0.001 A 
ENDROOT
TORSDOF 0
ENDMDL
