MODEL 1
REMARK minimizedAffinity 3.3639431
REMARK minimizedRMSD -1
REMARK  0 active torsions:
REMARK  status: ('A' for Active; 'I' for Inactive)
ROOT
ATOM      1  C   UNL d   1       5.184  -6.000   0.569  0.00  0.00     0.077 C 
ATOM      2  C1  UNL d   1       5.178  -5.178  -0.685  0.00  0.00    -0.074 A 
ATOM      3  C2  UNL d   1       5.628  -3.854  -0.680  0.00  0.00    -0.005 A 
ATOM      4  C3  UNL d   1       5.625  -3.105  -1.856  0.00  0.00     0.006 A 
ATOM      5  C4  UNL d   1       5.173  -3.672  -3.049  0.00  0.00    -0.005 A 
ATOM      6  C5  UNL d   1       4.721  -4.995  -3.074  0.00  0.00    -0.074 A 
ATOM      7  C6  UNL d   1       4.241  -5.623  -4.349  0.00  0.00     0.077 C 
ATOM      8  C7  UNL d   1       4.733  -5.743  -1.889  0.00  0.00    -0.001 A 
ENDROOT
TORSDOF 0
ENDMDL
