MODEL 1
REMARK minimizedAffinity 6.40052176
REMARK minimizedRMSD -1
REMARK  0 active torsions:
REMARK  status: ('A' for Active; 'I' for Inactive)
ROOT
ATOM      1  C   UNL d   1       0.298   2.292   0.512  0.00  0.00     0.077 C 
ATOM      2  C1  UNL d   1       1.098   3.546   0.313  0.00  0.00    -0.074 A 
ATOM      3  C2  UNL d   1       1.850   4.092   1.358  0.00  0.00    -0.005 A 
ATOM      4  C3  UNL d   1       2.596   5.252   1.155  0.00  0.00     0.006 A 
ATOM      5  C4  UNL d   1       2.598   5.878  -0.093  0.00  0.00    -0.005 A 
ATOM      6  C5  UNL d   1       1.853   5.346  -1.150  0.00  0.00    -0.074 A 
ATOM      7  C6  UNL d   1       1.851   6.000  -2.499  0.00  0.00     0.077 C 
ATOM      8  C7  UNL d   1       1.111   4.175  -0.940  0.00  0.00    -0.001 A 
ENDROOT
TORSDOF 0
ENDMDL
