MODEL 1
REMARK minimizedAffinity 1.04123151
REMARK minimizedRMSD -1
REMARK  0 active torsions:
REMARK  status: ('A' for Active; 'I' for Inactive)
ROOT
ATOM      1  C1  BNZ d   1      -5.890   2.990  -3.658  0.00  0.00     0.000 A 
ATOM      2  C2  BNZ d   1      -5.983   1.634  -3.486  0.00  0.00     0.000 A 
ATOM      3  C3  BNZ d   1      -6.000   0.792  -4.562  0.00  0.00     0.000 A 
ATOM      4  C4  BNZ d   1      -5.965   1.307  -5.808  0.00  0.00     0.000 A 
ATOM      5  C5  BNZ d   1      -5.880   2.671  -5.998  0.00  0.00     0.000 A 
ATOM      6  C6  BNZ d   1      -5.824   3.514  -4.912  0.00  0.00     0.000 A 
ENDROOT
TORSDOF 0
ENDMDL
