MODEL 1
REMARK minimizedAffinity 9.06009197
REMARK minimizedRMSD -1
REMARK  0 active torsions:
REMARK  status: ('A' for Active; 'I' for Inactive)
ROOT
ATOM      1  C1  BNZ d   1       1.622  -4.841   3.671  0.00  0.00     0.000 A 
ATOM      2  C2  BNZ d   1       1.498  -5.987   4.411  0.00  0.00     0.000 A 
ATOM      3  C3  BNZ d   1       0.766  -5.999   5.566  0.00  0.00     0.000 A 
ATOM      4  C4  BNZ d   1       0.194  -4.857   6.000  0.00  0.00     0.000 A 
ATOM      5  C5  BNZ d   1       0.318  -3.691   5.270  0.00  0.00     0.000 A 
ATOM      6  C6  BNZ d   1       1.023  -3.692   4.088  0.00  0.00     0.000 A 
ENDROOT
TORSDOF 0
ENDMDL
