MODEL 1
REMARK minimizedAffinity 10.8405609
REMARK minimizedRMSD -1
REMARK  0 active torsions:
REMARK  status: ('A' for Active; 'I' for Inactive)
ROOT
ATOM      1  C1  BNZ d   1      -5.291   3.426   2.022  0.00  0.00     0.000 A 
ATOM      2  C2  BNZ d   1      -5.350   3.983   0.772  0.00  0.00     0.000 A 
ATOM      3  C3  BNZ d   1      -4.280   3.916  -0.075  0.00  0.00     0.000 A 
ATOM      4  C4  BNZ d   1      -3.140   3.328   0.341  0.00  0.00     0.000 A 
ATOM      5  C5  BNZ d   1      -3.061   2.770   1.602  0.00  0.00     0.000 A 
ATOM      6  C6  BNZ d   1      -4.153   2.805   2.438  0.00  0.00     0.000 A 
ENDROOT
TORSDOF 0
ENDMDL
