MODEL 1
REMARK minimizedAffinity 1.33598912
REMARK minimizedRMSD -1
REMARK  0 active torsions:
REMARK  status: ('A' for Active; 'I' for Inactive)
ROOT
ATOM      1  C1  BNZ d   1       3.716  -2.169   4.953  0.00  0.00     0.000 A 
ATOM      2  C2  BNZ d   1       3.810  -1.485   3.771  0.00  0.00     0.000 A 
ATOM      3  C3  BNZ d   1       2.691  -1.170   3.053  0.00  0.00     0.000 A 
ATOM      4  C4  BNZ d   1       1.483  -1.575   3.496  0.00  0.00     0.000 A 
ATOM      5  C5  BNZ d   1       1.372  -2.274   4.682  0.00  0.00     0.000 A 
ATOM      6  C6  BNZ d   1       2.498  -2.555   5.422  0.00  0.00     0.000 A 
ENDROOT
TORSDOF 0
ENDMDL
