MODEL 1
REMARK minimizedAffinity 5.52752161
REMARK minimizedRMSD -1
REMARK  0 active torsions:
REMARK  status: ('A' for Active; 'I' for Inactive)
ROOT
ATOM      1  C1  BNZ d   1       3.041  -3.611   4.405  0.00  0.00     0.000 A 
ATOM      2  C2  BNZ d   1       2.142  -2.885   3.669  0.00  0.00     0.000 A 
ATOM      3  C3  BNZ d   1       2.297  -1.537   3.507  0.00  0.00     0.000 A 
ATOM      4  C4  BNZ d   1       3.325  -0.910   4.113  0.00  0.00     0.000 A 
ATOM      5  C5  BNZ d   1       4.235  -1.625   4.866  0.00  0.00     0.000 A 
ATOM      6  C6  BNZ d   1       4.098  -2.989   4.995  0.00  0.00     0.000 A 
ENDROOT
TORSDOF 0
ENDMDL
