MODEL 1
REMARK minimizedAffinity 0.882943332
REMARK minimizedRMSD -1
REMARK  0 active torsions:
REMARK  status: ('A' for Active; 'I' for Inactive)
ROOT
ATOM      1  C1  BNZ d   1       1.927  -2.555   4.881  0.00  0.00     0.000 A 
ATOM      2  C2  BNZ d   1       2.638  -2.910   5.996  0.00  0.00     0.000 A 
ATOM      3  C3  BNZ d   1       4.004  -2.870   5.998  0.00  0.00     0.000 A 
ATOM      4  C4  BNZ d   1       4.658  -2.514   4.874  0.00  0.00     0.000 A 
ATOM      5  C5  BNZ d   1       3.956  -2.163   3.738  0.00  0.00     0.000 A 
ATOM      6  C6  BNZ d   1       2.580  -2.167   3.752  0.00  0.00     0.000 A 
ENDROOT
TORSDOF 0
ENDMDL
