MODEL 1
REMARK minimizedAffinity 6.18161297
REMARK minimizedRMSD -1
REMARK  0 active torsions:
REMARK  status: ('A' for Active; 'I' for Inactive)
ROOT
ATOM      1  C1  BNZ d   1       2.325  -5.259  -4.824  0.00  0.00     0.000 A 
ATOM      2  C2  BNZ d   1       2.926  -5.691  -5.976  0.00  0.00     0.000 A 
ATOM      3  C3  BNZ d   1       4.258  -5.998  -5.997  0.00  0.00     0.000 A 
ATOM      4  C4  BNZ d   1       4.994  -5.835  -4.879  0.00  0.00     0.000 A 
ATOM      5  C5  BNZ d   1       4.404  -5.391  -3.713  0.00  0.00     0.000 A 
ATOM      6  C6  BNZ d   1       3.056  -5.120  -3.685  0.00  0.00     0.000 A 
ENDROOT
TORSDOF 0
ENDMDL
