MODEL 1
REMARK minimizedAffinity 4.15857697
REMARK minimizedRMSD -1
REMARK  0 active torsions:
REMARK  status: ('A' for Active; 'I' for Inactive)
ROOT
ATOM      1  C1  BNZ d   1      -3.621   3.004   1.735  0.00  0.00     0.000 A 
ATOM      2  C2  BNZ d   1      -4.809   2.556   2.248  0.00  0.00     0.000 A 
ATOM      3  C3  BNZ d   1      -6.000   3.037   1.779  0.00  0.00     0.000 A 
ATOM      4  C4  BNZ d   1      -6.000   3.993   0.828  0.00  0.00     0.000 A 
ATOM      5  C5  BNZ d   1      -4.810   4.461   0.307  0.00  0.00     0.000 A 
ATOM      6  C6  BNZ d   1      -3.615   3.947   0.754  0.00  0.00     0.000 A 
ENDROOT
TORSDOF 0
ENDMDL
