MODEL 1
REMARK minimizedAffinity 4.89329958
REMARK minimizedRMSD -1
REMARK  0 active torsions:
REMARK  status: ('A' for Active; 'I' for Inactive)
ROOT
ATOM      1  C1  BNZ d   1       4.511  -5.984  -4.160  0.00  0.00     0.000 A 
ATOM      2  C2  BNZ d   1       4.819  -5.979  -2.825  0.00  0.00     0.000 A 
ATOM      3  C3  BNZ d   1       3.833  -5.999  -1.880  0.00  0.00     0.000 A 
ATOM      4  C4  BNZ d   1       2.541  -5.985  -2.268  0.00  0.00     0.000 A 
ATOM      5  C5  BNZ d   1       2.215  -5.981  -3.610  0.00  0.00     0.000 A 
ATOM      6  C6  BNZ d   1       3.211  -6.000  -4.559  0.00  0.00     0.000 A 
ENDROOT
TORSDOF 0
ENDMDL
