MODEL 1
REMARK minimizedAffinity 0.00116479106
REMARK minimizedRMSD -1
REMARK  0 active torsions:
REMARK  status: ('A' for Active; 'I' for Inactive)
ROOT
ATOM      1  C1  BNZ d   1       1.987  -1.850   4.164  0.00  0.00     0.000 A 
ATOM      2  C2  BNZ d   1       2.382  -3.159   4.244  0.00  0.00     0.000 A 
ATOM      3  C3  BNZ d   1       2.868  -3.811   3.145  0.00  0.00     0.000 A 
ATOM      4  C4  BNZ d   1       2.922  -3.167   1.962  0.00  0.00     0.000 A 
ATOM      5  C5  BNZ d   1       2.518  -1.851   1.863  0.00  0.00     0.000 A 
ATOM      6  C6  BNZ d   1       2.066  -1.185   2.979  0.00  0.00     0.000 A 
ENDROOT
TORSDOF 0
ENDMDL
