MODEL 1
REMARK minimizedAffinity 10.8207741
REMARK minimizedRMSD -1
REMARK  0 active torsions:
REMARK  status: ('A' for Active; 'I' for Inactive)
ROOT
ATOM      1  C   UNL d   1       0.170  -3.335  -3.027  0.00  0.00     0.124 A 
ATOM      2  C1  UNL d   1      -0.734  -3.444  -1.979  0.00  0.00     0.062 A 
ATOM      3  C2  UNL d   1      -0.551  -2.700  -0.817  0.00  0.00     0.162 A 
ATOM      4  C3  UNL d   1       0.540  -1.839  -0.696  0.00  0.00    -0.034 A 
ATOM      5  C4  UNL d   1       1.445  -1.736  -1.754  0.00  0.00     0.162 A 
ATOM      6  C5  UNL d   1       1.258  -2.481  -2.913  0.00  0.00     0.062 A 
ATOM      7  F   UNL d   1       2.132  -2.375  -3.925  0.00  0.00    -0.097 F 
ATOM      8  F1  UNL d   1       2.505  -0.918  -1.671  0.00  0.00    -0.096 F 
ATOM      9  I   UNL d   1       0.817  -0.726   1.040  0.00  0.00    -0.060 I 
ATOM     10  F2  UNL d   1      -1.440  -2.825   0.180  0.00  0.00    -0.096 F 
ATOM     11  F3  UNL d   1      -1.786  -4.268  -2.086  0.00  0.00    -0.097 F 
ATOM     12  F4  UNL d   1      -0.008  -4.052  -4.143  0.00  0.00    -0.092 F 
ENDROOT
TORSDOF 0
ENDMDL
