MODEL 1
REMARK minimizedAffinity 27.8857765
REMARK minimizedRMSD -1
REMARK  0 active torsions:
REMARK  status: ('A' for Active; 'I' for Inactive)
ROOT
ATOM      1  C   UNL d   1      -4.653  -4.488   0.675  0.00  0.00     0.124 A 
ATOM      2  C1  UNL d   1      -3.447  -5.157   0.836  0.00  0.00     0.062 A 
ATOM      3  C2  UNL d   1      -2.409  -4.956  -0.070  0.00  0.00     0.162 A 
ATOM      4  C3  UNL d   1      -2.573  -4.082  -1.145  0.00  0.00    -0.034 A 
ATOM      5  C4  UNL d   1      -3.789  -3.414  -1.300  0.00  0.00     0.162 A 
ATOM      6  C5  UNL d   1      -4.822  -3.618  -0.392  0.00  0.00     0.062 A 
ATOM      7  F   UNL d   1      -5.987  -2.971  -0.548  0.00  0.00    -0.097 F 
ATOM      8  F1  UNL d   1      -3.979  -2.566  -2.322  0.00  0.00    -0.096 F 
ATOM      9  I   UNL d   1      -1.024  -3.779  -2.502  0.00  0.00    -0.060 I 
ATOM     10  F2  UNL d   1      -1.255  -5.615   0.109  0.00  0.00    -0.096 F 
ATOM     11  F3  UNL d   1      -3.281  -5.999   1.865  0.00  0.00    -0.097 F 
ATOM     12  F4  UNL d   1      -5.649  -4.684   1.548  0.00  0.00    -0.092 F 
ENDROOT
TORSDOF 0
ENDMDL
