MODEL 1
REMARK minimizedAffinity 26.5587711
REMARK minimizedRMSD -1
REMARK  0 active torsions:
REMARK  status: ('A' for Active; 'I' for Inactive)
ROOT
ATOM      1  C   UNL d   1       1.739   0.949  -1.907  0.00  0.00     0.124 A 
ATOM      2  C1  UNL d   1       1.746   0.319  -3.143  0.00  0.00     0.062 A 
ATOM      3  C2  UNL d   1       1.753   1.073  -4.313  0.00  0.00     0.162 A 
ATOM      4  C3  UNL d   1       1.754   2.467  -4.252  0.00  0.00    -0.034 A 
ATOM      5  C4  UNL d   1       1.746   3.093  -3.005  0.00  0.00     0.162 A 
ATOM      6  C5  UNL d   1       1.739   2.335  -1.839  0.00  0.00     0.062 A 
ATOM      7  F   UNL d   1       1.733   2.946  -0.645  0.00  0.00    -0.097 F 
ATOM      8  F1  UNL d   1       1.747   4.431  -2.910  0.00  0.00    -0.096 F 
ATOM      9  I   UNL d   1       1.765   3.598  -5.999  0.00  0.00    -0.060 I 
ATOM     10  F2  UNL d   1       1.760   0.437  -5.494  0.00  0.00    -0.096 F 
ATOM     11  F3  UNL d   1       1.745  -1.020  -3.212  0.00  0.00    -0.097 F 
ATOM     12  F4  UNL d   1       1.732   0.221  -0.783  0.00  0.00    -0.092 F 
ENDROOT
TORSDOF 0
ENDMDL
