MODEL 1
REMARK minimizedAffinity 14.5377579
REMARK minimizedRMSD -1
REMARK  0 active torsions:
REMARK  status: ('A' for Active; 'I' for Inactive)
ROOT
ATOM      1  C   UNL d   1       1.833   2.106  -0.361  0.00  0.00     0.124 A 
ATOM      2  C1  UNL d   1       0.970   1.270  -1.056  0.00  0.00     0.062 A 
ATOM      3  C2  UNL d   1      -0.132   0.712  -0.414  0.00  0.00     0.162 A 
ATOM      4  C3  UNL d   1      -0.378   0.988   0.931  0.00  0.00    -0.034 A 
ATOM      5  C4  UNL d   1       0.496   1.828   1.624  0.00  0.00     0.162 A 
ATOM      6  C5  UNL d   1       1.595   2.384   0.978  0.00  0.00     0.062 A 
ATOM      7  F   UNL d   1       2.428   3.190   1.651  0.00  0.00    -0.097 F 
ATOM      8  F1  UNL d   1       0.289   2.114   2.918  0.00  0.00    -0.096 F 
ATOM      9  I   UNL d   1      -2.024   0.155   1.894  0.00  0.00    -0.060 I 
ATOM     10  F2  UNL d   1      -0.950  -0.092  -1.111  0.00  0.00    -0.096 F 
ATOM     11  F3  UNL d   1       1.197   0.999  -2.349  0.00  0.00    -0.097 F 
ATOM     12  F4  UNL d   1       2.893   2.641  -0.980  0.00  0.00    -0.092 F 
ENDROOT
TORSDOF 0
ENDMDL
