MODEL 1
REMARK minimizedAffinity 9.83696461
REMARK minimizedRMSD -1
REMARK  0 active torsions:
REMARK  status: ('A' for Active; 'I' for Inactive)
ROOT
ATOM      1  C   UNL d   1       1.596   2.515   0.287  0.00  0.00     0.124 A 
ATOM      2  C1  UNL d   1       0.786   1.706  -0.497  0.00  0.00     0.062 A 
ATOM      3  C2  UNL d   1      -0.389   1.174   0.026  0.00  0.00     0.162 A 
ATOM      4  C3  UNL d   1      -0.762   1.450   1.341  0.00  0.00    -0.034 A 
ATOM      5  C4  UNL d   1       0.058   2.265   2.124  0.00  0.00     0.162 A 
ATOM      6  C5  UNL d   1       1.231   2.794   1.597  0.00  0.00     0.062 A 
ATOM      7  F   UNL d   1       2.013   3.575   2.356  0.00  0.00    -0.097 F 
ATOM      8  F1  UNL d   1      -0.271   2.551   3.393  0.00  0.00    -0.096 F 
ATOM      9  I   UNL d   1      -2.518   0.657   2.128  0.00  0.00    -0.060 I 
ATOM     10  F2  UNL d   1      -1.152   0.395  -0.755  0.00  0.00    -0.096 F 
ATOM     11  F3  UNL d   1       1.136   1.434  -1.763  0.00  0.00    -0.097 F 
ATOM     12  F4  UNL d   1       2.726   3.025  -0.219  0.00  0.00    -0.092 F 
ENDROOT
TORSDOF 0
ENDMDL
