MODEL 1
REMARK minimizedAffinity 10.1074486
REMARK minimizedRMSD -1
REMARK  0 active torsions:
REMARK  status: ('A' for Active; 'I' for Inactive)
ROOT
ATOM      1  C   UNL d   1      -1.298   2.677  -4.571  0.00  0.00     0.124 A 
ATOM      2  C1  UNL d   1      -2.641   2.348  -4.456  0.00  0.00     0.062 A 
ATOM      3  C2  UNL d   1      -3.620   3.251  -4.862  0.00  0.00     0.162 A 
ATOM      4  C3  UNL d   1      -3.259   4.492  -5.388  0.00  0.00    -0.034 A 
ATOM      5  C4  UNL d   1      -1.905   4.816  -5.499  0.00  0.00     0.162 A 
ATOM      6  C5  UNL d   1      -0.931   3.910  -5.092  0.00  0.00     0.062 A 
ATOM      7  F   UNL d   1       0.366   4.230  -5.203  0.00  0.00    -0.097 F 
ATOM      8  F1  UNL d   1      -1.523   6.000  -6.000  0.00  0.00    -0.096 F 
ATOM      9  I   UNL d   1      -4.719   5.844  -5.996  0.00  0.00    -0.060 I 
ATOM     10  F2  UNL d   1      -4.911   2.907  -4.740  0.00  0.00    -0.096 F 
ATOM     11  F3  UNL d   1      -2.998   1.158  -3.952  0.00  0.00    -0.097 F 
ATOM     12  F4  UNL d   1      -0.358   1.807  -4.178  0.00  0.00    -0.092 F 
ENDROOT
TORSDOF 0
ENDMDL
