MODEL 1
REMARK minimizedAffinity 5.31828165
REMARK minimizedRMSD -1
REMARK  0 active torsions:
REMARK  status: ('A' for Active; 'I' for Inactive)
ROOT
ATOM      1  C   UNL d   1      -2.643   2.923  -5.996  0.00  0.00     0.124 A 
ATOM      2  C1  UNL d   1      -2.197   4.237  -5.994  0.00  0.00     0.062 A 
ATOM      3  C2  UNL d   1      -0.833   4.513  -5.990  0.00  0.00     0.162 A 
ATOM      4  C3  UNL d   1       0.096   3.472  -5.990  0.00  0.00    -0.034 A 
ATOM      5  C4  UNL d   1      -0.361   2.153  -5.991  0.00  0.00     0.162 A 
ATOM      6  C5  UNL d   1      -1.725   1.882  -5.995  0.00  0.00     0.062 A 
ATOM      7  F   UNL d   1      -2.154   0.612  -5.996  0.00  0.00    -0.097 F 
ATOM      8  F1  UNL d   1       0.505   1.128  -5.991  0.00  0.00    -0.096 F 
ATOM      9  I   UNL d   1       2.137   3.881  -5.985  0.00  0.00    -0.060 I 
ATOM     10  F2  UNL d   1      -0.430   5.793  -5.988  0.00  0.00    -0.096 F 
ATOM     11  F3  UNL d   1      -3.082   5.244  -5.994  0.00  0.00    -0.097 F 
ATOM     12  F4  UNL d   1      -3.956   2.660  -5.998  0.00  0.00    -0.092 F 
ENDROOT
TORSDOF 0
ENDMDL
