MODEL 1
REMARK minimizedAffinity 14.8052778
REMARK minimizedRMSD -1
REMARK  0 active torsions:
REMARK  status: ('A' for Active; 'I' for Inactive)
ROOT
ATOM      1  C   UNL d   1       2.725   3.673   0.465  0.00  0.00     0.124 A 
ATOM      2  C1  UNL d   1       1.988   3.023  -0.515  0.00  0.00     0.062 A 
ATOM      3  C2  UNL d   1       0.890   2.243  -0.164  0.00  0.00     0.162 A 
ATOM      4  C3  UNL d   1       0.521   2.110   1.175  0.00  0.00    -0.034 A 
ATOM      5  C4  UNL d   1       1.268   2.766   2.155  0.00  0.00     0.162 A 
ATOM      6  C5  UNL d   1       2.364   3.544   1.799  0.00  0.00     0.062 A 
ATOM      7  F   UNL d   1       3.075   4.171   2.747  0.00  0.00    -0.097 F 
ATOM      8  F1  UNL d   1       0.941   2.659   3.452  0.00  0.00    -0.096 F 
ATOM      9  I   UNL d   1      -1.121   0.945   1.705  0.00  0.00    -0.060 I 
ATOM     10  F2  UNL d   1       0.196   1.627  -1.132  0.00  0.00    -0.096 F 
ATOM     11  F3  UNL d   1       2.335   3.145  -1.805  0.00  0.00    -0.097 F 
ATOM     12  F4  UNL d   1       3.782   4.421   0.124  0.00  0.00    -0.092 F 
ENDROOT
TORSDOF 0
ENDMDL
