MODEL 1
REMARK minimizedAffinity 25.7542439
REMARK minimizedRMSD -1
REMARK  0 active torsions:
REMARK  status: ('A' for Active; 'I' for Inactive)
ROOT
ATOM      1  C   UNL d   1      -1.776  -0.145   1.763  0.00  0.00     0.124 A 
ATOM      2  C1  UNL d   1      -0.617  -0.801   1.374  0.00  0.00     0.062 A 
ATOM      3  C2  UNL d   1       0.390  -0.108   0.707  0.00  0.00     0.162 A 
ATOM      4  C3  UNL d   1       0.242   1.250   0.427  0.00  0.00    -0.034 A 
ATOM      5  C4  UNL d   1      -0.928   1.903   0.820  0.00  0.00     0.162 A 
ATOM      6  C5  UNL d   1      -1.931   1.206   1.486  0.00  0.00     0.062 A 
ATOM      7  F   UNL d   1      -3.050   1.841   1.861  0.00  0.00    -0.097 F 
ATOM      8  F1  UNL d   1      -1.103   3.208   0.566  0.00  0.00    -0.096 F 
ATOM      9  I   UNL d   1       1.744   2.290  -0.570  0.00  0.00    -0.060 I 
ATOM     10  F2  UNL d   1       1.500  -0.768   0.343  0.00  0.00    -0.096 F 
ATOM     11  F3  UNL d   1      -0.466  -2.107   1.640  0.00  0.00    -0.097 F 
ATOM     12  F4  UNL d   1      -2.744  -0.815   2.403  0.00  0.00    -0.092 F 
ENDROOT
TORSDOF 0
ENDMDL
