MODEL 1
REMARK minimizedAffinity 11.6719027
REMARK minimizedRMSD -1
REMARK  0 active torsions:
REMARK  status: ('A' for Active; 'I' for Inactive)
ROOT
ATOM      1  C   UNL d   1      -2.833   4.180  -5.788  0.00  0.00     0.124 A 
ATOM      2  C1  UNL d   1      -3.049   2.810  -5.817  0.00  0.00     0.062 A 
ATOM      3  C2  UNL d   1      -1.970   1.931  -5.851  0.00  0.00     0.162 A 
ATOM      4  C3  UNL d   1      -0.664   2.420  -5.855  0.00  0.00    -0.034 A 
ATOM      5  C4  UNL d   1      -0.454   3.800  -5.826  0.00  0.00     0.162 A 
ATOM      6  C5  UNL d   1      -1.536   4.674  -5.792  0.00  0.00     0.062 A 
ATOM      7  F   UNL d   1      -1.325   5.998  -5.764  0.00  0.00    -0.097 F 
ATOM      8  F1  UNL d   1       0.789   4.304  -5.829  0.00  0.00    -0.096 F 
ATOM      9  I   UNL d   1       0.952   1.110  -5.906  0.00  0.00    -0.060 I 
ATOM     10  F2  UNL d   1      -2.209   0.611  -5.879  0.00  0.00    -0.096 F 
ATOM     11  F3  UNL d   1      -4.301   2.330  -5.813  0.00  0.00    -0.097 F 
ATOM     12  F4  UNL d   1      -3.873   5.024  -5.756  0.00  0.00    -0.092 F 
ENDROOT
TORSDOF 0
ENDMDL
