MODEL 1
REMARK minimizedAffinity 11.2043152
REMARK minimizedRMSD -1
REMARK  0 active torsions:
REMARK  status: ('A' for Active; 'I' for Inactive)
ROOT
ATOM      1  C   UNL d   1       0.537  -3.792  -3.321  0.00  0.00     0.124 A 
ATOM      2  C1  UNL d   1      -0.635  -3.365  -2.711  0.00  0.00     0.062 A 
ATOM      3  C2  UNL d   1      -0.643  -2.199  -1.950  0.00  0.00     0.162 A 
ATOM      4  C3  UNL d   1       0.524  -1.451  -1.796  0.00  0.00    -0.034 A 
ATOM      5  C4  UNL d   1       1.699  -1.888  -2.412  0.00  0.00     0.162 A 
ATOM      6  C5  UNL d   1       1.702  -3.053  -3.171  0.00  0.00     0.062 A 
ATOM      7  F   UNL d   1       2.834  -3.464  -3.759  0.00  0.00    -0.097 F 
ATOM      8  F1  UNL d   1       2.839  -1.192  -2.284  0.00  0.00    -0.096 F 
ATOM      9  I   UNL d   1       0.516   0.293  -0.660  0.00  0.00    -0.060 I 
ATOM     10  F2  UNL d   1      -1.789  -1.810  -1.372  0.00  0.00    -0.096 F 
ATOM     11  F3  UNL d   1      -1.761  -4.078  -2.853  0.00  0.00    -0.097 F 
ATOM     12  F4  UNL d   1       0.542  -4.915  -4.051  0.00  0.00    -0.092 F 
ENDROOT
TORSDOF 0
ENDMDL
