MODEL 1
REMARK minimizedAffinity 8.75273895
REMARK minimizedRMSD -1
REMARK  0 active torsions:
REMARK  status: ('A' for Active; 'I' for Inactive)
ROOT
ATOM      1  C   UNL d   1       3.228   3.530   0.575  0.00  0.00     0.124 A 
ATOM      2  C1  UNL d   1       2.407   3.073  -0.446  0.00  0.00     0.062 A 
ATOM      3  C2  UNL d   1       1.162   2.524  -0.151  0.00  0.00     0.162 A 
ATOM      4  C3  UNL d   1       0.730   2.431   1.172  0.00  0.00    -0.034 A 
ATOM      5  C4  UNL d   1       1.562   2.892   2.194  0.00  0.00     0.162 A 
ATOM      6  C5  UNL d   1       2.805   3.440   1.894  0.00  0.00     0.062 A 
ATOM      7  F   UNL d   1       3.597   3.881   2.882  0.00  0.00    -0.097 F 
ATOM      8  F1  UNL d   1       1.178   2.818   3.477  0.00  0.00    -0.096 F 
ATOM      9  I   UNL d   1      -1.130   1.612   1.618  0.00  0.00    -0.060 I 
ATOM     10  F2  UNL d   1       0.389   2.090  -1.157  0.00  0.00    -0.096 F 
ATOM     11  F3  UNL d   1       2.814   3.158  -1.721  0.00  0.00    -0.097 F 
ATOM     12  F4  UNL d   1       4.426   4.056   0.288  0.00  0.00    -0.092 F 
ENDROOT
TORSDOF 0
ENDMDL
