MODEL 1
REMARK minimizedAffinity 33.2089882
REMARK minimizedRMSD -1
REMARK  0 active torsions:
REMARK  status: ('A' for Active; 'I' for Inactive)
ROOT
ATOM      1  C   UNL d   1       0.568   2.168   1.365  0.00  0.00     0.124 A 
ATOM      2  C1  UNL d   1       1.328   2.763   2.362  0.00  0.00     0.062 A 
ATOM      3  C2  UNL d   1       2.426   3.551   2.030  0.00  0.00     0.162 A 
ATOM      4  C3  UNL d   1       2.770   3.750   0.693  0.00  0.00    -0.034 A 
ATOM      5  C4  UNL d   1       2.002   3.148  -0.305  0.00  0.00     0.162 A 
ATOM      6  C5  UNL d   1       0.906   2.361   0.033  0.00  0.00     0.062 A 
ATOM      7  F   UNL d   1       0.173   1.787  -0.933  0.00  0.00    -0.097 F 
ATOM      8  F1  UNL d   1       2.305   3.318  -1.600  0.00  0.00    -0.096 F 
ATOM      9  I   UNL d   1       4.411   4.928   0.192  0.00  0.00    -0.060 I 
ATOM     10  F2  UNL d   1       3.142   4.114   3.015  0.00  0.00    -0.096 F 
ATOM     11  F3  UNL d   1       1.004   2.577   3.650  0.00  0.00    -0.097 F 
ATOM     12  F4  UNL d   1      -0.487   1.409   1.687  0.00  0.00    -0.092 F 
ENDROOT
TORSDOF 0
ENDMDL
