MODEL 1
REMARK minimizedAffinity 2.24598336
REMARK minimizedRMSD -1
REMARK  0 active torsions:
REMARK  status: ('A' for Active; 'I' for Inactive)
ROOT
ATOM      1  C   UNL d   1       3.060   3.195  -5.999  0.00  0.00     0.124 A 
ATOM      2  C1  UNL d   1       2.532   4.479  -5.999  0.00  0.00     0.062 A 
ATOM      3  C2  UNL d   1       1.153   4.669  -5.999  0.00  0.00     0.162 A 
ATOM      4  C3  UNL d   1       0.292   3.572  -5.998  0.00  0.00    -0.034 A 
ATOM      5  C4  UNL d   1       0.830   2.284  -5.999  0.00  0.00     0.162 A 
ATOM      6  C5  UNL d   1       2.209   2.099  -5.999  0.00  0.00     0.062 A 
ATOM      7  F   UNL d   1       2.717   0.858  -5.999  0.00  0.00    -0.097 F 
ATOM      8  F1  UNL d   1       0.031   1.206  -5.998  0.00  0.00    -0.096 F 
ATOM      9  I   UNL d   1      -1.771   3.851  -5.999  0.00  0.00    -0.060 I 
ATOM     10  F2  UNL d   1       0.671   5.920  -5.999  0.00  0.00    -0.096 F 
ATOM     11  F3  UNL d   1       3.352   5.540  -6.000  0.00  0.00    -0.097 F 
ATOM     12  F4  UNL d   1       4.387   3.016  -6.000  0.00  0.00    -0.092 F 
ENDROOT
TORSDOF 0
ENDMDL
