MODEL 1
REMARK minimizedAffinity 14.7928019
REMARK minimizedRMSD -1
REMARK  0 active torsions:
REMARK  status: ('A' for Active; 'I' for Inactive)
ROOT
ATOM      1  C   UNL d   1       1.534   0.193  -2.389  0.00  0.00     0.124 A 
ATOM      2  C1  UNL d   1       1.233   1.519  -2.111  0.00  0.00     0.062 A 
ATOM      3  C2  UNL d   1       1.192   2.458  -3.138  0.00  0.00     0.162 A 
ATOM      4  C3  UNL d   1       1.451   2.073  -4.453  0.00  0.00    -0.034 A 
ATOM      5  C4  UNL d   1       1.754   0.738  -4.725  0.00  0.00     0.162 A 
ATOM      6  C5  UNL d   1       1.794  -0.196  -3.695  0.00  0.00     0.062 A 
ATOM      7  F   UNL d   1       2.085  -1.477  -3.965  0.00  0.00    -0.097 F 
ATOM      8  F1  UNL d   1       2.009   0.334  -5.978  0.00  0.00    -0.096 F 
ATOM      9  I   UNL d   1       1.390   3.474  -5.992  0.00  0.00    -0.060 I 
ATOM     10  F2  UNL d   1       0.898   3.732  -2.840  0.00  0.00    -0.096 F 
ATOM     11  F3  UNL d   1       0.982   1.898  -0.849  0.00  0.00    -0.097 F 
ATOM     12  F4  UNL d   1       1.575  -0.708  -1.398  0.00  0.00    -0.092 F 
ENDROOT
TORSDOF 0
ENDMDL
