MODEL 1
REMARK minimizedAffinity 1.53234398
REMARK minimizedRMSD -1
REMARK  0 active torsions:
REMARK  status: ('A' for Active; 'I' for Inactive)
ROOT
ATOM      1  C   UNL d   1       0.083   2.907  -5.994  0.00  0.00     0.124 A 
ATOM      2  C1  UNL d   1       0.549   4.215  -5.994  0.00  0.00     0.062 A 
ATOM      3  C2  UNL d   1       1.918   4.470  -5.995  0.00  0.00     0.162 A 
ATOM      4  C3  UNL d   1       2.831   3.415  -5.997  0.00  0.00    -0.034 A 
ATOM      5  C4  UNL d   1       2.354   2.103  -5.996  0.00  0.00     0.162 A 
ATOM      6  C5  UNL d   1       0.986   1.853  -5.994  0.00  0.00     0.062 A 
ATOM      7  F   UNL d   1       0.537   0.589  -5.994  0.00  0.00    -0.097 F 
ATOM      8  F1  UNL d   1       3.204   1.065  -5.997  0.00  0.00    -0.096 F 
ATOM      9  I   UNL d   1       4.877   3.793  -5.999  0.00  0.00    -0.060 I 
ATOM     10  F2  UNL d   1       2.340   5.743  -5.996  0.00  0.00    -0.096 F 
ATOM     11  F3  UNL d   1      -0.320   5.235  -5.993  0.00  0.00    -0.097 F 
ATOM     12  F4  UNL d   1      -1.234   2.664  -5.991  0.00  0.00    -0.092 F 
ENDROOT
TORSDOF 0
ENDMDL
