MODEL 1
REMARK minimizedAffinity 15.6396799
REMARK minimizedRMSD -1
REMARK  0 active torsions:
REMARK  status: ('A' for Active; 'I' for Inactive)
ROOT
ATOM      1  C   UNL d   1       2.304   3.602   0.034  0.00  0.00     0.124 A 
ATOM      2  C1  UNL d   1       2.030   3.305   1.362  0.00  0.00     0.062 A 
ATOM      3  C2  UNL d   1       1.090   2.329   1.680  0.00  0.00     0.162 A 
ATOM      4  C3  UNL d   1       0.417   1.642   0.669  0.00  0.00    -0.034 A 
ATOM      5  C4  UNL d   1       0.698   1.948  -0.664  0.00  0.00     0.162 A 
ATOM      6  C5  UNL d   1       1.638   2.924  -0.977  0.00  0.00     0.062 A 
ATOM      7  F   UNL d   1       1.902   3.210  -2.260  0.00  0.00    -0.097 F 
ATOM      8  F1  UNL d   1       0.070   1.307  -1.660  0.00  0.00    -0.096 F 
ATOM      9  I   UNL d   1      -0.989   0.182   1.142  0.00  0.00    -0.060 I 
ATOM     10  F2  UNL d   1       0.845   2.062   2.972  0.00  0.00    -0.096 F 
ATOM     11  F3  UNL d   1       2.671   3.959   2.340  0.00  0.00    -0.097 F 
ATOM     12  F4  UNL d   1       3.208   4.542  -0.270  0.00  0.00    -0.092 F 
ENDROOT
TORSDOF 0
ENDMDL
