MODEL 1
REMARK minimizedAffinity 16.3467922
REMARK minimizedRMSD -1
REMARK  0 active torsions:
REMARK  status: ('A' for Active; 'I' for Inactive)
ROOT
ATOM      1  C   UNL d   1      -2.626   0.174   1.564  0.00  0.00     0.124 A 
ATOM      2  C1  UNL d   1      -1.532  -0.586   1.175  0.00  0.00     0.062 A 
ATOM      3  C2  UNL d   1      -0.294   0.019   0.975  0.00  0.00     0.162 A 
ATOM      4  C3  UNL d   1      -0.144   1.393   1.163  0.00  0.00    -0.034 A 
ATOM      5  C4  UNL d   1      -1.249   2.151   1.553  0.00  0.00     0.162 A 
ATOM      6  C5  UNL d   1      -2.484   1.542   1.752  0.00  0.00     0.062 A 
ATOM      7  F   UNL d   1      -3.540   2.278   2.128  0.00  0.00    -0.097 F 
ATOM      8  F1  UNL d   1      -1.140   3.475   1.744  0.00  0.00    -0.096 F 
ATOM      9  I   UNL d   1       1.704   2.302   0.865  0.00  0.00    -0.060 I 
ATOM     10  F2  UNL d   1       0.746  -0.740   0.599  0.00  0.00    -0.096 F 
ATOM     11  F3  UNL d   1      -1.667  -1.907   0.991  0.00  0.00    -0.097 F 
ATOM     12  F4  UNL d   1      -3.816  -0.410   1.755  0.00  0.00    -0.092 F 
ENDROOT
TORSDOF 0
ENDMDL
