MODEL 1
REMARK minimizedAffinity -5.79182291
REMARK minimizedRMSD -1
REMARK  1 active torsions:
REMARK  status: ('A' for Active; 'I' for Inactive)
REMARK    1  A    between atoms: C1_2  and  C2_3 
ROOT
ATOM      1  C2  UNL d   1      -0.029   1.276   0.180  0.00  0.00    -0.076 A 
ATOM      2  C3  UNL d   1      -0.902   0.677   1.104  0.00  0.00     0.004 A 
ATOM      3  C4  UNL d   1      -1.955   1.397   1.666  0.00  0.00    -0.003 A 
ATOM      4  C5  UNL d   1      -2.153   2.727   1.311  0.00  0.00     0.000 A 
ATOM      5  C6  UNL d   1      -1.307   3.331   0.382  0.00  0.00     0.000 A 
ATOM      6  C7  UNL d   1      -0.250   2.615  -0.206  0.00  0.00    -0.073 A 
ATOM      7  C8  UNL d   1       0.635   3.319  -1.198  0.00  0.00     0.078 C 
ENDROOT
BRANCH   1   8
ATOM      8  C1  UNL d   1       1.112   0.454  -0.375  0.00  0.00     0.053 C 
ATOM      9  C   UNL d   1       0.716  -0.991  -0.638  0.00  0.00     0.018 C 
ENDBRANCH   1   8
TORSDOF 1
ENDMDL
