MODEL 1
REMARK minimizedAffinity -4.86230564
REMARK minimizedRMSD -1
REMARK  1 active torsions:
REMARK  status: ('A' for Active; 'I' for Inactive)
REMARK    1  A    between atoms: C1_2  and  C2_3 
ROOT
ATOM      1  C2  UNL d   1      -0.149   0.187  -0.129  0.00  0.00    -0.076 A 
ATOM      2  C3  UNL d   1      -1.155   0.912  -0.791  0.00  0.00     0.004 A 
ATOM      3  C4  UNL d   1      -2.170   1.547  -0.076  0.00  0.00    -0.003 A 
ATOM      4  C5  UNL d   1      -2.195   1.467   1.312  0.00  0.00     0.000 A 
ATOM      5  C6  UNL d   1      -1.195   0.766   1.985  0.00  0.00     0.000 A 
ATOM      6  C7  UNL d   1      -0.156   0.134   1.281  0.00  0.00    -0.073 A 
ATOM      7  C8  UNL d   1       0.893  -0.613   2.058  0.00  0.00     0.078 C 
ENDROOT
BRANCH   1   8
ATOM      8  C1  UNL d   1       0.910  -0.504  -0.958  0.00  0.00     0.053 C 
ATOM      9  C   UNL d   1       0.471  -1.879  -1.437  0.00  0.00     0.018 C 
ENDBRANCH   1   8
TORSDOF 1
ENDMDL
