MODEL 1
REMARK minimizedAffinity -5.10389185
REMARK minimizedRMSD -1
REMARK  1 active torsions:
REMARK  status: ('A' for Active; 'I' for Inactive)
REMARK    1  A    between atoms: C1_2  and  C2_3 
ROOT
ATOM      1  C2  UNL d   1      -0.107   0.275   0.058  0.00  0.00    -0.076 A 
ATOM      2  C3  UNL d   1      -1.063  -0.453   0.787  0.00  0.00     0.004 A 
ATOM      3  C4  UNL d   1      -2.203   0.168   1.296  0.00  0.00    -0.003 A 
ATOM      4  C5  UNL d   1      -2.404   1.527   1.084  0.00  0.00     0.000 A 
ATOM      5  C6  UNL d   1      -1.475   2.261   0.349  0.00  0.00     0.000 A 
ATOM      6  C7  UNL d   1      -0.329   1.647  -0.185  0.00  0.00    -0.073 A 
ATOM      7  C8  UNL d   1       0.643   2.489  -0.966  0.00  0.00     0.078 C 
ENDROOT
BRANCH   1   8
ATOM      8  C1  UNL d   1       1.122  -0.446  -0.446  0.00  0.00     0.053 C 
ATOM      9  C   UNL d   1       0.778  -1.672  -1.279  0.00  0.00     0.018 C 
ENDBRANCH   1   8
TORSDOF 1
ENDMDL
