MODEL 1
REMARK minimizedAffinity -5.37961102
REMARK minimizedRMSD -1
REMARK  1 active torsions:
REMARK  status: ('A' for Active; 'I' for Inactive)
REMARK    1  A    between atoms: C1_2  and  C2_3 
ROOT
ATOM      1  C2  UNL d   1       0.078   1.269   0.158  0.00  0.00    -0.076 A 
ATOM      2  C3  UNL d   1      -0.770   0.744   1.148  0.00  0.00     0.004 A 
ATOM      3  C4  UNL d   1      -1.820   1.500   1.668  0.00  0.00    -0.003 A 
ATOM      4  C5  UNL d   1      -2.038   2.793   1.205  0.00  0.00     0.000 A 
ATOM      5  C6  UNL d   1      -1.217   3.323   0.210  0.00  0.00     0.000 A 
ATOM      6  C7  UNL d   1      -0.164   2.568  -0.336  0.00  0.00    -0.073 A 
ATOM      7  C8  UNL d   1       0.694   3.192  -1.402  0.00  0.00     0.078 C 
ENDROOT
BRANCH   1   8
ATOM      8  C1  UNL d   1       1.217   0.412  -0.349  0.00  0.00     0.053 C 
ATOM      9  C   UNL d   1       0.784  -1.016  -0.644  0.00  0.00     0.018 C 
ENDBRANCH   1   8
TORSDOF 1
ENDMDL
