MODEL 1
REMARK minimizedAffinity -2.31461143
REMARK minimizedRMSD -1
REMARK  1 active torsions:
REMARK  status: ('A' for Active; 'I' for Inactive)
REMARK    1  A    between atoms: C1_2  and  C2_3 
ROOT
ATOM      1  C2  UNL d   1      -0.012   1.649   0.211  0.00  0.00    -0.076 A 
ATOM      2  C3  UNL d   1      -1.007   1.836   1.186  0.00  0.00     0.004 A 
ATOM      3  C4  UNL d   1      -1.387   0.796   2.031  0.00  0.00    -0.003 A 
ATOM      4  C5  UNL d   1      -0.778  -0.449   1.916  0.00  0.00     0.000 A 
ATOM      5  C6  UNL d   1       0.223  -0.647   0.966  0.00  0.00     0.000 A 
ATOM      6  C7  UNL d   1       0.630   0.396   0.117  0.00  0.00    -0.073 A 
ATOM      7  C8  UNL d   1       1.710   0.124  -0.894  0.00  0.00     0.078 C 
ENDROOT
BRANCH   1   8
ATOM      8  C1  UNL d   1       0.340   2.807  -0.697  0.00  0.00     0.053 C 
ATOM      9  C   UNL d   1       0.039   4.156  -0.063  0.00  0.00     0.018 C 
ENDBRANCH   1   8
TORSDOF 1
ENDMDL
