MODEL 1
REMARK minimizedAffinity 0.818383157
REMARK minimizedRMSD -1
REMARK  1 active torsions:
REMARK  status: ('A' for Active; 'I' for Inactive)
REMARK    1  A    between atoms: C1_2  and  C2_3 
ROOT
ATOM      1  C2  UNL d   1      -0.353   1.023   0.990  0.00  0.00    -0.076 A 
ATOM      2  C3  UNL d   1      -0.393  -0.270   1.540  0.00  0.00     0.004 A 
ATOM      3  C4  UNL d   1       0.294  -1.325   0.943  0.00  0.00    -0.003 A 
ATOM      4  C5  UNL d   1       1.034  -1.104  -0.214  0.00  0.00     0.000 A 
ATOM      5  C6  UNL d   1       1.099   0.176  -0.763  0.00  0.00     0.000 A 
ATOM      6  C7  UNL d   1       0.425   1.254  -0.164  0.00  0.00    -0.073 A 
ATOM      7  C8  UNL d   1       0.525   2.612  -0.803  0.00  0.00     0.078 C 
ENDROOT
BRANCH   1   8
ATOM      8  C1  UNL d   1      -1.141   2.122   1.667  0.00  0.00     0.053 C 
ATOM      9  C   UNL d   1      -0.502   2.581   2.968  0.00  0.00     0.018 C 
ENDBRANCH   1   8
TORSDOF 1
ENDMDL
