MODEL 1
REMARK minimizedAffinity -5.5393486
REMARK minimizedRMSD -1
REMARK  1 active torsions:
REMARK  status: ('A' for Active; 'I' for Inactive)
REMARK    1  A    between atoms: C1_2  and  C2_3 
ROOT
ATOM      1  C2  UNL d   1       0.102   0.809   0.030  0.00  0.00    -0.076 A 
ATOM      2  C3  UNL d   1      -0.196   1.957  -0.724  0.00  0.00     0.004 A 
ATOM      3  C4  UNL d   1      -1.031   2.952  -0.217  0.00  0.00    -0.003 A 
ATOM      4  C5  UNL d   1      -1.580   2.814   1.054  0.00  0.00     0.000 A 
ATOM      5  C6  UNL d   1      -1.280   1.690   1.823  0.00  0.00     0.000 A 
ATOM      6  C7  UNL d   1      -0.428   0.686   1.332  0.00  0.00    -0.073 A 
ATOM      7  C8  UNL d   1      -0.144  -0.508   2.202  0.00  0.00     0.078 C 
ENDROOT
BRANCH   1   8
ATOM      8  C1  UNL d   1       0.992  -0.249  -0.583  0.00  0.00     0.053 C 
ATOM      9  C   UNL d   1       0.200  -1.331  -1.301  0.00  0.00     0.018 C 
ENDBRANCH   1   8
TORSDOF 1
ENDMDL
