MODEL 1
REMARK minimizedAffinity -2.99148369
REMARK minimizedRMSD -1
REMARK  1 active torsions:
REMARK  status: ('A' for Active; 'I' for Inactive)
REMARK    1  A    between atoms: C1_2  and  C2_3 
ROOT
ATOM      1  C2  UNL d   1       0.089   0.282   0.237  0.00  0.00    -0.076 A 
ATOM      2  C3  UNL d   1       0.167   1.459  -0.527  0.00  0.00     0.004 A 
ATOM      3  C4  UNL d   1      -0.403   2.648  -0.074  0.00  0.00    -0.003 A 
ATOM      4  C5  UNL d   1      -1.060   2.679   1.151  0.00  0.00     0.000 A 
ATOM      5  C6  UNL d   1      -1.132   1.524   1.931  0.00  0.00     0.000 A 
ATOM      6  C7  UNL d   1      -0.549   0.322   1.496  0.00  0.00    -0.073 A 
ATOM      7  C8  UNL d   1      -0.662  -0.894   2.374  0.00  0.00     0.078 C 
ENDROOT
BRANCH   1   8
ATOM      8  C1  UNL d   1       0.702  -0.984  -0.318  0.00  0.00     0.053 C 
ATOM      9  C   UNL d   1       0.033  -1.440  -1.605  0.00  0.00     0.018 C 
ENDBRANCH   1   8
TORSDOF 1
ENDMDL
