MODEL 1
REMARK minimizedAffinity -2.57926226
REMARK minimizedRMSD -1
REMARK  1 active torsions:
REMARK  status: ('A' for Active; 'I' for Inactive)
REMARK    1  A    between atoms: C1_2  and  C2_3 
ROOT
ATOM      1  C2  UNL d   1      -0.257   0.946   1.851  0.00  0.00    -0.076 A 
ATOM      2  C3  UNL d   1       0.707  -0.035   1.563  0.00  0.00     0.004 A 
ATOM      3  C4  UNL d   1       0.775  -0.626   0.302  0.00  0.00    -0.003 A 
ATOM      4  C5  UNL d   1      -0.120  -0.245  -0.691  0.00  0.00     0.000 A 
ATOM      5  C6  UNL d   1      -1.072   0.739  -0.428  0.00  0.00     0.000 A 
ATOM      6  C7  UNL d   1      -1.144   1.357   0.832  0.00  0.00    -0.073 A 
ATOM      7  C8  UNL d   1      -2.194   2.408   1.063  0.00  0.00     0.078 C 
ENDROOT
BRANCH   1   8
ATOM      8  C1  UNL d   1      -0.301   1.532   3.244  0.00  0.00     0.053 C 
ATOM      9  C   UNL d   1       0.908   2.404   3.547  0.00  0.00     0.018 C 
ENDBRANCH   1   8
TORSDOF 1
ENDMDL
