MODEL 1
REMARK minimizedAffinity -4.03570604
REMARK minimizedRMSD -1
REMARK  1 active torsions:
REMARK  status: ('A' for Active; 'I' for Inactive)
REMARK    1  A    between atoms: C1_2  and  C2_3 
ROOT
ATOM      1  C2  UNL d   1      -0.424   1.400  -0.170  0.00  0.00    -0.076 A 
ATOM      2  C3  UNL d   1      -1.159   0.890   0.915  0.00  0.00     0.004 A 
ATOM      3  C4  UNL d   1      -1.944   1.726   1.706  0.00  0.00    -0.003 A 
ATOM      4  C5  UNL d   1      -2.009   3.086   1.425  0.00  0.00     0.000 A 
ATOM      5  C6  UNL d   1      -1.300   3.607   0.342  0.00  0.00     0.000 A 
ATOM      6  C7  UNL d   1      -0.517   2.774  -0.475  0.00  0.00    -0.073 A 
ATOM      7  C8  UNL d   1       0.231   3.390  -1.626  0.00  0.00     0.078 C 
ENDROOT
BRANCH   1   8
ATOM      8  C1  UNL d   1       0.432   0.449  -0.976  0.00  0.00     0.053 C 
ATOM      9  C   UNL d   1       0.764  -0.825  -0.214  0.00  0.00     0.018 C 
ENDBRANCH   1   8
TORSDOF 1
ENDMDL
