MODEL 1
REMARK minimizedAffinity -4.22015858
REMARK minimizedRMSD -1
REMARK  1 active torsions:
REMARK  status: ('A' for Active; 'I' for Inactive)
REMARK    1  A    between atoms: C1_2  and  C2_3 
ROOT
ATOM      1  C2  UNL d   1       0.070   0.953  -0.008  0.00  0.00    -0.076 A 
ATOM      2  C3  UNL d   1      -0.452   0.359   1.154  0.00  0.00     0.004 A 
ATOM      3  C4  UNL d   1      -1.059   1.130   2.144  0.00  0.00    -0.003 A 
ATOM      4  C5  UNL d   1      -1.154   2.508   1.987  0.00  0.00     0.000 A 
ATOM      5  C6  UNL d   1      -0.658   3.113   0.833  0.00  0.00     0.000 A 
ATOM      6  C7  UNL d   1      -0.058   2.348  -0.182  0.00  0.00    -0.073 A 
ATOM      7  C8  UNL d   1       0.465   3.053  -1.403  0.00  0.00     0.078 C 
ENDROOT
BRANCH   1   8
ATOM      8  C1  UNL d   1       0.741   0.070  -1.035  0.00  0.00     0.053 C 
ATOM      9  C   UNL d   1       0.127  -1.320  -1.098  0.00  0.00     0.018 C 
ENDBRANCH   1   8
TORSDOF 1
ENDMDL
