MODEL 1
REMARK minimizedAffinity 18.0573158
REMARK minimizedRMSD -1
REMARK  1 active torsions:
REMARK  status: ('A' for Active; 'I' for Inactive)
REMARK    1  A    between atoms: C1_2  and  C2_3 
ROOT
ATOM      1  C2  UNL d   1      -5.017   3.337  -2.633  0.00  0.00    -0.076 A 
ATOM      2  C3  UNL d   1      -5.607   2.700  -3.738  0.00  0.00     0.004 A 
ATOM      3  C4  UNL d   1      -6.000   3.427  -4.860  0.00  0.00    -0.003 A 
ATOM      4  C5  UNL d   1      -5.808   4.804  -4.896  0.00  0.00     0.000 A 
ATOM      5  C6  UNL d   1      -5.207   5.450  -3.816  0.00  0.00     0.000 A 
ATOM      6  C7  UNL d   1      -4.791   4.729  -2.684  0.00  0.00    -0.073 A 
ATOM      7  C8  UNL d   1      -4.154   5.478  -1.545  0.00  0.00     0.078 C 
ENDROOT
BRANCH   1   8
ATOM      8  C1  UNL d   1      -4.636   2.500  -1.433  0.00  0.00     0.053 C 
ATOM      9  C   UNL d   1      -5.355   1.160  -1.405  0.00  0.00     0.018 C 
ENDBRANCH   1   8
TORSDOF 1
ENDMDL
