MODEL 1
REMARK minimizedAffinity 11.808713
REMARK minimizedRMSD -1
REMARK  1 active torsions:
REMARK  status: ('A' for Active; 'I' for Inactive)
REMARK    1  A    between atoms: C1_2  and  C2_3 
ROOT
ATOM      1  C2  UNL d   1       0.591   2.629   1.424  0.00  0.00    -0.076 A 
ATOM      2  C3  UNL d   1       1.201   2.142   2.593  0.00  0.00     0.004 A 
ATOM      3  C4  UNL d   1       2.042   2.953   3.354  0.00  0.00    -0.003 A 
ATOM      4  C5  UNL d   1       2.285   4.264   2.958  0.00  0.00     0.000 A 
ATOM      5  C6  UNL d   1       1.674   4.768   1.810  0.00  0.00     0.000 A 
ATOM      6  C7  UNL d   1       0.811   3.969   1.041  0.00  0.00    -0.073 A 
ATOM      7  C8  UNL d   1       0.184   4.563  -0.191  0.00  0.00     0.078 C 
ENDROOT
BRANCH   1   8
ATOM      8  C1  UNL d   1      -0.289   1.695   0.624  0.00  0.00     0.053 C 
ATOM      9  C   UNL d   1       0.393   0.371   0.316  0.00  0.00     0.018 C 
ENDBRANCH   1   8
TORSDOF 1
ENDMDL
