MODEL 1
REMARK minimizedAffinity -5.85882616
REMARK minimizedRMSD -1
REMARK  1 active torsions:
REMARK  status: ('A' for Active; 'I' for Inactive)
REMARK    1  A    between atoms: C1_2  and  C2_3 
ROOT
ATOM      1  C2  UNL d   1      -1.631   1.364  -0.442  0.00  0.00    -0.076 A 
ATOM      2  C3  UNL d   1      -2.064   1.988   0.741  0.00  0.00     0.004 A 
ATOM      3  C4  UNL d   1      -1.736   3.316   1.013  0.00  0.00    -0.003 A 
ATOM      4  C5  UNL d   1      -0.971   4.041   0.107  0.00  0.00     0.000 A 
ATOM      5  C6  UNL d   1      -0.548   3.443  -1.080  0.00  0.00     0.000 A 
ATOM      6  C7  UNL d   1      -0.883   2.111  -1.378  0.00  0.00    -0.073 A 
ATOM      7  C8  UNL d   1      -0.395   1.515  -2.670  0.00  0.00     0.078 C 
ENDROOT
BRANCH   1   8
ATOM      8  C1  UNL d   1      -1.994  -0.085  -0.671  0.00  0.00     0.053 C 
ATOM      9  C   UNL d   1      -0.911  -1.040  -0.192  0.00  0.00     0.018 C 
ENDBRANCH   1   8
TORSDOF 1
ENDMDL
