MODEL 1
REMARK minimizedAffinity -2.9360745
REMARK minimizedRMSD -1
REMARK  1 active torsions:
REMARK  status: ('A' for Active; 'I' for Inactive)
REMARK    1  A    between atoms: C1_2  and  C2_3 
ROOT
ATOM      1  C2  UNL d   1       0.099   1.125   0.736  0.00  0.00    -0.076 A 
ATOM      2  C3  UNL d   1      -0.957   1.276  -0.179  0.00  0.00     0.004 A 
ATOM      3  C4  UNL d   1      -1.667   2.472  -0.264  0.00  0.00    -0.003 A 
ATOM      4  C5  UNL d   1      -1.332   3.538   0.564  0.00  0.00     0.000 A 
ATOM      5  C6  UNL d   1      -0.275   3.412   1.466  0.00  0.00     0.000 A 
ATOM      6  C7  UNL d   1       0.461   2.218   1.553  0.00  0.00    -0.073 A 
ATOM      7  C8  UNL d   1       1.587   2.135   2.547  0.00  0.00     0.078 C 
ENDROOT
BRANCH   1   8
ATOM      8  C1  UNL d   1       0.816  -0.205   0.803  0.00  0.00     0.053 C 
ATOM      9  C   UNL d   1       0.374  -1.160  -0.295  0.00  0.00     0.018 C 
ENDBRANCH   1   8
TORSDOF 1
ENDMDL
