MODEL 1
REMARK minimizedAffinity 5.53102112
REMARK minimizedRMSD -1
REMARK  1 active torsions:
REMARK  status: ('A' for Active; 'I' for Inactive)
REMARK    1  A    between atoms: C1_2  and  C2_3 
ROOT
ATOM      1  C2  UNL d   1       1.323  -0.804   0.135  0.00  0.00    -0.076 A 
ATOM      2  C3  UNL d   1       0.056  -0.503   0.665  0.00  0.00     0.004 A 
ATOM      3  C4  UNL d   1      -0.874   0.229  -0.072  0.00  0.00    -0.003 A 
ATOM      4  C5  UNL d   1      -0.553   0.670  -1.351  0.00  0.00     0.000 A 
ATOM      5  C6  UNL d   1       0.692   0.365  -1.899  0.00  0.00     0.000 A 
ATOM      6  C7  UNL d   1       1.636  -0.385  -1.176  0.00  0.00    -0.073 A 
ATOM      7  C8  UNL d   1       2.965  -0.680  -1.814  0.00  0.00     0.078 C 
ENDROOT
BRANCH   1   8
ATOM      8  C1  UNL d   1       2.301  -1.577   0.990  0.00  0.00     0.053 C 
ATOM      9  C   UNL d   1       3.028  -0.691   1.990  0.00  0.00     0.018 C 
ENDBRANCH   1   8
TORSDOF 1
ENDMDL
