MODEL 1
REMARK minimizedAffinity 1.84661949
REMARK minimizedRMSD -1
REMARK  1 active torsions:
REMARK  status: ('A' for Active; 'I' for Inactive)
REMARK    1  A    between atoms: C1_2  and  C2_3 
ROOT
ATOM      1  C2  UNL d   1       0.133  -1.171  -0.380  0.00  0.00    -0.076 A 
ATOM      2  C3  UNL d   1       0.605  -2.486  -0.227  0.00  0.00     0.004 A 
ATOM      3  C4  UNL d   1      -0.137  -3.573  -0.687  0.00  0.00    -0.003 A 
ATOM      4  C5  UNL d   1      -1.362  -3.361  -1.310  0.00  0.00     0.000 A 
ATOM      5  C6  UNL d   1      -1.838  -2.062  -1.486  0.00  0.00     0.000 A 
ATOM      6  C7  UNL d   1      -1.095  -0.955  -1.042  0.00  0.00    -0.073 A 
ATOM      7  C8  UNL d   1      -1.658   0.424  -1.253  0.00  0.00     0.078 C 
ENDROOT
BRANCH   1   8
ATOM      8  C1  UNL d   1       0.968  -0.034   0.164  0.00  0.00     0.053 C 
ATOM      9  C   UNL d   1       1.124  -0.097   1.676  0.00  0.00     0.018 C 
ENDBRANCH   1   8
TORSDOF 1
ENDMDL
