MODEL 1
REMARK minimizedAffinity -3.75222945
REMARK minimizedRMSD -1
REMARK  1 active torsions:
REMARK  status: ('A' for Active; 'I' for Inactive)
REMARK    1  A    between atoms: C1_2  and  C2_3 
ROOT
ATOM      1  C2  UNL d   1      -0.147  -0.265   1.024  0.00  0.00    -0.076 A 
ATOM      2  C3  UNL d   1      -1.187  -0.947   1.679  0.00  0.00     0.004 A 
ATOM      3  C4  UNL d   1      -1.376  -0.818   3.054  0.00  0.00    -0.003 A 
ATOM      4  C5  UNL d   1      -0.527  -0.004   3.797  0.00  0.00     0.000 A 
ATOM      5  C6  UNL d   1       0.499   0.694   3.161  0.00  0.00     0.000 A 
ATOM      6  C7  UNL d   1       0.692   0.588   1.773  0.00  0.00    -0.073 A 
ATOM      7  C8  UNL d   1       1.819   1.358   1.140  0.00  0.00     0.078 C 
ENDROOT
BRANCH   1   8
ATOM      8  C1  UNL d   1       0.025  -0.464  -0.465  0.00  0.00     0.053 C 
ATOM      9  C   UNL d   1      -0.380   0.762  -1.268  0.00  0.00     0.018 C 
ENDBRANCH   1   8
TORSDOF 1
ENDMDL
