MODEL 1
REMARK minimizedAffinity 1.65501487
REMARK minimizedRMSD -1
REMARK  1 active torsions:
REMARK  status: ('A' for Active; 'I' for Inactive)
REMARK    1  A    between atoms: C1_2  and  C2_3 
ROOT
ATOM      1  C2  UNL d   1      -0.014   0.549   2.194  0.00  0.00    -0.076 A 
ATOM      2  C3  UNL d   1      -0.854  -0.220   3.018  0.00  0.00     0.004 A 
ATOM      3  C4  UNL d   1      -1.597  -1.278   2.497  0.00  0.00    -0.003 A 
ATOM      4  C5  UNL d   1      -1.510  -1.586   1.144  0.00  0.00     0.000 A 
ATOM      5  C6  UNL d   1      -0.668  -0.845   0.315  0.00  0.00     0.000 A 
ATOM      6  C7  UNL d   1       0.099   0.215   0.827  0.00  0.00    -0.073 A 
ATOM      7  C8  UNL d   1       0.986   0.985  -0.113  0.00  0.00     0.078 C 
ENDROOT
BRANCH   1   8
ATOM      8  C1  UNL d   1       0.746   1.703   2.809  0.00  0.00     0.053 C 
ATOM      9  C   UNL d   1      -0.086   2.474   3.822  0.00  0.00     0.018 C 
ENDBRANCH   1   8
TORSDOF 1
ENDMDL
