MODEL 1
REMARK minimizedAffinity -3.9789784
REMARK minimizedRMSD -1
REMARK  1 active torsions:
REMARK  status: ('A' for Active; 'I' for Inactive)
REMARK    1  A    between atoms: C1_2  and  C2_3 
ROOT
ATOM      1  C2  UNL d   1       0.011   0.815   1.173  0.00  0.00    -0.076 A 
ATOM      2  C3  UNL d   1       0.228   0.706   2.557  0.00  0.00     0.004 A 
ATOM      3  C4  UNL d   1      -0.842   0.677   3.451  0.00  0.00    -0.003 A 
ATOM      4  C5  UNL d   1      -2.146   0.754   2.974  0.00  0.00     0.000 A 
ATOM      5  C6  UNL d   1      -2.380   0.845   1.602  0.00  0.00     0.000 A 
ATOM      6  C7  UNL d   1      -1.313   0.860   0.687  0.00  0.00    -0.073 A 
ATOM      7  C8  UNL d   1      -1.624   0.965  -0.781  0.00  0.00     0.078 C 
ENDROOT
BRANCH   1   8
ATOM      8  C1  UNL d   1       1.211   0.870   0.254  0.00  0.00     0.053 C 
ATOM      9  C   UNL d   1       2.304   1.789   0.777  0.00  0.00     0.018 C 
ENDBRANCH   1   8
TORSDOF 1
ENDMDL
