MODEL 1
REMARK minimizedAffinity 0.858708918
REMARK minimizedRMSD -1
REMARK  1 active torsions:
REMARK  status: ('A' for Active; 'I' for Inactive)
REMARK    1  A    between atoms: C1_2  and  C2_3 
ROOT
ATOM      1  C2  UNL d   1      -0.618  -0.793  -1.242  0.00  0.00    -0.076 A 
ATOM      2  C3  UNL d   1      -0.895  -1.832  -2.147  0.00  0.00     0.004 A 
ATOM      3  C4  UNL d   1       0.008  -2.165  -3.155  0.00  0.00    -0.003 A 
ATOM      4  C5  UNL d   1       1.204  -1.465  -3.274  0.00  0.00     0.000 A 
ATOM      5  C6  UNL d   1       1.503  -0.443  -2.373  0.00  0.00     0.000 A 
ATOM      6  C7  UNL d   1       0.610  -0.106  -1.341  0.00  0.00    -0.073 A 
ATOM      7  C8  UNL d   1       0.981   1.009  -0.402  0.00  0.00     0.078 C 
ENDROOT
BRANCH   1   8
ATOM      8  C1  UNL d   1      -1.648  -0.459  -0.186  0.00  0.00     0.053 C 
ATOM      9  C   UNL d   1      -2.512   0.732  -0.571  0.00  0.00     0.018 C 
ENDBRANCH   1   8
TORSDOF 1
ENDMDL
