MODEL 1
REMARK minimizedAffinity -5.07551146
REMARK minimizedRMSD -1
REMARK  1 active torsions:
REMARK  status: ('A' for Active; 'I' for Inactive)
REMARK    1  A    between atoms: C1_2  and  C2_3 
ROOT
ATOM      1  C2  UNL d   1       0.300   0.012   0.298  0.00  0.00    -0.076 A 
ATOM      2  C3  UNL d   1       1.491  -0.059   1.041  0.00  0.00     0.004 A 
ATOM      3  C4  UNL d   1       1.472  -0.384   2.397  0.00  0.00    -0.003 A 
ATOM      4  C5  UNL d   1       0.262  -0.643   3.031  0.00  0.00     0.000 A 
ATOM      5  C6  UNL d   1      -0.928  -0.594   2.304  0.00  0.00     0.000 A 
ATOM      6  C7  UNL d   1      -0.925  -0.284   0.933  0.00  0.00    -0.073 A 
ATOM      7  C8  UNL d   1      -2.237  -0.239   0.201  0.00  0.00     0.078 C 
ENDROOT
BRANCH   1   8
ATOM      8  C1  UNL d   1       0.380   0.396  -1.162  0.00  0.00     0.053 C 
ATOM      9  C   UNL d   1       0.850  -0.752  -2.042  0.00  0.00     0.018 C 
ENDBRANCH   1   8
TORSDOF 1
ENDMDL
