MODEL 1
REMARK minimizedAffinity -4.09321451
REMARK minimizedRMSD -1
REMARK  1 active torsions:
REMARK  status: ('A' for Active; 'I' for Inactive)
REMARK    1  A    between atoms: C1_2  and  C2_3 
ROOT
ATOM      1  C2  UNL d   1       0.254   0.602   0.669  0.00  0.00    -0.076 A 
ATOM      2  C3  UNL d   1       1.648   0.595   0.491  0.00  0.00     0.004 A 
ATOM      3  C4  UNL d   1       2.510   0.442   1.575  0.00  0.00    -0.003 A 
ATOM      4  C5  UNL d   1       1.991   0.293   2.857  0.00  0.00     0.000 A 
ATOM      5  C6  UNL d   1       0.610   0.280   3.051  0.00  0.00     0.000 A 
ATOM      6  C7  UNL d   1      -0.273   0.417   1.966  0.00  0.00    -0.073 A 
ATOM      7  C8  UNL d   1      -1.753   0.402   2.233  0.00  0.00     0.078 C 
ENDROOT
BRANCH   1   8
ATOM      8  C1  UNL d   1      -0.631   0.799  -0.541  0.00  0.00     0.053 C 
ATOM      9  C   UNL d   1      -0.209  -0.067  -1.718  0.00  0.00     0.018 C 
ENDBRANCH   1   8
TORSDOF 1
ENDMDL
