MODEL 1
REMARK minimizedAffinity -4.32775879
REMARK minimizedRMSD -1
REMARK  1 active torsions:
REMARK  status: ('A' for Active; 'I' for Inactive)
REMARK    1  A    between atoms: C1_2  and  C2_3 
ROOT
ATOM      1  C2  UNL d   1       0.220   0.252  -0.021  0.00  0.00    -0.076 A 
ATOM      2  C3  UNL d   1       1.350  -0.125   0.726  0.00  0.00     0.004 A 
ATOM      3  C4  UNL d   1       1.288  -0.235   2.114  0.00  0.00    -0.003 A 
ATOM      4  C5  UNL d   1       0.096   0.029   2.778  0.00  0.00     0.000 A 
ATOM      5  C6  UNL d   1      -1.040   0.387   2.052  0.00  0.00     0.000 A 
ATOM      6  C7  UNL d   1      -0.999   0.486   0.650  0.00  0.00    -0.073 A 
ATOM      7  C8  UNL d   1      -2.252   0.882  -0.082  0.00  0.00     0.078 C 
ENDROOT
BRANCH   1   8
ATOM      8  C1  UNL d   1       0.354   0.381  -1.521  0.00  0.00     0.053 C 
ATOM      9  C   UNL d   1       0.657  -0.948  -2.196  0.00  0.00     0.018 C 
ENDBRANCH   1   8
TORSDOF 1
ENDMDL
