MODEL 1
REMARK minimizedAffinity -3.29982901
REMARK minimizedRMSD -1
REMARK  1 active torsions:
REMARK  status: ('A' for Active; 'I' for Inactive)
REMARK    1  A    between atoms: C1_2  and  C2_3 
ROOT
ATOM      1  C2  UNL d   1       0.551  -0.458   0.329  0.00  0.00    -0.076 A 
ATOM      2  C3  UNL d   1      -0.834  -0.361   0.114  0.00  0.00     0.004 A 
ATOM      3  C4  UNL d   1      -1.681   0.140   1.102  0.00  0.00    -0.003 A 
ATOM      4  C5  UNL d   1      -1.155   0.552   2.321  0.00  0.00     0.000 A 
ATOM      5  C6  UNL d   1       0.220   0.480   2.546  0.00  0.00     0.000 A 
ATOM      6  C7  UNL d   1       1.089  -0.007   1.554  0.00  0.00    -0.073 A 
ATOM      7  C8  UNL d   1       2.562  -0.069   1.853  0.00  0.00     0.078 C 
ENDROOT
BRANCH   1   8
ATOM      8  C1  UNL d   1       1.417  -1.034  -0.769  0.00  0.00     0.053 C 
ATOM      9  C   UNL d   1       0.727  -1.016  -2.124  0.00  0.00     0.018 C 
ENDBRANCH   1   8
TORSDOF 1
ENDMDL
