MODEL 1
REMARK minimizedAffinity 0.355780929
REMARK minimizedRMSD -1
REMARK  1 active torsions:
REMARK  status: ('A' for Active; 'I' for Inactive)
REMARK    1  A    between atoms: C1_2  and  C2_3 
ROOT
ATOM      1  C2  UNL d   1      -0.037  -0.139  -1.163  0.00  0.00    -0.076 A 
ATOM      2  C3  UNL d   1       0.237  -1.193  -0.274  0.00  0.00     0.004 A 
ATOM      3  C4  UNL d   1      -0.427  -1.292   0.948  0.00  0.00    -0.003 A 
ATOM      4  C5  UNL d   1      -1.375  -0.338   1.301  0.00  0.00     0.000 A 
ATOM      5  C6  UNL d   1      -1.672   0.705   0.423  0.00  0.00     0.000 A 
ATOM      6  C7  UNL d   1      -1.024   0.810  -0.819  0.00  0.00    -0.073 A 
ATOM      7  C8  UNL d   1      -1.378   1.958  -1.724  0.00  0.00     0.078 C 
ENDROOT
BRANCH   1   8
ATOM      8  C1  UNL d   1       0.734  -0.069  -2.462  0.00  0.00     0.053 C 
ATOM      9  C   UNL d   1       0.635  -1.355  -3.268  0.00  0.00     0.018 C 
ENDBRANCH   1   8
TORSDOF 1
ENDMDL
