MODEL 1
REMARK minimizedAffinity -4.42616653
REMARK minimizedRMSD -1
REMARK  1 active torsions:
REMARK  status: ('A' for Active; 'I' for Inactive)
REMARK    1  A    between atoms: C1_2  and  C2_3 
ROOT
ATOM      1  C2  UNL d   1      -0.438  -0.231   1.369  0.00  0.00    -0.076 A 
ATOM      2  C3  UNL d   1      -1.496  -1.028   0.898  0.00  0.00     0.004 A 
ATOM      3  C4  UNL d   1      -2.546  -1.397   1.738  0.00  0.00    -0.003 A 
ATOM      4  C5  UNL d   1      -2.555  -0.975   3.063  0.00  0.00     0.000 A 
ATOM      5  C6  UNL d   1      -1.522  -0.169   3.542  0.00  0.00     0.000 A 
ATOM      6  C7  UNL d   1      -0.465   0.225   2.705  0.00  0.00    -0.073 A 
ATOM      7  C8  UNL d   1       0.625   1.090   3.276  0.00  0.00     0.078 C 
ENDROOT
BRANCH   1   8
ATOM      8  C1  UNL d   1       0.686   0.115   0.420  0.00  0.00     0.053 C 
ATOM      9  C   UNL d   1       0.193   0.813  -0.838  0.00  0.00     0.018 C 
ENDBRANCH   1   8
TORSDOF 1
ENDMDL
