MODEL 1
REMARK minimizedAffinity -3.46436834
REMARK minimizedRMSD -1
REMARK  1 active torsions:
REMARK  status: ('A' for Active; 'I' for Inactive)
REMARK    1  A    between atoms: C1_2  and  C2_3 
ROOT
ATOM      1  C2  UNL d   1       0.025   0.448   0.796  0.00  0.00    -0.076 A 
ATOM      2  C3  UNL d   1       0.976   1.118   0.006  0.00  0.00     0.004 A 
ATOM      3  C4  UNL d   1       2.014   1.841   0.592  0.00  0.00    -0.003 A 
ATOM      4  C5  UNL d   1       2.118   1.905   1.978  0.00  0.00     0.000 A 
ATOM      5  C6  UNL d   1       1.194   1.231   2.776  0.00  0.00     0.000 A 
ATOM      6  C7  UNL d   1       0.151   0.485   2.201  0.00  0.00    -0.073 A 
ATOM      7  C8  UNL d   1      -0.821  -0.216   3.110  0.00  0.00     0.078 C 
ENDROOT
BRANCH   1   8
ATOM      8  C1  UNL d   1      -1.094  -0.297   0.104  0.00  0.00     0.053 C 
ATOM      9  C   UNL d   1      -2.223   0.623  -0.335  0.00  0.00     0.018 C 
ENDBRANCH   1   8
TORSDOF 1
ENDMDL
