MODEL 1
REMARK minimizedAffinity -5.85774231
REMARK minimizedRMSD -1
REMARK  1 active torsions:
REMARK  status: ('A' for Active; 'I' for Inactive)
REMARK    1  A    between atoms: C1_2  and  C2_3 
ROOT
ATOM      1  C2  UNL d   1       0.102   0.130   1.181  0.00  0.00    -0.076 A 
ATOM      2  C3  UNL d   1      -0.455   0.132   2.471  0.00  0.00     0.004 A 
ATOM      3  C4  UNL d   1      -1.825   0.300   2.662  0.00  0.00    -0.003 A 
ATOM      4  C5  UNL d   1      -2.662   0.470   1.564  0.00  0.00     0.000 A 
ATOM      5  C6  UNL d   1      -2.129   0.453   0.275  0.00  0.00     0.000 A 
ATOM      6  C7  UNL d   1      -0.752   0.268   0.065  0.00  0.00    -0.073 A 
ATOM      7  C8  UNL d   1      -0.231   0.265  -1.346  0.00  0.00     0.078 C 
ENDROOT
BRANCH   1   8
ATOM      8  C1  UNL d   1       1.598  -0.030   1.037  0.00  0.00     0.053 C 
ATOM      9  C   UNL d   1       2.372   1.074   1.740  0.00  0.00     0.018 C 
ENDBRANCH   1   8
TORSDOF 1
ENDMDL
