MODEL 1
REMARK minimizedAffinity -5.63118362
REMARK minimizedRMSD -1
REMARK  2 active torsions:
REMARK  status: ('A' for Active; 'I' for Inactive)
REMARK    1  A    between atoms: C2'_3  and  C1'_4 
REMARK    2  A    between atoms: C1'_4  and  C1_5 
ROOT
ATOM      1  C1  I4B d   1       2.581   0.992  -0.663  0.00  0.00    -0.075 A 
ATOM      2  C2  I4B d   1       3.297   1.399  -1.761  0.00  0.00     0.003 A 
ATOM      3  C3  I4B d   1       4.027   2.612  -1.727  0.00  0.00     0.002 A 
ATOM      4  C4  I4B d   1       3.975   3.405  -0.599  0.00  0.00    -0.004 A 
ATOM      5  C5  I4B d   1       3.267   2.980   0.522  0.00  0.00     0.002 A 
ATOM      6  C6  I4B d   1       2.576   1.760   0.495  0.00  0.00     0.003 A 
ENDROOT
BRANCH   1   7
ATOM      7  C1' I4B d   1       1.794  -0.277  -0.745  0.00  0.00     0.060 C 
BRANCH   7   8
ATOM      8  C2' I4B d   1       0.891  -0.346   0.469  0.00  0.00    -0.013 C 
ATOM      9  C4' I4B d   1      -0.559  -0.239   0.077  0.00  0.00     0.013 C 
ATOM     10  C3' I4B d   1       1.166  -1.638   1.179  0.00  0.00     0.013 C 
ENDBRANCH   7   8
ENDBRANCH   1   7
TORSDOF 2
ENDMDL
