MODEL 1
REMARK minimizedAffinity -3.57656598
REMARK minimizedRMSD -1
REMARK  2 active torsions:
REMARK  status: ('A' for Active; 'I' for Inactive)
REMARK    1  A    between atoms: C2'_3  and  C1'_4 
REMARK    2  A    between atoms: C1'_4  and  C1_5 
ROOT
ATOM      1  C1  I4B d   1      -0.859   0.266  -0.098  0.00  0.00    -0.075 A 
ATOM      2  C2  I4B d   1      -1.476  -0.878   0.344  0.00  0.00     0.003 A 
ATOM      3  C3  I4B d   1      -2.396  -1.559  -0.488  0.00  0.00     0.002 A 
ATOM      4  C4  I4B d   1      -2.707  -1.038  -1.728  0.00  0.00    -0.004 A 
ATOM      5  C5  I4B d   1      -2.063   0.109  -2.184  0.00  0.00     0.002 A 
ATOM      6  C6  I4B d   1      -1.124   0.758  -1.369  0.00  0.00     0.003 A 
ENDROOT
BRANCH   1   7
ATOM      7  C1' I4B d   1       0.083   0.978   0.820  0.00  0.00     0.060 C 
BRANCH   7   8
ATOM      8  C2' I4B d   1       1.477   0.865   0.237  0.00  0.00    -0.013 C 
ATOM      9  C4' I4B d   1       2.412   1.867   0.862  0.00  0.00     0.013 C 
ATOM     10  C3' I4B d   1       1.960  -0.537   0.459  0.00  0.00     0.013 C 
ENDBRANCH   7   8
ENDBRANCH   1   7
TORSDOF 2
ENDMDL
