MODEL 1
REMARK minimizedAffinity -1.86274791
REMARK minimizedRMSD -1
REMARK  2 active torsions:
REMARK  status: ('A' for Active; 'I' for Inactive)
REMARK    1  A    between atoms: C2'_3  and  C1'_4 
REMARK    2  A    between atoms: C1'_4  and  C1_5 
ROOT
ATOM      1  C1  I4B d   1      -0.503  -0.538  -0.223  0.00  0.00    -0.075 A 
ATOM      2  C2  I4B d   1       0.638  -1.207   0.143  0.00  0.00     0.003 A 
ATOM      3  C3  I4B d   1       0.625  -2.087   1.252  0.00  0.00     0.002 A 
ATOM      4  C4  I4B d   1      -0.531  -2.228   1.993  0.00  0.00    -0.004 A 
ATOM      5  C5  I4B d   1      -1.693  -1.566   1.607  0.00  0.00     0.002 A 
ATOM      6  C6  I4B d   1      -1.683  -0.726   0.485  0.00  0.00     0.003 A 
ENDROOT
BRANCH   1   7
ATOM      7  C1' I4B d   1      -0.444   0.408  -1.380  0.00  0.00     0.060 C 
BRANCH   7   8
ATOM      8  C2' I4B d   1      -0.792  -0.366  -2.635  0.00  0.00    -0.013 C 
ATOM      9  C4' I4B d   1      -2.007  -1.231  -2.423  0.00  0.00     0.013 C 
ATOM     10  C3' I4B d   1      -1.016   0.621  -3.741  0.00  0.00     0.013 C 
ENDBRANCH   7   8
ENDBRANCH   1   7
TORSDOF 2
ENDMDL
