MODEL 1
REMARK minimizedAffinity -2.74918962
REMARK minimizedRMSD -1
REMARK  2 active torsions:
REMARK  status: ('A' for Active; 'I' for Inactive)
REMARK    1  A    between atoms: C2'_3  and  C1'_4 
REMARK    2  A    between atoms: C1'_4  and  C1_5 
ROOT
ATOM      1  C1  I4B d   1      -0.788   0.097  -0.868  0.00  0.00    -0.075 A 
ATOM      2  C2  I4B d   1       0.012  -0.917  -0.402  0.00  0.00     0.003 A 
ATOM      3  C3  I4B d   1       1.151  -0.622   0.385  0.00  0.00     0.002 A 
ATOM      4  C4  I4B d   1       1.480   0.695   0.637  0.00  0.00    -0.004 A 
ATOM      5  C5  I4B d   1       0.656   1.720   0.183  0.00  0.00     0.002 A 
ATOM      6  C6  I4B d   1      -0.493   1.419  -0.564  0.00  0.00     0.003 A 
ENDROOT
BRANCH   1   7
ATOM      7  C1' I4B d   1      -1.965  -0.249  -1.724  0.00  0.00     0.060 C 
BRANCH   7   8
ATOM      8  C2' I4B d   1      -2.482  -1.603  -1.282  0.00  0.00    -0.013 C 
ATOM      9  C4' I4B d   1      -3.832  -1.484  -0.626  0.00  0.00     0.013 C 
ATOM     10  C3' I4B d   1      -2.542  -2.492  -2.488  0.00  0.00     0.013 C 
ENDBRANCH   7   8
ENDBRANCH   1   7
TORSDOF 2
ENDMDL
