MODEL 1
REMARK minimizedAffinity -6.12688255
REMARK minimizedRMSD -1
REMARK  2 active torsions:
REMARK  status: ('A' for Active; 'I' for Inactive)
REMARK    1  A    between atoms: C2'_3  and  C1'_4 
REMARK    2  A    between atoms: C1'_4  and  C1_5 
ROOT
ATOM      1  C1  I4B d   1       0.646   1.105   0.464  0.00  0.00    -0.075 A 
ATOM      2  C2  I4B d   1       0.352   2.348  -0.039  0.00  0.00     0.003 A 
ATOM      3  C3  I4B d   1       1.291   3.402   0.068  0.00  0.00     0.002 A 
ATOM      4  C4  I4B d   1       2.485   3.184   0.726  0.00  0.00    -0.004 A 
ATOM      5  C5  I4B d   1       2.791   1.918   1.215  0.00  0.00     0.002 A 
ATOM      6  C6  I4B d   1       1.872   0.868   1.073  0.00  0.00     0.003 A 
ENDROOT
BRANCH   1   7
ATOM      7  C1' I4B d   1      -0.382   0.024   0.363  0.00  0.00     0.060 C 
BRANCH   7   8
ATOM      8  C2' I4B d   1      -1.362   0.413  -0.726  0.00  0.00    -0.013 C 
ATOM      9  C4' I4B d   1      -0.981  -0.201  -2.047  0.00  0.00     0.013 C 
ATOM     10  C3' I4B d   1      -2.729  -0.030  -0.297  0.00  0.00     0.013 C 
ENDBRANCH   7   8
ENDBRANCH   1   7
TORSDOF 2
ENDMDL
