MODEL 1
REMARK minimizedAffinity -5.09194326
REMARK minimizedRMSD -1
REMARK  2 active torsions:
REMARK  status: ('A' for Active; 'I' for Inactive)
REMARK    1  A    between atoms: C2'_3  and  C1'_4 
REMARK    2  A    between atoms: C1'_4  and  C1_5 
ROOT
ATOM      1  C1  I4B d   1       0.280   0.289  -0.265  0.00  0.00    -0.075 A 
ATOM      2  C2  I4B d   1      -0.173   0.754  -1.474  0.00  0.00     0.003 A 
ATOM      3  C3  I4B d   1      -1.466   0.404  -1.933  0.00  0.00     0.002 A 
ATOM      4  C4  I4B d   1      -2.248  -0.447  -1.178  0.00  0.00    -0.004 A 
ATOM      5  C5  I4B d   1      -1.795  -0.898   0.058  0.00  0.00     0.002 A 
ATOM      6  C6  I4B d   1      -0.528  -0.518   0.524  0.00  0.00     0.003 A 
ENDROOT
BRANCH   1   7
ATOM      7  C1' I4B d   1       1.664   0.651   0.173  0.00  0.00     0.060 C 
BRANCH   7   8
ATOM      8  C2' I4B d   1       1.590   1.975   0.907  0.00  0.00    -0.013 C 
ATOM      9  C4' I4B d   1       2.303   1.905   2.231  0.00  0.00     0.013 C 
ATOM     10  C3' I4B d   1       2.191   3.028   0.023  0.00  0.00     0.013 C 
ENDBRANCH   7   8
ENDBRANCH   1   7
TORSDOF 2
ENDMDL
