MODEL 1
REMARK minimizedAffinity 0.640335083
REMARK minimizedRMSD -1
REMARK  2 active torsions:
REMARK  status: ('A' for Active; 'I' for Inactive)
REMARK    1  A    between atoms: C2'_3  and  C1'_4 
REMARK    2  A    between atoms: C1'_4  and  C1_5 
ROOT
ATOM      1  C1  I4B d   1      -0.087   0.965   0.901  0.00  0.00    -0.075 A 
ATOM      2  C2  I4B d   1       0.592  -0.228   0.882  0.00  0.00     0.003 A 
ATOM      3  C3  I4B d   1      -0.083  -1.436   1.181  0.00  0.00     0.002 A 
ATOM      4  C4  I4B d   1      -1.414  -1.400   1.541  0.00  0.00    -0.004 A 
ATOM      5  C5  I4B d   1      -2.106  -0.193   1.538  0.00  0.00     0.002 A 
ATOM      6  C6  I4B d   1      -1.442   0.996   1.204  0.00  0.00     0.003 A 
ENDROOT
BRANCH   1   7
ATOM      7  C1' I4B d   1       0.664   2.226   0.613  0.00  0.00     0.060 C 
BRANCH   7   8
ATOM      8  C2' I4B d   1       1.918   2.228   1.463  0.00  0.00    -0.013 C 
ATOM      9  C4' I4B d   1       2.877   3.301   1.018  0.00  0.00     0.013 C 
ATOM     10  C3' I4B d   1       1.507   2.428   2.892  0.00  0.00     0.013 C 
ENDBRANCH   7   8
ENDBRANCH   1   7
TORSDOF 2
ENDMDL
