MODEL 1
REMARK minimizedAffinity 7.68400145
REMARK minimizedRMSD -1
REMARK  0 active torsions:
REMARK  status: ('A' for Active; 'I' for Inactive)
ROOT
ATOM      1  C1  DEN d   1       0.378   2.689   2.331  0.00  0.00     0.130 A 
ATOM      2  C2  DEN d   1       1.442   2.998   3.282  0.00  0.00    -0.031 A 
ATOM      3  C3  DEN d   1       2.271   1.788   3.450  0.00  0.00     0.027 A 
ATOM      4  C4  DEN d   1       2.014  -0.523   2.333  0.00  0.00     0.027 A 
ATOM      5  C5  DEN d   1       1.253  -1.269   1.460  0.00  0.00    -0.003 A 
ATOM      6  C6  DEN d   1       0.137  -0.764   0.848  0.00  0.00     0.001 A 
ATOM      7  C7  DEN d   1      -0.225   0.540   1.065  0.00  0.00     0.017 A 
ATOM      8  C8  DEN d   1       0.533   1.296   1.949  0.00  0.00    -0.094 A 
ATOM      9  C9  DEN d   1       1.665   0.771   2.549  0.00  0.00    -0.072 A 
ENDROOT
TORSDOF 0
ENDMDL
