MODEL 1
REMARK minimizedAffinity 4.71350098
REMARK minimizedRMSD -1
REMARK  0 active torsions:
REMARK  status: ('A' for Active; 'I' for Inactive)
ROOT
ATOM      1  C1  DEN d   1       0.202  -1.922   0.743  0.00  0.00     0.130 A 
ATOM      2  C2  DEN d   1       0.746  -1.011   1.746  0.00  0.00    -0.031 A 
ATOM      3  C3  DEN d   1       0.427   0.369   1.330  0.00  0.00     0.027 A 
ATOM      4  C4  DEN d   1      -0.855   1.180  -0.757  0.00  0.00     0.027 A 
ATOM      5  C5  DEN d   1      -1.500   0.776  -1.905  0.00  0.00    -0.003 A 
ATOM      6  C6  DEN d   1      -1.593  -0.542  -2.265  0.00  0.00     0.001 A 
ATOM      7  C7  DEN d   1      -1.070  -1.508  -1.446  0.00  0.00     0.017 A 
ATOM      8  C8  DEN d   1      -0.412  -1.108  -0.291  0.00  0.00    -0.094 A 
ATOM      9  C9  DEN d   1      -0.339   0.228   0.063  0.00  0.00    -0.072 A 
ENDROOT
TORSDOF 0
ENDMDL
