MODEL 1
REMARK minimizedAffinity 6.42361403
REMARK minimizedRMSD -1
REMARK  0 active torsions:
REMARK  status: ('A' for Active; 'I' for Inactive)
ROOT
ATOM      1  C1  DEN d   1      -0.407   1.387  -0.399  0.00  0.00     0.130 A 
ATOM      2  C2  DEN d   1      -0.248   0.094  -1.059  0.00  0.00    -0.031 A 
ATOM      3  C3  DEN d   1       0.226  -0.877  -0.052  0.00  0.00     0.027 A 
ATOM      4  C4  DEN d   1       0.720  -0.507   2.452  0.00  0.00     0.027 A 
ATOM      5  C5  DEN d   1       0.744   0.425   3.465  0.00  0.00    -0.003 A 
ATOM      6  C6  DEN d   1       0.421   1.739   3.256  0.00  0.00     0.001 A 
ATOM      7  C7  DEN d   1       0.016   2.149   2.013  0.00  0.00     0.017 A 
ATOM      8  C8  DEN d   1      -0.003   1.217   0.985  0.00  0.00    -0.094 A 
ATOM      9  C9  DEN d   1       0.316  -0.110   1.219  0.00  0.00    -0.072 A 
ENDROOT
TORSDOF 0
ENDMDL
