MODEL 1
REMARK minimizedAffinity 0.460098356
REMARK minimizedRMSD -1
REMARK  0 active torsions:
REMARK  status: ('A' for Active; 'I' for Inactive)
ROOT
ATOM      1  C1  DEN d   1       0.242   1.178   0.300  0.00  0.00     0.130 A 
ATOM      2  C2  DEN d   1       0.770   0.374   1.400  0.00  0.00    -0.031 A 
ATOM      3  C3  DEN d   1       1.488   1.277   2.321  0.00  0.00     0.027 A 
ATOM      4  C4  DEN d   1       1.829   3.828   2.156  0.00  0.00     0.027 A 
ATOM      5  C5  DEN d   1       1.576   4.948   1.394  0.00  0.00    -0.003 A 
ATOM      6  C6  DEN d   1       0.895   4.885   0.208  0.00  0.00     0.001 A 
ATOM      7  C7  DEN d   1       0.404   3.683  -0.231  0.00  0.00     0.017 A 
ATOM      8  C8  DEN d   1       0.663   2.549   0.528  0.00  0.00    -0.094 A 
ATOM      9  C9  DEN d   1       1.342   2.635   1.731  0.00  0.00    -0.072 A 
ENDROOT
TORSDOF 0
ENDMDL
