MODEL 1
REMARK minimizedAffinity 1.02540994
REMARK minimizedRMSD -1
REMARK  0 active torsions:
REMARK  status: ('A' for Active; 'I' for Inactive)
ROOT
ATOM      1  C1  DEN d   1       2.199   1.657   2.947  0.00  0.00     0.130 A 
ATOM      2  C2  DEN d   1       1.417   2.891   2.939  0.00  0.00    -0.031 A 
ATOM      3  C3  DEN d   1       0.508   2.848   1.777  0.00  0.00     0.027 A 
ATOM      4  C4  DEN d   1       0.231   0.999  -0.000  0.00  0.00     0.027 A 
ATOM      5  C5  DEN d   1       0.685  -0.233  -0.418  0.00  0.00    -0.003 A 
ATOM      6  C6  DEN d   1       1.690  -0.900   0.231  0.00  0.00     0.001 A 
ATOM      7  C7  DEN d   1       2.244  -0.359   1.361  0.00  0.00     0.017 A 
ATOM      8  C8  DEN d   1       1.797   0.886   1.784  0.00  0.00    -0.094 A 
ATOM      9  C9  DEN d   1       0.772   1.539   1.122  0.00  0.00    -0.072 A 
ENDROOT
TORSDOF 0
ENDMDL
