MODEL 1
REMARK minimizedAffinity -3.6023531
REMARK minimizedRMSD -1
REMARK  0 active torsions:
REMARK  status: ('A' for Active; 'I' for Inactive)
ROOT
ATOM      1  C1  DEN d   1      -0.227   1.627   0.444  0.00  0.00     0.130 A 
ATOM      2  C2  DEN d   1      -0.056   0.653   1.519  0.00  0.00    -0.031 A 
ATOM      3  C3  DEN d   1       0.825   1.253   2.541  0.00  0.00     0.027 A 
ATOM      4  C4  DEN d   1       1.930   3.583   2.566  0.00  0.00     0.027 A 
ATOM      5  C5  DEN d   1       2.087   4.759   1.866  0.00  0.00    -0.003 A 
ATOM      6  C6  DEN d   1       1.516   4.958   0.637  0.00  0.00     0.001 A 
ATOM      7  C7  DEN d   1       0.723   3.984   0.091  0.00  0.00     0.017 A 
ATOM      8  C8  DEN d   1       0.566   2.793   0.787  0.00  0.00    -0.094 A 
ATOM      9  C9  DEN d   1       1.142   2.615   2.034  0.00  0.00    -0.072 A 
ENDROOT
TORSDOF 0
ENDMDL
