MODEL 1
REMARK minimizedAffinity -3.04424572
REMARK minimizedRMSD -1
REMARK  0 active torsions:
REMARK  status: ('A' for Active; 'I' for Inactive)
ROOT
ATOM      1  C1  DEN d   1       0.318   3.810  -0.383  0.00  0.00     0.130 A 
ATOM      2  C2  DEN d   1       1.534   4.618  -0.358  0.00  0.00    -0.031 A 
ATOM      3  C3  DEN d   1       2.348   4.183   0.795  0.00  0.00     0.027 A 
ATOM      4  C4  DEN d   1       1.846   2.344   2.533  0.00  0.00     0.027 A 
ATOM      5  C5  DEN d   1       0.930   1.396   2.931  0.00  0.00    -0.003 A 
ATOM      6  C6  DEN d   1      -0.259   1.210   2.277  0.00  0.00     0.001 A 
ATOM      7  C7  DEN d   1      -0.545   1.954   1.163  0.00  0.00     0.017 A 
ATOM      8  C8  DEN d   1       0.370   2.917   0.760  0.00  0.00    -0.094 A 
ATOM      9  C9  DEN d   1       1.572   3.081   1.427  0.00  0.00    -0.072 A 
ENDROOT
TORSDOF 0
ENDMDL
