MODEL 1
REMARK minimizedAffinity 3.34107542
REMARK minimizedRMSD -1
REMARK  0 active torsions:
REMARK  status: ('A' for Active; 'I' for Inactive)
ROOT
ATOM      1  C1  DEN d   1      -0.645   1.141   2.161  0.00  0.00     0.130 A 
ATOM      2  C2  DEN d   1       0.718   1.024   1.651  0.00  0.00    -0.031 A 
ATOM      3  C3  DEN d   1       0.642   0.605   0.237  0.00  0.00     0.027 A 
ATOM      4  C4  DEN d   1      -1.443   0.133  -1.206  0.00  0.00     0.027 A 
ATOM      5  C5  DEN d   1      -2.819   0.087  -1.208  0.00  0.00    -0.003 A 
ATOM      6  C6  DEN d   1      -3.561   0.353  -0.088  0.00  0.00     0.001 A 
ATOM      7  C7  DEN d   1      -2.930   0.722   1.071  0.00  0.00     0.017 A 
ATOM      8  C8  DEN d   1      -1.542   0.764   1.083  0.00  0.00    -0.094 A 
ATOM      9  C9  DEN d   1      -0.811   0.503  -0.063  0.00  0.00    -0.072 A 
ENDROOT
TORSDOF 0
ENDMDL
