MODEL 1
REMARK minimizedAffinity -2.49983025
REMARK minimizedRMSD -1
REMARK  0 active torsions:
REMARK  status: ('A' for Active; 'I' for Inactive)
ROOT
ATOM      1  C2' OXE d   1      -2.413   0.799   0.737  0.00  0.00     0.078 C 
ATOM      2  C1' OXE d   1      -0.241   2.039  -0.538  0.00  0.00     0.078 C 
ATOM      3  C1  OXE d   1      -0.125   0.569  -0.221  0.00  0.00    -0.078 A 
ATOM      4  C2  OXE d   1      -1.173  -0.019   0.445  0.00  0.00    -0.078 A 
ATOM      5  C3  OXE d   1      -1.141  -1.384   0.713  0.00  0.00     0.003 A 
ATOM      6  C4  OXE d   1       0.013  -2.131   0.448  0.00  0.00    -0.002 A 
ATOM      7  C5  OXE d   1       1.108  -1.543  -0.194  0.00  0.00    -0.002 A 
ATOM      8  C6  OXE d   1       1.039  -0.207  -0.572  0.00  0.00     0.003 A 
ENDROOT
TORSDOF 0
ENDMDL
