MODEL 1
REMARK minimizedAffinity -4.45996571
REMARK minimizedRMSD -1
REMARK  0 active torsions:
REMARK  status: ('A' for Active; 'I' for Inactive)
ROOT
ATOM      1  C2' OXE d   1      -0.322   1.057   0.507  0.00  0.00     0.078 C 
ATOM      2  C1' OXE d   1       0.109  -1.518  -0.527  0.00  0.00     0.078 C 
ATOM      3  C1  OXE d   1       1.283  -0.805   0.096  0.00  0.00    -0.078 A 
ATOM      4  C2  OXE d   1       1.074   0.473   0.558  0.00  0.00    -0.078 A 
ATOM      5  C3  OXE d   1       2.109   1.155   1.191  0.00  0.00     0.003 A 
ATOM      6  C4  OXE d   1       3.399   0.612   1.224  0.00  0.00    -0.002 A 
ATOM      7  C5  OXE d   1       3.643  -0.672   0.725  0.00  0.00    -0.002 A 
ATOM      8  C6  OXE d   1       2.588  -1.409   0.197  0.00  0.00     0.003 A 
ENDROOT
TORSDOF 0
ENDMDL
