MODEL 1
REMARK minimizedAffinity -6.03188705
REMARK minimizedRMSD -1
REMARK  0 active torsions:
REMARK  status: ('A' for Active; 'I' for Inactive)
ROOT
ATOM      1  C2' OXE d   1      -0.593   0.743   0.183  0.00  0.00     0.078 C 
ATOM      2  C1' OXE d   1      -0.172  -1.928  -0.571  0.00  0.00     0.078 C 
ATOM      3  C1  OXE d   1       1.015  -1.142  -0.073  0.00  0.00    -0.078 A 
ATOM      4  C2  OXE d   1       0.809   0.178   0.250  0.00  0.00    -0.078 A 
ATOM      5  C3  OXE d   1       1.858   0.933   0.766  0.00  0.00     0.003 A 
ATOM      6  C4  OXE d   1       3.154   0.405   0.816  0.00  0.00    -0.002 A 
ATOM      7  C5  OXE d   1       3.393  -0.925   0.455  0.00  0.00    -0.002 A 
ATOM      8  C6  OXE d   1       2.329  -1.723   0.050  0.00  0.00     0.003 A 
ENDROOT
TORSDOF 0
ENDMDL
