MODEL 1
REMARK minimizedAffinity -5.05642939
REMARK minimizedRMSD -1
REMARK  0 active torsions:
REMARK  status: ('A' for Active; 'I' for Inactive)
ROOT
ATOM      1  C2' OXE d   1      -0.366   0.956  -0.416  0.00  0.00     0.078 C 
ATOM      2  C1' OXE d   1       1.962   2.303   0.390  0.00  0.00     0.078 C 
ATOM      3  C1  OXE d   1       2.008   0.796   0.322  0.00  0.00    -0.078 A 
ATOM      4  C2  OXE d   1       0.851   0.144  -0.028  0.00  0.00    -0.078 A 
ATOM      5  C3  OXE d   1       0.854  -1.242  -0.158  0.00  0.00     0.003 A 
ATOM      6  C4  OXE d   1       1.980  -1.987   0.213  0.00  0.00    -0.002 A 
ATOM      7  C5  OXE d   1       3.157  -1.344   0.610  0.00  0.00    -0.002 A 
ATOM      8  C6  OXE d   1       3.201   0.046   0.630  0.00  0.00     0.003 A 
ENDROOT
TORSDOF 0
ENDMDL
