MODEL 1
REMARK minimizedAffinity -5.53891468
REMARK minimizedRMSD -1
REMARK  0 active torsions:
REMARK  status: ('A' for Active; 'I' for Inactive)
ROOT
ATOM      1  C2' OXE d   1      -1.251   0.470  -0.040  0.00  0.00     0.078 C 
ATOM      2  C1' OXE d   1      -0.379  -2.174  -0.401  0.00  0.00     0.078 C 
ATOM      3  C1  OXE d   1       0.652  -1.138  -0.029  0.00  0.00    -0.078 A 
ATOM      4  C2  OXE d   1       0.225   0.162   0.100  0.00  0.00    -0.078 A 
ATOM      5  C3  OXE d   1       1.124   1.148   0.496  0.00  0.00     0.003 A 
ATOM      6  C4  OXE d   1       2.489   0.856   0.613  0.00  0.00    -0.002 A 
ATOM      7  C5  OXE d   1       2.952  -0.454   0.448  0.00  0.00    -0.002 A 
ATOM      8  C6  OXE d   1       2.042  -1.468   0.169  0.00  0.00     0.003 A 
ENDROOT
TORSDOF 0
ENDMDL
