MODEL 1
REMARK minimizedAffinity -5.94859695
REMARK minimizedRMSD -1
REMARK  0 active torsions:
REMARK  status: ('A' for Active; 'I' for Inactive)
ROOT
ATOM      1  C2' OXE d   1      -0.002  -1.807  -1.022  0.00  0.00     0.078 C 
ATOM      2  C1' OXE d   1      -0.240   0.988  -0.913  0.00  0.00     0.078 C 
ATOM      3  C1  OXE d   1       1.056   0.373  -0.445  0.00  0.00    -0.078 A 
ATOM      4  C2  OXE d   1       1.146  -0.998  -0.458  0.00  0.00    -0.078 A 
ATOM      5  C3  OXE d   1       2.338  -1.614  -0.088  0.00  0.00     0.003 A 
ATOM      6  C4  OXE d   1       3.391  -0.859   0.442  0.00  0.00    -0.002 A 
ATOM      7  C5  OXE d   1       3.305   0.536   0.502  0.00  0.00    -0.002 A 
ATOM      8  C6  OXE d   1       2.163   1.169   0.024  0.00  0.00     0.003 A 
ENDROOT
TORSDOF 0
ENDMDL
