MODEL 1
REMARK minimizedAffinity -4.46054649
REMARK minimizedRMSD -1
REMARK  0 active torsions:
REMARK  status: ('A' for Active; 'I' for Inactive)
ROOT
ATOM      1  C2' OXE d   1      -1.207   0.265  -0.377  0.00  0.00     0.078 C 
ATOM      2  C1' OXE d   1      -0.209  -2.183  -1.323  0.00  0.00     0.078 C 
ATOM      3  C1  OXE d   1       0.774  -1.204  -0.731  0.00  0.00    -0.078 A 
ATOM      4  C2  OXE d   1       0.283   0.010  -0.313  0.00  0.00    -0.078 A 
ATOM      5  C3  OXE d   1       1.138   0.928   0.291  0.00  0.00     0.003 A 
ATOM      6  C4  OXE d   1       2.517   0.689   0.337  0.00  0.00    -0.002 A 
ATOM      7  C5  OXE d   1       3.043  -0.524  -0.119  0.00  0.00    -0.002 A 
ATOM      8  C6  OXE d   1       2.181  -1.497  -0.616  0.00  0.00     0.003 A 
ENDROOT
TORSDOF 0
ENDMDL
