MODEL 1
REMARK minimizedAffinity -5.31626034
REMARK minimizedRMSD -1
REMARK  0 active torsions:
REMARK  status: ('A' for Active; 'I' for Inactive)
ROOT
ATOM      1  C2' OXE d   1       0.187  -0.919  -0.584  0.00  0.00     0.078 C 
ATOM      2  C1' OXE d   1       0.702   1.840  -0.588  0.00  0.00     0.078 C 
ATOM      3  C1  OXE d   1       1.782   0.924  -0.070  0.00  0.00    -0.078 A 
ATOM      4  C2  OXE d   1       1.504  -0.421  -0.028  0.00  0.00    -0.078 A 
ATOM      5  C3  OXE d   1       2.485  -1.315   0.390  0.00  0.00     0.003 A 
ATOM      6  C4  OXE d   1       3.697  -0.845   0.912  0.00  0.00    -0.002 A 
ATOM      7  C5  OXE d   1       3.985   0.524   0.915  0.00  0.00    -0.002 A 
ATOM      8  C6  OXE d   1       3.057   1.417   0.389  0.00  0.00     0.003 A 
ENDROOT
TORSDOF 0
ENDMDL
