MODEL 1
REMARK minimizedAffinity -4.03540993
REMARK minimizedRMSD -1
REMARK  0 active torsions:
REMARK  status: ('A' for Active; 'I' for Inactive)
ROOT
ATOM      1  C2' OXE d   1      -0.725  -2.653  -0.366  0.00  0.00     0.078 C 
ATOM      2  C1' OXE d   1      -1.907  -0.198   0.307  0.00  0.00     0.078 C 
ATOM      3  C1  OXE d   1      -0.413  -0.227   0.104  0.00  0.00    -0.078 A 
ATOM      4  C2  OXE d   1       0.163  -1.442  -0.179  0.00  0.00    -0.078 A 
ATOM      5  C3  OXE d   1       1.530  -1.515  -0.429  0.00  0.00     0.003 A 
ATOM      6  C4  OXE d   1       2.346  -0.392  -0.245  0.00  0.00    -0.002 A 
ATOM      7  C5  OXE d   1       1.784   0.847   0.083  0.00  0.00    -0.002 A 
ATOM      8  C6  OXE d   1       0.405   0.955   0.218  0.00  0.00     0.003 A 
ENDROOT
TORSDOF 0
ENDMDL
