MODEL 1
REMARK minimizedAffinity -2.54112148
REMARK minimizedRMSD -1
REMARK  0 active torsions:
REMARK  status: ('A' for Active; 'I' for Inactive)
ROOT
ATOM      1  C2' OXE d   1      -1.038   0.613  -0.289  0.00  0.00     0.078 C 
ATOM      2  C1' OXE d   1       1.306   2.077   0.205  0.00  0.00     0.078 C 
ATOM      3  C1  OXE d   1       1.411   0.573   0.165  0.00  0.00    -0.078 A 
ATOM      4  C2  OXE d   1       0.251  -0.137  -0.031  0.00  0.00    -0.078 A 
ATOM      5  C3  OXE d   1       0.301  -1.524  -0.130  0.00  0.00     0.003 A 
ATOM      6  C4  OXE d   1       1.495  -2.211   0.120  0.00  0.00    -0.002 A 
ATOM      7  C5  OXE d   1       2.680  -1.509   0.361  0.00  0.00    -0.002 A 
ATOM      8  C6  OXE d   1       2.664  -0.118   0.345  0.00  0.00     0.003 A 
ENDROOT
TORSDOF 0
ENDMDL
