MODEL 1
REMARK minimizedAffinity 1.98932624
REMARK minimizedRMSD -1
REMARK  0 active torsions:
REMARK  status: ('A' for Active; 'I' for Inactive)
ROOT
ATOM      1  C2' OXE d   1       0.708   0.106   0.146  0.00  0.00     0.078 C 
ATOM      2  C1' OXE d   1       2.448  -1.947  -0.653  0.00  0.00     0.078 C 
ATOM      3  C1  OXE d   1       2.988  -0.539  -0.622  0.00  0.00    -0.078 A 
ATOM      4  C2  OXE d   1       2.117   0.465  -0.275  0.00  0.00    -0.078 A 
ATOM      5  C3  OXE d   1       2.578   1.775  -0.177  0.00  0.00     0.003 A 
ATOM      6  C4  OXE d   1       3.879   2.100  -0.578  0.00  0.00    -0.002 A 
ATOM      7  C5  OXE d   1       4.772   1.098  -0.973  0.00  0.00    -0.002 A 
ATOM      8  C6  OXE d   1       4.356  -0.229  -0.960  0.00  0.00     0.003 A 
ENDROOT
TORSDOF 0
ENDMDL
