MODEL 1
REMARK minimizedAffinity 1.14555395
REMARK minimizedRMSD -1
REMARK  1 active torsions:
REMARK  status: ('A' for Active; 'I' for Inactive)
REMARK    1  A    between atoms: C1_2  and  C2_3 
ROOT
ATOM      1  C2  UNL d   1       3.959  -2.677  -0.993  0.00  0.00    -0.077 A 
ATOM      2  C3  UNL d   1       5.356  -2.692  -1.115  0.00  0.00     0.002 A 
ATOM      3  C4  UNL d   1       5.998  -3.765  -1.735  0.00  0.00     0.002 A 
ATOM      4  C5  UNL d   1       5.253  -4.828  -2.241  0.00  0.00    -0.004 A 
ATOM      5  C6  UNL d   1       3.864  -4.823  -2.122  0.00  0.00     0.002 A 
ATOM      6  C7  UNL d   1       3.220  -3.752  -1.502  0.00  0.00     0.002 A 
ENDROOT
BRANCH   1   7
ATOM      7  C1  UNL d   1       3.260  -1.497  -0.369  0.00  0.00     0.055 C 
ATOM      8  C   UNL d   1       2.002  -1.927   0.371  0.00  0.00     0.019 C 
ENDBRANCH   1   7
TORSDOF 1
ENDMDL
