MODEL 1
REMARK minimizedAffinity 11.1431513
REMARK minimizedRMSD -1
REMARK  1 active torsions:
REMARK  status: ('A' for Active; 'I' for Inactive)
REMARK    1  A    between atoms: C1_2  and  C2_3 
ROOT
ATOM      1  C2  UNL d   1      -0.203   1.807   0.076  0.00  0.00    -0.077 A 
ATOM      2  C3  UNL d   1       0.547   0.859  -0.633  0.00  0.00     0.002 A 
ATOM      3  C4  UNL d   1      -0.091  -0.162  -1.340  0.00  0.00     0.002 A 
ATOM      4  C5  UNL d   1      -1.482  -0.242  -1.347  0.00  0.00    -0.004 A 
ATOM      5  C6  UNL d   1      -2.237   0.695  -0.643  0.00  0.00     0.002 A 
ATOM      6  C7  UNL d   1      -1.601   1.716   0.064  0.00  0.00     0.002 A 
ENDROOT
BRANCH   1   7
ATOM      7  C1  UNL d   1       0.482   2.938   0.797  0.00  0.00     0.055 C 
ATOM      8  C   UNL d   1       0.488   4.208  -0.042  0.00  0.00     0.019 C 
ENDBRANCH   1   7
TORSDOF 1
ENDMDL
