MODEL 1
REMARK minimizedAffinity 9.80575562
REMARK minimizedRMSD -1
REMARK  1 active torsions:
REMARK  status: ('A' for Active; 'I' for Inactive)
REMARK    1  A    between atoms: C1_2  and  C2_3 
ROOT
ATOM      1  C2  UNL d   1      -0.009   3.402   0.427  0.00  0.00    -0.077 A 
ATOM      2  C3  UNL d   1      -0.898   4.162   1.201  0.00  0.00     0.002 A 
ATOM      3  C4  UNL d   1      -1.247   5.455   0.810  0.00  0.00     0.002 A 
ATOM      4  C5  UNL d   1      -0.717   5.999  -0.358  0.00  0.00    -0.004 A 
ATOM      5  C6  UNL d   1       0.169   5.253  -1.134  0.00  0.00     0.002 A 
ATOM      6  C7  UNL d   1       0.520   3.960  -0.744  0.00  0.00     0.002 A 
ENDROOT
BRANCH   1   7
ATOM      7  C1  UNL d   1       0.331   1.989   0.821  0.00  0.00     0.055 C 
ATOM      8  C   UNL d   1       0.307   1.057  -0.382  0.00  0.00     0.019 C 
ENDBRANCH   1   7
TORSDOF 1
ENDMDL
