MODEL 1
REMARK minimizedAffinity 5.38552523
REMARK minimizedRMSD -1
REMARK  1 active torsions:
REMARK  status: ('A' for Active; 'I' for Inactive)
REMARK    1  A    between atoms: C1_2  and  C2_3 
ROOT
ATOM      1  C2  UNL d   1      -0.175   3.749   1.657  0.00  0.00    -0.077 A 
ATOM      2  C3  UNL d   1      -0.765   4.974   1.999  0.00  0.00     0.002 A 
ATOM      3  C4  UNL d   1      -0.861   5.999   1.056  0.00  0.00     0.002 A 
ATOM      4  C5  UNL d   1      -0.373   5.809  -0.235  0.00  0.00    -0.004 A 
ATOM      5  C6  UNL d   1       0.217   4.595  -0.585  0.00  0.00     0.002 A 
ATOM      6  C7  UNL d   1       0.315   3.569   0.357  0.00  0.00     0.002 A 
ENDROOT
BRANCH   1   7
ATOM      7  C1  UNL d   1      -0.115   2.625   2.657  0.00  0.00     0.055 C 
ATOM      8  C   UNL d   1      -1.504   2.083   2.965  0.00  0.00     0.019 C 
ENDBRANCH   1   7
TORSDOF 1
ENDMDL
