MODEL 1
REMARK minimizedAffinity 7.60353422
REMARK minimizedRMSD -1
REMARK  1 active torsions:
REMARK  status: ('A' for Active; 'I' for Inactive)
REMARK    1  A    between atoms: C1_2  and  C2_3 
ROOT
ATOM      1  C2  UNL d   1       4.440  -4.062  -2.692  0.00  0.00    -0.077 A 
ATOM      2  C3  UNL d   1       4.681  -2.681  -2.665  0.00  0.00     0.002 A 
ATOM      3  C4  UNL d   1       5.332  -2.099  -1.575  0.00  0.00     0.002 A 
ATOM      4  C5  UNL d   1       5.752  -2.891  -0.508  0.00  0.00    -0.004 A 
ATOM      5  C6  UNL d   1       5.515  -4.265  -0.525  0.00  0.00     0.002 A 
ATOM      6  C7  UNL d   1       4.863  -4.848  -1.612  0.00  0.00     0.002 A 
ENDROOT
BRANCH   1   7
ATOM      7  C1  UNL d   1       3.781  -4.699  -3.888  0.00  0.00     0.055 C 
ATOM      8  C   UNL d   1       4.799  -5.417  -4.763  0.00  0.00     0.019 C 
ENDBRANCH   1   7
TORSDOF 1
ENDMDL
