MODEL 1
REMARK minimizedAffinity 6.63156557
REMARK minimizedRMSD -1
REMARK  1 active torsions:
REMARK  status: ('A' for Active; 'I' for Inactive)
REMARK    1  A    between atoms: C1_2  and  C2_3 
ROOT
ATOM      1  C2  UNL d   1       2.996  -3.618  -0.543  0.00  0.00    -0.077 A 
ATOM      2  C3  UNL d   1       3.166  -2.230  -0.653  0.00  0.00     0.002 A 
ATOM      3  C4  UNL d   1       4.242  -1.705  -1.371  0.00  0.00     0.002 A 
ATOM      4  C5  UNL d   1       5.154  -2.558  -1.987  0.00  0.00    -0.004 A 
ATOM      5  C6  UNL d   1       4.995  -3.940  -1.882  0.00  0.00     0.002 A 
ATOM      6  C7  UNL d   1       3.921  -4.467  -1.164  0.00  0.00     0.002 A 
ENDROOT
BRANCH   1   7
ATOM      7  C1  UNL d   1       1.809  -4.186   0.189  0.00  0.00     0.055 C 
ATOM      8  C   UNL d   1       0.754  -4.698  -0.781  0.00  0.00     0.019 C 
ENDBRANCH   1   7
TORSDOF 1
ENDMDL
