MODEL 1
REMARK minimizedAffinity 0.416925609
REMARK minimizedRMSD -1
REMARK  1 active torsions:
REMARK  status: ('A' for Active; 'I' for Inactive)
REMARK    1  A    between atoms: C1_2  and  C2_3 
ROOT
ATOM      1  C2  UNL d   1       2.049  -4.650  -1.635  0.00  0.00    -0.077 A 
ATOM      2  C3  UNL d   1       2.223  -3.845  -0.500  0.00  0.00     0.002 A 
ATOM      3  C4  UNL d   1       3.505  -3.492  -0.075  0.00  0.00     0.002 A 
ATOM      4  C5  UNL d   1       4.622  -3.934  -0.781  0.00  0.00    -0.004 A 
ATOM      5  C6  UNL d   1       4.459  -4.736  -1.910  0.00  0.00     0.002 A 
ATOM      6  C7  UNL d   1       3.179  -5.092  -2.336  0.00  0.00     0.002 A 
ENDROOT
BRANCH   1   7
ATOM      7  C1  UNL d   1       0.666  -4.991  -2.124  0.00  0.00     0.055 C 
ATOM      8  C   UNL d   1      -0.393  -4.161  -1.414  0.00  0.00     0.019 C 
ENDBRANCH   1   7
TORSDOF 1
ENDMDL
