MODEL 1
REMARK minimizedAffinity 5.64636612
REMARK minimizedRMSD -1
REMARK  1 active torsions:
REMARK  status: ('A' for Active; 'I' for Inactive)
REMARK    1  A    between atoms: C1_2  and  C2_3 
ROOT
ATOM      1  C2  UNL d   1       0.674   5.406  -2.083  0.00  0.00    -0.077 A 
ATOM      2  C3  UNL d   1      -0.695   5.697  -2.004  0.00  0.00     0.002 A 
ATOM      3  C4  UNL d   1      -1.467   5.183  -0.960  0.00  0.00     0.002 A 
ATOM      4  C5  UNL d   1      -0.878   4.379   0.013  0.00  0.00    -0.004 A 
ATOM      5  C6  UNL d   1       0.482   4.082  -0.058  0.00  0.00     0.002 A 
ATOM      6  C7  UNL d   1       1.255   4.594  -1.101  0.00  0.00     0.002 A 
ENDROOT
BRANCH   1   7
ATOM      7  C1  UNL d   1       1.518   6.000  -3.181  0.00  0.00     0.055 C 
ATOM      8  C   UNL d   1       0.778   6.000  -4.510  0.00  0.00     0.019 C 
ENDBRANCH   1   7
TORSDOF 1
ENDMDL
