MODEL 1
REMARK minimizedAffinity -3.79797864
REMARK minimizedRMSD -1
REMARK  0 active torsions:
REMARK  status: ('A' for Active; 'I' for Inactive)
ROOT
ATOM      1  C   UNL d   1       0.408  -1.242   3.072  0.00  0.00     0.023 A 
ATOM      2  C1  UNL d   1       1.471  -0.601   2.435  0.00  0.00     0.003 A 
ATOM      3  C2  UNL d   1       1.257   0.091   1.242  0.00  0.00     0.048 A 
ATOM      4  C3  UNL d   1      -0.023   0.139   0.691  0.00  0.00     0.023 A 
ATOM      5  C4  UNL d   1      -1.090  -0.500   1.325  0.00  0.00     0.048 A 
ATOM      6  C5  UNL d   1      -0.871  -1.192   2.517  0.00  0.00     0.003 A 
ATOM      7  I   UNL d   1      -0.345   1.169  -1.086  0.00  0.00    -0.146 I 
ENDROOT
TORSDOF 0
ENDMDL
