MODEL 1
REMARK minimizedAffinity -0.559700489
REMARK minimizedRMSD -1
REMARK  0 active torsions:
REMARK  status: ('A' for Active; 'I' for Inactive)
ROOT
ATOM      1  C   UNL d   1       2.402  -0.958   0.337  0.00  0.00     0.023 A 
ATOM      2  C1  UNL d   1       1.889  -1.180  -0.941  0.00  0.00     0.003 A 
ATOM      3  C2  UNL d   1       0.921  -0.320  -1.466  0.00  0.00     0.048 A 
ATOM      4  C3  UNL d   1       0.472   0.760  -0.707  0.00  0.00     0.023 A 
ATOM      5  C4  UNL d   1       0.983   0.987   0.572  0.00  0.00     0.048 A 
ATOM      6  C5  UNL d   1       1.950   0.124   1.092  0.00  0.00     0.003 A 
ATOM      7  I   UNL d   1      -0.967   2.041  -1.486  0.00  0.00    -0.146 I 
ENDROOT
TORSDOF 0
ENDMDL
