MODEL 1
REMARK minimizedAffinity 2.55154109
REMARK minimizedRMSD -1
REMARK  0 active torsions:
REMARK  status: ('A' for Active; 'I' for Inactive)
ROOT
ATOM      1  C   UNL d   1       2.629  -0.474   0.305  0.00  0.00     0.023 A 
ATOM      2  C1  UNL d   1       1.839  -0.002   1.353  0.00  0.00     0.003 A 
ATOM      3  C2  UNL d   1       0.447  -0.012   1.240  0.00  0.00     0.048 A 
ATOM      4  C3  UNL d   1      -0.148  -0.497   0.075  0.00  0.00     0.023 A 
ATOM      5  C4  UNL d   1       0.639  -0.971  -0.976  0.00  0.00     0.048 A 
ATOM      6  C5  UNL d   1       2.030  -0.958  -0.858  0.00  0.00     0.003 A 
ATOM      7  I   UNL d   1      -2.219  -0.513  -0.096  0.00  0.00    -0.146 I 
ENDROOT
TORSDOF 0
ENDMDL
