MODEL 1
REMARK minimizedAffinity -1.65205193
REMARK minimizedRMSD -1
REMARK  0 active torsions:
REMARK  status: ('A' for Active; 'I' for Inactive)
ROOT
ATOM      1  C   UNL d   1       1.489  -1.065   3.276  0.00  0.00     0.023 A 
ATOM      2  C1  UNL d   1       0.120  -1.230   3.065  0.00  0.00     0.003 A 
ATOM      3  C2  UNL d   1      -0.470  -0.750   1.893  0.00  0.00     0.048 A 
ATOM      4  C3  UNL d   1       0.316  -0.108   0.937  0.00  0.00     0.023 A 
ATOM      5  C4  UNL d   1       1.687   0.058   1.144  0.00  0.00     0.048 A 
ATOM      6  C5  UNL d   1       2.271  -0.422   2.317  0.00  0.00     0.003 A 
ATOM      7  I   UNL d   1      -0.559   0.606  -0.808  0.00  0.00    -0.146 I 
ENDROOT
TORSDOF 0
ENDMDL
