MODEL 1
REMARK minimizedAffinity -1.66493177
REMARK minimizedRMSD -1
REMARK  0 active torsions:
REMARK  status: ('A' for Active; 'I' for Inactive)
ROOT
ATOM      1  C   UNL d   1      -5.917  -5.931  -1.626  0.00  0.00     0.172 C 
ATOM      2  N   UNL d   1      -5.421  -5.508  -0.338  0.00  0.00    -0.070 N 
ATOM      3  C1  UNL d   1      -5.997  -4.562   0.468  0.00  0.00    -0.004 A 
ATOM      4  C2  UNL d   1      -5.224  -4.448   1.604  0.00  0.00    -0.047 A 
ATOM      5  C3  UNL d   1      -4.146  -5.355   1.475  0.00  0.00    -0.047 A 
ATOM      6  C4  UNL d   1      -4.293  -5.998   0.264  0.00  0.00    -0.004 A 
ENDROOT
TORSDOF 0
ENDMDL
