MODEL 1
REMARK minimizedAffinity 4.30547237
REMARK minimizedRMSD -1
REMARK  0 active torsions:
REMARK  status: ('A' for Active; 'I' for Inactive)
ROOT
ATOM      1  C   UNL d   1      -5.626  -2.575  -1.873  0.00  0.00     0.172 C 
ATOM      2  N   UNL d   1      -5.386  -3.827  -1.193  0.00  0.00    -0.070 N 
ATOM      3  C1  UNL d   1      -5.629  -5.073  -1.706  0.00  0.00    -0.004 A 
ATOM      4  C2  UNL d   1      -5.269  -6.000  -0.752  0.00  0.00    -0.047 A 
ATOM      5  C3  UNL d   1      -4.794  -5.286   0.373  0.00  0.00    -0.047 A 
ATOM      6  C4  UNL d   1      -4.878  -3.943   0.073  0.00  0.00    -0.004 A 
ENDROOT
TORSDOF 0
ENDMDL
