MODEL 1
REMARK minimizedAffinity -0.229624256
REMARK minimizedRMSD -1
REMARK  0 active torsions:
REMARK  status: ('A' for Active; 'I' for Inactive)
ROOT
ATOM      1  C   UNL d   1      -5.934  -5.421  -1.729  0.00  0.00     0.172 C 
ATOM      2  N   UNL d   1      -5.317  -5.645  -0.443  0.00  0.00    -0.070 N 
ATOM      3  C1  UNL d   1      -3.970  -5.732  -0.207  0.00  0.00    -0.004 A 
ATOM      4  C2  UNL d   1      -3.791  -5.950   1.142  0.00  0.00    -0.047 A 
ATOM      5  C3  UNL d   1      -5.074  -5.995   1.737  0.00  0.00    -0.047 A 
ATOM      6  C4  UNL d   1      -6.000  -5.804   0.734  0.00  0.00    -0.004 A 
ENDROOT
TORSDOF 0
ENDMDL
