MODEL 1
REMARK minimizedAffinity -1.35652566
REMARK minimizedRMSD -1
REMARK  0 active torsions:
REMARK  status: ('A' for Active; 'I' for Inactive)
ROOT
ATOM      1  C   UNL d   1      -5.846  -5.874   0.434  0.00  0.00     0.172 C 
ATOM      2  N   UNL d   1      -5.905  -5.255  -0.869  0.00  0.00    -0.070 N 
ATOM      3  C1  UNL d   1      -5.953  -3.908  -1.111  0.00  0.00    -0.004 A 
ATOM      4  C2  UNL d   1      -6.000  -3.726  -2.477  0.00  0.00    -0.047 A 
ATOM      5  C3  UNL d   1      -5.980  -5.008  -3.076  0.00  0.00    -0.047 A 
ATOM      6  C4  UNL d   1      -5.921  -5.936  -2.058  0.00  0.00    -0.004 A 
ENDROOT
TORSDOF 0
ENDMDL
