MODEL 1
REMARK minimizedAffinity 0.701586664
REMARK minimizedRMSD -1
REMARK  0 active torsions:
REMARK  status: ('A' for Active; 'I' for Inactive)
ROOT
ATOM      1  C   UNL d   1       3.987   0.126   1.876  0.00  0.00     0.172 C 
ATOM      2  N   UNL d   1       2.643   0.500   2.248  0.00  0.00    -0.070 N 
ATOM      3  C1  UNL d   1       1.846  -0.167   3.140  0.00  0.00    -0.004 A 
ATOM      4  C2  UNL d   1       0.645   0.504   3.217  0.00  0.00    -0.047 A 
ATOM      5  C3  UNL d   1       0.722   1.612   2.341  0.00  0.00    -0.047 A 
ATOM      6  C4  UNL d   1       1.969   1.586   1.753  0.00  0.00    -0.004 A 
ENDROOT
TORSDOF 0
ENDMDL
