MODEL 1
REMARK minimizedAffinity -1.46785569
REMARK minimizedRMSD -1
REMARK  0 active torsions:
REMARK  status: ('A' for Active; 'I' for Inactive)
ROOT
ATOM      1  C   UNL d   1      -5.998  -2.573  -2.301  0.00  0.00     0.172 C 
ATOM      2  N   UNL d   1      -5.875  -3.837  -1.612  0.00  0.00    -0.070 N 
ATOM      3  C1  UNL d   1      -5.623  -5.046  -2.202  0.00  0.00    -0.004 A 
ATOM      4  C2  UNL d   1      -5.580  -6.000  -1.209  0.00  0.00    -0.047 A 
ATOM      5  C3  UNL d   1      -5.816  -5.341   0.021  0.00  0.00    -0.047 A 
ATOM      6  C4  UNL d   1      -5.995  -4.002  -0.258  0.00  0.00    -0.004 A 
ENDROOT
TORSDOF 0
ENDMDL
