MODEL 1
REMARK minimizedAffinity -3.23914886
REMARK minimizedRMSD -1
REMARK  0 active torsions:
REMARK  status: ('A' for Active; 'I' for Inactive)
ROOT
ATOM      1  C   UNL d   1      -5.579  -5.709   1.683  0.00  0.00     0.172 C 
ATOM      2  N   UNL d   1      -5.641  -4.861   0.516  0.00  0.00    -0.070 N 
ATOM      3  C1  UNL d   1      -5.783  -5.290  -0.777  0.00  0.00    -0.004 A 
ATOM      4  C2  UNL d   1      -5.799  -4.179  -1.591  0.00  0.00    -0.047 A 
ATOM      5  C3  UNL d   1      -5.660  -3.042  -0.760  0.00  0.00    -0.047 A 
ATOM      6  C4  UNL d   1      -5.565  -3.493   0.540  0.00  0.00    -0.004 A 
ENDROOT
TORSDOF 0
ENDMDL
