MODEL 1
REMARK minimizedAffinity 4.67153645
REMARK minimizedRMSD -1
REMARK  0 active torsions:
REMARK  status: ('A' for Active; 'I' for Inactive)
ROOT
ATOM      1  C   UNL d   1       1.678   3.276  -1.388  0.00  0.00     0.172 C 
ATOM      2  N   UNL d   1       2.400   3.815  -2.516  0.00  0.00    -0.070 N 
ATOM      3  C1  UNL d   1       2.349   5.113  -2.950  0.00  0.00    -0.004 A 
ATOM      4  C2  UNL d   1       3.176   5.225  -4.046  0.00  0.00    -0.047 A 
ATOM      5  C3  UNL d   1       3.743   3.949  -4.281  0.00  0.00    -0.047 A 
ATOM      6  C4  UNL d   1       3.245   3.096  -3.319  0.00  0.00    -0.004 A 
ENDROOT
TORSDOF 0
ENDMDL
