MODEL 1
REMARK minimizedAffinity 4.53579617
REMARK minimizedRMSD -1
REMARK  0 active torsions:
REMARK  status: ('A' for Active; 'I' for Inactive)
ROOT
ATOM      1  C   UNL d   1       5.479   4.126  -4.499  0.00  0.00     0.172 C 
ATOM      2  N   UNL d   1       4.129   4.057  -5.008  0.00  0.00    -0.070 N 
ATOM      3  C1  UNL d   1       3.586   3.001  -5.690  0.00  0.00    -0.004 A 
ATOM      4  C2  UNL d   1       2.283   3.323  -6.000  0.00  0.00    -0.047 A 
ATOM      5  C3  UNL d   1       2.034   4.619  -5.487  0.00  0.00    -0.047 A 
ATOM      6  C4  UNL d   1       3.194   5.049  -4.878  0.00  0.00    -0.004 A 
ENDROOT
TORSDOF 0
ENDMDL
