MODEL 1
REMARK minimizedAffinity 0.859006286
REMARK minimizedRMSD -1
REMARK  0 active torsions:
REMARK  status: ('A' for Active; 'I' for Inactive)
ROOT
ATOM      1  C   UNL d   1       0.483   1.116  -1.114  0.00  0.00     0.172 C 
ATOM      2  N   UNL d   1       0.925   0.100  -2.041  0.00  0.00    -0.070 N 
ATOM      3  C1  UNL d   1       1.875   0.265  -3.013  0.00  0.00    -0.004 A 
ATOM      4  C2  UNL d   1       2.009  -0.933  -3.681  0.00  0.00    -0.047 A 
ATOM      5  C3  UNL d   1       1.107  -1.850  -3.090  0.00  0.00    -0.047 A 
ATOM      6  C4  UNL d   1       0.449  -1.184  -2.077  0.00  0.00    -0.004 A 
ENDROOT
TORSDOF 0
ENDMDL
