MODEL 1
REMARK minimizedAffinity 5.50716877
REMARK minimizedRMSD -1
REMARK  0 active torsions:
REMARK  status: ('A' for Active; 'I' for Inactive)
ROOT
ATOM      1  C   UNL d   1       1.966   3.483  -1.776  0.00  0.00     0.172 C 
ATOM      2  N   UNL d   1       2.404   3.974  -3.062  0.00  0.00    -0.070 N 
ATOM      3  C1  UNL d   1       3.687   3.932  -3.538  0.00  0.00    -0.004 A 
ATOM      4  C2  UNL d   1       3.690   4.496  -4.795  0.00  0.00    -0.047 A 
ATOM      5  C3  UNL d   1       2.362   4.892  -5.084  0.00  0.00    -0.047 A 
ATOM      6  C4  UNL d   1       1.587   4.557  -3.994  0.00  0.00    -0.004 A 
ENDROOT
TORSDOF 0
ENDMDL
