MODEL 1
REMARK minimizedAffinity 7.25267076
REMARK minimizedRMSD -1
REMARK  0 active torsions:
REMARK  status: ('A' for Active; 'I' for Inactive)
ROOT
ATOM      1  C   UNL d   1       3.602  -0.792  -5.254  0.00  0.00     0.172 C 
ATOM      2  N   UNL d   1       2.416  -0.826  -4.431  0.00  0.00    -0.070 N 
ATOM      3  C1  UNL d   1       1.314  -1.609  -4.649  0.00  0.00    -0.004 A 
ATOM      4  C2  UNL d   1       0.406  -1.350  -3.645  0.00  0.00    -0.047 A 
ATOM      5  C3  UNL d   1       0.981  -0.376  -2.795  0.00  0.00    -0.047 A 
ATOM      6  C4  UNL d   1       2.225  -0.069  -3.305  0.00  0.00    -0.004 A 
ENDROOT
TORSDOF 0
ENDMDL
