MODEL 1
REMARK minimizedAffinity -1.20265734
REMARK minimizedRMSD -1
REMARK  0 active torsions:
REMARK  status: ('A' for Active; 'I' for Inactive)
ROOT
ATOM      1  C   UNL d   1      -5.990  -5.908  -1.865  0.00  0.00     0.172 C 
ATOM      2  N   UNL d   1      -5.993  -4.486  -2.115  0.00  0.00    -0.070 N 
ATOM      3  C1  UNL d   1      -5.991  -3.507  -1.158  0.00  0.00    -0.004 A 
ATOM      4  C2  UNL d   1      -5.993  -2.288  -1.801  0.00  0.00    -0.047 A 
ATOM      5  C3  UNL d   1      -5.998  -2.544  -3.193  0.00  0.00    -0.047 A 
ATOM      6  C4  UNL d   1      -5.997  -3.913  -3.359  0.00  0.00    -0.004 A 
ENDROOT
TORSDOF 0
ENDMDL
