MODEL 1
REMARK minimizedAffinity 2.66598463
REMARK minimizedRMSD -1
REMARK  0 active torsions:
REMARK  status: ('A' for Active; 'I' for Inactive)
ROOT
ATOM      1  C   UNL d   1      -3.678   3.328   2.292  0.00  0.00     0.172 C 
ATOM      2  N   UNL d   1      -2.836   2.162   2.162  0.00  0.00    -0.070 N 
ATOM      3  C1  UNL d   1      -3.260   0.905   1.823  0.00  0.00    -0.004 A 
ATOM      4  C2  UNL d   1      -2.158   0.078   1.806  0.00  0.00    -0.047 A 
ATOM      5  C3  UNL d   1      -1.033   0.865   2.146  0.00  0.00    -0.047 A 
ATOM      6  C4  UNL d   1      -1.481   2.151   2.362  0.00  0.00    -0.004 A 
ENDROOT
TORSDOF 0
ENDMDL
