MODEL 1
REMARK minimizedAffinity -0.0283641461
REMARK minimizedRMSD -1
REMARK  0 active torsions:
REMARK  status: ('A' for Active; 'I' for Inactive)
ROOT
ATOM      1  C   UNL d   1      -5.966  -2.491   0.762  0.00  0.00     0.172 C 
ATOM      2  N   UNL d   1      -5.750  -3.918   0.770  0.00  0.00    -0.070 N 
ATOM      3  C1  UNL d   1      -5.623  -4.700   1.888  0.00  0.00    -0.004 A 
ATOM      4  C2  UNL d   1      -5.430  -6.000   1.474  0.00  0.00    -0.047 A 
ATOM      5  C3  UNL d   1      -5.441  -6.000   0.059  0.00  0.00    -0.047 A 
ATOM      6  C4  UNL d   1      -5.641  -4.698  -0.351  0.00  0.00    -0.004 A 
ENDROOT
TORSDOF 0
ENDMDL
