MODEL 1
REMARK minimizedAffinity 3.71895051
REMARK minimizedRMSD -1
REMARK  0 active torsions:
REMARK  status: ('A' for Active; 'I' for Inactive)
ROOT
ATOM      1  C   UNL d   1       5.995   4.258   1.808  0.00  0.00     0.020 A 
ATOM      2  C1  UNL d   1       4.877   4.609   2.563  0.00  0.00     0.020 A 
ATOM      3  C2  UNL d   1       3.615   4.131   2.205  0.00  0.00     0.034 A 
ATOM      4  C3  UNL d   1       3.467   3.299   1.089  0.00  0.00     0.017 A 
ATOM      5  C4  UNL d   1       4.591   2.947   0.332  0.00  0.00     0.017 A 
ATOM      6  C5  UNL d   1       5.852   3.429   0.695  0.00  0.00     0.034 A 
ATOM      7 Cl   UNL d   1       4.488   1.925  -1.059  0.00  0.00    -0.070 Cl
ATOM      8 Cl1  UNL d   1       1.877   2.744   0.704  0.00  0.00    -0.070 Cl
ENDROOT
TORSDOF 0
ENDMDL
