MODEL 1
REMARK minimizedAffinity 8.09863567
REMARK minimizedRMSD -1
REMARK  0 active torsions:
REMARK  status: ('A' for Active; 'I' for Inactive)
ROOT
ATOM      1  C   UNL d   1       2.058  -5.808  -2.127  0.00  0.00     0.020 A 
ATOM      2  C1  UNL d   1       1.418  -5.953  -3.357  0.00  0.00     0.020 A 
ATOM      3  C2  UNL d   1       2.161  -5.911  -4.539  0.00  0.00     0.034 A 
ATOM      4  C3  UNL d   1       3.547  -5.722  -4.494  0.00  0.00     0.017 A 
ATOM      5  C4  UNL d   1       4.188  -5.576  -3.258  0.00  0.00     0.017 A 
ATOM      6  C5  UNL d   1       3.440  -5.620  -2.078  0.00  0.00     0.034 A 
ATOM      7 Cl   UNL d   1       5.895  -5.340  -3.122  0.00  0.00    -0.070 Cl
ATOM      8 Cl1  UNL d   1       4.402  -5.680  -5.995  0.00  0.00    -0.070 Cl
ENDROOT
TORSDOF 0
ENDMDL
