MODEL 1
REMARK minimizedAffinity 4.41143131
REMARK minimizedRMSD -1
REMARK  0 active torsions:
REMARK  status: ('A' for Active; 'I' for Inactive)
ROOT
ATOM      1  C   UNL d   1       1.828  -5.378  -4.276  0.00  0.00     0.020 A 
ATOM      2  C1  UNL d   1       2.153  -5.992  -5.485  0.00  0.00     0.020 A 
ATOM      3  C2  UNL d   1       3.447  -5.880  -5.999  0.00  0.00     0.034 A 
ATOM      4  C3  UNL d   1       4.420  -5.152  -5.304  0.00  0.00     0.017 A 
ATOM      5  C4  UNL d   1       4.092  -4.536  -4.091  0.00  0.00     0.017 A 
ATOM      6  C5  UNL d   1       2.795  -4.652  -3.581  0.00  0.00     0.034 A 
ATOM      7 Cl   UNL d   1       5.239  -3.622  -3.176  0.00  0.00    -0.070 Cl
ATOM      8 Cl1  UNL d   1       5.999  -5.055  -5.998  0.00  0.00    -0.070 Cl
ENDROOT
TORSDOF 0
ENDMDL
