MODEL 1
REMARK minimizedAffinity 17.6115646
REMARK minimizedRMSD -1
REMARK  0 active torsions:
REMARK  status: ('A' for Active; 'I' for Inactive)
ROOT
ATOM      1  C   UNL d   1      -1.749  -3.367  -1.755  0.00  0.00     0.020 A 
ATOM      2  C1  UNL d   1      -1.436  -4.546  -1.080  0.00  0.00     0.020 A 
ATOM      3  C2  UNL d   1      -1.254  -4.532   0.304  0.00  0.00     0.034 A 
ATOM      4  C3  UNL d   1      -1.385  -3.336   1.019  0.00  0.00     0.017 A 
ATOM      5  C4  UNL d   1      -1.699  -2.152   0.341  0.00  0.00     0.017 A 
ATOM      6  C5  UNL d   1      -1.881  -2.172  -1.045  0.00  0.00     0.034 A 
ATOM      7 Cl   UNL d   1      -1.878  -0.638   1.155  0.00  0.00    -0.070 Cl
ATOM      8 Cl1  UNL d   1      -1.147  -3.392   2.729  0.00  0.00    -0.070 Cl
ENDROOT
TORSDOF 0
ENDMDL
