MODEL 1
REMARK minimizedAffinity 14.309267
REMARK minimizedRMSD -1
REMARK  0 active torsions:
REMARK  status: ('A' for Active; 'I' for Inactive)
ROOT
ATOM      1  C   UNL d   1       1.935  -5.858  -4.035  0.00  0.00     0.020 A 
ATOM      2  C1  UNL d   1       2.161  -5.927  -5.409  0.00  0.00     0.020 A 
ATOM      3  C2  UNL d   1       3.147  -5.131  -5.995  0.00  0.00     0.034 A 
ATOM      4  C3  UNL d   1       3.912  -4.264  -5.207  0.00  0.00     0.017 A 
ATOM      5  C4  UNL d   1       3.685  -4.196  -3.828  0.00  0.00     0.017 A 
ATOM      6  C5  UNL d   1       2.696  -4.995  -3.246  0.00  0.00     0.034 A 
ATOM      7 Cl   UNL d   1       4.588  -3.149  -2.790  0.00  0.00    -0.070 Cl
ATOM      8 Cl1  UNL d   1       5.116  -3.309  -5.998  0.00  0.00    -0.070 Cl
ENDROOT
TORSDOF 0
ENDMDL
