MODEL 1
REMARK minimizedAffinity 14.3961248
REMARK minimizedRMSD -1
REMARK  0 active torsions:
REMARK  status: ('A' for Active; 'I' for Inactive)
ROOT
ATOM      1  C   UNL d   1      -0.455   2.336   0.250  0.00  0.00     0.020 A 
ATOM      2  C1  UNL d   1      -0.809   2.731   1.539  0.00  0.00     0.020 A 
ATOM      3  C2  UNL d   1       0.076   2.527   2.600  0.00  0.00     0.034 A 
ATOM      4  C3  UNL d   1       1.319   1.925   2.374  0.00  0.00     0.017 A 
ATOM      5  C4  UNL d   1       1.674   1.528   1.079  0.00  0.00     0.017 A 
ATOM      6  C5  UNL d   1       0.784   1.736   0.021  0.00  0.00     0.034 A 
ATOM      7 Cl   UNL d   1       3.190   0.780   0.722  0.00  0.00    -0.070 Cl
ATOM      8 Cl1  UNL d   1       2.364   1.704   3.732  0.00  0.00    -0.070 Cl
ENDROOT
TORSDOF 0
ENDMDL
