MODEL 1
REMARK minimizedAffinity 12.1206179
REMARK minimizedRMSD -1
REMARK  0 active torsions:
REMARK  status: ('A' for Active; 'I' for Inactive)
ROOT
ATOM      1  C   UNL d   1       2.978   1.767   1.951  0.00  0.00     0.020 A 
ATOM      2  C1  UNL d   1       2.448   2.199   0.736  0.00  0.00     0.020 A 
ATOM      3  C2  UNL d   1       2.666   3.509   0.306  0.00  0.00     0.034 A 
ATOM      4  C3  UNL d   1       3.416   4.392   1.091  0.00  0.00     0.017 A 
ATOM      5  C4  UNL d   1       3.948   3.958   2.311  0.00  0.00     0.017 A 
ATOM      6  C5  UNL d   1       3.727   2.644   2.737  0.00  0.00     0.034 A 
ATOM      7 Cl   UNL d   1       4.884   4.989   3.334  0.00  0.00    -0.070 Cl
ATOM      8 Cl1  UNL d   1       3.647   5.998   0.497  0.00  0.00    -0.070 Cl
ENDROOT
TORSDOF 0
ENDMDL
