MODEL 1
REMARK minimizedAffinity 10.9558916
REMARK minimizedRMSD -1
REMARK  0 active torsions:
REMARK  status: ('A' for Active; 'I' for Inactive)
ROOT
ATOM      1  C   UNL d   1      -1.021  -2.006   1.123  0.00  0.00     0.020 A 
ATOM      2  C1  UNL d   1      -1.176  -2.488   2.422  0.00  0.00     0.020 A 
ATOM      3  C2  UNL d   1      -1.789  -3.723   2.639  0.00  0.00     0.034 A 
ATOM      4  C3  UNL d   1      -2.250  -4.481   1.557  0.00  0.00     0.017 A 
ATOM      5  C4  UNL d   1      -2.094  -3.996   0.253  0.00  0.00     0.017 A 
ATOM      6  C5  UNL d   1      -1.479  -2.759   0.041  0.00  0.00     0.034 A 
ATOM      7 Cl   UNL d   1      -2.637  -4.874  -1.133  0.00  0.00    -0.070 Cl
ATOM      8 Cl1  UNL d   1      -2.999  -6.000   1.899  0.00  0.00    -0.070 Cl
ENDROOT
TORSDOF 0
ENDMDL
