MODEL 1
REMARK minimizedAffinity 9.71497631
REMARK minimizedRMSD -1
REMARK  0 active torsions:
REMARK  status: ('A' for Active; 'I' for Inactive)
ROOT
ATOM      1  C   UNL d   1       3.800  -5.846  -5.421  0.00  0.00     0.020 A 
ATOM      2  C1  UNL d   1       2.617  -5.390  -5.999  0.00  0.00     0.020 A 
ATOM      3  C2  UNL d   1       1.517  -5.087  -5.194  0.00  0.00     0.034 A 
ATOM      4  C3  UNL d   1       1.599  -5.240  -3.805  0.00  0.00     0.017 A 
ATOM      5  C4  UNL d   1       2.788  -5.698  -3.225  0.00  0.00     0.017 A 
ATOM      6  C5  UNL d   1       3.885  -6.000  -4.036  0.00  0.00     0.034 A 
ATOM      7 Cl   UNL d   1       2.964  -5.912  -1.519  0.00  0.00    -0.070 Cl
ATOM      8 Cl1  UNL d   1       0.201  -4.846  -2.870  0.00  0.00    -0.070 Cl
ENDROOT
TORSDOF 0
ENDMDL
