MODEL 1
REMARK minimizedAffinity 5.78425503
REMARK minimizedRMSD -1
REMARK  0 active torsions:
REMARK  status: ('A' for Active; 'I' for Inactive)
ROOT
ATOM      1  C   UNL d   1      -1.918   5.397  -4.624  0.00  0.00     0.020 A 
ATOM      2  C1  UNL d   1      -2.739   6.000  -5.577  0.00  0.00     0.020 A 
ATOM      3  C2  UNL d   1      -3.913   5.366  -5.988  0.00  0.00     0.034 A 
ATOM      4  C3  UNL d   1      -4.271   4.126  -5.446  0.00  0.00     0.017 A 
ATOM      5  C4  UNL d   1      -3.446   3.522  -4.490  0.00  0.00     0.017 A 
ATOM      6  C5  UNL d   1      -2.271   4.161  -4.082  0.00  0.00     0.034 A 
ATOM      7 Cl   UNL d   1      -3.821   1.993  -3.776  0.00  0.00    -0.070 Cl
ATOM      8 Cl1  UNL d   1      -5.738   3.400  -6.000  0.00  0.00    -0.070 Cl
ENDROOT
TORSDOF 0
ENDMDL
