MODEL 1
REMARK minimizedAffinity 0.369195908
REMARK minimizedRMSD -1
REMARK  0 active torsions:
REMARK  status: ('A' for Active; 'I' for Inactive)
ROOT
ATOM      1  C   UNL d   1       0.886   2.377   1.064  0.00  0.00     0.020 A 
ATOM      2  C1  UNL d   1       1.579   2.804   2.196  0.00  0.00     0.020 A 
ATOM      3  C2  UNL d   1       2.971   2.910   2.164  0.00  0.00     0.034 A 
ATOM      4  C3  UNL d   1       3.675   2.588   0.998  0.00  0.00     0.017 A 
ATOM      5  C4  UNL d   1       2.979   2.159  -0.138  0.00  0.00     0.017 A 
ATOM      6  C5  UNL d   1       1.585   2.055  -0.101  0.00  0.00     0.034 A 
ATOM      7 Cl   UNL d   1       3.778   1.745  -1.613  0.00  0.00    -0.070 Cl
ATOM      8 Cl1  UNL d   1       5.396   2.742   1.030  0.00  0.00    -0.070 Cl
ENDROOT
TORSDOF 0
ENDMDL
