MODEL 1
REMARK minimizedAffinity 7.10406446
REMARK minimizedRMSD -1
REMARK  0 active torsions:
REMARK  status: ('A' for Active; 'I' for Inactive)
ROOT
ATOM      1  C   UNL d   1       3.873   2.073   1.091  0.00  0.00     0.020 A 
ATOM      2  C1  UNL d   1       4.263   2.049  -0.247  0.00  0.00     0.020 A 
ATOM      3  C2  UNL d   1       3.315   1.822  -1.247  0.00  0.00     0.034 A 
ATOM      4  C3  UNL d   1       1.972   1.617  -0.910  0.00  0.00     0.017 A 
ATOM      5  C4  UNL d   1       1.581   1.641   0.433  0.00  0.00     0.017 A 
ATOM      6  C5  UNL d   1       2.535   1.869   1.430  0.00  0.00     0.034 A 
ATOM      7 Cl   UNL d   1      -0.057   1.396   0.926  0.00  0.00    -0.070 Cl
ATOM      8 Cl1  UNL d   1       0.854   1.342  -2.198  0.00  0.00    -0.070 Cl
ENDROOT
TORSDOF 0
ENDMDL
