MODEL 1
REMARK minimizedAffinity -2.38468814
REMARK minimizedRMSD -1
REMARK  0 active torsions:
REMARK  status: ('A' for Active; 'I' for Inactive)
ROOT
ATOM      1  C   UNL d   1       3.077  -6.000  -5.597  0.00  0.00     0.020 A 
ATOM      2  C1  UNL d   1       4.408  -5.750  -5.928  0.00  0.00     0.020 A 
ATOM      3  C2  UNL d   1       5.294  -5.283  -4.955  0.00  0.00     0.034 A 
ATOM      4  C3  UNL d   1       4.850  -5.063  -3.646  0.00  0.00     0.017 A 
ATOM      5  C4  UNL d   1       3.513  -5.314  -3.315  0.00  0.00     0.017 A 
ATOM      6  C5  UNL d   1       2.630  -5.782  -4.293  0.00  0.00     0.034 A 
ATOM      7 Cl   UNL d   1       2.891  -5.067  -1.721  0.00  0.00    -0.070 Cl
ATOM      8 Cl1  UNL d   1       6.000  -4.485  -2.494  0.00  0.00    -0.070 Cl
ENDROOT
TORSDOF 0
ENDMDL
