MODEL 1
REMARK minimizedAffinity 7.86302328
REMARK minimizedRMSD -1
REMARK  0 active torsions:
REMARK  status: ('A' for Active; 'I' for Inactive)
ROOT
ATOM      1  C   UNL d   1      -4.796   3.516  -5.998  0.00  0.00     0.020 A 
ATOM      2  C1  UNL d   1      -5.959   3.551  -5.230  0.00  0.00     0.020 A 
ATOM      3  C2  UNL d   1      -6.000   2.901  -3.994  0.00  0.00     0.034 A 
ATOM      4  C3  UNL d   1      -4.875   2.213  -3.524  0.00  0.00     0.017 A 
ATOM      5  C4  UNL d   1      -3.708   2.178  -4.296  0.00  0.00     0.017 A 
ATOM      6  C5  UNL d   1      -3.673   2.831  -5.532  0.00  0.00     0.034 A 
ATOM      7 Cl   UNL d   1      -2.281   1.350  -3.782  0.00  0.00    -0.070 Cl
ATOM      8 Cl1  UNL d   1      -4.996   1.432  -1.987  0.00  0.00    -0.070 Cl
ENDROOT
TORSDOF 0
ENDMDL
