MODEL 1
REMARK minimizedAffinity 7.79751825
REMARK minimizedRMSD -1
REMARK  0 active torsions:
REMARK  status: ('A' for Active; 'I' for Inactive)
ROOT
ATOM      1  C   UNL d   1       0.531  -5.162   4.223  0.00  0.00     0.020 A 
ATOM      2  C1  UNL d   1      -0.464  -5.998   3.720  0.00  0.00     0.020 A 
ATOM      3  C2  UNL d   1      -0.919  -5.833   2.410  0.00  0.00     0.034 A 
ATOM      4  C3  UNL d   1      -0.379  -4.829   1.599  0.00  0.00     0.017 A 
ATOM      5  C4  UNL d   1       0.620  -3.989   2.104  0.00  0.00     0.017 A 
ATOM      6  C5  UNL d   1       1.072  -4.159   3.417  0.00  0.00     0.034 A 
ATOM      7 Cl   UNL d   1       1.335  -2.728   1.163  0.00  0.00    -0.070 Cl
ATOM      8 Cl1  UNL d   1      -0.989  -4.681  -0.011  0.00  0.00    -0.070 Cl
ENDROOT
TORSDOF 0
ENDMDL
