MODEL 1
REMARK minimizedAffinity 13.2056627
REMARK minimizedRMSD -1
REMARK  0 active torsions:
REMARK  status: ('A' for Active; 'I' for Inactive)
ROOT
ATOM      1  C   UNL d   1      -2.749  -3.836  -2.555  0.00  0.00     0.020 A 
ATOM      2  C1  UNL d   1      -1.412  -3.713  -2.179  0.00  0.00     0.020 A 
ATOM      3  C2  UNL d   1      -1.032  -3.967  -0.860  0.00  0.00     0.034 A 
ATOM      4  C3  UNL d   1      -1.989  -4.346   0.089  0.00  0.00     0.017 A 
ATOM      5  C4  UNL d   1      -3.331  -4.469  -0.290  0.00  0.00     0.017 A 
ATOM      6  C5  UNL d   1      -3.707  -4.213  -1.612  0.00  0.00     0.034 A 
ATOM      7 Cl   UNL d   1      -4.569  -4.932   0.824  0.00  0.00    -0.070 Cl
ATOM      8 Cl1  UNL d   1      -1.448  -4.645   1.702  0.00  0.00    -0.070 Cl
ENDROOT
TORSDOF 0
ENDMDL
