MODEL 1
REMARK minimizedAffinity 12.0009756
REMARK minimizedRMSD -1
REMARK  0 active torsions:
REMARK  status: ('A' for Active; 'I' for Inactive)
ROOT
ATOM      1  C   UNL d   1      -6.000   1.498   1.309  0.00  0.00     0.020 A 
ATOM      2  C1  UNL d   1      -5.807   2.734   0.693  0.00  0.00     0.020 A 
ATOM      3  C2  UNL d   1      -4.520   3.144   0.338  0.00  0.00     0.034 A 
ATOM      4  C3  UNL d   1      -3.421   2.317   0.599  0.00  0.00     0.017 A 
ATOM      5  C4  UNL d   1      -3.616   1.077   1.218  0.00  0.00     0.017 A 
ATOM      6  C5  UNL d   1      -4.906   0.672   1.571  0.00  0.00     0.034 A 
ATOM      7 Cl   UNL d   1      -2.309   0.003   1.572  0.00  0.00    -0.070 Cl
ATOM      8 Cl1  UNL d   1      -1.858   2.888   0.133  0.00  0.00    -0.070 Cl
ENDROOT
TORSDOF 0
ENDMDL
