MODEL 1
REMARK minimizedAffinity 4.84577513
REMARK minimizedRMSD -1
REMARK  0 active torsions:
REMARK  status: ('A' for Active; 'I' for Inactive)
ROOT
ATOM      1  C   UNL d   1       2.065  -0.096   0.394  0.00  0.00     0.020 A 
ATOM      2  C1  UNL d   1       3.195   0.687   0.165  0.00  0.00     0.020 A 
ATOM      3  C2  UNL d   1       3.085   2.078   0.125  0.00  0.00     0.034 A 
ATOM      4  C3  UNL d   1       1.840   2.691   0.314  0.00  0.00     0.017 A 
ATOM      5  C4  UNL d   1       0.706   1.904   0.544  0.00  0.00     0.017 A 
ATOM      6  C5  UNL d   1       0.823   0.511   0.583  0.00  0.00     0.034 A 
ATOM      7 Cl   UNL d   1      -0.863   2.588   0.786  0.00  0.00    -0.070 Cl
ATOM      8 Cl1  UNL d   1       1.777   4.417   0.252  0.00  0.00    -0.070 Cl
ENDROOT
TORSDOF 0
ENDMDL
