MODEL 1
REMARK minimizedAffinity 9.99434185
REMARK minimizedRMSD -1
REMARK  0 active torsions:
REMARK  status: ('A' for Active; 'I' for Inactive)
ROOT
ATOM      1  C   UNL d   1       2.792   2.227   1.181  0.00  0.00     0.020 A 
ATOM      2  C1  UNL d   1       2.594   3.133   0.140  0.00  0.00     0.020 A 
ATOM      3  C2  UNL d   1       1.299   3.449  -0.274  0.00  0.00     0.034 A 
ATOM      4  C3  UNL d   1       0.195   2.859   0.353  0.00  0.00     0.017 A 
ATOM      5  C4  UNL d   1       0.395   1.949   1.398  0.00  0.00     0.017 A 
ATOM      6  C5  UNL d   1       1.694   1.636   1.809  0.00  0.00     0.034 A 
ATOM      7 Cl   UNL d   1      -0.917   1.181   2.220  0.00  0.00    -0.070 Cl
ATOM      8 Cl1  UNL d   1      -1.378   3.297  -0.211  0.00  0.00    -0.070 Cl
ENDROOT
TORSDOF 0
ENDMDL
