MODEL 1
REMARK minimizedAffinity -0.0645795912
REMARK minimizedRMSD -1
REMARK  0 active torsions:
REMARK  status: ('A' for Active; 'I' for Inactive)
ROOT
ATOM      1  C   UNL d   1       2.118  -3.392   1.513  0.00  0.00     0.078 C 
ATOM      2  C1  UNL d   1       1.185  -2.231   1.339  0.00  0.00    -0.077 A 
ATOM      3  C2  UNL d   1       0.391  -1.779   2.399  0.00  0.00    -0.001 A 
ATOM      4  C3  UNL d   1      -0.481  -0.703   2.220  0.00  0.00     0.003 A 
ATOM      5  C4  UNL d   1      -0.567  -0.072   0.981  0.00  0.00    -0.005 A 
ATOM      6  C5  UNL d   1       0.218  -0.517  -0.081  0.00  0.00     0.003 A 
ATOM      7  C6  UNL d   1       1.090  -1.592   0.096  0.00  0.00    -0.001 A 
ENDROOT
TORSDOF 0
ENDMDL
