MODEL 1
REMARK minimizedAffinity -1.05025315
REMARK minimizedRMSD -1
REMARK  0 active torsions:
REMARK  status: ('A' for Active; 'I' for Inactive)
ROOT
ATOM      1  C   UNL d   1       3.252   4.876   2.128  0.00  0.00     0.078 C 
ATOM      2  C1  UNL d   1       2.629   5.100   3.473  0.00  0.00    -0.077 A 
ATOM      3  C2  UNL d   1       1.331   4.653   3.751  0.00  0.00    -0.001 A 
ATOM      4  C3  UNL d   1       0.760   4.877   5.004  0.00  0.00     0.003 A 
ATOM      5  C4  UNL d   1       1.479   5.549   5.990  0.00  0.00    -0.005 A 
ATOM      6  C5  UNL d   1       2.770   6.000   5.723  0.00  0.00     0.003 A 
ATOM      7  C6  UNL d   1       3.343   5.777   4.470  0.00  0.00    -0.001 A 
ENDROOT
TORSDOF 0
ENDMDL
