MODEL 1
REMARK minimizedAffinity -2.87634993
REMARK minimizedRMSD -1
REMARK  0 active torsions:
REMARK  status: ('A' for Active; 'I' for Inactive)
ROOT
ATOM      1  C   UNL d   1       5.213   5.999   2.886  0.00  0.00     0.078 C 
ATOM      2  C1  UNL d   1       3.972   5.988   3.728  0.00  0.00    -0.077 A 
ATOM      3  C2  UNL d   1       2.702   5.983   3.140  0.00  0.00    -0.001 A 
ATOM      4  C3  UNL d   1       1.555   5.983   3.936  0.00  0.00     0.003 A 
ATOM      5  C4  UNL d   1       1.668   5.990   5.324  0.00  0.00    -0.005 A 
ATOM      6  C5  UNL d   1       2.928   5.997   5.919  0.00  0.00     0.003 A 
ATOM      7  C6  UNL d   1       4.075   5.997   5.125  0.00  0.00    -0.001 A 
ENDROOT
TORSDOF 0
ENDMDL
