MODEL 1
REMARK minimizedAffinity -2.32553482
REMARK minimizedRMSD -1
REMARK  0 active torsions:
REMARK  status: ('A' for Active; 'I' for Inactive)
ROOT
ATOM      1  C   UNL d   1       4.298   6.000   2.222  0.00  0.00     0.078 C 
ATOM      2  C1  UNL d   1       3.429   5.992   3.444  0.00  0.00    -0.077 A 
ATOM      3  C2  UNL d   1       2.033   5.993   3.337  0.00  0.00    -0.001 A 
ATOM      4  C3  UNL d   1       1.237   5.995   4.484  0.00  0.00     0.003 A 
ATOM      5  C4  UNL d   1       1.828   5.998   5.746  0.00  0.00    -0.005 A 
ATOM      6  C5  UNL d   1       3.217   6.000   5.862  0.00  0.00     0.003 A 
ATOM      7  C6  UNL d   1       4.014   5.997   4.717  0.00  0.00    -0.001 A 
ENDROOT
TORSDOF 0
ENDMDL
