MODEL 1
REMARK minimizedAffinity -1.66648602
REMARK minimizedRMSD -1
REMARK  0 active torsions:
REMARK  status: ('A' for Active; 'I' for Inactive)
ROOT
ATOM      1  C   UNL d   1       5.977   5.990   3.026  0.00  0.00     0.078 C 
ATOM      2  C1  UNL d   1       4.517   6.000   3.365  0.00  0.00    -0.077 A 
ATOM      3  C2  UNL d   1       4.085   5.999   4.697  0.00  0.00    -0.001 A 
ATOM      4  C3  UNL d   1       2.722   5.998   4.997  0.00  0.00     0.003 A 
ATOM      5  C4  UNL d   1       1.779   5.998   3.971  0.00  0.00    -0.005 A 
ATOM      6  C5  UNL d   1       2.199   5.997   2.642  0.00  0.00     0.003 A 
ATOM      7  C6  UNL d   1       3.562   5.997   2.340  0.00  0.00    -0.001 A 
ENDROOT
TORSDOF 0
ENDMDL
