MODEL 1
REMARK minimizedAffinity -1.88203776
REMARK minimizedRMSD -1
REMARK  0 active torsions:
REMARK  status: ('A' for Active; 'I' for Inactive)
ROOT
ATOM      1  C   UNL d   1      -2.098  -0.141   1.491  0.00  0.00     0.078 C 
ATOM      2  C1  UNL d   1      -0.666  -0.504   1.229  0.00  0.00    -0.077 A 
ATOM      3  C2  UNL d   1       0.226  -0.728   2.285  0.00  0.00    -0.001 A 
ATOM      4  C3  UNL d   1       1.558  -1.056   2.026  0.00  0.00     0.003 A 
ATOM      5  C4  UNL d   1       2.010  -1.161   0.712  0.00  0.00    -0.005 A 
ATOM      6  C5  UNL d   1       1.130  -0.937  -0.345  0.00  0.00     0.003 A 
ATOM      7  C6  UNL d   1      -0.202  -0.609  -0.088  0.00  0.00    -0.001 A 
ENDROOT
TORSDOF 0
ENDMDL
