MODEL 1
REMARK minimizedAffinity -2.33936763
REMARK minimizedRMSD -1
REMARK  0 active torsions:
REMARK  status: ('A' for Active; 'I' for Inactive)
ROOT
ATOM      1  C   UNL d   1       4.039   5.999   1.888  0.00  0.00     0.078 C 
ATOM      2  C1  UNL d   1       3.315   5.985   3.201  0.00  0.00    -0.077 A 
ATOM      3  C2  UNL d   1       1.916   5.972   3.253  0.00  0.00    -0.001 A 
ATOM      4  C3  UNL d   1       1.256   5.970   4.483  0.00  0.00     0.003 A 
ATOM      5  C4  UNL d   1       1.986   5.981   5.670  0.00  0.00    -0.005 A 
ATOM      6  C5  UNL d   1       3.379   5.997   5.628  0.00  0.00     0.003 A 
ATOM      7  C6  UNL d   1       4.041   5.999   4.399  0.00  0.00    -0.001 A 
ENDROOT
TORSDOF 0
ENDMDL
