MODEL 1
REMARK minimizedAffinity 4.18474007
REMARK minimizedRMSD -1
REMARK  1 active torsions:
REMARK  status: ('A' for Active; 'I' for Inactive)
REMARK    1  A    between atoms: C1_2  and  C2_3 
ROOT
ATOM      1  C2  UNL d   1       3.345  -4.792  -1.967  0.00  0.00    -0.081 A 
ATOM      2  C3  UNL d   1       3.869  -3.648  -1.352  0.00  0.00     0.006 A 
ATOM      3  C4  UNL d   1       4.162  -2.510  -2.107  0.00  0.00     0.002 A 
ATOM      4  C5  UNL d   1       3.929  -2.493  -3.486  0.00  0.00    -0.080 A 
ATOM      5  C6  UNL d   1       4.210  -1.267  -4.303  0.00  0.00     0.076 C 
ATOM      6  C7  UNL d   1       3.422  -3.641  -4.103  0.00  0.00     0.002 A 
ATOM      7  C8  UNL d   1       3.129  -4.780  -3.350  0.00  0.00     0.006 A 
ENDROOT
BRANCH   1   8
ATOM      8  C1  UNL d   1       2.968  -5.999  -1.147  0.00  0.00     0.054 C 
ATOM      9  C   UNL d   1       1.490  -5.982  -0.785  0.00  0.00     0.018 C 
ENDBRANCH   1   8
TORSDOF 1
ENDMDL
