MODEL 1
REMARK minimizedAffinity -0.195279509
REMARK minimizedRMSD -1
REMARK  1 active torsions:
REMARK  status: ('A' for Active; 'I' for Inactive)
REMARK    1  A    between atoms: C1_2  and  C2_3 
ROOT
ATOM      1  C2  UNL d   1       4.895  -4.612  -1.126  0.00  0.00    -0.081 A 
ATOM      2  C3  UNL d   1       4.881  -3.338  -0.545  0.00  0.00     0.006 A 
ATOM      3  C4  UNL d   1       4.416  -2.236  -1.266  0.00  0.00     0.002 A 
ATOM      4  C5  UNL d   1       3.950  -2.390  -2.576  0.00  0.00    -0.080 A 
ATOM      5  C6  UNL d   1       3.420  -1.220  -3.351  0.00  0.00     0.076 C 
ATOM      6  C7  UNL d   1       3.980  -3.660  -3.163  0.00  0.00     0.002 A 
ATOM      7  C8  UNL d   1       4.446  -4.762  -2.443  0.00  0.00     0.006 A 
ENDROOT
BRANCH   1   8
ATOM      8  C1  UNL d   1       5.336  -5.813  -0.329  0.00  0.00     0.054 C 
ATOM      9  C   UNL d   1       5.845  -5.408   1.046  0.00  0.00     0.018 C 
ENDBRANCH   1   8
TORSDOF 1
ENDMDL
