MODEL 1
REMARK minimizedAffinity 2.42526412
REMARK minimizedRMSD -1
REMARK  1 active torsions:
REMARK  status: ('A' for Active; 'I' for Inactive)
REMARK    1  A    between atoms: C1_2  and  C2_3 
ROOT
ATOM      1  C2  UNL d   1       4.496  -3.245  -0.991  0.00  0.00    -0.081 A 
ATOM      2  C3  UNL d   1       3.612  -3.561   0.047  0.00  0.00     0.006 A 
ATOM      3  C4  UNL d   1       3.271  -2.602   1.004  0.00  0.00     0.002 A 
ATOM      4  C5  UNL d   1       3.802  -1.309   0.933  0.00  0.00    -0.080 A 
ATOM      5  C6  UNL d   1       3.420  -0.261   1.936  0.00  0.00     0.076 C 
ATOM      6  C7  UNL d   1       4.699  -0.998  -0.094  0.00  0.00     0.002 A 
ATOM      7  C8  UNL d   1       5.040  -1.957  -1.051  0.00  0.00     0.006 A 
ENDROOT
BRANCH   1   8
ATOM      8  C1  UNL d   1       4.816  -4.257  -2.061  0.00  0.00     0.054 C 
ATOM      9  C   UNL d   1       3.895  -4.102  -3.263  0.00  0.00     0.018 C 
ENDBRANCH   1   8
TORSDOF 1
ENDMDL
