MODEL 1
REMARK minimizedAffinity 9.42375755
REMARK minimizedRMSD -1
REMARK  1 active torsions:
REMARK  status: ('A' for Active; 'I' for Inactive)
REMARK    1  A    between atoms: C1_2  and  C2_3 
ROOT
ATOM      1  C2  UNL d   1       2.811  -4.864  -2.082  0.00  0.00    -0.081 A 
ATOM      2  C3  UNL d   1       2.338  -4.549  -0.802  0.00  0.00     0.006 A 
ATOM      3  C4  UNL d   1       2.864  -3.462  -0.100  0.00  0.00     0.002 A 
ATOM      4  C5  UNL d   1       3.865  -2.667  -0.668  0.00  0.00    -0.080 A 
ATOM      5  C6  UNL d   1       4.417  -1.479   0.062  0.00  0.00     0.076 C 
ATOM      6  C7  UNL d   1       4.350  -2.992  -1.940  0.00  0.00     0.002 A 
ATOM      7  C8  UNL d   1       3.825  -4.079  -2.642  0.00  0.00     0.006 A 
ENDROOT
BRANCH   1   8
ATOM      8  C1  UNL d   1       2.201  -5.996  -2.867  0.00  0.00     0.054 C 
ATOM      9  C   UNL d   1       0.682  -5.983  -2.768  0.00  0.00     0.018 C 
ENDBRANCH   1   8
TORSDOF 1
ENDMDL
