MODEL 1
REMARK minimizedAffinity 6.24544239
REMARK minimizedRMSD -1
REMARK  1 active torsions:
REMARK  status: ('A' for Active; 'I' for Inactive)
REMARK    1  A    between atoms: C1_2  and  C2_3 
ROOT
ATOM      1  C2  UNL d   1      -3.975   2.971  -2.378  0.00  0.00    -0.081 A 
ATOM      2  C3  UNL d   1      -5.069   2.379  -1.735  0.00  0.00     0.006 A 
ATOM      3  C4  UNL d   1      -4.940   1.129  -1.124  0.00  0.00     0.002 A 
ATOM      4  C5  UNL d   1      -3.714   0.455  -1.139  0.00  0.00    -0.080 A 
ATOM      5  C6  UNL d   1      -3.555  -0.873  -0.461  0.00  0.00     0.076 C 
ATOM      6  C7  UNL d   1      -2.626   1.038  -1.797  0.00  0.00     0.002 A 
ATOM      7  C8  UNL d   1      -2.754   2.287  -2.409  0.00  0.00     0.006 A 
ENDROOT
BRANCH   1   8
ATOM      8  C1  UNL d   1      -4.093   4.347  -2.982  0.00  0.00     0.054 C 
ATOM      9  C   UNL d   1      -5.223   5.138  -2.339  0.00  0.00     0.018 C 
ENDBRANCH   1   8
TORSDOF 1
ENDMDL
