MODEL 1
REMARK minimizedAffinity -0.354145169
REMARK minimizedRMSD -1
REMARK  1 active torsions:
REMARK  status: ('A' for Active; 'I' for Inactive)
REMARK    1  A    between atoms: C1_2  and  C2_3 
ROOT
ATOM      1  C2  UNL d   1      -5.640  -0.923   2.126  0.00  0.00    -0.081 A 
ATOM      2  C3  UNL d   1      -5.866  -0.211   3.311  0.00  0.00     0.006 A 
ATOM      3  C4  UNL d   1      -5.995  -0.884   4.528  0.00  0.00     0.002 A 
ATOM      4  C5  UNL d   1      -5.893  -2.278   4.582  0.00  0.00    -0.080 A 
ATOM      5  C6  UNL d   1      -6.000  -3.011   5.887  0.00  0.00     0.076 C 
ATOM      6  C7  UNL d   1      -5.685  -2.991   3.396  0.00  0.00     0.002 A 
ATOM      7  C8  UNL d   1      -5.557  -2.318   2.179  0.00  0.00     0.006 A 
ENDROOT
BRANCH   1   8
ATOM      8  C1  UNL d   1      -5.436  -0.195   0.822  0.00  0.00     0.054 C 
ATOM      9  C   UNL d   1      -4.881  -1.124  -0.249  0.00  0.00     0.018 C 
ENDBRANCH   1   8
TORSDOF 1
ENDMDL
