MODEL 1
REMARK minimizedAffinity 3.10287857
REMARK minimizedRMSD -1
REMARK  1 active torsions:
REMARK  status: ('A' for Active; 'I' for Inactive)
REMARK    1  A    between atoms: C3_4  and  O_7 
ROOT
ATOM      1  C   UNL d   1      -3.238  -2.764  -0.723  0.00  0.00    -0.033 A 
ATOM      2  C1  UNL d   1      -3.792  -3.488  -1.780  0.00  0.00     0.039 A 
ATOM      3  C2  UNL d   1      -3.242  -3.392  -3.059  0.00  0.00    -0.080 A 
ATOM      4  C3  UNL d   1      -2.137  -2.570  -3.268  0.00  0.00     0.150 A 
ATOM      5  C4  UNL d   1      -1.577  -1.849  -2.218  0.00  0.00    -0.007 A 
ATOM      6  C5  UNL d   1      -2.129  -1.946  -0.942  0.00  0.00     0.039 A 
ENDROOT
BRANCH   4   7
ATOM      7  O   UNL d   1      -1.568  -2.441  -4.500  0.00  0.00    -0.526 OA
ATOM      8  H5  UNL d   1      -2.078  -2.974  -5.132  0.00  0.00     0.418 HD
ENDBRANCH   4   7
TORSDOF 1
ENDMDL
