MODEL 1
REMARK minimizedAffinity 2.24437141
REMARK minimizedRMSD -1
REMARK  1 active torsions:
REMARK  status: ('A' for Active; 'I' for Inactive)
REMARK    1  A    between atoms: C3_4  and  O_7 
ROOT
ATOM      1  C   UNL d   1       4.128  -0.661   1.492  0.00  0.00    -0.033 A 
ATOM      2  C1  UNL d   1       3.381   0.366   0.911  0.00  0.00     0.039 A 
ATOM      3  C2  UNL d   1       3.940   1.636   0.757  0.00  0.00    -0.080 A 
ATOM      4  C3  UNL d   1       5.244   1.866   1.186  0.00  0.00     0.150 A 
ATOM      5  C4  UNL d   1       5.995   0.846   1.761  0.00  0.00    -0.007 A 
ATOM      6  C5  UNL d   1       5.435  -0.422   1.915  0.00  0.00     0.039 A 
ENDROOT
BRANCH   4   7
ATOM      7  O   UNL d   1       5.831   3.090   1.061  0.00  0.00    -0.526 OA
ATOM      8  H5  UNL d   1       5.184   3.703   0.673  0.00  0.00     0.418 HD
ENDBRANCH   4   7
TORSDOF 1
ENDMDL
