MODEL 1
REMARK minimizedAffinity -0.89930898
REMARK minimizedRMSD -1
REMARK  1 active torsions:
REMARK  status: ('A' for Active; 'I' for Inactive)
REMARK    1  A    between atoms: C3_4  and  O_7 
ROOT
ATOM      1  C   UNL d   1       5.999   2.141   1.366  0.00  0.00    -0.033 A 
ATOM      2  C1  UNL d   1       5.993   0.834   1.857  0.00  0.00     0.039 A 
ATOM      3  C2  UNL d   1       4.862   0.032   1.697  0.00  0.00    -0.080 A 
ATOM      4  C3  UNL d   1       3.745   0.547   1.045  0.00  0.00     0.150 A 
ATOM      5  C4  UNL d   1       3.745   1.847   0.550  0.00  0.00    -0.007 A 
ATOM      6  C5  UNL d   1       4.876   2.647   0.711  0.00  0.00     0.039 A 
ENDROOT
BRANCH   4   7
ATOM      7  O   UNL d   1       2.616  -0.196   0.870  0.00  0.00    -0.526 OA
ATOM      8  H5  UNL d   1       2.750  -1.063   1.288  0.00  0.00     0.418 HD
ENDBRANCH   4   7
TORSDOF 1
ENDMDL
