MODEL 1
REMARK minimizedAffinity 12.0844784
REMARK minimizedRMSD -1
REMARK  1 active torsions:
REMARK  status: ('A' for Active; 'I' for Inactive)
REMARK    1  A    between atoms: C3_4  and  O_7 
ROOT
ATOM      1  C   UNL d   1       1.658   5.999  -5.995  0.00  0.00    -0.033 A 
ATOM      2  C1  UNL d   1       0.958   5.367  -4.966  0.00  0.00     0.039 A 
ATOM      3  C2  UNL d   1       1.652   4.722  -3.940  0.00  0.00    -0.080 A 
ATOM      4  C3  UNL d   1       3.044   4.717  -3.956  0.00  0.00     0.150 A 
ATOM      5  C4  UNL d   1       3.748   5.348  -4.976  0.00  0.00    -0.007 A 
ATOM      6  C5  UNL d   1       3.053   5.990  -6.000  0.00  0.00     0.039 A 
ENDROOT
BRANCH   4   7
ATOM      7  O   UNL d   1       3.765   4.096  -2.980  0.00  0.00    -0.526 OA
ATOM      8  H5  UNL d   1       3.146   3.680  -2.357  0.00  0.00     0.418 HD
ENDBRANCH   4   7
TORSDOF 1
ENDMDL
