MODEL 1
REMARK minimizedAffinity 4.52426529
REMARK minimizedRMSD -1
REMARK  1 active torsions:
REMARK  status: ('A' for Active; 'I' for Inactive)
REMARK    1  A    between atoms: C3_4  and  O_7 
ROOT
ATOM      1  C   UNL d   1       2.301   0.296   1.559  0.00  0.00    -0.033 A 
ATOM      2  C1  UNL d   1       1.059   0.546   2.146  0.00  0.00     0.039 A 
ATOM      3  C2  UNL d   1       0.567   1.852   2.214  0.00  0.00    -0.080 A 
ATOM      4  C3  UNL d   1       1.325   2.895   1.691  0.00  0.00     0.150 A 
ATOM      5  C4  UNL d   1       2.562   2.653   1.102  0.00  0.00    -0.007 A 
ATOM      6  C5  UNL d   1       3.051   1.349   1.036  0.00  0.00     0.039 A 
ENDROOT
BRANCH   4   7
ATOM      7  O   UNL d   1       0.889   4.186   1.738  0.00  0.00    -0.526 OA
ATOM      8  H5  UNL d   1       0.034   4.205   2.199  0.00  0.00     0.418 HD
ENDBRANCH   4   7
TORSDOF 1
ENDMDL
