MODEL 1
REMARK minimizedAffinity 13.4682064
REMARK minimizedRMSD -1
REMARK  1 active torsions:
REMARK  status: ('A' for Active; 'I' for Inactive)
REMARK    1  A    between atoms: C3_4  and  O_7 
ROOT
ATOM      1  C   UNL d   1      -1.541  -2.892  -2.052  0.00  0.00    -0.033 A 
ATOM      2  C1  UNL d   1      -0.901  -3.836  -2.856  0.00  0.00     0.039 A 
ATOM      3  C2  UNL d   1      -0.606  -3.537  -4.188  0.00  0.00    -0.080 A 
ATOM      4  C3  UNL d   1      -0.955  -2.291  -4.701  0.00  0.00     0.150 A 
ATOM      5  C4  UNL d   1      -1.589  -1.344  -3.905  0.00  0.00    -0.007 A 
ATOM      6  C5  UNL d   1      -1.884  -1.645  -2.576  0.00  0.00     0.039 A 
ENDROOT
BRANCH   4   7
ATOM      7  O   UNL d   1      -0.692  -1.955  -5.996  0.00  0.00    -0.526 OA
ATOM      8  H5  UNL d   1      -0.277  -2.717  -6.434  0.00  0.00     0.418 HD
ENDBRANCH   4   7
TORSDOF 1
ENDMDL
