MODEL 1
REMARK minimizedAffinity 9.75280952
REMARK minimizedRMSD -1
REMARK  1 active torsions:
REMARK  status: ('A' for Active; 'I' for Inactive)
REMARK    1  A    between atoms: C3_4  and  O_7 
ROOT
ATOM      1  C   UNL d   1      -5.250  -1.498   5.863  0.00  0.00    -0.033 A 
ATOM      2  C1  UNL d   1      -4.619  -2.041   4.742  0.00  0.00     0.039 A 
ATOM      3  C2  UNL d   1      -4.109  -1.201   3.750  0.00  0.00    -0.080 A 
ATOM      4  C3  UNL d   1      -4.236   0.178   3.891  0.00  0.00     0.150 A 
ATOM      5  C4  UNL d   1      -4.859   0.726   5.008  0.00  0.00    -0.007 A 
ATOM      6  C5  UNL d   1      -5.369  -0.114   5.997  0.00  0.00     0.039 A 
ENDROOT
BRANCH   4   7
ATOM      7  O   UNL d   1      -3.758   1.038   2.947  0.00  0.00    -0.526 OA
ATOM      8  H5  UNL d   1      -3.379   0.517   2.220  0.00  0.00     0.418 HD
ENDBRANCH   4   7
TORSDOF 1
ENDMDL
