MODEL 1
REMARK minimizedAffinity 4.30615234
REMARK minimizedRMSD -1
REMARK  1 active torsions:
REMARK  status: ('A' for Active; 'I' for Inactive)
REMARK    1  A    between atoms: C3_4  and  O_7 
ROOT
ATOM      1  C   UNL d   1       6.000   2.622  -3.751  0.00  0.00    -0.033 A 
ATOM      2  C1  UNL d   1       5.936   3.375  -4.925  0.00  0.00     0.039 A 
ATOM      3  C2  UNL d   1       4.725   3.941  -5.328  0.00  0.00    -0.080 A 
ATOM      4  C3  UNL d   1       3.588   3.748  -4.549  0.00  0.00     0.150 A 
ATOM      5  C4  UNL d   1       3.645   3.003  -3.376  0.00  0.00    -0.007 A 
ATOM      6  C5  UNL d   1       4.855   2.437  -2.975  0.00  0.00     0.039 A 
ENDROOT
BRANCH   4   7
ATOM      7  O   UNL d   1       2.382   4.277  -4.904  0.00  0.00    -0.526 OA
ATOM      8  H5  UNL d   1       2.488   4.743  -5.750  0.00  0.00     0.418 HD
ENDBRANCH   4   7
TORSDOF 1
ENDMDL
