MODEL 1
REMARK minimizedAffinity -3.6896565
REMARK minimizedRMSD -1
REMARK  1 active torsions:
REMARK  status: ('A' for Active; 'I' for Inactive)
REMARK    1  A    between atoms: C3_4  and  O_7 
ROOT
ATOM      1  C   UNL d   1       5.998   3.690  -4.126  0.00  0.00    -0.033 A 
ATOM      2  C1  UNL d   1       5.820   4.694  -5.080  0.00  0.00     0.039 A 
ATOM      3  C2  UNL d   1       4.535   5.031  -5.510  0.00  0.00    -0.080 A 
ATOM      4  C3  UNL d   1       3.439   4.358  -4.978  0.00  0.00     0.150 A 
ATOM      5  C4  UNL d   1       3.608   3.359  -4.025  0.00  0.00    -0.007 A 
ATOM      6  C5  UNL d   1       4.892   3.024  -3.598  0.00  0.00     0.039 A 
ENDROOT
BRANCH   4   7
ATOM      7  O   UNL d   1       2.166   4.649  -5.371  0.00  0.00    -0.526 OA
ATOM      8  H5  UNL d   1       2.204   5.339  -6.054  0.00  0.00     0.418 HD
ENDBRANCH   4   7
TORSDOF 1
ENDMDL
