MODEL 1
REMARK minimizedAffinity 5.70577621
REMARK minimizedRMSD -1
REMARK  1 active torsions:
REMARK  status: ('A' for Active; 'I' for Inactive)
REMARK    1  A    between atoms: C3_4  and  O_7 
ROOT
ATOM      1  C   UNL d   1      -5.989   5.999   3.767  0.00  0.00    -0.033 A 
ATOM      2  C1  UNL d   1      -5.232   5.673   4.894  0.00  0.00     0.039 A 
ATOM      3  C2  UNL d   1      -4.487   4.492   4.918  0.00  0.00    -0.080 A 
ATOM      4  C3  UNL d   1      -4.507   3.649   3.811  0.00  0.00     0.150 A 
ATOM      5  C4  UNL d   1      -5.256   3.970   2.683  0.00  0.00    -0.007 A 
ATOM      6  C5  UNL d   1      -6.000   5.149   2.661  0.00  0.00     0.039 A 
ENDROOT
BRANCH   4   7
ATOM      7  O   UNL d   1      -3.800   2.483   3.790  0.00  0.00    -0.526 OA
ATOM      8  H5  UNL d   1      -3.354   2.379   4.647  0.00  0.00     0.418 HD
ENDBRANCH   4   7
TORSDOF 1
ENDMDL
