MODEL 1
REMARK minimizedAffinity 3.31672883
REMARK minimizedRMSD -1
REMARK  1 active torsions:
REMARK  status: ('A' for Active; 'I' for Inactive)
REMARK    1  A    between atoms: C3_4  and  O_7 
ROOT
ATOM      1  C   UNL d   1       1.271   2.555   1.253  0.00  0.00    -0.033 A 
ATOM      2  C1  UNL d   1       1.103   1.376   1.981  0.00  0.00     0.039 A 
ATOM      3  C2  UNL d   1       1.929   0.277   1.733  0.00  0.00    -0.080 A 
ATOM      4  C3  UNL d   1       2.917   0.372   0.757  0.00  0.00     0.150 A 
ATOM      5  C4  UNL d   1       3.092   1.545   0.031  0.00  0.00    -0.007 A 
ATOM      6  C5  UNL d   1       2.266   2.641   0.280  0.00  0.00     0.039 A 
ENDROOT
BRANCH   4   7
ATOM      7  O   UNL d   1       3.744  -0.676   0.477  0.00  0.00    -0.526 OA
ATOM      8  H5  UNL d   1       3.488  -1.428   1.036  0.00  0.00     0.418 HD
ENDBRANCH   4   7
TORSDOF 1
ENDMDL
