MODEL 1
REMARK minimizedAffinity 0.901970863
REMARK minimizedRMSD -1
REMARK  1 active torsions:
REMARK  status: ('A' for Active; 'I' for Inactive)
REMARK    1  A    between atoms: C3_4  and  O_7 
ROOT
ATOM      1  C   UNL d   1       5.995   2.576  -2.860  0.00  0.00    -0.033 A 
ATOM      2  C1  UNL d   1       5.996   2.153  -4.190  0.00  0.00     0.039 A 
ATOM      3  C2  UNL d   1       5.995   3.092  -5.223  0.00  0.00    -0.080 A 
ATOM      4  C3  UNL d   1       5.995   4.449  -4.913  0.00  0.00     0.150 A 
ATOM      5  C4  UNL d   1       5.998   4.878  -3.589  0.00  0.00    -0.007 A 
ATOM      6  C5  UNL d   1       5.998   3.938  -2.559  0.00  0.00     0.039 A 
ENDROOT
BRANCH   4   7
ATOM      7  O   UNL d   1       5.989   5.403  -5.887  0.00  0.00    -0.526 OA
ATOM      8  H5  UNL d   1       5.958   4.960  -6.751  0.00  0.00     0.418 HD
ENDBRANCH   4   7
TORSDOF 1
ENDMDL
