MODEL 1
REMARK minimizedAffinity 2.35509825
REMARK minimizedRMSD -1
REMARK  1 active torsions:
REMARK  status: ('A' for Active; 'I' for Inactive)
REMARK    1  A    between atoms: C3_4  and  O_7 
ROOT
ATOM      1  C   UNL d   1       4.059   1.864  -3.080  0.00  0.00    -0.033 A 
ATOM      2  C1  UNL d   1       3.380   2.194  -4.254  0.00  0.00     0.039 A 
ATOM      3  C2  UNL d   1       4.004   2.979  -5.226  0.00  0.00    -0.080 A 
ATOM      4  C3  UNL d   1       5.304   3.427  -5.011  0.00  0.00     0.150 A 
ATOM      5  C4  UNL d   1       5.988   3.099  -3.845  0.00  0.00    -0.007 A 
ATOM      6  C5  UNL d   1       5.363   2.315  -2.875  0.00  0.00     0.039 A 
ENDROOT
BRANCH   4   7
ATOM      7  O   UNL d   1       5.952   4.200  -5.928  0.00  0.00    -0.526 OA
ATOM      8  H5  UNL d   1       5.348   4.371  -6.669  0.00  0.00     0.418 HD
ENDBRANCH   4   7
TORSDOF 1
ENDMDL
