MODEL 1
REMARK minimizedAffinity -3.6807003
REMARK minimizedRMSD -1
REMARK  1 active torsions:
REMARK  status: ('A' for Active; 'I' for Inactive)
REMARK    1  A    between atoms: C3_4  and  O_7 
ROOT
ATOM      1  C   UNL d   1       4.722   4.054  -3.753  0.00  0.00    -0.033 A 
ATOM      2  C1  UNL d   1       4.437   5.308  -4.297  0.00  0.00     0.039 A 
ATOM      3  C2  UNL d   1       3.280   5.495  -5.055  0.00  0.00    -0.080 A 
ATOM      4  C3  UNL d   1       2.417   4.422  -5.261  0.00  0.00     0.150 A 
ATOM      5  C4  UNL d   1       2.693   3.171  -4.719  0.00  0.00    -0.007 A 
ATOM      6  C5  UNL d   1       3.849   2.986  -3.963  0.00  0.00     0.039 A 
ENDROOT
BRANCH   4   7
ATOM      7  O   UNL d   1       1.278   4.555  -5.999  0.00  0.00    -0.526 OA
ATOM      8  H5  UNL d   1       1.233   5.466  -6.334  0.00  0.00     0.418 HD
ENDBRANCH   4   7
TORSDOF 1
ENDMDL
