MODEL 1
REMARK minimizedAffinity -3.93679261
REMARK minimizedRMSD -1
REMARK  0 active torsions:
REMARK  status: ('A' for Active; 'I' for Inactive)
ROOT
ATOM      1  C   UNL d   1      -0.666   0.309  -0.059  0.00  0.00     0.172 C 
ATOM      2  N   UNL d   1       0.618  -0.333   0.101  0.00  0.00    -0.070 N 
ATOM      3  C1  UNL d   1       1.778   0.285   0.486  0.00  0.00    -0.004 A 
ATOM      4  C2  UNL d   1       2.773  -0.668   0.519  0.00  0.00    -0.047 A 
ATOM      5  C3  UNL d   1       2.191  -1.901   0.140  0.00  0.00    -0.047 A 
ATOM      6  C4  UNL d   1       0.856  -1.665  -0.113  0.00  0.00    -0.004 A 
ENDROOT
TORSDOF 0
ENDMDL
