MODEL 1
REMARK minimizedAffinity -0.86762166
REMARK minimizedRMSD -1
REMARK  0 active torsions:
REMARK  status: ('A' for Active; 'I' for Inactive)
ROOT
ATOM      1  C   UNL d   1       2.050  -1.567  -0.018  0.00  0.00     0.172 C 
ATOM      2  N   UNL d   1       1.106  -0.480  -0.136  0.00  0.00    -0.070 N 
ATOM      3  C1  UNL d   1       1.354   0.830   0.173  0.00  0.00    -0.004 A 
ATOM      4  C2  UNL d   1       0.205   1.548  -0.077  0.00  0.00    -0.047 A 
ATOM      5  C3  UNL d   1      -0.769   0.637  -0.553  0.00  0.00    -0.047 A 
ATOM      6  C4  UNL d   1      -0.184  -0.611  -0.579  0.00  0.00    -0.004 A 
ENDROOT
TORSDOF 0
ENDMDL
