MODEL 1
REMARK minimizedAffinity -3.13327289
REMARK minimizedRMSD -1
REMARK  0 active torsions:
REMARK  status: ('A' for Active; 'I' for Inactive)
ROOT
ATOM      1  C   UNL d   1      -0.794   0.587  -0.435  0.00  0.00     0.172 C 
ATOM      2  N   UNL d   1       0.306  -0.329  -0.248  0.00  0.00    -0.070 N 
ATOM      3  C1  UNL d   1       0.416  -1.571  -0.815  0.00  0.00    -0.004 A 
ATOM      4  C2  UNL d   1       1.605  -2.125  -0.391  0.00  0.00    -0.047 A 
ATOM      5  C3  UNL d   1       2.231  -1.184   0.461  0.00  0.00    -0.047 A 
ATOM      6  C4  UNL d   1       1.405  -0.082   0.532  0.00  0.00    -0.004 A 
ENDROOT
TORSDOF 0
ENDMDL
