MODEL 1
REMARK minimizedAffinity -3.12501812
REMARK minimizedRMSD -1
REMARK  0 active torsions:
REMARK  status: ('A' for Active; 'I' for Inactive)
ROOT
ATOM      1  C   UNL d   1       2.635  -1.022   1.132  0.00  0.00     0.172 C 
ATOM      2  N   UNL d   1       1.526  -0.246   0.626  0.00  0.00    -0.070 N 
ATOM      3  C1  UNL d   1       0.250  -0.706   0.440  0.00  0.00    -0.004 A 
ATOM      4  C2  UNL d   1      -0.505   0.336  -0.054  0.00  0.00    -0.047 A 
ATOM      5  C3  UNL d   1       0.347   1.460  -0.169  0.00  0.00    -0.047 A 
ATOM      6  C4  UNL d   1       1.599   1.072   0.259  0.00  0.00    -0.004 A 
ENDROOT
TORSDOF 0
ENDMDL
