MODEL 1
REMARK minimizedAffinity 1.77314746
REMARK minimizedRMSD -1
REMARK  0 active torsions:
REMARK  status: ('A' for Active; 'I' for Inactive)
ROOT
ATOM      1  C   UNL d   1       3.340  -1.359  -0.458  0.00  0.00     0.172 C 
ATOM      2  N   UNL d   1       1.907  -1.540  -0.485  0.00  0.00    -0.070 N 
ATOM      3  C1  UNL d   1       0.982  -0.553  -0.697  0.00  0.00    -0.004 A 
ATOM      4  C2  UNL d   1      -0.269  -1.129  -0.647  0.00  0.00    -0.047 A 
ATOM      5  C3  UNL d   1      -0.089  -2.510  -0.395  0.00  0.00    -0.047 A 
ATOM      6  C4  UNL d   1       1.268  -2.737  -0.299  0.00  0.00    -0.004 A 
ENDROOT
TORSDOF 0
ENDMDL
