MODEL 1
REMARK minimizedAffinity 1.06850076
REMARK minimizedRMSD -1
REMARK  0 active torsions:
REMARK  status: ('A' for Active; 'I' for Inactive)
ROOT
ATOM      1  C   UNL d   1       2.982  -2.410  -2.562  0.00  0.00     0.172 C 
ATOM      2  N   UNL d   1       1.870  -2.085  -1.699  0.00  0.00    -0.070 N 
ATOM      3  C1  UNL d   1       0.723  -1.442  -2.083  0.00  0.00    -0.004 A 
ATOM      4  C2  UNL d   1      -0.085  -1.322  -0.974  0.00  0.00    -0.047 A 
ATOM      5  C3  UNL d   1       0.600  -1.912   0.115  0.00  0.00    -0.047 A 
ATOM      6  C4  UNL d   1       1.807  -2.376  -0.362  0.00  0.00    -0.004 A 
ENDROOT
TORSDOF 0
ENDMDL
