MODEL 1
REMARK minimizedAffinity 2.8904686
REMARK minimizedRMSD -1
REMARK  1 active torsions:
REMARK  status: ('A' for Active; 'I' for Inactive)
REMARK    1  A    between atoms: C3_4  and  O_7 
ROOT
ATOM      1  C   UNL d   1       5.457   5.587   3.969  0.00  0.00    -0.033 A 
ATOM      2  C1  UNL d   1       5.790   5.336   5.301  0.00  0.00     0.039 A 
ATOM      3  C2  UNL d   1       5.154   4.308   6.000  0.00  0.00    -0.080 A 
ATOM      4  C3  UNL d   1       4.189   3.539   5.356  0.00  0.00     0.150 A 
ATOM      5  C4  UNL d   1       3.855   3.781   4.027  0.00  0.00    -0.007 A 
ATOM      6  C5  UNL d   1       4.490   4.809   3.331  0.00  0.00     0.039 A 
ENDROOT
BRANCH   4   7
ATOM      7  O   UNL d   1       3.538   2.528   5.998  0.00  0.00    -0.526 OA
ATOM      8  H5  UNL d   1       3.851   2.496   6.917  0.00  0.00     0.418 HD
ENDBRANCH   4   7
TORSDOF 1
ENDMDL
