MODEL 1
REMARK minimizedAffinity 5.01019192
REMARK minimizedRMSD -1
REMARK  1 active torsions:
REMARK  status: ('A' for Active; 'I' for Inactive)
REMARK    1  A    between atoms: C3_4  and  O_7 
ROOT
ATOM      1  C   UNL d   1       5.271   4.480   4.814  0.00  0.00    -0.033 A 
ATOM      2  C1  UNL d   1       4.720   4.078   3.596  0.00  0.00     0.039 A 
ATOM      3  C2  UNL d   1       3.459   3.480   3.562  0.00  0.00    -0.080 A 
ATOM      4  C3  UNL d   1       2.760   3.291   4.750  0.00  0.00     0.150 A 
ATOM      5  C4  UNL d   1       3.301   3.693   5.967  0.00  0.00    -0.007 A 
ATOM      6  C5  UNL d   1       4.561   4.289   6.000  0.00  0.00     0.039 A 
ENDROOT
BRANCH   4   7
ATOM      7  O   UNL d   1       1.528   2.708   4.767  0.00  0.00    -0.526 OA
ATOM      8  H5  UNL d   1       1.294   2.456   3.858  0.00  0.00     0.418 HD
ENDBRANCH   4   7
TORSDOF 1
ENDMDL
