MODEL 1
REMARK minimizedAffinity 6.71989441
REMARK minimizedRMSD -1
REMARK  1 active torsions:
REMARK  status: ('A' for Active; 'I' for Inactive)
REMARK    1  A    between atoms: C3_4  and  O_7 
ROOT
ATOM      1  C   UNL d   1       1.725   1.898   4.257  0.00  0.00    -0.033 A 
ATOM      2  C1  UNL d   1       2.574   2.423   3.281  0.00  0.00     0.039 A 
ATOM      3  C2  UNL d   1       2.227   3.596   2.608  0.00  0.00    -0.080 A 
ATOM      4  C3  UNL d   1       1.030   4.234   2.921  0.00  0.00     0.150 A 
ATOM      5  C4  UNL d   1       0.181   3.719   3.895  0.00  0.00    -0.007 A 
ATOM      6  C5  UNL d   1       0.529   2.547   4.565  0.00  0.00     0.039 A 
ENDROOT
BRANCH   4   7
ATOM      7  O   UNL d   1       0.647   5.379   2.288  0.00  0.00    -0.526 OA
ATOM      8  H5  UNL d   1       1.317   5.601   1.621  0.00  0.00     0.418 HD
ENDBRANCH   4   7
TORSDOF 1
ENDMDL
