MODEL 1
REMARK minimizedAffinity -2.11379147
REMARK minimizedRMSD -1
REMARK  1 active torsions:
REMARK  status: ('A' for Active; 'I' for Inactive)
REMARK    1  A    between atoms: C3_4  and  O_7 
ROOT
ATOM      1  C   UNL d   1       2.612   5.941   4.927  0.00  0.00    -0.033 A 
ATOM      2  C1  UNL d   1       3.770   6.000   5.706  0.00  0.00     0.039 A 
ATOM      3  C2  UNL d   1       4.917   5.312   5.307  0.00  0.00    -0.080 A 
ATOM      4  C3  UNL d   1       4.895   4.571   4.128  0.00  0.00     0.150 A 
ATOM      5  C4  UNL d   1       3.746   4.512   3.346  0.00  0.00    -0.007 A 
ATOM      6  C5  UNL d   1       2.601   5.198   3.747  0.00  0.00     0.039 A 
ENDROOT
BRANCH   4   7
ATOM      7  O   UNL d   1       5.989   3.880   3.700  0.00  0.00    -0.526 OA
ATOM      8  H5  UNL d   1       6.698   3.990   4.355  0.00  0.00     0.418 HD
ENDBRANCH   4   7
TORSDOF 1
ENDMDL
