MODEL 1
REMARK minimizedAffinity 7.66007662
REMARK minimizedRMSD -1
REMARK  1 active torsions:
REMARK  status: ('A' for Active; 'I' for Inactive)
REMARK    1  A    between atoms: C3_4  and  O_7 
ROOT
ATOM      1  C   UNL d   1       1.689   2.730   4.764  0.00  0.00    -0.033 A 
ATOM      2  C1  UNL d   1       2.316   3.070   3.564  0.00  0.00     0.039 A 
ATOM      3  C2  UNL d   1       3.546   3.730   3.580  0.00  0.00    -0.080 A 
ATOM      4  C3  UNL d   1       4.138   4.045   4.800  0.00  0.00     0.150 A 
ATOM      5  C4  UNL d   1       3.520   3.706   6.000  0.00  0.00    -0.007 A 
ATOM      6  C5  UNL d   1       2.291   3.047   5.982  0.00  0.00     0.039 A 
ENDROOT
BRANCH   4   7
ATOM      7  O   UNL d   1       5.335   4.693   4.866  0.00  0.00    -0.526 OA
ATOM      8  H5  UNL d   1       5.629   4.889   3.961  0.00  0.00     0.418 HD
ENDBRANCH   4   7
TORSDOF 1
ENDMDL
