MODEL 1
REMARK minimizedAffinity 3.2315433
REMARK minimizedRMSD -1
REMARK  1 active torsions:
REMARK  status: ('A' for Active; 'I' for Inactive)
REMARK    1  A    between atoms: C3_4  and  O_7 
ROOT
ATOM      1  C   UNL d   1       2.890   0.794  -0.164  0.00  0.00    -0.033 A 
ATOM      2  C1  UNL d   1       1.801   0.921  -1.028  0.00  0.00     0.039 A 
ATOM      3  C2  UNL d   1       0.792   1.846  -0.751  0.00  0.00    -0.080 A 
ATOM      4  C3  UNL d   1       0.884   2.636   0.391  0.00  0.00     0.150 A 
ATOM      5  C4  UNL d   1       1.968   2.517   1.254  0.00  0.00    -0.007 A 
ATOM      6  C5  UNL d   1       2.974   1.593   0.977  0.00  0.00     0.039 A 
ENDROOT
BRANCH   4   7
ATOM      7  O   UNL d   1      -0.079   3.549   0.706  0.00  0.00    -0.526 OA
ATOM      8  H5  UNL d   1      -0.780   3.500   0.035  0.00  0.00     0.418 HD
ENDBRANCH   4   7
TORSDOF 1
ENDMDL
