MODEL 1
REMARK minimizedAffinity 7.95019388
REMARK minimizedRMSD -1
REMARK  1 active torsions:
REMARK  status: ('A' for Active; 'I' for Inactive)
REMARK    1  A    between atoms: C1_2  and  C2_3 
ROOT
ATOM      1  C2  UNL d   1       1.418  -0.514  -2.798  0.00  0.00    -0.077 A 
ATOM      2  C3  UNL d   1       0.672   0.299  -1.933  0.00  0.00     0.002 A 
ATOM      3  C4  UNL d   1       0.037  -0.252  -0.818  0.00  0.00     0.002 A 
ATOM      4  C5  UNL d   1       0.146  -1.616  -0.555  0.00  0.00    -0.004 A 
ATOM      5  C6  UNL d   1       0.883  -2.433  -1.411  0.00  0.00     0.002 A 
ATOM      6  C7  UNL d   1       1.517  -1.885  -2.526  0.00  0.00     0.002 A 
ENDROOT
BRANCH   1   7
ATOM      7  C1  UNL d   1       2.144   0.086  -3.974  0.00  0.00     0.055 C 
ATOM      8  C   UNL d   1       1.488  -0.309  -5.289  0.00  0.00     0.019 C 
ENDBRANCH   1   7
TORSDOF 1
ENDMDL
