MODEL 1
REMARK minimizedAffinity 5.50035286
REMARK minimizedRMSD -1
REMARK  1 active torsions:
REMARK  status: ('A' for Active; 'I' for Inactive)
REMARK    1  A    between atoms: C1_2  and  C2_3 
ROOT
ATOM      1  C2  UNL d   1       0.200   0.254  -0.712  0.00  0.00    -0.077 A 
ATOM      2  C3  UNL d   1      -0.924  -0.356  -0.138  0.00  0.00     0.002 A 
ATOM      3  C4  UNL d   1      -0.892  -1.706   0.215  0.00  0.00     0.002 A 
ATOM      4  C5  UNL d   1       0.262  -2.457   0.002  0.00  0.00    -0.004 A 
ATOM      5  C6  UNL d   1       1.385  -1.860  -0.571  0.00  0.00     0.002 A 
ATOM      6  C7  UNL d   1       1.354  -0.511  -0.925  0.00  0.00     0.002 A 
ENDROOT
BRANCH   1   7
ATOM      7  C1  UNL d   1       0.184   1.722  -1.049  0.00  0.00     0.055 C 
ATOM      8  C   UNL d   1       1.017   2.525  -0.061  0.00  0.00     0.019 C 
ENDBRANCH   1   7
TORSDOF 1
ENDMDL
