MODEL 1
REMARK minimizedAffinity -3.9404974
REMARK minimizedRMSD -1
REMARK  1 active torsions:
REMARK  status: ('A' for Active; 'I' for Inactive)
REMARK    1  A    between atoms: C1_2  and  C2_3 
ROOT
ATOM      1  C2  UNL d   1       1.046   0.655  -1.959  0.00  0.00    -0.077 A 
ATOM      2  C3  UNL d   1       1.286  -0.619  -1.426  0.00  0.00     0.002 A 
ATOM      3  C4  UNL d   1       1.597  -1.689  -2.267  0.00  0.00     0.002 A 
ATOM      4  C5  UNL d   1       1.675  -1.495  -3.645  0.00  0.00    -0.004 A 
ATOM      5  C6  UNL d   1       1.436  -0.232  -4.184  0.00  0.00     0.002 A 
ATOM      6  C7  UNL d   1       1.124   0.839  -3.345  0.00  0.00     0.002 A 
ENDROOT
BRANCH   1   7
ATOM      7  C1  UNL d   1       0.760   1.822  -1.050  0.00  0.00     0.055 C 
ATOM      8  C   UNL d   1      -0.718   1.895  -0.692  0.00  0.00     0.019 C 
ENDBRANCH   1   7
TORSDOF 1
ENDMDL
