MODEL 1
REMARK minimizedAffinity 8.00085258
REMARK minimizedRMSD -1
REMARK  1 active torsions:
REMARK  status: ('A' for Active; 'I' for Inactive)
REMARK    1  A    between atoms: C1_2  and  C2_3 
ROOT
ATOM      1  C2  UNL d   1       0.516  -0.225  -0.937  0.00  0.00    -0.077 A 
ATOM      2  C3  UNL d   1       1.610  -1.037  -1.271  0.00  0.00     0.002 A 
ATOM      3  C4  UNL d   1       1.629  -2.383  -0.899  0.00  0.00     0.002 A 
ATOM      4  C5  UNL d   1       0.557  -2.929  -0.197  0.00  0.00    -0.004 A 
ATOM      5  C6  UNL d   1      -0.534  -2.130   0.141  0.00  0.00     0.002 A 
ATOM      6  C7  UNL d   1      -0.555  -0.784  -0.229  0.00  0.00     0.002 A 
ENDROOT
BRANCH   1   7
ATOM      7  C1  UNL d   1       0.471   1.214  -1.380  0.00  0.00     0.055 C 
ATOM      8  C   UNL d   1       0.450   2.159  -0.187  0.00  0.00     0.019 C 
ENDBRANCH   1   7
TORSDOF 1
ENDMDL
