MODEL 1
REMARK minimizedAffinity 1.94558012
REMARK minimizedRMSD -1
REMARK  1 active torsions:
REMARK  status: ('A' for Active; 'I' for Inactive)
REMARK    1  A    between atoms: C1_2  and  C2_3 
ROOT
ATOM      1  C2  UNL d   1       5.439   2.983   5.225  0.00  0.00    -0.077 A 
ATOM      2  C3  UNL d   1       5.278   2.852   3.839  0.00  0.00     0.002 A 
ATOM      3  C4  UNL d   1       5.312   1.591   3.240  0.00  0.00     0.002 A 
ATOM      4  C5  UNL d   1       5.503   0.452   4.021  0.00  0.00    -0.004 A 
ATOM      5  C6  UNL d   1       5.667   0.573   5.400  0.00  0.00     0.002 A 
ATOM      6  C7  UNL d   1       5.634   1.833   6.000  0.00  0.00     0.002 A 
ENDROOT
BRANCH   1   7
ATOM      7  C1  UNL d   1       5.354   4.338   5.879  0.00  0.00     0.055 C 
ATOM      8  C   UNL d   1       6.000   5.411   5.015  0.00  0.00     0.019 C 
ENDBRANCH   1   7
TORSDOF 1
ENDMDL
