MODEL 1
REMARK minimizedAffinity -2.38655758
REMARK minimizedRMSD -1
REMARK  1 active torsions:
REMARK  status: ('A' for Active; 'I' for Inactive)
REMARK    1  A    between atoms: C1_2  and  C2_3 
ROOT
ATOM      1  C2  UNL d   1       1.713  -0.083  -3.217  0.00  0.00    -0.077 A 
ATOM      2  C3  UNL d   1       2.160  -1.325  -2.745  0.00  0.00     0.002 A 
ATOM      3  C4  UNL d   1       1.913  -1.711  -1.427  0.00  0.00     0.002 A 
ATOM      4  C5  UNL d   1       1.213  -0.863  -0.570  0.00  0.00    -0.004 A 
ATOM      5  C6  UNL d   1       0.766   0.375  -1.029  0.00  0.00     0.002 A 
ATOM      6  C7  UNL d   1       1.014   0.763  -2.346  0.00  0.00     0.002 A 
ENDROOT
BRANCH   1   7
ATOM      7  C1  UNL d   1       1.936   0.314  -4.653  0.00  0.00     0.055 C 
ATOM      8  C   UNL d   1       1.820   1.820  -4.835  0.00  0.00     0.019 C 
ENDBRANCH   1   7
TORSDOF 1
ENDMDL
