MODEL 1
REMARK minimizedAffinity 1.72972476
REMARK minimizedRMSD -1
REMARK  1 active torsions:
REMARK  status: ('A' for Active; 'I' for Inactive)
REMARK    1  A    between atoms: C1_2  and  C2_3 
ROOT
ATOM      1  C2  UNL d   1       5.625   0.973   4.901  0.00  0.00    -0.077 A 
ATOM      2  C3  UNL d   1       5.990   1.763   6.000  0.00  0.00     0.002 A 
ATOM      3  C4  UNL d   1       5.762   3.140   5.986  0.00  0.00     0.002 A 
ATOM      4  C5  UNL d   1       5.166   3.739   4.879  0.00  0.00    -0.004 A 
ATOM      5  C6  UNL d   1       4.801   2.962   3.780  0.00  0.00     0.002 A 
ATOM      6  C7  UNL d   1       5.028   1.585   3.791  0.00  0.00     0.002 A 
ENDROOT
BRANCH   1   7
ATOM      7  C1  UNL d   1       5.824  -0.520   4.934  0.00  0.00     0.055 C 
ATOM      8  C   UNL d   1       4.921  -1.177   5.967  0.00  0.00     0.019 C 
ENDBRANCH   1   7
TORSDOF 1
ENDMDL
