MODEL 1
REMARK minimizedAffinity 0.894703746
REMARK minimizedRMSD -1
REMARK  1 active torsions:
REMARK  status: ('A' for Active; 'I' for Inactive)
REMARK    1  A    between atoms: C1_2  and  C2_3 
ROOT
ATOM      1  C2  UNL d   1       5.208  -0.406   5.619  0.00  0.00    -0.077 A 
ATOM      2  C3  UNL d   1       6.000   0.686   5.999  0.00  0.00     0.002 A 
ATOM      3  C4  UNL d   1       5.470   1.978   5.995  0.00  0.00     0.002 A 
ATOM      4  C5  UNL d   1       4.147   2.189   5.616  0.00  0.00    -0.004 A 
ATOM      5  C6  UNL d   1       3.351   1.110   5.234  0.00  0.00     0.002 A 
ATOM      6  C7  UNL d   1       3.879  -0.182   5.236  0.00  0.00     0.002 A 
ENDROOT
BRANCH   1   7
ATOM      7  C1  UNL d   1       5.762  -1.806   5.670  0.00  0.00     0.055 C 
ATOM      8  C   UNL d   1       6.000  -2.358   4.272  0.00  0.00     0.019 C 
ENDBRANCH   1   7
TORSDOF 1
ENDMDL
