MODEL 1
REMARK minimizedAffinity -2.09975147
REMARK minimizedRMSD -1
REMARK  1 active torsions:
REMARK  status: ('A' for Active; 'I' for Inactive)
REMARK    1  A    between atoms: C1_2  and  C2_3 
ROOT
ATOM      1  C2  UNL d   1       0.368   0.122  -0.740  0.00  0.00    -0.077 A 
ATOM      2  C3  UNL d   1       1.582  -0.517  -1.027  0.00  0.00     0.002 A 
ATOM      3  C4  UNL d   1       1.713  -1.896  -0.850  0.00  0.00     0.002 A 
ATOM      4  C5  UNL d   1       0.633  -2.647  -0.392  0.00  0.00    -0.004 A 
ATOM      5  C6  UNL d   1      -0.578  -2.020  -0.102  0.00  0.00     0.002 A 
ATOM      6  C7  UNL d   1      -0.711  -0.642  -0.277  0.00  0.00     0.002 A 
ENDROOT
BRANCH   1   7
ATOM      7  C1  UNL d   1       0.210   1.602  -0.976  0.00  0.00     0.055 C 
ATOM      8  C   UNL d   1       1.005   2.412   0.037  0.00  0.00     0.019 C 
ENDBRANCH   1   7
TORSDOF 1
ENDMDL
