MODEL 1
REMARK minimizedAffinity 1.56323504
REMARK minimizedRMSD -1
REMARK  1 active torsions:
REMARK  status: ('A' for Active; 'I' for Inactive)
REMARK    1  A    between atoms: C1_2  and  C2_3 
ROOT
ATOM      1  C2  UNL d   1       4.804   1.566   5.701  0.00  0.00    -0.077 A 
ATOM      2  C3  UNL d   1       3.680   2.247   5.211  0.00  0.00     0.002 A 
ATOM      3  C4  UNL d   1       3.718   3.630   5.024  0.00  0.00     0.002 A 
ATOM      4  C5  UNL d   1       4.878   4.343   5.321  0.00  0.00    -0.004 A 
ATOM      5  C6  UNL d   1       6.000   3.676   5.811  0.00  0.00     0.002 A 
ATOM      6  C7  UNL d   1       5.963   2.293   5.999  0.00  0.00     0.002 A 
ENDROOT
BRANCH   1   7
ATOM      7  C1  UNL d   1       4.781   0.068   5.856  0.00  0.00     0.055 C 
ATOM      8  C   UNL d   1       5.999  -0.574   5.208  0.00  0.00     0.019 C 
ENDBRANCH   1   7
TORSDOF 1
ENDMDL
