MODEL 1
REMARK minimizedAffinity 4.04257298
REMARK minimizedRMSD -1
REMARK  1 active torsions:
REMARK  status: ('A' for Active; 'I' for Inactive)
REMARK    1  A    between atoms: C1_2  and  C2_3 
ROOT
ATOM      1  C2  UNL d   1      -0.679  -1.080   0.111  0.00  0.00    -0.077 A 
ATOM      2  C3  UNL d   1      -0.326  -2.435   0.173  0.00  0.00     0.002 A 
ATOM      3  C4  UNL d   1       0.877  -2.877  -0.381  0.00  0.00     0.002 A 
ATOM      4  C5  UNL d   1       1.737  -1.971  -0.997  0.00  0.00    -0.004 A 
ATOM      5  C6  UNL d   1       1.393  -0.621  -1.067  0.00  0.00     0.002 A 
ATOM      6  C7  UNL d   1       0.191  -0.178  -0.514  0.00  0.00     0.002 A 
ENDROOT
BRANCH   1   7
ATOM      7  C1  UNL d   1      -1.953  -0.593   0.751  0.00  0.00     0.055 C 
ATOM      8  C   UNL d   1      -1.864  -0.643   2.269  0.00  0.00     0.019 C 
ENDBRANCH   1   7
TORSDOF 1
ENDMDL
