MODEL 1
REMARK minimizedAffinity 6.6129775
REMARK minimizedRMSD -1
REMARK  0 active torsions:
REMARK  status: ('A' for Active; 'I' for Inactive)
ROOT
ATOM      1  C   UNL d   1       1.474   1.691   0.062  0.00  0.00     0.020 A 
ATOM      2  C1  UNL d   1       1.809   2.322  -1.135  0.00  0.00     0.020 A 
ATOM      3  C2  UNL d   1       1.774   1.609  -2.335  0.00  0.00     0.034 A 
ATOM      4  C3  UNL d   1       1.403   0.259  -2.341  0.00  0.00     0.017 A 
ATOM      5  C4  UNL d   1       1.066  -0.374  -1.139  0.00  0.00     0.017 A 
ATOM      6  C5  UNL d   1       1.103   0.345   0.060  0.00  0.00     0.034 A 
ATOM      7 Cl   UNL d   1       0.598  -2.036  -1.066  0.00  0.00    -0.070 Cl
ATOM      8 Cl1  UNL d   1       1.381  -0.562  -3.861  0.00  0.00    -0.070 Cl
ENDROOT
TORSDOF 0
ENDMDL
