MODEL 1
REMARK minimizedAffinity -4.61509275
REMARK minimizedRMSD -1
REMARK  0 active torsions:
REMARK  status: ('A' for Active; 'I' for Inactive)
ROOT
ATOM      1  C   UNL d   1       1.702   0.344  -2.708  0.00  0.00     0.020 A 
ATOM      2  C1  UNL d   1       1.472   1.572  -2.089  0.00  0.00     0.020 A 
ATOM      3  C2  UNL d   1       0.722   1.632  -0.912  0.00  0.00     0.034 A 
ATOM      4  C3  UNL d   1       0.200   0.461  -0.351  0.00  0.00     0.017 A 
ATOM      5  C4  UNL d   1       0.431  -0.771  -0.973  0.00  0.00     0.017 A 
ATOM      6  C5  UNL d   1       1.183  -0.825  -2.151  0.00  0.00     0.034 A 
ATOM      7 Cl   UNL d   1      -0.181  -2.258  -0.340  0.00  0.00    -0.070 Cl
ATOM      8 Cl1  UNL d   1      -0.718   0.609   1.106  0.00  0.00    -0.070 Cl
ENDROOT
TORSDOF 0
ENDMDL
