MODEL 1
REMARK minimizedAffinity -2.9825685
REMARK minimizedRMSD -1
REMARK  0 active torsions:
REMARK  status: ('A' for Active; 'I' for Inactive)
ROOT
ATOM      1  C   UNL d   1       0.502   1.396   0.401  0.00  0.00     0.020 A 
ATOM      2  C1  UNL d   1      -0.085   0.274   0.986  0.00  0.00     0.020 A 
ATOM      3  C2  UNL d   1      -0.243  -0.898   0.243  0.00  0.00     0.034 A 
ATOM      4  C3  UNL d   1       0.186  -0.951  -1.088  0.00  0.00     0.017 A 
ATOM      5  C4  UNL d   1       0.775   0.175  -1.674  0.00  0.00     0.017 A 
ATOM      6  C5  UNL d   1       0.931   1.346  -0.926  0.00  0.00     0.034 A 
ATOM      7 Cl   UNL d   1       1.330   0.185  -3.311  0.00  0.00    -0.070 Cl
ATOM      8 Cl1  UNL d   1      -0.040  -2.434  -1.946  0.00  0.00    -0.070 Cl
ENDROOT
TORSDOF 0
ENDMDL
