MODEL 1
REMARK minimizedAffinity -4.62725449
REMARK minimizedRMSD -1
REMARK  0 active torsions:
REMARK  status: ('A' for Active; 'I' for Inactive)
ROOT
ATOM      1  C   UNL d   1       0.289  -0.764  -2.672  0.00  0.00     0.020 A 
ATOM      2  C1  UNL d   1       1.178   0.310  -2.679  0.00  0.00     0.020 A 
ATOM      3  C2  UNL d   1       1.350   1.083  -1.528  0.00  0.00     0.034 A 
ATOM      4  C3  UNL d   1       0.631   0.782  -0.366  0.00  0.00     0.017 A 
ATOM      5  C4  UNL d   1      -0.261  -0.296  -0.359  0.00  0.00     0.017 A 
ATOM      6  C5  UNL d   1      -0.429  -1.066  -1.514  0.00  0.00     0.034 A 
ATOM      7 Cl   UNL d   1      -1.183  -0.728   1.037  0.00  0.00    -0.070 Cl
ATOM      8 Cl1  UNL d   1       0.893   1.780   1.021  0.00  0.00    -0.070 Cl
ENDROOT
TORSDOF 0
ENDMDL
