MODEL 1
REMARK minimizedAffinity -3.71591306
REMARK minimizedRMSD -1
REMARK  0 active torsions:
REMARK  status: ('A' for Active; 'I' for Inactive)
ROOT
ATOM      1  C   UNL d   1       1.480   1.694  -1.014  0.00  0.00     0.020 A 
ATOM      2  C1  UNL d   1       1.798   0.869  -2.092  0.00  0.00     0.020 A 
ATOM      3  C2  UNL d   1       1.368  -0.460  -2.105  0.00  0.00     0.034 A 
ATOM      4  C3  UNL d   1       0.618  -0.967  -1.038  0.00  0.00     0.017 A 
ATOM      5  C4  UNL d   1       0.299  -0.138   0.044  0.00  0.00     0.017 A 
ATOM      6  C5  UNL d   1       0.732   1.192   0.051  0.00  0.00     0.034 A 
ATOM      7 Cl   UNL d   1      -0.622  -0.692   1.397  0.00  0.00    -0.070 Cl
ATOM      8 Cl1  UNL d   1       0.119  -2.619  -1.120  0.00  0.00    -0.070 Cl
ENDROOT
TORSDOF 0
ENDMDL
