MODEL 1
REMARK minimizedAffinity -2.66452241
REMARK minimizedRMSD -1
REMARK  0 active torsions:
REMARK  status: ('A' for Active; 'I' for Inactive)
ROOT
ATOM      1  C   UNL d   1       1.212   1.695  -1.760  0.00  0.00     0.020 A 
ATOM      2  C1  UNL d   1       1.565   0.725  -2.698  0.00  0.00     0.020 A 
ATOM      3  C2  UNL d   1       1.192  -0.606  -2.499  0.00  0.00     0.034 A 
ATOM      4  C3  UNL d   1       0.465  -0.971  -1.361  0.00  0.00     0.017 A 
ATOM      5  C4  UNL d   1       0.111   0.003  -0.420  0.00  0.00     0.017 A 
ATOM      6  C5  UNL d   1       0.487   1.334  -0.624  0.00  0.00     0.034 A 
ATOM      7 Cl   UNL d   1      -0.786  -0.371   1.009  0.00  0.00    -0.070 Cl
ATOM      8 Cl1  UNL d   1       0.037  -2.635  -1.180  0.00  0.00    -0.070 Cl
ENDROOT
TORSDOF 0
ENDMDL
