MODEL 1
REMARK minimizedAffinity -3.36233521
REMARK minimizedRMSD -1
REMARK  0 active torsions:
REMARK  status: ('A' for Active; 'I' for Inactive)
ROOT
ATOM      1  C   UNL d   1       0.760   0.615  -2.540  0.00  0.00     0.020 A 
ATOM      2  C1  UNL d   1      -0.026  -0.530  -2.667  0.00  0.00     0.020 A 
ATOM      3  C2  UNL d   1      -0.420  -1.236  -1.529  0.00  0.00     0.034 A 
ATOM      4  C3  UNL d   1      -0.030  -0.799  -0.259  0.00  0.00     0.017 A 
ATOM      5  C4  UNL d   1       0.759   0.350  -0.131  0.00  0.00     0.017 A 
ATOM      6  C5  UNL d   1       1.151   1.054  -1.274  0.00  0.00     0.034 A 
ATOM      7 Cl   UNL d   1       1.280   0.952   1.403  0.00  0.00    -0.070 Cl
ATOM      8 Cl1  UNL d   1      -0.555  -1.721   1.105  0.00  0.00    -0.070 Cl
ENDROOT
TORSDOF 0
ENDMDL
