MODEL 1
REMARK minimizedAffinity -0.946010113
REMARK minimizedRMSD -1
REMARK  0 active torsions:
REMARK  status: ('A' for Active; 'I' for Inactive)
ROOT
ATOM      1  C   UNL d   1      -0.886   0.113   1.070  0.00  0.00     0.020 A 
ATOM      2  C1  UNL d   1      -0.325   1.305   0.614  0.00  0.00     0.020 A 
ATOM      3  C2  UNL d   1       0.595   1.287  -0.437  0.00  0.00     0.034 A 
ATOM      4  C3  UNL d   1       0.957   0.074  -1.034  0.00  0.00     0.017 A 
ATOM      5  C4  UNL d   1       0.394  -1.122  -0.575  0.00  0.00     0.017 A 
ATOM      6  C5  UNL d   1      -0.527  -1.098   0.476  0.00  0.00     0.034 A 
ATOM      7 Cl   UNL d   1       0.792  -2.657  -1.262  0.00  0.00    -0.070 Cl
ATOM      8 Cl1  UNL d   1       2.101   0.126  -2.328  0.00  0.00    -0.070 Cl
ENDROOT
TORSDOF 0
ENDMDL
