MODEL 1
REMARK minimizedAffinity -3.84776592
REMARK minimizedRMSD -1
REMARK  0 active torsions:
REMARK  status: ('A' for Active; 'I' for Inactive)
ROOT
ATOM      1  C   UNL d   1      -0.044  -2.112   0.231  0.00  0.00     0.020 A 
ATOM      2  C1  UNL d   1      -0.143  -1.222   1.300  0.00  0.00     0.020 A 
ATOM      3  C2  UNL d   1       0.198   0.121   1.124  0.00  0.00     0.034 A 
ATOM      4  C3  UNL d   1       0.639   0.577  -0.123  0.00  0.00     0.017 A 
ATOM      5  C4  UNL d   1       0.738  -0.317  -1.195  0.00  0.00     0.017 A 
ATOM      6  C5  UNL d   1       0.395  -1.660  -1.014  0.00  0.00     0.034 A 
ATOM      7 Cl   UNL d   1       1.275   0.172  -2.764  0.00  0.00    -0.070 Cl
ATOM      8 Cl1  UNL d   1       1.044   2.251  -0.269  0.00  0.00    -0.070 Cl
ENDROOT
TORSDOF 0
ENDMDL
