MODEL 1
REMARK minimizedAffinity -2.32053065
REMARK minimizedRMSD -1
REMARK  0 active torsions:
REMARK  status: ('A' for Active; 'I' for Inactive)
ROOT
ATOM      1  C   UNL d   1      -4.388   0.065   1.189  0.00  0.00     0.020 A 
ATOM      2  C1  UNL d   1      -4.798   1.197   1.892  0.00  0.00     0.020 A 
ATOM      3  C2  UNL d   1      -3.919   1.826   2.776  0.00  0.00     0.034 A 
ATOM      4  C3  UNL d   1      -2.626   1.324   2.960  0.00  0.00     0.017 A 
ATOM      5  C4  UNL d   1      -2.215   0.188   2.254  0.00  0.00     0.017 A 
ATOM      6  C5  UNL d   1      -3.099  -0.438   1.369  0.00  0.00     0.034 A 
ATOM      7 Cl   UNL d   1      -0.635  -0.490   2.427  0.00  0.00    -0.070 Cl
ATOM      8 Cl1  UNL d   1      -1.592   2.152   4.069  0.00  0.00    -0.070 Cl
ENDROOT
TORSDOF 0
ENDMDL
