MODEL 1
REMARK minimizedAffinity 3.34327483
REMARK minimizedRMSD -1
REMARK  0 active torsions:
REMARK  status: ('A' for Active; 'I' for Inactive)
ROOT
ATOM      1  C   UNL d   1      -0.096  -2.171   0.287  0.00  0.00     0.020 A 
ATOM      2  C1  UNL d   1      -0.751  -1.302   1.158  0.00  0.00     0.020 A 
ATOM      3  C2  UNL d   1      -0.477   0.067   1.116  0.00  0.00     0.034 A 
ATOM      4  C3  UNL d   1       0.455   0.571   0.201  0.00  0.00     0.017 A 
ATOM      5  C4  UNL d   1       1.112  -0.303  -0.674  0.00  0.00     0.017 A 
ATOM      6  C5  UNL d   1       0.833  -1.672  -0.627  0.00  0.00     0.034 A 
ATOM      7 Cl   UNL d   1       2.273   0.244  -1.831  0.00  0.00    -0.070 Cl
ATOM      8 Cl1  UNL d   1       0.744   2.274   0.204  0.00  0.00    -0.070 Cl
ENDROOT
TORSDOF 0
ENDMDL
