MODEL 1
REMARK minimizedAffinity 0.280592352
REMARK minimizedRMSD -1
REMARK  0 active torsions:
REMARK  status: ('A' for Active; 'I' for Inactive)
ROOT
ATOM      1  C   UNL d   1       0.023   1.261   1.151  0.00  0.00     0.020 A 
ATOM      2  C1  UNL d   1      -0.693   0.115   1.496  0.00  0.00     0.020 A 
ATOM      3  C2  UNL d   1      -0.600  -1.031   0.703  0.00  0.00     0.034 A 
ATOM      4  C3  UNL d   1       0.211  -1.034  -0.438  0.00  0.00     0.017 A 
ATOM      5  C4  UNL d   1       0.929   0.117  -0.782  0.00  0.00     0.017 A 
ATOM      6  C5  UNL d   1       0.832   1.261   0.015  0.00  0.00     0.034 A 
ATOM      7 Cl   UNL d   1       1.950   0.190  -2.175  0.00  0.00    -0.070 Cl
ATOM      8 Cl1  UNL d   1       0.279  -2.486  -1.371  0.00  0.00    -0.070 Cl
ENDROOT
TORSDOF 0
ENDMDL
