MODEL 1
REMARK minimizedAffinity -1.79030299
REMARK minimizedRMSD -1
REMARK  1 active torsions:
REMARK  status: ('A' for Active; 'I' for Inactive)
REMARK    1  A    between atoms: N_2  and  C1_3 
ROOT
ATOM      1  C1  UNL d   1      -0.373   0.360   0.200  0.00  0.00     0.143 A 
ATOM      2  C2  UNL d   1       0.410   0.440   1.356  0.00  0.00    -0.057 A 
ATOM      3  C3  UNL d   1       0.462   1.614   2.119  0.00  0.00     0.033 A 
ATOM      4  C4  UNL d   1      -0.249   2.741   1.720  0.00  0.00    -0.042 A 
ATOM      5  C5  UNL d   1      -1.015   2.692   0.561  0.00  0.00     0.033 A 
ATOM      6  C6  UNL d   1      -1.067   1.515  -0.192  0.00  0.00    -0.057 A 
ENDROOT
BRANCH   1   7
ATOM      7  N   UNL d   1      -0.389  -0.746  -0.654  0.00  0.00    -0.732 N 
ATOM      8  C   UNL d   1       0.661  -1.739  -0.592  0.00  0.00     0.284 C 
ATOM      9  H3  UNL d   1      -1.322  -1.134  -0.769  0.00  0.00     0.395 HD
ENDBRANCH   1   7
TORSDOF 1
ENDMDL
