MODEL 1
REMARK minimizedAffinity -4.89979029
REMARK minimizedRMSD -1
REMARK  1 active torsions:
REMARK  status: ('A' for Active; 'I' for Inactive)
REMARK    1  A    between atoms: N_2  and  C1_3 
ROOT
ATOM      1  C1  UNL d   1      -0.091  -0.326  -0.668  0.00  0.00     0.143 A 
ATOM      2  C2  UNL d   1       0.387  -0.474   0.638  0.00  0.00    -0.057 A 
ATOM      3  C3  UNL d   1       0.076   0.458   1.635  0.00  0.00     0.033 A 
ATOM      4  C4  UNL d   1      -0.697   1.575   1.335  0.00  0.00    -0.042 A 
ATOM      5  C5  UNL d   1      -1.162   1.756   0.037  0.00  0.00     0.033 A 
ATOM      6  C6  UNL d   1      -0.853   0.818  -0.953  0.00  0.00    -0.057 A 
ENDROOT
BRANCH   1   7
ATOM      7  N   UNL d   1       0.265  -1.166  -1.726  0.00  0.00    -0.732 N 
ATOM      8  C   UNL d   1      -0.612  -2.240  -2.142  0.00  0.00     0.284 C 
ATOM      9  H3  UNL d   1       0.696  -0.659  -2.496  0.00  0.00     0.395 HD
ENDBRANCH   1   7
TORSDOF 1
ENDMDL
