MODEL 1
REMARK minimizedAffinity -3.56414962
REMARK minimizedRMSD -1
REMARK  1 active torsions:
REMARK  status: ('A' for Active; 'I' for Inactive)
REMARK    1  A    between atoms: N_2  and  C1_3 
ROOT
ATOM      1  C1  UNL d   1       0.021  -0.278  -0.591  0.00  0.00     0.143 A 
ATOM      2  C2  UNL d   1      -0.712   0.787  -1.126  0.00  0.00    -0.057 A 
ATOM      3  C3  UNL d   1      -1.207   1.810  -0.309  0.00  0.00     0.033 A 
ATOM      4  C4  UNL d   1      -1.003   1.771   1.066  0.00  0.00    -0.042 A 
ATOM      5  C5  UNL d   1      -0.299   0.709   1.623  0.00  0.00     0.033 A 
ATOM      6  C6  UNL d   1       0.200  -0.306   0.801  0.00  0.00    -0.057 A 
ENDROOT
BRANCH   1   7
ATOM      7  N   UNL d   1       0.456  -1.376  -1.338  0.00  0.00    -0.732 N 
ATOM      8  C   UNL d   1      -0.492  -2.343  -1.847  0.00  0.00     0.284 C 
ATOM      9  H3  UNL d   1       1.194  -1.132  -1.995  0.00  0.00     0.395 HD
ENDBRANCH   1   7
TORSDOF 1
ENDMDL
