MODEL 1
REMARK minimizedAffinity -3.84228182
REMARK minimizedRMSD -1
REMARK  1 active torsions:
REMARK  status: ('A' for Active; 'I' for Inactive)
REMARK    1  A    between atoms: N_2  and  C1_3 
ROOT
ATOM      1  C1  UNL d   1      -0.004   0.195  -0.121  0.00  0.00     0.143 A 
ATOM      2  C2  UNL d   1       0.399   0.373   1.207  0.00  0.00    -0.057 A 
ATOM      3  C3  UNL d   1      -0.152   1.384   2.004  0.00  0.00     0.033 A 
ATOM      4  C4  UNL d   1      -1.098   2.256   1.475  0.00  0.00    -0.042 A 
ATOM      5  C5  UNL d   1      -1.496   2.113   0.151  0.00  0.00     0.033 A 
ATOM      6  C6  UNL d   1      -0.946   1.097  -0.638  0.00  0.00    -0.057 A 
ENDROOT
BRANCH   1   7
ATOM      7  N   UNL d   1       0.578  -0.729  -0.993  0.00  0.00    -0.732 N 
ATOM      8  C   UNL d   1       0.088  -2.089  -1.061  0.00  0.00     0.284 C 
ATOM      9  H3  UNL d   1       0.800  -0.321  -1.899  0.00  0.00     0.395 HD
ENDBRANCH   1   7
TORSDOF 1
ENDMDL
