MODEL 1
REMARK minimizedAffinity -4.42451859
REMARK minimizedRMSD -1
REMARK  1 active torsions:
REMARK  status: ('A' for Active; 'I' for Inactive)
REMARK    1  A    between atoms: N_2  and  C1_3 
ROOT
ATOM      1  C1  UNL d   1      -0.067   0.271  -0.337  0.00  0.00     0.143 A 
ATOM      2  C2  UNL d   1      -1.025   1.175  -0.805  0.00  0.00    -0.057 A 
ATOM      3  C3  UNL d   1      -1.569   2.156   0.033  0.00  0.00     0.033 A 
ATOM      4  C4  UNL d   1      -1.184   2.231   1.367  0.00  0.00    -0.042 A 
ATOM      5  C5  UNL d   1      -0.251   1.326   1.861  0.00  0.00     0.033 A 
ATOM      6  C6  UNL d   1       0.294   0.353   1.017  0.00  0.00    -0.057 A 
ENDROOT
BRANCH   1   7
ATOM      7  N   UNL d   1       0.439  -0.789  -1.094  0.00  0.00    -0.732 N 
ATOM      8  C   UNL d   1      -0.394  -1.927  -1.417  0.00  0.00     0.284 C 
ATOM      9  H3  UNL d   1       1.026  -0.472  -1.862  0.00  0.00     0.395 HD
ENDBRANCH   1   7
TORSDOF 1
ENDMDL
