MODEL 1
REMARK minimizedAffinity -3.98043561
REMARK minimizedRMSD -1
REMARK  1 active torsions:
REMARK  status: ('A' for Active; 'I' for Inactive)
REMARK    1  A    between atoms: N_2  and  C1_3 
ROOT
ATOM      1  C1  UNL d   1      -0.122  -0.790  -0.508  0.00  0.00     0.143 A 
ATOM      2  C2  UNL d   1      -1.234  -1.639  -0.503  0.00  0.00    -0.057 A 
ATOM      3  C3  UNL d   1      -1.224  -2.852  -1.201  0.00  0.00     0.033 A 
ATOM      4  C4  UNL d   1      -0.109  -3.225  -1.944  0.00  0.00    -0.042 A 
ATOM      5  C5  UNL d   1       0.998  -2.385  -1.984  0.00  0.00     0.033 A 
ATOM      6  C6  UNL d   1       0.985  -1.178  -1.278  0.00  0.00    -0.057 A 
ENDROOT
BRANCH   1   7
ATOM      7  N   UNL d   1      -0.107   0.475   0.086  0.00  0.00    -0.732 N 
ATOM      8  C   UNL d   1      -0.358   0.627   1.503  0.00  0.00     0.284 C 
ATOM      9  H3  UNL d   1       0.646   1.061  -0.268  0.00  0.00     0.395 HD
ENDBRANCH   1   7
TORSDOF 1
ENDMDL
