MODEL 1
REMARK minimizedAffinity -4.44953299
REMARK minimizedRMSD -1
REMARK  1 active torsions:
REMARK  status: ('A' for Active; 'I' for Inactive)
REMARK    1  A    between atoms: N_2  and  C1_3 
ROOT
ATOM      1  C1  UNL d   1      -0.044   0.157   0.223  0.00  0.00     0.143 A 
ATOM      2  C2  UNL d   1       0.470   0.318   1.515  0.00  0.00    -0.057 A 
ATOM      3  C3  UNL d   1      -0.026   1.304   2.376  0.00  0.00     0.033 A 
ATOM      4  C4  UNL d   1      -1.028   2.169   1.949  0.00  0.00    -0.042 A 
ATOM      5  C5  UNL d   1      -1.536   2.044   0.661  0.00  0.00     0.033 A 
ATOM      6  C6  UNL d   1      -1.041   1.053  -0.192  0.00  0.00    -0.057 A 
ENDROOT
BRANCH   1   7
ATOM      7  N   UNL d   1       0.475  -0.740  -0.714  0.00  0.00    -0.732 N 
ATOM      8  C   UNL d   1      -0.178  -2.007  -0.961  0.00  0.00     0.284 C 
ATOM      9  H3  UNL d   1       0.809  -0.273  -1.554  0.00  0.00     0.395 HD
ENDBRANCH   1   7
TORSDOF 1
ENDMDL
