MODEL 1
REMARK minimizedAffinity -1.35174513
REMARK minimizedRMSD -1
REMARK  1 active torsions:
REMARK  status: ('A' for Active; 'I' for Inactive)
REMARK    1  A    between atoms: N_2  and  C1_3 
ROOT
ATOM      1  C1  UNL d   1      -1.267   1.023   1.044  0.00  0.00     0.143 A 
ATOM      2  C2  UNL d   1      -1.378   0.867  -0.342  0.00  0.00    -0.057 A 
ATOM      3  C3  UNL d   1      -0.389   0.207  -1.080  0.00  0.00     0.033 A 
ATOM      4  C4  UNL d   1       0.748  -0.285  -0.447  0.00  0.00    -0.042 A 
ATOM      5  C5  UNL d   1       0.891  -0.120   0.926  0.00  0.00     0.033 A 
ATOM      6  C6  UNL d   1      -0.104   0.535   1.659  0.00  0.00    -0.057 A 
ENDROOT
BRANCH   1   7
ATOM      7  N   UNL d   1      -2.170   1.756   1.819  0.00  0.00    -0.732 N 
ATOM      8  C   UNL d   1      -1.796   3.043   2.366  0.00  0.00     0.284 C 
ATOM      9  H3  UNL d   1      -3.117   1.720   1.450  0.00  0.00     0.395 HD
ENDBRANCH   1   7
TORSDOF 1
ENDMDL
