MODEL 1
REMARK minimizedAffinity 18.6807919
REMARK minimizedRMSD -1
REMARK  0 active torsions:
REMARK  status: ('A' for Active; 'I' for Inactive)
ROOT
ATOM      1  C   UNL d   1       4.683   4.616   3.687  0.00  0.00     0.124 A 
ATOM      2  C1  UNL d   1       3.945   4.498   4.857  0.00  0.00     0.062 A 
ATOM      3  C2  UNL d   1       2.719   3.839   4.849  0.00  0.00     0.162 A 
ATOM      4  C3  UNL d   1       2.223   3.291   3.666  0.00  0.00    -0.034 A 
ATOM      5  C4  UNL d   1       2.970   3.414   2.493  0.00  0.00     0.162 A 
ATOM      6  C5  UNL d   1       4.195   4.073   2.507  0.00  0.00     0.062 A 
ATOM      7  F   UNL d   1       4.906   4.186   1.375  0.00  0.00    -0.097 F 
ATOM      8  F1  UNL d   1       2.523   2.899   1.338  0.00  0.00    -0.096 F 
ATOM      9  I   UNL d   1       0.390   2.305   3.649  0.00  0.00    -0.060 I 
ATOM     10  F2  UNL d   1       2.028   3.741   5.994  0.00  0.00    -0.096 F 
ATOM     11  F3  UNL d   1       4.414   5.022   5.999  0.00  0.00    -0.097 F 
ATOM     12  F4  UNL d   1       5.862   5.251   3.698  0.00  0.00    -0.092 F 
ENDROOT
TORSDOF 0
ENDMDL
