MODEL 1
REMARK minimizedAffinity 20.530695
REMARK minimizedRMSD -1
REMARK  0 active torsions:
REMARK  status: ('A' for Active; 'I' for Inactive)
ROOT
ATOM      1  C   UNL d   1       2.977   3.105   2.630  0.00  0.00     0.124 A 
ATOM      2  C1  UNL d   1       2.359   3.312   3.856  0.00  0.00     0.062 A 
ATOM      3  C2  UNL d   1       2.966   4.113   4.819  0.00  0.00     0.162 A 
ATOM      4  C3  UNL d   1       4.198   4.714   4.561  0.00  0.00    -0.034 A 
ATOM      5  C4  UNL d   1       4.814   4.500   3.327  0.00  0.00     0.162 A 
ATOM      6  C5  UNL d   1       4.203   3.699   2.367  0.00  0.00     0.062 A 
ATOM      7  F   UNL d   1       4.802   3.501   1.183  0.00  0.00    -0.097 F 
ATOM      8  F1  UNL d   1       5.998   5.063   3.046  0.00  0.00    -0.096 F 
ATOM      9  I   UNL d   1       5.108   5.911   6.000  0.00  0.00    -0.060 I 
ATOM     10  F2  UNL d   1       2.345   4.295   5.995  0.00  0.00    -0.096 F 
ATOM     11  F3  UNL d   1       1.175   2.739   4.113  0.00  0.00    -0.097 F 
ATOM     12  F4  UNL d   1       2.392   2.334   1.705  0.00  0.00    -0.092 F 
ENDROOT
TORSDOF 0
ENDMDL
