MODEL 1
REMARK minimizedAffinity 22.2843304
REMARK minimizedRMSD -1
REMARK  0 active torsions:
REMARK  status: ('A' for Active; 'I' for Inactive)
ROOT
ATOM      1  C   UNL d   1       2.667  -1.188  -1.750  0.00  0.00     0.124 A 
ATOM      2  C1  UNL d   1       2.983  -0.267  -0.762  0.00  0.00     0.062 A 
ATOM      3  C2  UNL d   1       3.935   0.720  -1.004  0.00  0.00     0.162 A 
ATOM      4  C3  UNL d   1       4.576   0.791  -2.241  0.00  0.00    -0.034 A 
ATOM      5  C4  UNL d   1       4.254  -0.141  -3.229  0.00  0.00     0.162 A 
ATOM      6  C5  UNL d   1       3.302  -1.125  -2.982  0.00  0.00     0.062 A 
ATOM      7  F   UNL d   1       2.997  -2.015  -3.938  0.00  0.00    -0.097 F 
ATOM      8  F1  UNL d   1       4.851  -0.101  -4.429  0.00  0.00    -0.096 F 
ATOM      9  I   UNL d   1       6.000   2.264  -2.606  0.00  0.00    -0.060 I 
ATOM     10  F2  UNL d   1       4.221   1.598  -0.031  0.00  0.00    -0.096 F 
ATOM     11  F3  UNL d   1       2.372  -0.327   0.430  0.00  0.00    -0.097 F 
ATOM     12  F4  UNL d   1       1.752  -2.137  -1.514  0.00  0.00    -0.092 F 
ENDROOT
TORSDOF 0
ENDMDL
