MODEL 1
REMARK minimizedAffinity 18.7582855
REMARK minimizedRMSD -1
REMARK  0 active torsions:
REMARK  status: ('A' for Active; 'I' for Inactive)
ROOT
ATOM      1  C   UNL d   1       4.080  -0.286  -3.243  0.00  0.00     0.124 A 
ATOM      2  C1  UNL d   1       4.899   0.640  -2.613  0.00  0.00     0.062 A 
ATOM      3  C2  UNL d   1       4.582   1.105  -1.340  0.00  0.00     0.162 A 
ATOM      4  C3  UNL d   1       3.439   0.643  -0.687  0.00  0.00    -0.034 A 
ATOM      5  C4  UNL d   1       2.619  -0.288  -1.327  0.00  0.00     0.162 A 
ATOM      6  C5  UNL d   1       2.941  -0.749  -2.599  0.00  0.00     0.062 A 
ATOM      7  F   UNL d   1       2.147  -1.644  -3.206  0.00  0.00    -0.097 F 
ATOM      8  F1  UNL d   1       1.513  -0.753  -0.728  0.00  0.00    -0.096 F 
ATOM      9  I   UNL d   1       2.961   1.336   1.216  0.00  0.00    -0.060 I 
ATOM     10  F2  UNL d   1       5.392   2.000  -0.756  0.00  0.00    -0.096 F 
ATOM     11  F3  UNL d   1       6.000   1.090  -3.233  0.00  0.00    -0.097 F 
ATOM     12  F4  UNL d   1       4.387  -0.731  -4.468  0.00  0.00    -0.092 F 
ENDROOT
TORSDOF 0
ENDMDL
