MODEL 1
REMARK minimizedAffinity 27.9383316
REMARK minimizedRMSD -1
REMARK  0 active torsions:
REMARK  status: ('A' for Active; 'I' for Inactive)
ROOT
ATOM      1  C   UNL d   1      -4.253   1.046  -4.952  0.00  0.00     0.124 A 
ATOM      2  C1  UNL d   1      -4.011   2.413  -4.927  0.00  0.00     0.062 A 
ATOM      3  C2  UNL d   1      -4.437   3.180  -3.847  0.00  0.00     0.162 A 
ATOM      4  C3  UNL d   1      -5.110   2.583  -2.781  0.00  0.00    -0.034 A 
ATOM      5  C4  UNL d   1      -5.351   1.208  -2.813  0.00  0.00     0.162 A 
ATOM      6  C5  UNL d   1      -4.923   0.445  -3.895  0.00  0.00     0.062 A 
ATOM      7  F   UNL d   1      -5.158  -0.875  -3.917  0.00  0.00    -0.097 F 
ATOM      8  F1  UNL d   1      -5.995   0.602  -1.805  0.00  0.00    -0.096 F 
ATOM      9  I   UNL d   1      -5.749   3.727  -1.164  0.00  0.00    -0.060 I 
ATOM     10  F2  UNL d   1      -4.189   4.498  -3.850  0.00  0.00    -0.096 F 
ATOM     11  F3  UNL d   1      -3.365   2.996  -5.947  0.00  0.00    -0.097 F 
ATOM     12  F4  UNL d   1      -3.843   0.310  -5.993  0.00  0.00    -0.092 F 
ENDROOT
TORSDOF 0
ENDMDL
