MODEL 1
REMARK minimizedAffinity 6.27262259
REMARK minimizedRMSD -1
REMARK  0 active torsions:
REMARK  status: ('A' for Active; 'I' for Inactive)
ROOT
ATOM      1  C   UNL d   1      -1.456   2.997   1.060  0.00  0.00     0.124 A 
ATOM      2  C1  UNL d   1      -2.460   3.134   2.008  0.00  0.00     0.062 A 
ATOM      3  C2  UNL d   1      -3.693   2.517   1.816  0.00  0.00     0.162 A 
ATOM      4  C3  UNL d   1      -3.929   1.756   0.671  0.00  0.00    -0.034 A 
ATOM      5  C4  UNL d   1      -2.914   1.624  -0.279  0.00  0.00     0.162 A 
ATOM      6  C5  UNL d   1      -1.684   2.243  -0.082  0.00  0.00     0.062 A 
ATOM      7  F   UNL d   1      -0.715   2.109  -1.000  0.00  0.00    -0.097 F 
ATOM      8  F1  UNL d   1      -3.107   0.900  -1.391  0.00  0.00    -0.096 F 
ATOM      9  I   UNL d   1      -5.771   0.832   0.380  0.00  0.00    -0.060 I 
ATOM     10  F2  UNL d   1      -4.645   2.666   2.749  0.00  0.00    -0.096 F 
ATOM     11  F3  UNL d   1      -2.243   3.863   3.112  0.00  0.00    -0.097 F 
ATOM     12  F4  UNL d   1      -0.271   3.592   1.247  0.00  0.00    -0.092 F 
ENDROOT
TORSDOF 0
ENDMDL
