MODEL 1
REMARK minimizedAffinity 13.6518345
REMARK minimizedRMSD -1
REMARK  0 active torsions:
REMARK  status: ('A' for Active; 'I' for Inactive)
ROOT
ATOM      1  C   UNL d   1       4.103  -0.728  -3.101  0.00  0.00     0.124 A 
ATOM      2  C1  UNL d   1       4.861   0.159  -2.350  0.00  0.00     0.062 A 
ATOM      3  C2  UNL d   1       4.445   0.532  -1.075  0.00  0.00     0.162 A 
ATOM      4  C3  UNL d   1       3.263   0.017  -0.542  0.00  0.00    -0.034 A 
ATOM      5  C4  UNL d   1       2.505  -0.874  -1.304  0.00  0.00     0.162 A 
ATOM      6  C5  UNL d   1       2.926  -1.244  -2.577  0.00  0.00     0.062 A 
ATOM      7  F   UNL d   1       2.191  -2.101  -3.301  0.00  0.00    -0.097 F 
ATOM      8  F1  UNL d   1       1.364  -1.389  -0.822  0.00  0.00    -0.096 F 
ATOM      9  I   UNL d   1       2.636   0.572   1.363  0.00  0.00    -0.060 I 
ATOM     10  F2  UNL d   1       5.197   1.391  -0.372  0.00  0.00    -0.096 F 
ATOM     11  F3  UNL d   1       5.999   0.660  -2.854  0.00  0.00    -0.097 F 
ATOM     12  F4  UNL d   1       4.506  -1.084  -4.327  0.00  0.00    -0.092 F 
ENDROOT
TORSDOF 0
ENDMDL
