MODEL 1
REMARK minimizedAffinity 20.965374
REMARK minimizedRMSD -1
REMARK  0 active torsions:
REMARK  status: ('A' for Active; 'I' for Inactive)
ROOT
ATOM      1  C   UNL d   1       4.245  -0.332  -3.138  0.00  0.00     0.124 A 
ATOM      2  C1  UNL d   1       3.079  -0.840  -2.581  0.00  0.00     0.062 A 
ATOM      3  C2  UNL d   1       2.541  -0.261  -1.436  0.00  0.00     0.162 A 
ATOM      4  C3  UNL d   1       3.166   0.834  -0.839  0.00  0.00    -0.034 A 
ATOM      5  C4  UNL d   1       4.339   1.339  -1.404  0.00  0.00     0.162 A 
ATOM      6  C5  UNL d   1       4.874   0.756  -2.549  0.00  0.00     0.062 A 
ATOM      7  F   UNL d   1       6.000   1.248  -3.086  0.00  0.00    -0.097 F 
ATOM      8  F1  UNL d   1       4.967   2.390  -0.857  0.00  0.00    -0.096 F 
ATOM      9  I   UNL d   1       2.364   1.703   0.873  0.00  0.00    -0.060 I 
ATOM     10  F2  UNL d   1       1.413  -0.772  -0.920  0.00  0.00    -0.096 F 
ATOM     11  F3  UNL d   1       2.471  -1.892  -3.147  0.00  0.00    -0.097 F 
ATOM     12  F4  UNL d   1       4.762  -0.892  -4.239  0.00  0.00    -0.092 F 
ENDROOT
TORSDOF 0
ENDMDL
