MODEL 1
REMARK minimizedAffinity 12.581151
REMARK minimizedRMSD -1
REMARK  0 active torsions:
REMARK  status: ('A' for Active; 'I' for Inactive)
ROOT
ATOM      1  C   UNL d   1      -0.575  -1.822  -2.395  0.00  0.00     0.124 A 
ATOM      2  C1  UNL d   1      -0.279  -2.343  -1.143  0.00  0.00     0.062 A 
ATOM      3  C2  UNL d   1       0.004  -1.492  -0.079  0.00  0.00     0.162 A 
ATOM      4  C3  UNL d   1      -0.010  -0.109  -0.262  0.00  0.00    -0.034 A 
ATOM      5  C4  UNL d   1      -0.308   0.408  -1.524  0.00  0.00     0.162 A 
ATOM      6  C5  UNL d   1      -0.590  -0.448  -2.584  0.00  0.00     0.062 A 
ATOM      7  F   UNL d   1      -0.876   0.058  -3.793  0.00  0.00    -0.097 F 
ATOM      8  F1  UNL d   1      -0.330   1.732  -1.735  0.00  0.00    -0.096 F 
ATOM      9  I   UNL d   1       0.411   1.168   1.327  0.00  0.00    -0.060 I 
ATOM     10  F2  UNL d   1       0.287  -2.023   1.120  0.00  0.00    -0.096 F 
ATOM     11  F3  UNL d   1      -0.263  -3.671  -0.958  0.00  0.00    -0.097 F 
ATOM     12  F4  UNL d   1      -0.845  -2.644  -3.417  0.00  0.00    -0.092 F 
ENDROOT
TORSDOF 0
ENDMDL
