MODEL 1
REMARK minimizedAffinity 8.47971916
REMARK minimizedRMSD -1
REMARK  2 active torsions:
REMARK  status: ('A' for Active; 'I' for Inactive)
REMARK    1  A    between atoms: C2'_3  and  C1'_4 
REMARK    2  A    between atoms: C1'_4  and  C1_5 
ROOT
ATOM      1  C1  I4B d   1       3.222  -1.492  -1.237  0.00  0.00    -0.075 A 
ATOM      2  C2  I4B d   1       2.974  -1.667   0.102  0.00  0.00     0.003 A 
ATOM      3  C3  I4B d   1       2.090  -2.684   0.537  0.00  0.00     0.002 A 
ATOM      4  C4  I4B d   1       1.442  -3.465  -0.398  0.00  0.00    -0.004 A 
ATOM      5  C5  I4B d   1       1.712  -3.302  -1.753  0.00  0.00     0.002 A 
ATOM      6  C6  I4B d   1       2.617  -2.317  -2.175  0.00  0.00     0.003 A 
ENDROOT
BRANCH   1   7
ATOM      7  C1' I4B d   1       4.135  -0.386  -1.662  0.00  0.00     0.060 C 
BRANCH   7   8
ATOM      8  C2' I4B d   1       4.595   0.345  -0.417  0.00  0.00    -0.013 C 
ATOM      9  C4' I4B d   1       5.995  -0.057  -0.034  0.00  0.00     0.013 C 
ATOM     10  C3' I4B d   1       4.509   1.818  -0.687  0.00  0.00     0.013 C 
ENDBRANCH   7   8
ENDBRANCH   1   7
TORSDOF 2
ENDMDL
