MODEL 1
REMARK minimizedAffinity 17.0292072
REMARK minimizedRMSD -1
REMARK  2 active torsions:
REMARK  status: ('A' for Active; 'I' for Inactive)
REMARK    1  A    between atoms: C2'_3  and  C1'_4 
REMARK    2  A    between atoms: C1'_4  and  C1_5 
ROOT
ATOM      1  C1  I4B d   1      -1.679  -4.476  -3.046  0.00  0.00    -0.075 A 
ATOM      2  C2  I4B d   1      -0.638  -3.604  -3.247  0.00  0.00     0.003 A 
ATOM      3  C3  I4B d   1       0.394  -3.491  -2.284  0.00  0.00     0.002 A 
ATOM      4  C4  I4B d   1       0.319  -4.227  -1.118  0.00  0.00    -0.004 A 
ATOM      5  C5  I4B d   1      -0.725  -5.127  -0.926  0.00  0.00     0.002 A 
ATOM      6  C6  I4B d   1      -1.724  -5.262  -1.901  0.00  0.00     0.003 A 
ENDROOT
BRANCH   1   7
ATOM      7  C1' I4B d   1      -2.769  -4.546  -4.068  0.00  0.00     0.060 C 
BRANCH   7   8
ATOM      8  C2' I4B d   1      -2.656  -5.879  -4.780  0.00  0.00    -0.013 C 
ATOM      9  C4' I4B d   1      -3.681  -6.000  -5.876  0.00  0.00     0.013 C 
ATOM     10  C3' I4B d   1      -1.264  -5.996  -5.325  0.00  0.00     0.013 C 
ENDBRANCH   7   8
ENDBRANCH   1   7
TORSDOF 2
ENDMDL
