MODEL 1
REMARK minimizedAffinity 7.77524328
REMARK minimizedRMSD -1
REMARK  2 active torsions:
REMARK  status: ('A' for Active; 'I' for Inactive)
REMARK    1  A    between atoms: C2'_3  and  C1'_4 
REMARK    2  A    between atoms: C1'_4  and  C1_5 
ROOT
ATOM      1  C1  I4B d   1       3.421  -0.735  -1.301  0.00  0.00    -0.075 A 
ATOM      2  C2  I4B d   1       3.003  -1.735  -0.459  0.00  0.00     0.003 A 
ATOM      3  C3  I4B d   1       2.799  -3.046  -0.954  0.00  0.00     0.002 A 
ATOM      4  C4  I4B d   1       2.975  -3.299  -2.299  0.00  0.00    -0.004 A 
ATOM      5  C5  I4B d   1       3.421  -2.290  -3.147  0.00  0.00     0.002 A 
ATOM      6  C6  I4B d   1       3.657  -1.002  -2.644  0.00  0.00     0.003 A 
ENDROOT
BRANCH   1   7
ATOM      7  C1' I4B d   1       3.595   0.645  -0.751  0.00  0.00     0.060 C 
BRANCH   7   8
ATOM      8  C2' I4B d   1       4.951   1.156  -1.194  0.00  0.00    -0.013 C 
ATOM      9  C4' I4B d   1       5.059   2.647  -1.006  0.00  0.00     0.013 C 
ATOM     10  C3' I4B d   1       5.999   0.433  -0.402  0.00  0.00     0.013 C 
ENDBRANCH   7   8
ENDBRANCH   1   7
TORSDOF 2
ENDMDL
