MODEL 1
REMARK minimizedAffinity 15.0596876
REMARK minimizedRMSD -1
REMARK  2 active torsions:
REMARK  status: ('A' for Active; 'I' for Inactive)
REMARK    1  A    between atoms: C2'_3  and  C1'_4 
REMARK    2  A    between atoms: C1'_4  and  C1_5 
ROOT
ATOM      1  C1  I4B d   1      -2.920   0.345  -3.996  0.00  0.00    -0.075 A 
ATOM      2  C2  I4B d   1      -2.050   1.028  -4.809  0.00  0.00     0.003 A 
ATOM      3  C3  I4B d   1      -2.544   1.914  -5.796  0.00  0.00     0.002 A 
ATOM      4  C4  I4B d   1      -3.907   2.049  -5.969  0.00  0.00    -0.004 A 
ATOM      5  C5  I4B d   1      -4.787   1.374  -5.128  0.00  0.00     0.002 A 
ATOM      6  C6  I4B d   1      -4.291   0.526  -4.127  0.00  0.00     0.003 A 
ENDROOT
BRANCH   1   7
ATOM      7  C1' I4B d   1      -2.365  -0.608  -2.985  0.00  0.00     0.060 C 
BRANCH   7   8
ATOM      8  C2' I4B d   1      -3.527  -1.345  -2.352  0.00  0.00    -0.013 C 
ATOM      9  C4' I4B d   1      -3.212  -2.807  -2.172  0.00  0.00     0.013 C 
ATOM     10  C3' I4B d   1      -3.829  -0.691  -1.037  0.00  0.00     0.013 C 
ENDBRANCH   7   8
ENDBRANCH   1   7
TORSDOF 2
ENDMDL
