MODEL 1
REMARK minimizedAffinity -2.07221627
REMARK minimizedRMSD -1
REMARK  0 active torsions:
REMARK  status: ('A' for Active; 'I' for Inactive)
ROOT
ATOM      1  C   UNL d   1       2.225  -1.132  -1.493  0.00  0.00     0.172 C 
ATOM      2  N   UNL d   1       1.083  -0.807  -0.671  0.00  0.00    -0.070 N 
ATOM      3  C1  UNL d   1       1.083  -0.712   0.695  0.00  0.00    -0.004 A 
ATOM      4  C2  UNL d   1      -0.194  -0.384   1.096  0.00  0.00    -0.047 A 
ATOM      5  C3  UNL d   1      -0.989  -0.277  -0.070  0.00  0.00    -0.047 A 
ATOM      6  C4  UNL d   1      -0.174  -0.544  -1.149  0.00  0.00    -0.004 A 
ENDROOT
TORSDOF 0
ENDMDL
