MODEL 1
REMARK minimizedAffinity -3.42465854
REMARK minimizedRMSD -1
REMARK  0 active torsions:
REMARK  status: ('A' for Active; 'I' for Inactive)
ROOT
ATOM      1  C   UNL d   1       0.207   0.931   0.208  0.00  0.00     0.172 C 
ATOM      2  N   UNL d   1       0.825   0.040   1.161  0.00  0.00    -0.070 N 
ATOM      3  C1  UNL d   1       2.119   0.114   1.601  0.00  0.00    -0.004 A 
ATOM      4  C2  UNL d   1       2.319  -0.911   2.501  0.00  0.00    -0.047 A 
ATOM      5  C3  UNL d   1       1.103  -1.627   2.604  0.00  0.00    -0.047 A 
ATOM      6  C4  UNL d   1       0.195  -1.017   1.764  0.00  0.00    -0.004 A 
ENDROOT
TORSDOF 0
ENDMDL
