MODEL 1
REMARK minimizedAffinity -1.44782138
REMARK minimizedRMSD -1
REMARK  0 active torsions:
REMARK  status: ('A' for Active; 'I' for Inactive)
ROOT
ATOM      1  C   UNL d   1       0.741  -1.105   2.644  0.00  0.00     0.172 C 
ATOM      2  N   UNL d   1       0.331  -0.688   1.324  0.00  0.00    -0.070 N 
ATOM      3  C1  UNL d   1       1.102  -0.747   0.193  0.00  0.00    -0.004 A 
ATOM      4  C2  UNL d   1       0.351  -0.259  -0.855  0.00  0.00    -0.047 A 
ATOM      5  C3  UNL d   1      -0.914   0.106  -0.336  0.00  0.00    -0.047 A 
ATOM      6  C4  UNL d   1      -0.899  -0.170   1.015  0.00  0.00    -0.004 A 
ENDROOT
TORSDOF 0
ENDMDL
