MODEL 1
REMARK minimizedAffinity -1.67522502
REMARK minimizedRMSD -1
REMARK  0 active torsions:
REMARK  status: ('A' for Active; 'I' for Inactive)
ROOT
ATOM      1  C   UNL d   1       1.773  -1.610  -0.454  0.00  0.00     0.172 C 
ATOM      2  N   UNL d   1       0.837  -1.253   0.585  0.00  0.00    -0.070 N 
ATOM      3  C1  UNL d   1      -0.065  -0.225   0.528  0.00  0.00    -0.004 A 
ATOM      4  C2  UNL d   1      -0.770  -0.216   1.712  0.00  0.00    -0.047 A 
ATOM      5  C3  UNL d   1      -0.274  -1.274   2.509  0.00  0.00    -0.047 A 
ATOM      6  C4  UNL d   1       0.721  -1.900   1.787  0.00  0.00    -0.004 A 
ENDROOT
TORSDOF 0
ENDMDL
