MODEL 1
REMARK minimizedAffinity -0.608286798
REMARK minimizedRMSD -1
REMARK  0 active torsions:
REMARK  status: ('A' for Active; 'I' for Inactive)
ROOT
ATOM      1  C   UNL d   1      -1.100  -3.283   2.733  0.00  0.00     0.172 C 
ATOM      2  N   UNL d   1       0.242  -3.422   2.216  0.00  0.00    -0.070 N 
ATOM      3  C1  UNL d   1       1.123  -2.397   1.996  0.00  0.00    -0.004 A 
ATOM      4  C2  UNL d   1       2.289  -2.941   1.503  0.00  0.00    -0.047 A 
ATOM      5  C3  UNL d   1       2.101  -4.342   1.423  0.00  0.00    -0.047 A 
ATOM      6  C4  UNL d   1       0.826  -4.612   1.871  0.00  0.00    -0.004 A 
ENDROOT
TORSDOF 0
ENDMDL
