MODEL 1
REMARK minimizedAffinity 5.51159668
REMARK minimizedRMSD -1
REMARK  0 active torsions:
REMARK  status: ('A' for Active; 'I' for Inactive)
ROOT
ATOM      1  C   UNL d   1       4.034   0.479  -0.760  0.00  0.00     0.172 C 
ATOM      2  N   UNL d   1       4.094   1.707  -0.003  0.00  0.00    -0.070 N 
ATOM      3  C1  UNL d   1       5.067   2.040   0.902  0.00  0.00    -0.004 A 
ATOM      4  C2  UNL d   1       4.765   3.288   1.405  0.00  0.00    -0.047 A 
ATOM      5  C3  UNL d   1       3.570   3.718   0.782  0.00  0.00    -0.047 A 
ATOM      6  C4  UNL d   1       3.176   2.721  -0.085  0.00  0.00    -0.004 A 
ENDROOT
TORSDOF 0
ENDMDL
