MODEL 1
REMARK minimizedAffinity -3.28426337
REMARK minimizedRMSD -1
REMARK  0 active torsions:
REMARK  status: ('A' for Active; 'I' for Inactive)
ROOT
ATOM      1  C   UNL d   1       1.540  -2.782   1.531  0.00  0.00     0.172 C 
ATOM      2  N   UNL d   1       0.441  -1.867   1.330  0.00  0.00    -0.070 N 
ATOM      3  C1  UNL d   1      -0.501  -1.533   2.267  0.00  0.00    -0.004 A 
ATOM      4  C2  UNL d   1      -1.373  -0.637   1.687  0.00  0.00    -0.047 A 
ATOM      5  C3  UNL d   1      -0.941  -0.426   0.356  0.00  0.00    -0.047 A 
ATOM      6  C4  UNL d   1       0.183  -1.201   0.162  0.00  0.00    -0.004 A 
ENDROOT
TORSDOF 0
ENDMDL
