MODEL 1
REMARK minimizedAffinity -0.133478716
REMARK minimizedRMSD -1
REMARK  0 active torsions:
REMARK  status: ('A' for Active; 'I' for Inactive)
ROOT
ATOM      1  C   UNL d   1      -1.157  -0.505  -0.518  0.00  0.00     0.172 C 
ATOM      2  N   UNL d   1      -1.026  -0.794   0.891  0.00  0.00    -0.070 N 
ATOM      3  C1  UNL d   1      -1.685  -0.148   1.903  0.00  0.00    -0.004 A 
ATOM      4  C2  UNL d   1      -1.289  -0.716   3.094  0.00  0.00    -0.047 A 
ATOM      5  C3  UNL d   1      -0.359  -1.738   2.788  0.00  0.00    -0.047 A 
ATOM      6  C4  UNL d   1      -0.215  -1.765   1.417  0.00  0.00    -0.004 A 
ENDROOT
TORSDOF 0
ENDMDL
