MODEL 1
REMARK minimizedAffinity -2.66779661
REMARK minimizedRMSD -1
REMARK  0 active torsions:
REMARK  status: ('A' for Active; 'I' for Inactive)
ROOT
ATOM      1  C   UNL d   1       2.296  -3.447   1.529  0.00  0.00     0.172 C 
ATOM      2  N   UNL d   1       1.299  -2.403   1.484  0.00  0.00    -0.070 N 
ATOM      3  C1  UNL d   1       0.502  -2.015   2.528  0.00  0.00    -0.004 A 
ATOM      4  C2  UNL d   1      -0.310  -0.995   2.081  0.00  0.00    -0.047 A 
ATOM      5  C3  UNL d   1       0.009  -0.763   0.722  0.00  0.00    -0.047 A 
ATOM      6  C4  UNL d   1       1.008  -1.649   0.378  0.00  0.00    -0.004 A 
ENDROOT
TORSDOF 0
ENDMDL
