MODEL 1
REMARK minimizedAffinity 0.775370896
REMARK minimizedRMSD -1
REMARK  1 active torsions:
REMARK  status: ('A' for Active; 'I' for Inactive)
REMARK    1  A    between atoms: C1_2  and  C2_3 
ROOT
ATOM      1  C2  UNL d   1      -0.790  -5.964  -3.503  0.00  0.00    -0.073 A 
ATOM      2  C3  UNL d   1      -1.542  -5.985  -4.683  0.00  0.00    -0.002 A 
ATOM      3  C4  UNL d   1      -0.905  -6.000  -5.925  0.00  0.00     0.004 A 
ATOM      4  C5  UNL d   1       0.487  -6.000  -6.000  0.00  0.00    -0.004 A 
ATOM      5  C6  UNL d   1       1.256  -5.991  -4.832  0.00  0.00    -0.075 A 
ATOM      6  C7  UNL d   1       2.756  -5.989  -4.895  0.00  0.00     0.076 C 
ATOM      7  C8  UNL d   1       0.609  -5.974  -3.588  0.00  0.00     0.001 A 
ENDROOT
BRANCH   1   8
ATOM      8  C1  UNL d   1      -1.473  -5.956  -2.160  0.00  0.00     0.053 C 
ATOM      9  C   UNL d   1      -2.965  -5.687  -2.281  0.00  0.00     0.018 C 
ENDBRANCH   1   8
TORSDOF 1
ENDMDL
