MODEL 1
REMARK minimizedAffinity 2.72515559
REMARK minimizedRMSD -1
REMARK  1 active torsions:
REMARK  status: ('A' for Active; 'I' for Inactive)
REMARK    1  A    between atoms: C1_2  and  C2_3 
ROOT
ATOM      1  C2  UNL d   1      -1.182  -5.675  -3.579  0.00  0.00    -0.073 A 
ATOM      2  C3  UNL d   1      -1.882  -5.759  -4.788  0.00  0.00    -0.002 A 
ATOM      3  C4  UNL d   1      -1.192  -5.911  -5.992  0.00  0.00     0.004 A 
ATOM      4  C5  UNL d   1       0.200  -5.988  -5.999  0.00  0.00    -0.004 A 
ATOM      5  C6  UNL d   1       0.916  -5.918  -4.799  0.00  0.00    -0.075 A 
ATOM      6  C7  UNL d   1       2.415  -5.997  -4.790  0.00  0.00     0.076 C 
ATOM      7  C8  UNL d   1       0.217  -5.763  -3.595  0.00  0.00     0.001 A 
ENDROOT
BRANCH   1   8
ATOM      8  C1  UNL d   1      -1.923  -5.518  -2.276  0.00  0.00     0.053 C 
ATOM      9  C   UNL d   1      -3.403  -5.835  -2.419  0.00  0.00     0.018 C 
ENDBRANCH   1   8
TORSDOF 1
ENDMDL
