MODEL 1
REMARK minimizedAffinity 3.77242661
REMARK minimizedRMSD -1
REMARK  1 active torsions:
REMARK  status: ('A' for Active; 'I' for Inactive)
REMARK    1  A    between atoms: C1_2  and  C2_3 
ROOT
ATOM      1  C2  UNL d   1       5.288   2.667  -1.354  0.00  0.00    -0.073 A 
ATOM      2  C3  UNL d   1       5.995   3.728  -0.776  0.00  0.00    -0.002 A 
ATOM      3  C4  UNL d   1       5.336   4.657   0.030  0.00  0.00     0.004 A 
ATOM      4  C5  UNL d   1       3.968   4.531   0.273  0.00  0.00    -0.004 A 
ATOM      5  C6  UNL d   1       3.247   3.470  -0.286  0.00  0.00    -0.075 A 
ATOM      6  C7  UNL d   1       1.775   3.322  -0.037  0.00  0.00     0.076 C 
ATOM      7  C8  UNL d   1       3.915   2.543  -1.097  0.00  0.00     0.001 A 
ENDROOT
BRANCH   1   8
ATOM      8  C1  UNL d   1       5.997   1.657  -2.220  0.00  0.00     0.053 C 
ATOM      9  C   UNL d   1       5.323   0.295  -2.176  0.00  0.00     0.018 C 
ENDBRANCH   1   8
TORSDOF 1
ENDMDL
