MODEL 1
REMARK minimizedAffinity 3.24560905
REMARK minimizedRMSD -1
REMARK  1 active torsions:
REMARK  status: ('A' for Active; 'I' for Inactive)
REMARK    1  A    between atoms: C1_2  and  C2_3 
ROOT
ATOM      1  C2  UNL d   1       0.545   0.071  -0.736  0.00  0.00    -0.073 A 
ATOM      2  C3  UNL d   1       1.703   0.686  -0.247  0.00  0.00    -0.002 A 
ATOM      3  C4  UNL d   1       2.420   0.107   0.801  0.00  0.00     0.004 A 
ATOM      4  C5  UNL d   1       1.991  -1.094   1.365  0.00  0.00    -0.004 A 
ATOM      5  C6  UNL d   1       0.843  -1.730   0.882  0.00  0.00    -0.075 A 
ATOM      6  C7  UNL d   1       0.368  -3.022   1.480  0.00  0.00     0.076 C 
ATOM      7  C8  UNL d   1       0.127  -1.141  -0.169  0.00  0.00     0.001 A 
ENDROOT
BRANCH   1   8
ATOM      8  C1  UNL d   1      -0.228   0.689  -1.872  0.00  0.00     0.053 C 
ATOM      9  C   UNL d   1      -1.729   0.521  -1.697  0.00  0.00     0.018 C 
ENDBRANCH   1   8
TORSDOF 1
ENDMDL
