MODEL 1
REMARK minimizedAffinity 0.988700628
REMARK minimizedRMSD -1
REMARK  1 active torsions:
REMARK  status: ('A' for Active; 'I' for Inactive)
REMARK    1  A    between atoms: C1_2  and  C2_3 
ROOT
ATOM      1  C2  UNL d   1       0.410  -5.999  -4.285  0.00  0.00    -0.073 A 
ATOM      2  C3  UNL d   1      -0.079  -5.981  -5.597  0.00  0.00    -0.002 A 
ATOM      3  C4  UNL d   1      -1.454  -5.977  -5.836  0.00  0.00     0.004 A 
ATOM      4  C5  UNL d   1      -2.352  -5.983  -4.769  0.00  0.00    -0.004 A 
ATOM      5  C6  UNL d   1      -1.882  -5.989  -3.452  0.00  0.00    -0.075 A 
ATOM      6  C7  UNL d   1      -2.836  -5.998  -2.293  0.00  0.00     0.076 C 
ATOM      7  C8  UNL d   1      -0.500  -5.996  -3.219  0.00  0.00     0.001 A 
ENDROOT
BRANCH   1   8
ATOM      8  C1  UNL d   1       1.894  -5.997  -4.022  0.00  0.00     0.053 C 
ATOM      9  C   UNL d   1       2.209  -5.999  -2.534  0.00  0.00     0.018 C 
ENDBRANCH   1   8
TORSDOF 1
ENDMDL
