MODEL 1
REMARK minimizedAffinity 1.85345852
REMARK minimizedRMSD -1
REMARK  1 active torsions:
REMARK  status: ('A' for Active; 'I' for Inactive)
REMARK    1  A    between atoms: C1_2  and  C2_3 
ROOT
ATOM      1  C2  UNL d   1      -0.428  -5.677  -4.368  0.00  0.00    -0.073 A 
ATOM      2  C3  UNL d   1       0.450  -5.106  -3.441  0.00  0.00    -0.002 A 
ATOM      3  C4  UNL d   1       0.019  -4.816  -2.146  0.00  0.00     0.004 A 
ATOM      4  C5  UNL d   1      -1.292  -5.102  -1.763  0.00  0.00    -0.004 A 
ATOM      5  C6  UNL d   1      -2.182  -5.684  -2.671  0.00  0.00    -0.075 A 
ATOM      6  C7  UNL d   1      -3.595  -5.995  -2.275  0.00  0.00     0.076 C 
ATOM      7  C8  UNL d   1      -1.741  -5.969  -3.971  0.00  0.00     0.001 A 
ENDROOT
BRANCH   1   8
ATOM      8  C1  UNL d   1       0.035  -5.997  -5.766  0.00  0.00     0.053 C 
ATOM      9  C   UNL d   1       1.552  -5.999  -5.877  0.00  0.00     0.018 C 
ENDBRANCH   1   8
TORSDOF 1
ENDMDL
