MODEL 1
REMARK minimizedAffinity -1.37756169
REMARK minimizedRMSD -1
REMARK  1 active torsions:
REMARK  status: ('A' for Active; 'I' for Inactive)
REMARK    1  A    between atoms: C1_2  and  C2_3 
ROOT
ATOM      1  C2  UNL d   1      -0.805  -5.887  -3.651  0.00  0.00    -0.073 A 
ATOM      2  C3  UNL d   1      -1.216  -5.702  -4.976  0.00  0.00    -0.002 A 
ATOM      3  C4  UNL d   1      -0.272  -5.606  -6.000  0.00  0.00     0.004 A 
ATOM      4  C5  UNL d   1       1.089  -5.700  -5.711  0.00  0.00    -0.004 A 
ATOM      5  C6  UNL d   1       1.519  -5.896  -4.394  0.00  0.00    -0.075 A 
ATOM      6  C7  UNL d   1       2.980  -5.998  -4.067  0.00  0.00     0.076 C 
ATOM      7  C8  UNL d   1       0.565  -5.989  -3.372  0.00  0.00     0.001 A 
ENDROOT
BRANCH   1   8
ATOM      8  C1  UNL d   1      -1.820  -5.998  -2.543  0.00  0.00     0.053 C 
ATOM      9  C   UNL d   1      -3.246  -5.912  -3.066  0.00  0.00     0.018 C 
ENDBRANCH   1   8
TORSDOF 1
ENDMDL
