MODEL 1
REMARK minimizedAffinity 4.20772171
REMARK minimizedRMSD -1
REMARK  1 active torsions:
REMARK  status: ('A' for Active; 'I' for Inactive)
REMARK    1  A    between atoms: C1_2  and  C2_3 
ROOT
ATOM      1  C2  UNL d   1       0.479  -2.227   1.086  0.00  0.00    -0.073 A 
ATOM      2  C3  UNL d   1       1.483  -1.459   1.687  0.00  0.00    -0.002 A 
ATOM      3  C4  UNL d   1       1.780  -0.185   1.203  0.00  0.00     0.004 A 
ATOM      4  C5  UNL d   1       1.073   0.338   0.120  0.00  0.00    -0.004 A 
ATOM      5  C6  UNL d   1       0.058  -0.410  -0.486  0.00  0.00    -0.075 A 
ATOM      6  C7  UNL d   1      -0.711   0.136  -1.653  0.00  0.00     0.076 C 
ATOM      7  C8  UNL d   1      -0.233  -1.690   0.004  0.00  0.00     0.001 A 
ENDROOT
BRANCH   1   8
ATOM      8  C1  UNL d   1       0.150  -3.602   1.610  0.00  0.00     0.053 C 
ATOM      9  C   UNL d   1       0.041  -3.623   3.126  0.00  0.00     0.018 C 
ENDBRANCH   1   8
TORSDOF 1
ENDMDL
