MODEL 1
REMARK minimizedAffinity 1.09866989
REMARK minimizedRMSD -1
REMARK  1 active torsions:
REMARK  status: ('A' for Active; 'I' for Inactive)
REMARK    1  A    between atoms: C1_2  and  C2_3 
ROOT
ATOM      1  C2  UNL d   1      -0.082  -5.994  -4.351  0.00  0.00    -0.073 A 
ATOM      2  C3  UNL d   1      -0.920  -5.989  -5.472  0.00  0.00    -0.002 A 
ATOM      3  C4  UNL d   1      -2.307  -5.993  -5.315  0.00  0.00     0.004 A 
ATOM      4  C5  UNL d   1      -2.869  -5.994  -4.039  0.00  0.00    -0.004 A 
ATOM      5  C6  UNL d   1      -2.048  -5.988  -2.906  0.00  0.00    -0.075 A 
ATOM      6  C7  UNL d   1      -2.637  -5.991  -1.526  0.00  0.00     0.076 C 
ATOM      7  C8  UNL d   1      -0.656  -5.987  -3.072  0.00  0.00     0.001 A 
ENDROOT
BRANCH   1   8
ATOM      8  C1  UNL d   1       1.416  -5.984  -4.516  0.00  0.00     0.053 C 
ATOM      9  C   UNL d   1       1.829  -5.786  -5.966  0.00  0.00     0.018 C 
ENDBRANCH   1   8
TORSDOF 1
ENDMDL
