MODEL 1
REMARK minimizedAffinity 11.3909883
REMARK minimizedRMSD -1
REMARK  1 active torsions:
REMARK  status: ('A' for Active; 'I' for Inactive)
REMARK    1  A    between atoms: C1_2  and  C2_3 
ROOT
ATOM      1  C2  UNL d   1      -2.515  -0.537   1.397  0.00  0.00    -0.081 A 
ATOM      2  C3  UNL d   1      -2.664  -1.423   2.471  0.00  0.00     0.006 A 
ATOM      3  C4  UNL d   1      -2.718  -0.944   3.782  0.00  0.00     0.002 A 
ATOM      4  C5  UNL d   1      -2.632   0.428   4.040  0.00  0.00    -0.080 A 
ATOM      5  C6  UNL d   1      -2.719   0.958   5.440  0.00  0.00     0.076 C 
ATOM      6  C7  UNL d   1      -2.466   1.312   2.968  0.00  0.00     0.002 A 
ATOM      7  C8  UNL d   1      -2.411   0.833   1.657  0.00  0.00     0.006 A 
ENDROOT
BRANCH   1   8
ATOM      8  C1  UNL d   1      -2.521  -1.045  -0.023  0.00  0.00     0.054 C 
ATOM      9  C   UNL d   1      -1.267  -1.851  -0.327  0.00  0.00     0.018 C 
ENDBRANCH   1   8
TORSDOF 1
ENDMDL
