MODEL 1
REMARK minimizedAffinity 16.3968925
REMARK minimizedRMSD -1
REMARK  1 active torsions:
REMARK  status: ('A' for Active; 'I' for Inactive)
REMARK    1  A    between atoms: C1_2  and  C2_3 
ROOT
ATOM      1  C2  UNL d   1      -2.310   2.864  -4.729  0.00  0.00    -0.081 A 
ATOM      2  C3  UNL d   1      -3.178   2.340  -5.695  0.00  0.00     0.006 A 
ATOM      3  C4  UNL d   1      -4.376   2.991  -5.998  0.00  0.00     0.002 A 
ATOM      4  C5  UNL d   1      -4.724   4.178  -5.346  0.00  0.00    -0.080 A 
ATOM      5  C6  UNL d   1      -5.993   4.903  -5.684  0.00  0.00     0.076 C 
ATOM      6  C7  UNL d   1      -3.866   4.693  -4.368  0.00  0.00     0.002 A 
ATOM      7  C8  UNL d   1      -2.668   4.043  -4.064  0.00  0.00     0.006 A 
ENDROOT
BRANCH   1   8
ATOM      8  C1  UNL d   1      -0.987   2.201  -4.446  0.00  0.00     0.054 C 
ATOM      9  C   UNL d   1       0.168   2.992  -5.044  0.00  0.00     0.018 C 
ENDBRANCH   1   8
TORSDOF 1
ENDMDL
