MODEL 1
REMARK minimizedAffinity 21.0521755
REMARK minimizedRMSD -1
REMARK  1 active torsions:
REMARK  status: ('A' for Active; 'I' for Inactive)
REMARK    1  A    between atoms: C1_2  and  C2_3 
ROOT
ATOM      1  C2  UNL d   1      -0.882  -2.418  -1.159  0.00  0.00    -0.081 A 
ATOM      2  C3  UNL d   1      -0.284  -3.009  -0.039  0.00  0.00     0.006 A 
ATOM      3  C4  UNL d   1      -0.707  -2.674   1.249  0.00  0.00     0.002 A 
ATOM      4  C5  UNL d   1      -1.739  -1.749   1.439  0.00  0.00    -0.080 A 
ATOM      5  C6  UNL d   1      -2.223  -1.403   2.816  0.00  0.00     0.076 C 
ATOM      6  C7  UNL d   1      -2.325  -1.146   0.321  0.00  0.00     0.002 A 
ATOM      7  C8  UNL d   1      -1.902  -1.480  -0.967  0.00  0.00     0.006 A 
ENDROOT
BRANCH   1   8
ATOM      8  C1  UNL d   1      -0.473  -2.826  -2.551  0.00  0.00     0.054 C 
ATOM      9  C   UNL d   1      -1.195  -1.998  -3.605  0.00  0.00     0.018 C 
ENDBRANCH   1   8
TORSDOF 1
ENDMDL
