MODEL 1
REMARK minimizedAffinity 13.2756062
REMARK minimizedRMSD -1
REMARK  1 active torsions:
REMARK  status: ('A' for Active; 'I' for Inactive)
REMARK    1  A    between atoms: C1_2  and  C2_3 
ROOT
ATOM      1  C2  UNL d   1      -1.694  -2.667   0.762  0.00  0.00    -0.081 A 
ATOM      2  C3  UNL d   1      -1.728  -2.674   2.162  0.00  0.00     0.006 A 
ATOM      3  C4  UNL d   1      -1.210  -3.756   2.878  0.00  0.00     0.002 A 
ATOM      4  C5  UNL d   1      -0.643  -4.845   2.206  0.00  0.00    -0.080 A 
ATOM      5  C6  UNL d   1      -0.056  -5.999   2.963  0.00  0.00     0.076 C 
ATOM      6  C7  UNL d   1      -0.625  -4.846   0.807  0.00  0.00     0.002 A 
ATOM      7  C8  UNL d   1      -1.144  -3.764   0.092  0.00  0.00     0.006 A 
ENDROOT
BRANCH   1   8
ATOM      8  C1  UNL d   1      -2.193  -1.472  -0.010  0.00  0.00     0.054 C 
ATOM      9  C   UNL d   1      -1.624  -1.449  -1.422  0.00  0.00     0.018 C 
ENDBRANCH   1   8
TORSDOF 1
ENDMDL
