MODEL 1
REMARK minimizedAffinity 13.754982
REMARK minimizedRMSD -1
REMARK  1 active torsions:
REMARK  status: ('A' for Active; 'I' for Inactive)
REMARK    1  A    between atoms: C1_2  and  C2_3 
ROOT
ATOM      1  C2  UNL d   1       4.303   1.760   3.044  0.00  0.00    -0.081 A 
ATOM      2  C3  UNL d   1       5.453   1.079   2.629  0.00  0.00     0.006 A 
ATOM      3  C4  UNL d   1       5.999   1.314   1.365  0.00  0.00     0.002 A 
ATOM      4  C5  UNL d   1       5.407   2.240   0.498  0.00  0.00    -0.080 A 
ATOM      5  C6  UNL d   1       6.000   2.525  -0.850  0.00  0.00     0.076 C 
ATOM      6  C7  UNL d   1       4.248   2.908   0.906  0.00  0.00     0.002 A 
ATOM      7  C8  UNL d   1       3.702   2.672   2.170  0.00  0.00     0.006 A 
ENDROOT
BRANCH   1   8
ATOM      8  C1  UNL d   1       3.750   1.556   4.432  0.00  0.00     0.054 C 
ATOM      9  C   UNL d   1       3.757   2.854   5.227  0.00  0.00     0.018 C 
ENDBRANCH   1   8
TORSDOF 1
ENDMDL
