MODEL 1
REMARK minimizedAffinity 8.32574272
REMARK minimizedRMSD -1
REMARK  1 active torsions:
REMARK  status: ('A' for Active; 'I' for Inactive)
REMARK    1  A    between atoms: C1_2  and  C2_3 
ROOT
ATOM      1  C2  UNL d   1       5.050   3.351   0.818  0.00  0.00    -0.081 A 
ATOM      2  C3  UNL d   1       4.507   3.314   2.108  0.00  0.00     0.006 A 
ATOM      3  C4  UNL d   1       4.714   2.205   2.932  0.00  0.00     0.002 A 
ATOM      4  C5  UNL d   1       5.472   1.118   2.482  0.00  0.00    -0.080 A 
ATOM      5  C6  UNL d   1       5.727  -0.066   3.367  0.00  0.00     0.076 C 
ATOM      6  C7  UNL d   1       6.000   1.148   1.187  0.00  0.00     0.002 A 
ATOM      7  C8  UNL d   1       5.793   2.257   0.363  0.00  0.00     0.006 A 
ENDROOT
BRANCH   1   8
ATOM      8  C1  UNL d   1       4.884   4.574  -0.048  0.00  0.00     0.054 C 
ATOM      9  C   UNL d   1       5.263   5.841   0.704  0.00  0.00     0.018 C 
ENDBRANCH   1   8
TORSDOF 1
ENDMDL
