MODEL 1
REMARK minimizedAffinity 4.97627306
REMARK minimizedRMSD -1
REMARK  1 active torsions:
REMARK  status: ('A' for Active; 'I' for Inactive)
REMARK    1  A    between atoms: C1_2  and  C2_3 
ROOT
ATOM      1  C2  UNL d   1      -4.230   5.547  -2.045  0.00  0.00    -0.081 A 
ATOM      2  C3  UNL d   1      -3.503   4.667  -1.233  0.00  0.00     0.006 A 
ATOM      3  C4  UNL d   1      -4.023   4.240  -0.009  0.00  0.00     0.002 A 
ATOM      4  C5  UNL d   1      -5.281   4.678   0.420  0.00  0.00    -0.080 A 
ATOM      5  C6  UNL d   1      -5.863   4.202   1.718  0.00  0.00     0.076 C 
ATOM      6  C7  UNL d   1      -5.999   5.570  -0.382  0.00  0.00     0.002 A 
ATOM      7  C8  UNL d   1      -5.480   5.999  -1.606  0.00  0.00     0.006 A 
ENDROOT
BRANCH   1   8
ATOM      8  C1  UNL d   1      -3.701   5.959  -3.394  0.00  0.00     0.054 C 
ATOM      9  C   UNL d   1      -4.811   6.000  -4.435  0.00  0.00     0.018 C 
ENDBRANCH   1   8
TORSDOF 1
ENDMDL
