MODEL 1
REMARK minimizedAffinity 9.06836605
REMARK minimizedRMSD -1
REMARK  1 active torsions:
REMARK  status: ('A' for Active; 'I' for Inactive)
REMARK    1  A    between atoms: C1_2  and  C2_3 
ROOT
ATOM      1  C2  UNL d   1      -1.821  -2.576   1.931  0.00  0.00    -0.081 A 
ATOM      2  C3  UNL d   1      -2.110  -1.350   1.320  0.00  0.00     0.006 A 
ATOM      3  C4  UNL d   1      -2.140  -1.243  -0.073  0.00  0.00     0.002 A 
ATOM      4  C5  UNL d   1      -1.890  -2.360  -0.876  0.00  0.00    -0.080 A 
ATOM      5  C6  UNL d   1      -1.949  -2.266  -2.372  0.00  0.00     0.076 C 
ATOM      6  C7  UNL d   1      -1.583  -3.581  -0.266  0.00  0.00     0.002 A 
ATOM      7  C8  UNL d   1      -1.553  -3.689   1.127  0.00  0.00     0.006 A 
ENDROOT
BRANCH   1   8
ATOM      8  C1  UNL d   1      -1.852  -2.710   3.432  0.00  0.00     0.054 C 
ATOM      9  C   UNL d   1      -1.786  -1.349   4.111  0.00  0.00     0.018 C 
ENDBRANCH   1   8
TORSDOF 1
ENDMDL
