MODEL 1
REMARK minimizedAffinity 14.1020498
REMARK minimizedRMSD -1
REMARK  1 active torsions:
REMARK  status: ('A' for Active; 'I' for Inactive)
REMARK    1  A    between atoms: C1_2  and  C2_3 
ROOT
ATOM      1  C2  UNL d   1       4.772   3.394   0.884  0.00  0.00    -0.081 A 
ATOM      2  C3  UNL d   1       4.122   3.328   2.122  0.00  0.00     0.006 A 
ATOM      3  C4  UNL d   1       4.412   2.298   3.020  0.00  0.00     0.002 A 
ATOM      4  C5  UNL d   1       5.362   1.322   2.699  0.00  0.00    -0.080 A 
ATOM      5  C6  UNL d   1       5.705   0.229   3.666  0.00  0.00     0.076 C 
ATOM      6  C7  UNL d   1       5.999   1.379   1.454  0.00  0.00     0.002 A 
ATOM      7  C8  UNL d   1       5.708   2.408   0.556  0.00  0.00     0.006 A 
ENDROOT
BRANCH   1   8
ATOM      8  C1  UNL d   1       4.508   4.540  -0.060  0.00  0.00     0.054 C 
ATOM      9  C   UNL d   1       4.966   5.863   0.536  0.00  0.00     0.018 C 
ENDBRANCH   1   8
TORSDOF 1
ENDMDL
