MODEL 1
REMARK minimizedAffinity 8.98022938
REMARK minimizedRMSD -1
REMARK  1 active torsions:
REMARK  status: ('A' for Active; 'I' for Inactive)
REMARK    1  A    between atoms: C1_2  and  C2_3 
ROOT
ATOM      1  C2  UNL d   1      -0.851  -3.443   0.225  0.00  0.00    -0.081 A 
ATOM      2  C3  UNL d   1      -1.874  -3.158   1.139  0.00  0.00     0.006 A 
ATOM      3  C4  UNL d   1      -2.756  -2.100   0.907  0.00  0.00     0.002 A 
ATOM      4  C5  UNL d   1      -2.636  -1.315  -0.244  0.00  0.00    -0.080 A 
ATOM      5  C6  UNL d   1      -3.595  -0.195  -0.520  0.00  0.00     0.076 C 
ATOM      6  C7  UNL d   1      -1.603  -1.588  -1.148  0.00  0.00     0.002 A 
ATOM      7  C8  UNL d   1      -0.721  -2.645  -0.917  0.00  0.00     0.006 A 
ENDROOT
BRANCH   1   8
ATOM      8  C1  UNL d   1       0.061  -4.623   0.440  0.00  0.00     0.054 C 
ATOM      9  C   UNL d   1      -0.604  -5.923   0.009  0.00  0.00     0.018 C 
ENDBRANCH   1   8
TORSDOF 1
ENDMDL
