MODEL 1
REMARK minimizedAffinity 11.680069
REMARK minimizedRMSD -1
REMARK  0 active torsions:
REMARK  status: ('A' for Active; 'I' for Inactive)
ROOT
ATOM      1  C   UNL d   1       2.494  -2.280   5.469  0.00  0.00    -0.002 A 
ATOM      2  C1  UNL d   1       1.680  -3.333   5.077  0.00  0.00     0.010 A 
ATOM      3  C2  UNL d   1       0.662  -3.135   4.142  0.00  0.00     0.041 A 
ATOM      4  C3  UNL d   1       0.476  -1.848   3.600  0.00  0.00    -0.075 A 
ATOM      5  S   UNL d   1      -0.705  -1.369   2.439  0.00  0.00     0.015 SA
ATOM      6  C4  UNL d   1      -0.156   0.244   2.435  0.00  0.00     0.022 A 
ATOM      7  C5  UNL d   1       0.902   0.431   3.293  0.00  0.00     0.026 A 
ATOM      8  C6  UNL d   1       1.284  -0.771   3.978  0.00  0.00    -0.082 A 
ATOM      9  C7  UNL d   1       2.307  -1.005   4.929  0.00  0.00     0.045 A 
ENDROOT
TORSDOF 0
ENDMDL
