MODEL 1
REMARK minimizedAffinity 18.028614
REMARK minimizedRMSD -1
REMARK  0 active torsions:
REMARK  status: ('A' for Active; 'I' for Inactive)
ROOT
ATOM      1  C   UNL d   1       1.574  -0.552  -4.170  0.00  0.00    -0.002 A 
ATOM      2  C1  UNL d   1       2.459  -1.618  -4.083  0.00  0.00     0.010 A 
ATOM      3  C2  UNL d   1       3.802  -1.456  -4.430  0.00  0.00     0.041 A 
ATOM      4  C3  UNL d   1       4.245  -0.192  -4.868  0.00  0.00    -0.075 A 
ATOM      5  S   UNL d   1       5.845   0.240  -5.344  0.00  0.00     0.015 SA
ATOM      6  C4  UNL d   1       5.392   1.850  -5.673  0.00  0.00     0.022 A 
ATOM      7  C5  UNL d   1       4.056   2.069  -5.431  0.00  0.00     0.026 A 
ATOM      8  C6  UNL d   1       3.374   0.896  -4.963  0.00  0.00    -0.082 A 
ATOM      9  C7  UNL d   1       2.018   0.700  -4.605  0.00  0.00     0.045 A 
ENDROOT
TORSDOF 0
ENDMDL
