MODEL 1
REMARK minimizedAffinity -0.815370262
REMARK minimizedRMSD -1
REMARK  0 active torsions:
REMARK  status: ('A' for Active; 'I' for Inactive)
ROOT
ATOM      1  C   UNL d   1       2.175  -1.143   0.434  0.00  0.00     0.172 C 
ATOM      2  N   UNL d   1       0.892  -0.544   0.153  0.00  0.00    -0.070 N 
ATOM      3  C1  UNL d   1       0.541   0.753   0.417  0.00  0.00    -0.004 A 
ATOM      4  C2  UNL d   1      -0.761   0.931   0.003  0.00  0.00    -0.047 A 
ATOM      5  C3  UNL d   1      -1.209  -0.302  -0.527  0.00  0.00    -0.047 A 
ATOM      6  C4  UNL d   1      -0.166  -1.198  -0.422  0.00  0.00    -0.004 A 
ENDROOT
TORSDOF 0
ENDMDL
