MODEL 1
REMARK minimizedAffinity -2.65458155
REMARK minimizedRMSD -1
REMARK  0 active torsions:
REMARK  status: ('A' for Active; 'I' for Inactive)
ROOT
ATOM      1  C   UNL d   1       0.440  -0.582  -2.109  0.00  0.00     0.172 C 
ATOM      2  N   UNL d   1       0.419  -0.195  -0.718  0.00  0.00    -0.070 N 
ATOM      3  C1  UNL d   1      -0.678   0.251  -0.030  0.00  0.00    -0.004 A 
ATOM      4  C2  UNL d   1      -0.286   0.514   1.264  0.00  0.00    -0.047 A 
ATOM      5  C3  UNL d   1       1.095   0.217   1.358  0.00  0.00    -0.047 A 
ATOM      6  C4  UNL d   1       1.505  -0.220   0.116  0.00  0.00    -0.004 A 
ENDROOT
TORSDOF 0
ENDMDL
