MODEL 1
REMARK minimizedAffinity -2.54219842
REMARK minimizedRMSD -1
REMARK  0 active torsions:
REMARK  status: ('A' for Active; 'I' for Inactive)
ROOT
ATOM      1  C   UNL d   1      -0.669   0.329   0.067  0.00  0.00     0.172 C 
ATOM      2  N   UNL d   1       0.146   0.099  -1.102  0.00  0.00    -0.070 N 
ATOM      3  C1  UNL d   1       0.376   1.001  -2.106  0.00  0.00    -0.004 A 
ATOM      4  C2  UNL d   1       1.201   0.401  -3.033  0.00  0.00    -0.047 A 
ATOM      5  C3  UNL d   1       1.475  -0.908  -2.570  0.00  0.00    -0.047 A 
ATOM      6  C4  UNL d   1       0.810  -1.069  -1.373  0.00  0.00    -0.004 A 
ENDROOT
TORSDOF 0
ENDMDL
