MODEL 1
REMARK minimizedAffinity -3.89304781
REMARK minimizedRMSD -1
REMARK  0 active torsions:
REMARK  status: ('A' for Active; 'I' for Inactive)
ROOT
ATOM      1  C   UNL d   1       1.208  -1.021   0.345  0.00  0.00     0.172 C 
ATOM      2  N   UNL d   1       0.373  -0.222   1.212  0.00  0.00    -0.070 N 
ATOM      3  C1  UNL d   1       0.785   0.418   2.350  0.00  0.00    -0.004 A 
ATOM      4  C2  UNL d   1      -0.305   1.068   2.886  0.00  0.00    -0.047 A 
ATOM      5  C3  UNL d   1      -1.411   0.809   2.042  0.00  0.00    -0.047 A 
ATOM      6  C4  UNL d   1      -0.963   0.007   1.014  0.00  0.00    -0.004 A 
ENDROOT
TORSDOF 0
ENDMDL
