MODEL 1
REMARK minimizedAffinity -2.43053198
REMARK minimizedRMSD -1
REMARK  0 active torsions:
REMARK  status: ('A' for Active; 'I' for Inactive)
ROOT
ATOM      1  C   UNL d   1      -1.306   1.081   2.471  0.00  0.00     0.172 C 
ATOM      2  N   UNL d   1      -0.719   0.480   1.297  0.00  0.00    -0.070 N 
ATOM      3  C1  UNL d   1       0.621   0.386   1.033  0.00  0.00    -0.004 A 
ATOM      4  C2  UNL d   1       0.769  -0.251  -0.180  0.00  0.00    -0.047 A 
ATOM      5  C3  UNL d   1      -0.527  -0.549  -0.662  0.00  0.00    -0.047 A 
ATOM      6  C4  UNL d   1      -1.430  -0.085   0.271  0.00  0.00    -0.004 A 
ENDROOT
TORSDOF 0
ENDMDL
