MODEL 1
REMARK minimizedAffinity -3.61219501
REMARK minimizedRMSD -1
REMARK  0 active torsions:
REMARK  status: ('A' for Active; 'I' for Inactive)
ROOT
ATOM      1  C   UNL d   1      -0.978   1.135   2.801  0.00  0.00     0.172 C 
ATOM      2  N   UNL d   1      -0.669   0.590   1.500  0.00  0.00    -0.070 N 
ATOM      3  C1  UNL d   1       0.549   0.101   1.107  0.00  0.00    -0.004 A 
ATOM      4  C2  UNL d   1       0.432  -0.324  -0.198  0.00  0.00    -0.047 A 
ATOM      5  C3  UNL d   1      -0.902  -0.082  -0.605  0.00  0.00    -0.047 A 
ATOM      6  C4  UNL d   1      -1.561   0.484   0.466  0.00  0.00    -0.004 A 
ENDROOT
TORSDOF 0
ENDMDL
