MODEL 1
REMARK minimizedAffinity -2.78464389
REMARK minimizedRMSD -1
REMARK  0 active torsions:
REMARK  status: ('A' for Active; 'I' for Inactive)
ROOT
ATOM      1  C1  BNZ d   1       3.636  -0.713  -3.565  0.00  0.00     0.000 A 
ATOM      2  C2  BNZ d   1       2.924  -1.881  -3.605  0.00  0.00     0.000 A 
ATOM      3  C3  BNZ d   1       1.557  -1.867  -3.607  0.00  0.00     0.000 A 
ATOM      4  C4  BNZ d   1       0.905  -0.689  -3.527  0.00  0.00     0.000 A 
ATOM      5  C5  BNZ d   1       1.610   0.497  -3.477  0.00  0.00     0.000 A 
ATOM      6  C6  BNZ d   1       2.986   0.481  -3.515  0.00  0.00     0.000 A 
ENDROOT
TORSDOF 0
ENDMDL
