MODEL 1
REMARK minimizedAffinity -4.73587608
REMARK minimizedRMSD -1
REMARK  0 active torsions:
REMARK  status: ('A' for Active; 'I' for Inactive)
ROOT
ATOM      1  C1  BNZ d   1      -2.426  -0.190   1.299  0.00  0.00     0.000 A 
ATOM      2  C2  BNZ d   1      -2.699  -0.059   2.635  0.00  0.00     0.000 A 
ATOM      3  C3  BNZ d   1      -1.699  -0.125   3.563  0.00  0.00     0.000 A 
ATOM      4  C4  BNZ d   1      -0.434  -0.360   3.159  0.00  0.00     0.000 A 
ATOM      5  C5  BNZ d   1      -0.144  -0.503   1.817  0.00  0.00     0.000 A 
ATOM      6  C6  BNZ d   1      -1.148  -0.398   0.882  0.00  0.00     0.000 A 
ENDROOT
TORSDOF 0
ENDMDL
