MODEL 1
REMARK minimizedAffinity -5.19171047
REMARK minimizedRMSD -1
REMARK  0 active torsions:
REMARK  status: ('A' for Active; 'I' for Inactive)
ROOT
ATOM      1  C1  BNZ d   1      -0.565  -0.396   2.557  0.00  0.00     0.000 A 
ATOM      2  C2  BNZ d   1      -0.279  -0.457   1.220  0.00  0.00     0.000 A 
ATOM      3  C3  BNZ d   1      -1.242  -0.198   0.285  0.00  0.00     0.000 A 
ATOM      4  C4  BNZ d   1      -2.498   0.082   0.688  0.00  0.00     0.000 A 
ATOM      5  C5  BNZ d   1      -2.805   0.138   2.033  0.00  0.00     0.000 A 
ATOM      6  C6  BNZ d   1      -1.824  -0.085   2.971  0.00  0.00     0.000 A 
ENDROOT
TORSDOF 0
ENDMDL
