MODEL 1
REMARK minimizedAffinity -2.72795391
REMARK minimizedRMSD -1
REMARK  0 active torsions:
REMARK  status: ('A' for Active; 'I' for Inactive)
ROOT
ATOM      1  C1  BNZ d   1      -2.363  -0.116   0.100  0.00  0.00     0.000 A 
ATOM      2  C2  BNZ d   1      -1.655   0.132  -1.046  0.00  0.00     0.000 A 
ATOM      3  C3  BNZ d   1      -0.297  -0.027  -1.078  0.00  0.00     0.000 A 
ATOM      4  C4  BNZ d   1       0.354  -0.393   0.045  0.00  0.00     0.000 A 
ATOM      5  C5  BNZ d   1      -0.345  -0.637   1.211  0.00  0.00     0.000 A 
ATOM      6  C6  BNZ d   1      -1.715  -0.515   1.228  0.00  0.00     0.000 A 
ENDROOT
TORSDOF 0
ENDMDL
