MODEL 1
REMARK minimizedAffinity -4.56274366
REMARK minimizedRMSD -1
REMARK  0 active torsions:
REMARK  status: ('A' for Active; 'I' for Inactive)
ROOT
ATOM      1  C1  BNZ d   1      -1.599  -0.647   2.051  0.00  0.00     0.000 A 
ATOM      2  C2  BNZ d   1      -0.728  -0.510   3.100  0.00  0.00     0.000 A 
ATOM      3  C3  BNZ d   1       0.542  -0.049   2.898  0.00  0.00     0.000 A 
ATOM      4  C4  BNZ d   1       0.953   0.237   1.646  0.00  0.00     0.000 A 
ATOM      5  C5  BNZ d   1       0.090   0.095   0.577  0.00  0.00     0.000 A 
ATOM      6  C6  BNZ d   1      -1.200  -0.333   0.789  0.00  0.00     0.000 A 
ENDROOT
TORSDOF 0
ENDMDL
