MODEL 1
REMARK minimizedAffinity -2.4228971
REMARK minimizedRMSD -1
REMARK  0 active torsions:
REMARK  status: ('A' for Active; 'I' for Inactive)
ROOT
ATOM      1  C1  BNZ d   1      -1.184  -0.286   0.515  0.00  0.00     0.000 A 
ATOM      2  C2  BNZ d   1      -1.245  -0.846   1.763  0.00  0.00     0.000 A 
ATOM      3  C3  BNZ d   1      -0.193  -0.744   2.629  0.00  0.00     0.000 A 
ATOM      4  C4  BNZ d   1       0.933  -0.117   2.232  0.00  0.00     0.000 A 
ATOM      5  C5  BNZ d   1       1.014   0.445   0.974  0.00  0.00     0.000 A 
ATOM      6  C6  BNZ d   1      -0.062   0.374   0.119  0.00  0.00     0.000 A 
ENDROOT
TORSDOF 0
ENDMDL
