MODEL 1
REMARK minimizedAffinity -4.43112707
REMARK minimizedRMSD -1
REMARK  0 active torsions:
REMARK  status: ('A' for Active; 'I' for Inactive)
ROOT
ATOM      1  C1  BNZ d   1       0.547  -0.461  -3.322  0.00  0.00     0.000 A 
ATOM      2  C2  BNZ d   1       1.602   0.410  -3.271  0.00  0.00     0.000 A 
ATOM      3  C3  BNZ d   1       2.870  -0.008  -3.563  0.00  0.00     0.000 A 
ATOM      4  C4  BNZ d   1       3.088  -1.304  -3.866  0.00  0.00     0.000 A 
ATOM      5  C5  BNZ d   1       2.036  -2.197  -3.912  0.00  0.00     0.000 A 
ATOM      6  C6  BNZ d   1       0.755  -1.764  -3.656  0.00  0.00     0.000 A 
ENDROOT
TORSDOF 0
ENDMDL
