MODEL 1
REMARK minimizedAffinity -0.159733504
REMARK minimizedRMSD -1
REMARK  0 active torsions:
REMARK  status: ('A' for Active; 'I' for Inactive)
ROOT
ATOM      1  C1  BNZ d   1       0.383   0.603   2.562  0.00  0.00     0.000 A 
ATOM      2  C2  BNZ d   1      -0.665   0.616   1.681  0.00  0.00     0.000 A 
ATOM      3  C3  BNZ d   1      -0.576  -0.027   0.478  0.00  0.00     0.000 A 
ATOM      4  C4  BNZ d   1       0.573  -0.648   0.141  0.00  0.00     0.000 A 
ATOM      5  C5  BNZ d   1       1.641  -0.662   1.015  0.00  0.00     0.000 A 
ATOM      6  C6  BNZ d   1       1.535  -0.047   2.241  0.00  0.00     0.000 A 
ENDROOT
TORSDOF 0
ENDMDL
