MODEL 1
REMARK minimizedAffinity -1.85935783
REMARK minimizedRMSD -1
REMARK  0 active torsions:
REMARK  status: ('A' for Active; 'I' for Inactive)
ROOT
ATOM      1  C1  BNZ d   1       0.273  -1.055   2.983  0.00  0.00     0.000 A 
ATOM      2  C2  BNZ d   1      -1.078  -1.277   2.989  0.00  0.00     0.000 A 
ATOM      3  C3  BNZ d   1      -1.929  -0.439   2.326  0.00  0.00     0.000 A 
ATOM      4  C4  BNZ d   1      -1.433   0.643   1.691  0.00  0.00     0.000 A 
ATOM      5  C5  BNZ d   1      -0.074   0.886   1.683  0.00  0.00     0.000 A 
ATOM      6  C6  BNZ d   1       0.783   0.018   2.319  0.00  0.00     0.000 A 
ENDROOT
TORSDOF 0
ENDMDL
