MODEL 1
REMARK minimizedAffinity 0.220282674
REMARK minimizedRMSD -1
REMARK  0 active torsions:
REMARK  status: ('A' for Active; 'I' for Inactive)
ROOT
ATOM      1  C1  BNZ d   1       1.238  -1.004   2.929  0.00  0.00     0.000 A 
ATOM      2  C2  BNZ d   1      -0.074  -1.332   3.146  0.00  0.00     0.000 A 
ATOM      3  C3  BNZ d   1      -1.081  -0.526   2.693  0.00  0.00     0.000 A 
ATOM      4  C4  BNZ d   1      -0.775   0.625   2.060  0.00  0.00     0.000 A 
ATOM      5  C5  BNZ d   1       0.543   0.974   1.842  0.00  0.00     0.000 A 
ATOM      6  C6  BNZ d   1       1.554   0.141   2.265  0.00  0.00     0.000 A 
ENDROOT
TORSDOF 0
ENDMDL
