MODEL 1
REMARK minimizedAffinity 0.79760164
REMARK minimizedRMSD -1
REMARK  0 active torsions:
REMARK  status: ('A' for Active; 'I' for Inactive)
ROOT
ATOM      1  C1  BNZ d   1       1.355  -0.670   2.539  0.00  0.00     0.000 A 
ATOM      2  C2  BNZ d   1       0.769   0.476   3.007  0.00  0.00     0.000 A 
ATOM      3  C3  BNZ d   1      -0.486   0.836   2.601  0.00  0.00     0.000 A 
ATOM      4  C4  BNZ d   1      -1.136   0.072   1.699  0.00  0.00     0.000 A 
ATOM      5  C5  BNZ d   1      -0.554  -1.081   1.212  0.00  0.00     0.000 A 
ATOM      6  C6  BNZ d   1       0.693  -1.461   1.652  0.00  0.00     0.000 A 
ENDROOT
TORSDOF 0
ENDMDL
