MODEL 1
REMARK minimizedAffinity -1.74810004
REMARK minimizedRMSD -1
REMARK  0 active torsions:
REMARK  status: ('A' for Active; 'I' for Inactive)
ROOT
ATOM      1  C1  BNZ d   1      -0.823   0.382   2.390  0.00  0.00     0.000 A 
ATOM      2  C2  BNZ d   1      -0.023   1.449   2.078  0.00  0.00     0.000 A 
ATOM      3  C3  BNZ d   1       1.335   1.311   2.019  0.00  0.00     0.000 A 
ATOM      4  C4  BNZ d   1       1.894   0.119   2.311  0.00  0.00     0.000 A 
ATOM      5  C5  BNZ d   1       1.102  -0.963   2.637  0.00  0.00     0.000 A 
ATOM      6  C6  BNZ d   1      -0.267  -0.831   2.657  0.00  0.00     0.000 A 
ENDROOT
TORSDOF 0
ENDMDL
