MODEL 1
REMARK minimizedAffinity 0.793599904
REMARK minimizedRMSD -1
REMARK  0 active torsions:
REMARK  status: ('A' for Active; 'I' for Inactive)
ROOT
ATOM      1  C1  BNZ d   1      -0.730  -1.039  -1.189  0.00  0.00     0.000 A 
ATOM      2  C2  BNZ d   1      -0.170  -1.924  -2.072  0.00  0.00     0.000 A 
ATOM      3  C3  BNZ d   1       0.594  -1.482  -3.115  0.00  0.00     0.000 A 
ATOM      4  C4  BNZ d   1       0.765  -0.157  -3.298  0.00  0.00     0.000 A 
ATOM      5  C5  BNZ d   1       0.199   0.748  -2.422  0.00  0.00     0.000 A 
ATOM      6  C6  BNZ d   1      -0.538   0.298  -1.350  0.00  0.00     0.000 A 
ENDROOT
TORSDOF 0
ENDMDL
