MODEL 1
REMARK minimizedAffinity -2.91406679
REMARK minimizedRMSD -1
REMARK  0 active torsions:
REMARK  status: ('A' for Active; 'I' for Inactive)
ROOT
ATOM      1  C   UNL d   1      -0.025   4.327  -0.917  0.00  0.00    -0.002 A 
ATOM      2  C1  UNL d   1       0.225   3.214  -1.708  0.00  0.00     0.010 A 
ATOM      3  C2  UNL d   1       1.231   2.310  -1.363  0.00  0.00     0.041 A 
ATOM      4  C3  UNL d   1       1.988   2.543  -0.198  0.00  0.00    -0.075 A 
ATOM      5  S   UNL d   1       3.269   1.571   0.422  0.00  0.00     0.015 SA
ATOM      6  C4  UNL d   1       3.514   2.609   1.751  0.00  0.00     0.022 A 
ATOM      7  C5  UNL d   1       2.648   3.677   1.738  0.00  0.00     0.026 A 
ATOM      8  C6  UNL d   1       1.754   3.656   0.615  0.00  0.00    -0.082 A 
ATOM      9  C7  UNL d   1       0.727   4.555   0.238  0.00  0.00     0.045 A 
ENDROOT
TORSDOF 0
ENDMDL
