MODEL 1
REMARK minimizedAffinity 13.8123341
REMARK minimizedRMSD -1
REMARK  0 active torsions:
REMARK  status: ('A' for Active; 'I' for Inactive)
ROOT
ATOM      1  C   UNL d   1      -3.370   1.988   0.659  0.00  0.00    -0.002 A 
ATOM      2  C1  UNL d   1      -2.307   2.234   1.515  0.00  0.00     0.010 A 
ATOM      3  C2  UNL d   1      -1.565   1.178   2.048  0.00  0.00     0.041 A 
ATOM      4  C3  UNL d   1      -1.914  -0.142   1.702  0.00  0.00    -0.075 A 
ATOM      5  S   UNL d   1      -1.148  -1.593   2.233  0.00  0.00     0.015 SA
ATOM      6  C4  UNL d   1      -2.214  -2.573   1.334  0.00  0.00     0.022 A 
ATOM      7  C5  UNL d   1      -3.139  -1.828   0.641  0.00  0.00     0.026 A 
ATOM      8  C6  UNL d   1      -2.980  -0.415   0.841  0.00  0.00    -0.082 A 
ATOM      9  C7  UNL d   1      -3.713   0.677   0.317  0.00  0.00     0.045 A 
ENDROOT
TORSDOF 0
ENDMDL
