MODEL 1
REMARK minimizedAffinity 3.854424
REMARK minimizedRMSD -1
REMARK  0 active torsions:
REMARK  status: ('A' for Active; 'I' for Inactive)
ROOT
ATOM      1  C   UNL d   1       3.945   3.343   0.946  0.00  0.00    -0.002 A 
ATOM      2  C1  UNL d   1       4.084   1.992   1.233  0.00  0.00     0.010 A 
ATOM      3  C2  UNL d   1       2.981   1.138   1.182  0.00  0.00     0.041 A 
ATOM      4  C3  UNL d   1       1.723   1.668   0.833  0.00  0.00    -0.075 A 
ATOM      5  S   UNL d   1       0.233   0.812   0.706  0.00  0.00     0.015 SA
ATOM      6  C4  UNL d   1      -0.624   2.218   0.267  0.00  0.00     0.022 A 
ATOM      7  C5  UNL d   1       0.192   3.324   0.214  0.00  0.00     0.026 A 
ATOM      8  C6  UNL d   1       1.558   3.025   0.539  0.00  0.00    -0.082 A 
ATOM      9  C7  UNL d   1       2.696   3.865   0.600  0.00  0.00     0.045 A 
ENDROOT
TORSDOF 0
ENDMDL
