MODEL 1
REMARK minimizedAffinity 6.46245193
REMARK minimizedRMSD -1
REMARK  0 active torsions:
REMARK  status: ('A' for Active; 'I' for Inactive)
ROOT
ATOM      1  C   UNL d   1      -2.437   2.679   0.436  0.00  0.00    -0.002 A 
ATOM      2  C1  UNL d   1      -1.525   3.717   0.301  0.00  0.00     0.010 A 
ATOM      3  C2  UNL d   1      -0.153   3.474   0.389  0.00  0.00     0.041 A 
ATOM      4  C3  UNL d   1       0.292   2.157   0.615  0.00  0.00    -0.075 A 
ATOM      5  S   UNL d   1       1.925   1.622   0.758  0.00  0.00     0.015 SA
ATOM      6  C4  UNL d   1       1.451   0.002   1.001  0.00  0.00     0.022 A 
ATOM      7  C5  UNL d   1       0.084  -0.144   0.977  0.00  0.00     0.026 A 
ATOM      8  C6  UNL d   1      -0.606   1.095   0.754  0.00  0.00    -0.082 A 
ATOM      9  C7  UNL d   1      -1.991   1.374   0.661  0.00  0.00     0.045 A 
ENDROOT
TORSDOF 0
ENDMDL
