MODEL 1
REMARK minimizedAffinity 12.4687548
REMARK minimizedRMSD -1
REMARK  0 active torsions:
REMARK  status: ('A' for Active; 'I' for Inactive)
ROOT
ATOM      1  C   UNL d   1       2.084  -1.219  -2.911  0.00  0.00    -0.002 A 
ATOM      2  C1  UNL d   1       1.559  -0.092  -3.528  0.00  0.00     0.010 A 
ATOM      3  C2  UNL d   1       1.152   1.008  -2.770  0.00  0.00     0.041 A 
ATOM      4  C3  UNL d   1       1.285   0.956  -1.368  0.00  0.00    -0.075 A 
ATOM      5  S   UNL d   1       0.854   2.184  -0.237  0.00  0.00     0.015 SA
ATOM      6  C4  UNL d   1       1.358   1.242   1.091  0.00  0.00     0.022 A 
ATOM      7  C5  UNL d   1       1.846   0.018   0.699  0.00  0.00     0.026 A 
ATOM      8  C6  UNL d   1       1.812  -0.167  -0.725  0.00  0.00    -0.082 A 
ATOM      9  C7  UNL d   1       2.215  -1.266  -1.521  0.00  0.00     0.045 A 
ENDROOT
TORSDOF 0
ENDMDL
