MODEL 1
REMARK minimizedAffinity 11.232995
REMARK minimizedRMSD -1
REMARK  0 active torsions:
REMARK  status: ('A' for Active; 'I' for Inactive)
ROOT
ATOM      1  C   UNL d   1      -0.481   2.879   1.331  0.00  0.00    -0.002 A 
ATOM      2  C1  UNL d   1      -0.160   3.591   0.184  0.00  0.00     0.010 A 
ATOM      3  C2  UNL d   1       0.854   3.147  -0.667  0.00  0.00     0.041 A 
ATOM      4  C3  UNL d   1       1.546   1.963  -0.344  0.00  0.00    -0.075 A 
ATOM      5  S   UNL d   1       2.824   1.229  -1.238  0.00  0.00     0.015 SA
ATOM      6  C4  UNL d   1       2.973  -0.048  -0.119  0.00  0.00     0.022 A 
ATOM      7  C5  UNL d   1       2.078   0.068   0.918  0.00  0.00     0.026 A 
ATOM      8  C6  UNL d   1       1.240   1.228   0.805  0.00  0.00    -0.082 A 
ATOM      9  C7  UNL d   1       0.208   1.705   1.649  0.00  0.00     0.045 A 
ENDROOT
TORSDOF 0
ENDMDL
