MODEL 1
REMARK minimizedAffinity 1.79499018
REMARK minimizedRMSD -1
REMARK  0 active torsions:
REMARK  status: ('A' for Active; 'I' for Inactive)
ROOT
ATOM      1  C   UNL d   1      -1.043   3.419   0.643  0.00  0.00    -0.002 A 
ATOM      2  C1  UNL d   1      -1.610   2.160   0.780  0.00  0.00     0.010 A 
ATOM      3  C2  UNL d   1      -0.805   1.020   0.837  0.00  0.00     0.041 A 
ATOM      4  C3  UNL d   1       0.594   1.169   0.757  0.00  0.00    -0.075 A 
ATOM      5  S   UNL d   1       1.777  -0.083   0.806  0.00  0.00     0.015 SA
ATOM      6  C4  UNL d   1       3.064   1.023   0.649  0.00  0.00     0.022 A 
ATOM      7  C5  UNL d   1       2.619   2.321   0.559  0.00  0.00     0.026 A 
ATOM      8  C6  UNL d   1       1.188   2.427   0.620  0.00  0.00    -0.082 A 
ATOM      9  C7  UNL d   1       0.345   3.563   0.563  0.00  0.00     0.045 A 
ENDROOT
TORSDOF 0
ENDMDL
