MODEL 1
REMARK minimizedAffinity 8.45212746
REMARK minimizedRMSD -1
REMARK  0 active torsions:
REMARK  status: ('A' for Active; 'I' for Inactive)
ROOT
ATOM      1  C   UNL d   1      -1.624   3.524   0.754  0.00  0.00    -0.002 A 
ATOM      2  C1  UNL d   1      -2.385   2.473   1.246  0.00  0.00     0.010 A 
ATOM      3  C2  UNL d   1      -1.841   1.191   1.351  0.00  0.00     0.041 A 
ATOM      4  C3  UNL d   1      -0.507   0.981   0.950  0.00  0.00    -0.075 A 
ATOM      5  S   UNL d   1       0.369  -0.503   0.988  0.00  0.00     0.015 SA
ATOM      6  C4  UNL d   1       1.773   0.223   0.353  0.00  0.00     0.022 A 
ATOM      7  C5  UNL d   1       1.596   1.565   0.110  0.00  0.00     0.026 A 
ATOM      8  C6  UNL d   1       0.279   2.024   0.451  0.00  0.00    -0.082 A 
ATOM      9  C7  UNL d   1      -0.301   3.312   0.356  0.00  0.00     0.045 A 
ENDROOT
TORSDOF 0
ENDMDL
