MODEL 1
REMARK minimizedAffinity 8.37516975
REMARK minimizedRMSD -1
REMARK  0 active torsions:
REMARK  status: ('A' for Active; 'I' for Inactive)
ROOT
ATOM      1  C   UNL d   1      -0.834   1.992   0.921  0.00  0.00    -0.002 A 
ATOM      2  C1  UNL d   1       0.096   3.007   1.089  0.00  0.00     0.010 A 
ATOM      3  C2  UNL d   1       1.464   2.737   1.014  0.00  0.00     0.041 A 
ATOM      4  C3  UNL d   1       1.885   1.416   0.762  0.00  0.00    -0.075 A 
ATOM      5  S   UNL d   1       3.508   0.851   0.626  0.00  0.00     0.015 SA
ATOM      6  C4  UNL d   1       3.004  -0.752   0.340  0.00  0.00     0.022 A 
ATOM      7  C5  UNL d   1       1.634  -0.871   0.345  0.00  0.00     0.026 A 
ATOM      8  C6  UNL d   1       0.967   0.377   0.587  0.00  0.00    -0.082 A 
ATOM      9  C7  UNL d   1      -0.413   0.683   0.671  0.00  0.00     0.045 A 
ENDROOT
TORSDOF 0
ENDMDL
