MODEL 1
REMARK minimizedAffinity 14.8329124
REMARK minimizedRMSD -1
REMARK  0 active torsions:
REMARK  status: ('A' for Active; 'I' for Inactive)
ROOT
ATOM      1  C   UNL d   1       2.298   2.129   1.002  0.00  0.00    -0.002 A 
ATOM      2  C1  UNL d   1       2.134   3.125   0.049  0.00  0.00     0.010 A 
ATOM      3  C2  UNL d   1       1.806   2.801  -1.269  0.00  0.00     0.041 A 
ATOM      4  C3  UNL d   1       1.643   1.446  -1.616  0.00  0.00    -0.075 A 
ATOM      5  S   UNL d   1       1.241   0.812  -3.169  0.00  0.00     0.015 SA
ATOM      6  C4  UNL d   1       1.276  -0.796  -2.604  0.00  0.00     0.022 A 
ATOM      7  C5  UNL d   1       1.586  -0.866  -1.267  0.00  0.00     0.026 A 
ATOM      8  C6  UNL d   1       1.802   0.425  -0.675  0.00  0.00    -0.082 A 
ATOM      9  C7  UNL d   1       2.135   0.786   0.653  0.00  0.00     0.045 A 
ENDROOT
TORSDOF 0
ENDMDL
