MODEL 1
REMARK minimizedAffinity -5.94815874
REMARK minimizedRMSD -1
REMARK  1 active torsions:
REMARK  status: ('A' for Active; 'I' for Inactive)
REMARK    1  A    between atoms: C1_2  and  C2_3 
ROOT
ATOM      1  C2  UNL d   1       1.178   0.381  -0.665  0.00  0.00    -0.077 A 
ATOM      2  C3  UNL d   1       0.303  -0.353   0.148  0.00  0.00     0.002 A 
ATOM      3  C4  UNL d   1      -1.053  -0.024   0.202  0.00  0.00     0.002 A 
ATOM      4  C5  UNL d   1      -1.546   1.035  -0.557  0.00  0.00    -0.004 A 
ATOM      5  C6  UNL d   1      -0.683   1.772  -1.367  0.00  0.00     0.002 A 
ATOM      6  C7  UNL d   1       0.673   1.446  -1.421  0.00  0.00     0.002 A 
ENDROOT
BRANCH   1   7
ATOM      7  C1  UNL d   1       2.632  -0.002  -0.762  0.00  0.00     0.055 C 
ATOM      8  C   UNL d   1       2.885  -0.917  -1.952  0.00  0.00     0.019 C 
ENDBRANCH   1   7
TORSDOF 1
ENDMDL
