MODEL 1
REMARK minimizedAffinity -5.56727934
REMARK minimizedRMSD -1
REMARK  1 active torsions:
REMARK  status: ('A' for Active; 'I' for Inactive)
REMARK    1  A    between atoms: C1_2  and  C2_3 
ROOT
ATOM      1  C2  UNL d   1       0.425   0.174  -0.965  0.00  0.00    -0.077 A 
ATOM      2  C3  UNL d   1       1.035  -0.986  -0.466  0.00  0.00     0.002 A 
ATOM      3  C4  UNL d   1       2.323  -1.338  -0.874  0.00  0.00     0.002 A 
ATOM      4  C5  UNL d   1       3.013  -0.534  -1.779  0.00  0.00    -0.004 A 
ATOM      5  C6  UNL d   1       2.414   0.620  -2.282  0.00  0.00     0.002 A 
ATOM      6  C7  UNL d   1       1.127   0.973  -1.876  0.00  0.00     0.002 A 
ENDROOT
BRANCH   1   7
ATOM      7  C1  UNL d   1      -0.944   0.581  -0.488  0.00  0.00     0.055 C 
ATOM      8  C   UNL d   1      -0.940   0.901   1.000  0.00  0.00     0.019 C 
ENDBRANCH   1   7
TORSDOF 1
ENDMDL
