MODEL 1
REMARK minimizedAffinity -2.69982505
REMARK minimizedRMSD -1
REMARK  1 active torsions:
REMARK  status: ('A' for Active; 'I' for Inactive)
REMARK    1  A    between atoms: C1_2  and  C2_3 
ROOT
ATOM      1  C2  UNL d   1      -0.342   0.383   0.863  0.00  0.00    -0.077 A 
ATOM      2  C3  UNL d   1      -1.180  -0.484   0.148  0.00  0.00     0.002 A 
ATOM      3  C4  UNL d   1      -0.645  -1.567  -0.552  0.00  0.00     0.002 A 
ATOM      4  C5  UNL d   1       0.730  -1.795  -0.540  0.00  0.00    -0.004 A 
ATOM      5  C6  UNL d   1       1.572  -0.937   0.167  0.00  0.00     0.002 A 
ATOM      6  C7  UNL d   1       1.039   0.146   0.866  0.00  0.00     0.002 A 
ENDROOT
BRANCH   1   7
ATOM      7  C1  UNL d   1      -0.922   1.522   1.660  0.00  0.00     0.055 C 
ATOM      8  C   UNL d   1      -1.901   1.021   2.711  0.00  0.00     0.019 C 
ENDBRANCH   1   7
TORSDOF 1
ENDMDL
