MODEL 1
REMARK minimizedAffinity -4.42961407
REMARK minimizedRMSD -1
REMARK  1 active torsions:
REMARK  status: ('A' for Active; 'I' for Inactive)
REMARK    1  A    between atoms: C1_2  and  C2_3 
ROOT
ATOM      1  C2  UNL d   1      -0.134  -0.095  -0.093  0.00  0.00    -0.077 A 
ATOM      2  C3  UNL d   1       1.030   0.677   0.023  0.00  0.00     0.002 A 
ATOM      3  C4  UNL d   1       2.272   0.139  -0.321  0.00  0.00     0.002 A 
ATOM      4  C5  UNL d   1       2.360  -1.171  -0.787  0.00  0.00    -0.004 A 
ATOM      5  C6  UNL d   1       1.208  -1.947  -0.904  0.00  0.00     0.002 A 
ATOM      6  C7  UNL d   1      -0.034  -1.411  -0.559  0.00  0.00     0.002 A 
ENDROOT
BRANCH   1   7
ATOM      7  C1  UNL d   1      -1.480   0.500   0.231  0.00  0.00     0.055 C 
ATOM      8  C   UNL d   1      -1.649   0.703   1.730  0.00  0.00     0.019 C 
ENDBRANCH   1   7
TORSDOF 1
ENDMDL
