MODEL 1
REMARK minimizedAffinity -1.38006234
REMARK minimizedRMSD -1
REMARK  1 active torsions:
REMARK  status: ('A' for Active; 'I' for Inactive)
REMARK    1  A    between atoms: C1_2  and  C2_3 
ROOT
ATOM      1  C2  UNL d   1       0.063   0.147   0.085  0.00  0.00    -0.077 A 
ATOM      2  C3  UNL d   1       1.345   0.705  -0.019  0.00  0.00     0.002 A 
ATOM      3  C4  UNL d   1       2.332   0.071  -0.775  0.00  0.00     0.002 A 
ATOM      4  C5  UNL d   1       2.047  -1.122  -1.436  0.00  0.00    -0.004 A 
ATOM      5  C6  UNL d   1       0.776  -1.686  -1.338  0.00  0.00     0.002 A 
ATOM      6  C7  UNL d   1      -0.212  -1.054  -0.581  0.00  0.00     0.002 A 
ENDROOT
BRANCH   1   7
ATOM      7  C1  UNL d   1      -1.018   0.855   0.859  0.00  0.00     0.055 C 
ATOM      8  C   UNL d   1      -1.861  -0.128   1.659  0.00  0.00     0.019 C 
ENDBRANCH   1   7
TORSDOF 1
ENDMDL
