MODEL 1
REMARK minimizedAffinity -3.21796346
REMARK minimizedRMSD -1
REMARK  1 active torsions:
REMARK  status: ('A' for Active; 'I' for Inactive)
REMARK    1  A    between atoms: C1_2  and  C2_3 
ROOT
ATOM      1  C2  UNL d   1       1.039  -0.111  -0.116  0.00  0.00    -0.077 A 
ATOM      2  C3  UNL d   1       1.084  -0.965  -1.227  0.00  0.00     0.002 A 
ATOM      3  C4  UNL d   1       2.307  -1.295  -1.815  0.00  0.00     0.002 A 
ATOM      4  C5  UNL d   1       3.493  -0.778  -1.298  0.00  0.00    -0.004 A 
ATOM      5  C6  UNL d   1       3.458   0.074  -0.195  0.00  0.00     0.002 A 
ATOM      6  C7  UNL d   1       2.237   0.406   0.394  0.00  0.00     0.002 A 
ENDROOT
BRANCH   1   7
ATOM      7  C1  UNL d   1      -0.274   0.206   0.550  0.00  0.00     0.055 C 
ATOM      8  C   UNL d   1      -1.357   0.508  -0.476  0.00  0.00     0.019 C 
ENDBRANCH   1   7
TORSDOF 1
ENDMDL
