MODEL 1
REMARK minimizedAffinity -5.23555326
REMARK minimizedRMSD -1
REMARK  1 active torsions:
REMARK  status: ('A' for Active; 'I' for Inactive)
REMARK    1  A    between atoms: C1_2  and  C2_3 
ROOT
ATOM      1  C2  UNL d   1       1.299   0.129  -0.703  0.00  0.00    -0.077 A 
ATOM      2  C3  UNL d   1       0.958   1.323  -1.355  0.00  0.00     0.002 A 
ATOM      3  C4  UNL d   1      -0.309   1.883  -1.187  0.00  0.00     0.002 A 
ATOM      4  C5  UNL d   1      -1.245   1.259  -0.364  0.00  0.00    -0.004 A 
ATOM      5  C6  UNL d   1      -0.917   0.071   0.288  0.00  0.00     0.002 A 
ATOM      6  C7  UNL d   1       0.350  -0.491   0.120  0.00  0.00     0.002 A 
ENDROOT
BRANCH   1   7
ATOM      7  C1  UNL d   1       2.682  -0.451  -0.844  0.00  0.00     0.055 C 
ATOM      8  C   UNL d   1       2.799  -1.304  -2.099  0.00  0.00     0.019 C 
ENDBRANCH   1   7
TORSDOF 1
ENDMDL
