MODEL 1
REMARK minimizedAffinity -5.35129404
REMARK minimizedRMSD -1
REMARK  1 active torsions:
REMARK  status: ('A' for Active; 'I' for Inactive)
REMARK    1  A    between atoms: C1_2  and  C2_3 
ROOT
ATOM      1  C2  UNL d   1       0.290  -0.536  -0.434  0.00  0.00    -0.077 A 
ATOM      2  C3  UNL d   1       1.114   0.582  -0.243  0.00  0.00     0.002 A 
ATOM      3  C4  UNL d   1       2.344   0.673  -0.897  0.00  0.00     0.002 A 
ATOM      4  C5  UNL d   1       2.759  -0.348  -1.748  0.00  0.00    -0.004 A 
ATOM      5  C6  UNL d   1       1.948  -1.466  -1.943  0.00  0.00     0.002 A 
ATOM      6  C7  UNL d   1       0.719  -1.559  -1.289  0.00  0.00     0.002 A 
ENDROOT
BRANCH   1   7
ATOM      7  C1  UNL d   1      -1.059  -0.614   0.232  0.00  0.00     0.055 C 
ATOM      8  C   UNL d   1      -1.316   0.606   1.106  0.00  0.00     0.019 C 
ENDBRANCH   1   7
TORSDOF 1
ENDMDL
