MODEL 1
REMARK minimizedAffinity -4.22141552
REMARK minimizedRMSD -1
REMARK  1 active torsions:
REMARK  status: ('A' for Active; 'I' for Inactive)
REMARK    1  A    between atoms: C1_2  and  C2_3 
ROOT
ATOM      1  C2  UNL d   1       0.334  -0.244  -0.238  0.00  0.00    -0.077 A 
ATOM      2  C3  UNL d   1       1.084   0.832  -0.734  0.00  0.00     0.002 A 
ATOM      3  C4  UNL d   1       2.237   0.602  -1.486  0.00  0.00     0.002 A 
ATOM      4  C5  UNL d   1       2.648  -0.702  -1.754  0.00  0.00    -0.004 A 
ATOM      5  C6  UNL d   1       1.911  -1.779  -1.264  0.00  0.00     0.002 A 
ATOM      6  C7  UNL d   1       0.758  -1.551  -0.510  0.00  0.00     0.002 A 
ENDROOT
BRANCH   1   7
ATOM      7  C1  UNL d   1      -0.937   0.001   0.532  0.00  0.00     0.055 C 
ATOM      8  C   UNL d   1      -0.764   1.125   1.543  0.00  0.00     0.019 C 
ENDBRANCH   1   7
TORSDOF 1
ENDMDL
