MODEL 1
REMARK minimizedAffinity -5.25553513
REMARK minimizedRMSD -1
REMARK  1 active torsions:
REMARK  status: ('A' for Active; 'I' for Inactive)
REMARK    1  A    between atoms: C1_2  and  C2_3 
ROOT
ATOM      1  C2  UNL d   1       0.380  -0.731   0.331  0.00  0.00    -0.077 A 
ATOM      2  C3  UNL d   1       0.323  -1.891  -0.453  0.00  0.00     0.002 A 
ATOM      3  C4  UNL d   1       1.234  -2.087  -1.493  0.00  0.00     0.002 A 
ATOM      4  C5  UNL d   1       2.211  -1.128  -1.755  0.00  0.00    -0.004 A 
ATOM      5  C6  UNL d   1       2.274   0.031  -0.982  0.00  0.00     0.002 A 
ATOM      6  C7  UNL d   1       1.363   0.228   0.057  0.00  0.00     0.002 A 
ENDROOT
BRANCH   1   7
ATOM      7  C1  UNL d   1      -0.571  -0.541   1.484  0.00  0.00     0.055 C 
ATOM      8  C   UNL d   1      -1.251   0.819   1.423  0.00  0.00     0.019 C 
ENDBRANCH   1   7
TORSDOF 1
ENDMDL
