MODEL 1
REMARK minimizedAffinity -0.119377822
REMARK minimizedRMSD -1
REMARK  1 active torsions:
REMARK  status: ('A' for Active; 'I' for Inactive)
REMARK    1  A    between atoms: C1_2  and  C2_3 
ROOT
ATOM      1  C2  UNL d   1       1.323   0.385  -0.559  0.00  0.00    -0.077 A 
ATOM      2  C3  UNL d   1       0.423  -0.464   0.099  0.00  0.00     0.002 A 
ATOM      3  C4  UNL d   1      -0.949  -0.207   0.058  0.00  0.00     0.002 A 
ATOM      4  C5  UNL d   1      -1.432   0.896  -0.642  0.00  0.00    -0.004 A 
ATOM      5  C6  UNL d   1      -0.545   1.748  -1.298  0.00  0.00     0.002 A 
ATOM      6  C7  UNL d   1       0.827   1.494  -1.257  0.00  0.00     0.002 A 
ENDROOT
BRANCH   1   7
ATOM      7  C1  UNL d   1       2.799   0.083  -0.558  0.00  0.00     0.055 C 
ATOM      8  C   UNL d   1       3.151  -0.959  -1.609  0.00  0.00     0.019 C 
ENDBRANCH   1   7
TORSDOF 1
ENDMDL
