MODEL 1
REMARK minimizedAffinity -4.33571863
REMARK minimizedRMSD -1
REMARK  1 active torsions:
REMARK  status: ('A' for Active; 'I' for Inactive)
REMARK    1  A    between atoms: C1_2  and  C2_3 
ROOT
ATOM      1  C2  UNL d   1       1.875   0.541  -1.394  0.00  0.00    -0.077 A 
ATOM      2  C3  UNL d   1       2.232  -0.762  -1.766  0.00  0.00     0.002 A 
ATOM      3  C4  UNL d   1       1.474  -1.852  -1.335  0.00  0.00     0.002 A 
ATOM      4  C5  UNL d   1       0.353  -1.650  -0.533  0.00  0.00    -0.004 A 
ATOM      5  C6  UNL d   1      -0.009  -0.357  -0.157  0.00  0.00     0.002 A 
ATOM      6  C7  UNL d   1       0.748   0.733  -0.586  0.00  0.00     0.002 A 
ENDROOT
BRANCH   1   7
ATOM      7  C1  UNL d   1       2.663   1.722  -1.899  0.00  0.00     0.055 C 
ATOM      8  C   UNL d   1       1.937   3.031  -1.621  0.00  0.00     0.019 C 
ENDBRANCH   1   7
TORSDOF 1
ENDMDL
