MODEL 1
REMARK minimizedAffinity -6.25527954
REMARK minimizedRMSD -1
REMARK  0 active torsions:
REMARK  status: ('A' for Active; 'I' for Inactive)
ROOT
ATOM      1  C   UNL d   1      -1.541   3.541   0.027  0.00  0.00    -0.002 A 
ATOM      2  C1  UNL d   1      -1.188   2.947  -1.176  0.00  0.00     0.010 A 
ATOM      3  C2  UNL d   1      -0.568   1.696  -1.195  0.00  0.00     0.041 A 
ATOM      4  C3  UNL d   1      -0.307   1.045   0.027  0.00  0.00    -0.075 A 
ATOM      5  S   UNL d   1       0.443  -0.492   0.247  0.00  0.00     0.015 SA
ATOM      6  C4  UNL d   1       0.311  -0.396   1.943  0.00  0.00     0.022 A 
ATOM      7  C5  UNL d   1      -0.287   0.773   2.349  0.00  0.00     0.026 A 
ATOM      8  C6  UNL d   1      -0.654   1.623   1.251  0.00  0.00    -0.082 A 
ATOM      9  C7  UNL d   1      -1.281   2.892   1.238  0.00  0.00     0.045 A 
ENDROOT
TORSDOF 0
ENDMDL
