MODEL 1
REMARK minimizedAffinity -4.4932847
REMARK minimizedRMSD -1
REMARK  0 active torsions:
REMARK  status: ('A' for Active; 'I' for Inactive)
ROOT
ATOM      1  C   UNL d   1      -1.196   3.354   0.137  0.00  0.00    -0.002 A 
ATOM      2  C1  UNL d   1      -1.053   2.902  -1.167  0.00  0.00     0.010 A 
ATOM      3  C2  UNL d   1      -0.605   1.605  -1.425  0.00  0.00     0.041 A 
ATOM      4  C3  UNL d   1      -0.303   0.760  -0.338  0.00  0.00    -0.075 A 
ATOM      5  S   UNL d   1       0.260  -0.868  -0.413  0.00  0.00     0.015 SA
ATOM      6  C4  UNL d   1       0.322  -1.003   1.285  0.00  0.00     0.022 A 
ATOM      7  C5  UNL d   1      -0.073   0.157   1.909  0.00  0.00     0.026 A 
ATOM      8  C6  UNL d   1      -0.440   1.192   0.984  0.00  0.00    -0.082 A 
ATOM      9  C7  UNL d   1      -0.896   2.513   1.212  0.00  0.00     0.045 A 
ENDROOT
TORSDOF 0
ENDMDL
