MODEL 1
REMARK minimizedAffinity -0.202662364
REMARK minimizedRMSD -1
REMARK  0 active torsions:
REMARK  status: ('A' for Active; 'I' for Inactive)
ROOT
ATOM      1  C   UNL d   1       0.462   0.777   1.845  0.00  0.00    -0.002 A 
ATOM      2  C1  UNL d   1       0.284   0.426   0.514  0.00  0.00     0.010 A 
ATOM      3  C2  UNL d   1       0.174   1.410  -0.471  0.00  0.00     0.041 A 
ATOM      4  C3  UNL d   1       0.249   2.765  -0.092  0.00  0.00    -0.075 A 
ATOM      5  S   UNL d   1       0.141   4.140  -1.126  0.00  0.00     0.015 SA
ATOM      6  C4  UNL d   1       0.329   5.225   0.175  0.00  0.00     0.022 A 
ATOM      7  C5  UNL d   1       0.472   4.572   1.375  0.00  0.00     0.026 A 
ATOM      8  C6  UNL d   1       0.428   3.142   1.242  0.00  0.00    -0.082 A 
ATOM      9  C7  UNL d   1       0.535   2.122   2.217  0.00  0.00     0.045 A 
ENDROOT
TORSDOF 0
ENDMDL
