MODEL 1
REMARK minimizedAffinity 1.91189158
REMARK minimizedRMSD -1
REMARK  0 active torsions:
REMARK  status: ('A' for Active; 'I' for Inactive)
ROOT
ATOM      1  C   UNL d   1      -1.013   3.036  -0.837  0.00  0.00    -0.002 A 
ATOM      2  C1  UNL d   1      -0.015   3.910  -0.431  0.00  0.00     0.010 A 
ATOM      3  C2  UNL d   1       0.736   3.647   0.716  0.00  0.00     0.041 A 
ATOM      4  C3  UNL d   1       0.465   2.478   1.455  0.00  0.00    -0.075 A 
ATOM      5  S   UNL d   1       1.257   1.950   2.892  0.00  0.00     0.015 SA
ATOM      6  C4  UNL d   1       0.290   0.551   3.000  0.00  0.00     0.022 A 
ATOM      7  C5  UNL d   1      -0.621   0.473   1.973  0.00  0.00     0.026 A 
ATOM      8  C6  UNL d   1      -0.534   1.582   1.065  0.00  0.00    -0.082 A 
ATOM      9  C7  UNL d   1      -1.279   1.877  -0.102  0.00  0.00     0.045 A 
ENDROOT
TORSDOF 0
ENDMDL
