MODEL 1
REMARK minimizedAffinity 7.83925438
REMARK minimizedRMSD -1
REMARK  0 active torsions:
REMARK  status: ('A' for Active; 'I' for Inactive)
ROOT
ATOM      1  C   UNL d   1       0.125   3.817   1.921  0.00  0.00    -0.002 A 
ATOM      2  C1  UNL d   1       0.156   3.779   0.534  0.00  0.00     0.010 A 
ATOM      3  C2  UNL d   1       0.271   2.562  -0.141  0.00  0.00     0.041 A 
ATOM      4  C3  UNL d   1       0.355   1.372   0.609  0.00  0.00    -0.075 A 
ATOM      5  S   UNL d   1       0.500  -0.234  -0.002  0.00  0.00     0.015 SA
ATOM      6  C4  UNL d   1       0.525  -0.907   1.564  0.00  0.00     0.022 A 
ATOM      7  C5  UNL d   1       0.426   0.056   2.540  0.00  0.00     0.026 A 
ATOM      8  C6  UNL d   1       0.325   1.385   2.006  0.00  0.00    -0.082 A 
ATOM      9  C7  UNL d   1       0.209   2.635   2.661  0.00  0.00     0.045 A 
ENDROOT
TORSDOF 0
ENDMDL
