MODEL 1
REMARK minimizedAffinity 9.79213428
REMARK minimizedRMSD -1
REMARK  2 active torsions:
REMARK  status: ('A' for Active; 'I' for Inactive)
REMARK    1  A    between atoms: C2'_3  and  C1'_4 
REMARK    2  A    between atoms: C1'_4  and  C1_5 
ROOT
ATOM      1  C1  I4B d   1      -1.325  -0.812   0.672  0.00  0.00    -0.075 A 
ATOM      2  C2  I4B d   1      -0.559  -0.405   1.735  0.00  0.00     0.003 A 
ATOM      3  C3  I4B d   1       0.773   0.030   1.529  0.00  0.00     0.002 A 
ATOM      4  C4  I4B d   1       1.311  -0.007   0.259  0.00  0.00    -0.004 A 
ATOM      5  C5  I4B d   1       0.525  -0.398  -0.821  0.00  0.00     0.002 A 
ATOM      6  C6  I4B d   1      -0.805  -0.791  -0.616  0.00  0.00     0.003 A 
ENDROOT
BRANCH   1   7
ATOM      7  C1' I4B d   1      -2.717  -1.295   0.930  0.00  0.00     0.060 C 
BRANCH   7   8
ATOM      8  C2' I4B d   1      -3.661  -0.126   0.736  0.00  0.00    -0.013 C 
ATOM      9  C4' I4B d   1      -4.864  -0.526  -0.078  0.00  0.00     0.013 C 
ATOM     10  C3' I4B d   1      -4.066   0.372   2.091  0.00  0.00     0.013 C 
ENDBRANCH   7   8
ENDBRANCH   1   7
TORSDOF 2
ENDMDL
