MODEL 1
REMARK minimizedAffinity 6.26063061
REMARK minimizedRMSD -1
REMARK  2 active torsions:
REMARK  status: ('A' for Active; 'I' for Inactive)
REMARK    1  A    between atoms: C2'_3  and  C1'_4 
REMARK    2  A    between atoms: C1'_4  and  C1_5 
ROOT
ATOM      1  C1  I4B d   1       1.507  -2.159  -1.020  0.00  0.00    -0.075 A 
ATOM      2  C2  I4B d   1       1.452  -0.906  -0.463  0.00  0.00     0.003 A 
ATOM      3  C3  I4B d   1       0.240  -0.174  -0.474  0.00  0.00     0.002 A 
ATOM      4  C4  I4B d   1      -0.872  -0.709  -1.091  0.00  0.00    -0.004 A 
ATOM      5  C5  I4B d   1      -0.821  -1.989  -1.635  0.00  0.00     0.002 A 
ATOM      6  C6  I4B d   1       0.373  -2.724  -1.588  0.00  0.00     0.003 A 
ENDROOT
BRANCH   1   7
ATOM      7  C1' I4B d   1       2.812  -2.891  -1.021  0.00  0.00     0.060 C 
BRANCH   7   8
ATOM      8  C2' I4B d   1       3.453  -2.700  -2.381  0.00  0.00    -0.013 C 
ATOM      9  C4' I4B d   1       4.549  -1.669  -2.326  0.00  0.00     0.013 C 
ATOM     10  C3' I4B d   1       3.981  -4.028  -2.834  0.00  0.00     0.013 C 
ENDBRANCH   7   8
ENDBRANCH   1   7
TORSDOF 2
ENDMDL
