MODEL 1
REMARK minimizedAffinity 21.0112324
REMARK minimizedRMSD -1
REMARK  2 active torsions:
REMARK  status: ('A' for Active; 'I' for Inactive)
REMARK    1  A    between atoms: C2'_3  and  C1'_4 
REMARK    2  A    between atoms: C1'_4  and  C1_5 
ROOT
ATOM      1  C1  I4B d   1      -4.741   0.310  -2.137  0.00  0.00    -0.075 A 
ATOM      2  C2  I4B d   1      -5.384  -0.575  -2.966  0.00  0.00     0.003 A 
ATOM      3  C3  I4B d   1      -6.000  -0.118  -4.156  0.00  0.00     0.002 A 
ATOM      4  C4  I4B d   1      -5.993   1.230  -4.450  0.00  0.00    -0.004 A 
ATOM      5  C5  I4B d   1      -5.321   2.123  -3.620  0.00  0.00     0.002 A 
ATOM      6  C6  I4B d   1      -4.681   1.659  -2.462  0.00  0.00     0.003 A 
ENDROOT
BRANCH   1   7
ATOM      7  C1' I4B d   1      -4.129  -0.202  -0.871  0.00  0.00     0.060 C 
BRANCH   7   8
ATOM      8  C2' I4B d   1      -5.236  -0.364   0.150  0.00  0.00    -0.013 C 
ATOM      9  C4' I4B d   1      -5.529  -1.819   0.409  0.00  0.00     0.013 C 
ATOM     10  C3' I4B d   1      -4.813   0.335   1.407  0.00  0.00     0.013 C 
ENDBRANCH   7   8
ENDBRANCH   1   7
TORSDOF 2
ENDMDL
