MODEL 1
REMARK minimizedAffinity 19.9061871
REMARK minimizedRMSD -1
REMARK  2 active torsions:
REMARK  status: ('A' for Active; 'I' for Inactive)
REMARK    1  A    between atoms: C2'_3  and  C1'_4 
REMARK    2  A    between atoms: C1'_4  and  C1_5 
ROOT
ATOM      1  C1  I4B d   1      -0.505  -3.161  -3.018  0.00  0.00    -0.075 A 
ATOM      2  C2  I4B d   1      -1.145  -3.947  -2.092  0.00  0.00     0.003 A 
ATOM      3  C3  I4B d   1      -0.803  -3.855  -0.721  0.00  0.00     0.002 A 
ATOM      4  C4  I4B d   1       0.212  -3.006  -0.329  0.00  0.00    -0.004 A 
ATOM      5  C5  I4B d   1       0.843  -2.193  -1.267  0.00  0.00     0.002 A 
ATOM      6  C6  I4B d   1       0.474  -2.262  -2.618  0.00  0.00     0.003 A 
ENDROOT
BRANCH   1   7
ATOM      7  C1' I4B d   1      -0.868  -3.309  -4.462  0.00  0.00     0.060 C 
BRANCH   7   8
ATOM      8  C2' I4B d   1      -2.008  -4.303  -4.558  0.00  0.00    -0.013 C 
ATOM      9  C4' I4B d   1      -3.139  -3.756  -5.388  0.00  0.00     0.013 C 
ATOM     10  C3' I4B d   1      -1.467  -5.571  -5.147  0.00  0.00     0.013 C 
ENDBRANCH   7   8
ENDBRANCH   1   7
TORSDOF 2
ENDMDL
