MODEL 1
REMARK minimizedAffinity 14.6686411
REMARK minimizedRMSD -1
REMARK  2 active torsions:
REMARK  status: ('A' for Active; 'I' for Inactive)
REMARK    1  A    between atoms: C2'_3  and  C1'_4 
REMARK    2  A    between atoms: C1'_4  and  C1_5 
ROOT
ATOM      1  C1  I4B d   1       1.070  -1.935  -0.738  0.00  0.00    -0.075 A 
ATOM      2  C2  I4B d   1       1.336  -0.667  -0.283  0.00  0.00     0.003 A 
ATOM      3  C3  I4B d   1       0.279   0.255  -0.085  0.00  0.00     0.002 A 
ATOM      4  C4  I4B d   1      -1.012  -0.113  -0.400  0.00  0.00    -0.004 A 
ATOM      5  C5  I4B d   1      -1.283  -1.406  -0.839  0.00  0.00     0.002 A 
ATOM      6  C6  I4B d   1      -0.237  -2.327  -0.998  0.00  0.00     0.003 A 
ENDROOT
BRANCH   1   7
ATOM      7  C1' I4B d   1       2.213  -2.872  -0.967  0.00  0.00     0.060 C 
BRANCH   7   8
ATOM      8  C2' I4B d   1       2.755  -2.616  -2.358  0.00  0.00    -0.013 C 
ATOM      9  C4' I4B d   1       3.928  -1.673  -2.321  0.00  0.00     0.013 C 
ATOM     10  C3' I4B d   1       3.141  -3.936  -2.955  0.00  0.00     0.013 C 
ENDBRANCH   7   8
ENDBRANCH   1   7
TORSDOF 2
ENDMDL
