MODEL 1
REMARK minimizedAffinity 3.12085509
REMARK minimizedRMSD -1
REMARK  0 active torsions:
REMARK  status: ('A' for Active; 'I' for Inactive)
ROOT
ATOM      1  N1  IND d   1      -4.348   0.879   1.238  0.00  0.00    -0.196 N 
ATOM      2  C2  IND d   1      -4.224   0.492  -0.067  0.00  0.00     0.054 A 
ATOM      3  C3  IND d   1      -3.452   1.370  -0.746  0.00  0.00    -0.031 A 
ATOM      4  C4  IND d   1      -2.205   3.454   0.108  0.00  0.00     0.051 A 
ATOM      5  C5  IND d   1      -2.043   4.232   1.220  0.00  0.00    -0.031 A 
ATOM      6  C6  IND d   1      -2.651   3.925   2.419  0.00  0.00     0.015 A 
ATOM      7  C7  IND d   1      -3.439   2.816   2.556  0.00  0.00    -0.016 A 
ATOM      8  C8  IND d   1      -3.611   2.028   1.427  0.00  0.00    -0.047 A 
ATOM      9  C9  IND d   1      -3.031   2.358   0.195  0.00  0.00    -0.096 A 
ATOM     10  HN1 IND d   1      -4.809   0.473   1.840  0.00  0.00     0.298 HD
ENDROOT
TORSDOF 0
ENDMDL
