MODEL 1
REMARK minimizedAffinity 1.09084749
REMARK minimizedRMSD -1
REMARK  0 active torsions:
REMARK  status: ('A' for Active; 'I' for Inactive)
ROOT
ATOM      1  N1  IND d   1       2.859  -0.314  -2.925  0.00  0.00    -0.196 N 
ATOM      2  C2  IND d   1       4.048   0.276  -3.251  0.00  0.00     0.054 A 
ATOM      3  C3  IND d   1       4.569   0.910  -2.177  0.00  0.00    -0.031 A 
ATOM      4  C4  IND d   1       3.690   1.023   0.240  0.00  0.00     0.051 A 
ATOM      5  C5  IND d   1       2.622   0.669   1.016  0.00  0.00    -0.031 A 
ATOM      6  C6  IND d   1       1.558  -0.048   0.508  0.00  0.00     0.015 A 
ATOM      7  C7  IND d   1       1.528  -0.448  -0.798  0.00  0.00    -0.016 A 
ATOM      8  C8  IND d   1       2.607  -0.084  -1.590  0.00  0.00    -0.047 A 
ATOM      9  C9  IND d   1       3.670   0.679  -1.091  0.00  0.00    -0.096 A 
ATOM     10  HN1 IND d   1       2.353  -0.753  -3.463  0.00  0.00     0.298 HD
ENDROOT
TORSDOF 0
ENDMDL
