MODEL 1
REMARK minimizedAffinity 10.6547117
REMARK minimizedRMSD -1
REMARK  0 active torsions:
REMARK  status: ('A' for Active; 'I' for Inactive)
ROOT
ATOM      1  N1  IND d   1       1.989  -0.341  -1.820  0.00  0.00    -0.196 N 
ATOM      2  C2  IND d   1       2.962   0.151  -2.645  0.00  0.00     0.054 A 
ATOM      3  C3  IND d   1       3.914   0.783  -1.923  0.00  0.00    -0.031 A 
ATOM      4  C4  IND d   1       4.130   1.042   0.629  0.00  0.00     0.051 A 
ATOM      5  C5  IND d   1       3.467   0.792   1.797  0.00  0.00    -0.031 A 
ATOM      6  C6  IND d   1       2.253   0.135   1.820  0.00  0.00     0.015 A 
ATOM      7  C7  IND d   1       1.661  -0.307   0.671  0.00  0.00    -0.016 A 
ATOM      8  C8  IND d   1       2.329  -0.049  -0.518  0.00  0.00    -0.047 A 
ATOM      9  C9  IND d   1       3.540   0.655  -0.551  0.00  0.00    -0.096 A 
ATOM     10  HN1 IND d   1       1.283  -0.763  -2.073  0.00  0.00     0.298 HD
ENDROOT
TORSDOF 0
ENDMDL
