MODEL 1
REMARK minimizedAffinity 3.89684987
REMARK minimizedRMSD -1
REMARK  0 active torsions:
REMARK  status: ('A' for Active; 'I' for Inactive)
ROOT
ATOM      1  N1  IND d   1      -1.287   3.711   0.026  0.00  0.00    -0.196 N 
ATOM      2  C2  IND d   1      -0.397   4.374   0.824  0.00  0.00     0.054 A 
ATOM      3  C3  IND d   1       0.744   3.660   0.950  0.00  0.00    -0.031 A 
ATOM      4  C4  IND d   1       1.407   1.428  -0.149  0.00  0.00     0.051 A 
ATOM      5  C5  IND d   1       0.911   0.424  -0.931  0.00  0.00    -0.031 A 
ATOM      6  C6  IND d   1      -0.368   0.465  -1.447  0.00  0.00     0.015 A 
ATOM      7  C7  IND d   1      -1.198   1.523  -1.208  0.00  0.00    -0.016 A 
ATOM      8  C8  IND d   1      -0.700   2.542  -0.408  0.00  0.00    -0.047 A 
ATOM      9  C9  IND d   1       0.582   2.486   0.153  0.00  0.00    -0.096 A 
ATOM     10  HN1 IND d   1      -2.080   3.978  -0.172  0.00  0.00     0.298 HD
ENDROOT
TORSDOF 0
ENDMDL
