MODEL 1
REMARK minimizedAffinity -0.949383616
REMARK minimizedRMSD -1
REMARK  0 active torsions:
REMARK  status: ('A' for Active; 'I' for Inactive)
ROOT
ATOM      1  N1  IND d   1       3.818  -0.735  -4.100  0.00  0.00    -0.196 N 
ATOM      2  C2  IND d   1       4.950  -0.762  -4.867  0.00  0.00     0.054 A 
ATOM      3  C3  IND d   1       5.956  -0.107  -4.244  0.00  0.00    -0.031 A 
ATOM      4  C4  IND d   1       5.997   0.997  -1.919  0.00  0.00     0.051 A 
ATOM      5  C5  IND d   1       5.191   1.309  -0.860  0.00  0.00    -0.031 A 
ATOM      6  C6  IND d   1       3.860   0.946  -0.826  0.00  0.00     0.015 A 
ATOM      7  C7  IND d   1       3.286   0.244  -1.848  0.00  0.00    -0.016 A 
ATOM      8  C8  IND d   1       4.099  -0.068  -2.927  0.00  0.00    -0.047 A 
ATOM      9  C9  IND d   1       5.440   0.334  -2.988  0.00  0.00    -0.096 A 
ATOM     10  HN1 IND d   1       3.059  -1.077  -4.314  0.00  0.00     0.298 HD
ENDROOT
TORSDOF 0
ENDMDL
