MODEL 1
REMARK minimizedAffinity 9.46910191
REMARK minimizedRMSD -1
REMARK  0 active torsions:
REMARK  status: ('A' for Active; 'I' for Inactive)
ROOT
ATOM      1  N1  IND d   1       2.056   1.823   0.957  0.00  0.00    -0.196 N 
ATOM      2  C2  IND d   1       2.947   0.806   1.160  0.00  0.00     0.054 A 
ATOM      3  C3  IND d   1       2.632  -0.257   0.386  0.00  0.00    -0.031 A 
ATOM      4  C4  IND d   1       0.761  -0.509  -1.364  0.00  0.00     0.051 A 
ATOM      5  C5  IND d   1      -0.328   0.138  -1.877  0.00  0.00    -0.031 A 
ATOM      6  C6  IND d   1      -0.683   1.407  -1.466  0.00  0.00     0.015 A 
ATOM      7  C7  IND d   1       0.047   2.083  -0.530  0.00  0.00    -0.016 A 
ATOM      8  C8  IND d   1       1.149   1.426  -0.001  0.00  0.00    -0.047 A 
ATOM      9  C9  IND d   1       1.490   0.122  -0.384  0.00  0.00    -0.096 A 
ATOM     10  HN1 IND d   1       2.062   2.582   1.359  0.00  0.00     0.298 HD
ENDROOT
TORSDOF 0
ENDMDL
