MODEL 1
REMARK minimizedAffinity 14.0981798
REMARK minimizedRMSD -1
REMARK  0 active torsions:
REMARK  status: ('A' for Active; 'I' for Inactive)
ROOT
ATOM      1  N1  IND d   1       5.672   2.346  -1.066  0.00  0.00    -0.196 N 
ATOM      2  C2  IND d   1       5.636   2.586  -2.411  0.00  0.00     0.054 A 
ATOM      3  C3  IND d   1       4.577   1.961  -2.973  0.00  0.00    -0.031 A 
ATOM      4  C4  IND d   1       2.716   0.574  -1.859  0.00  0.00     0.051 A 
ATOM      5  C5  IND d   1       2.339   0.048  -0.655  0.00  0.00    -0.031 A 
ATOM      6  C6  IND d   1       3.067   0.267   0.496  0.00  0.00     0.015 A 
ATOM      7  C7  IND d   1       4.198   1.033   0.490  0.00  0.00    -0.016 A 
ATOM      8  C8  IND d   1       4.587   1.564  -0.732  0.00  0.00    -0.047 A 
ATOM      9  C9  IND d   1       3.877   1.310  -1.912  0.00  0.00    -0.096 A 
ATOM     10  HN1 IND d   1       6.270   2.634  -0.520  0.00  0.00     0.298 HD
ENDROOT
TORSDOF 0
ENDMDL
