MODEL 1
REMARK minimizedAffinity 11.2395878
REMARK minimizedRMSD -1
REMARK  0 active torsions:
REMARK  status: ('A' for Active; 'I' for Inactive)
ROOT
ATOM      1  N1  IND d   1       2.708   0.400  -2.184  0.00  0.00    -0.196 N 
ATOM      2  C2  IND d   1       2.302  -0.008  -0.944  0.00  0.00     0.054 A 
ATOM      3  C3  IND d   1       3.151   0.450   0.003  0.00  0.00    -0.031 A 
ATOM      4  C4  IND d   1       5.212   1.971  -0.245  0.00  0.00     0.051 A 
ATOM      5  C5  IND d   1       6.000   2.573  -1.186  0.00  0.00    -0.031 A 
ATOM      6  C6  IND d   1       5.723   2.482  -2.535  0.00  0.00     0.015 A 
ATOM      7  C7  IND d   1       4.637   1.792  -2.994  0.00  0.00    -0.016 A 
ATOM      8  C8  IND d   1       3.839   1.173  -2.042  0.00  0.00    -0.047 A 
ATOM      9  C9  IND d   1       4.139   1.227  -0.674  0.00  0.00    -0.096 A 
ATOM     10  HN1 IND d   1       2.322   0.207  -2.927  0.00  0.00     0.298 HD
ENDROOT
TORSDOF 0
ENDMDL
