MODEL 1
REMARK minimizedAffinity -2.74334145
REMARK minimizedRMSD -1
REMARK  1 active torsions:
REMARK  status: ('A' for Active; 'I' for Inactive)
REMARK    1  A    between atoms: C1_2  and  C2_3 
ROOT
ATOM      1  C2  UNL d   1      -0.681   1.154  -1.409  0.00  0.00    -0.077 A 
ATOM      2  C3  UNL d   1       0.397   1.791  -2.039  0.00  0.00     0.002 A 
ATOM      3  C4  UNL d   1       0.204   2.988  -2.730  0.00  0.00     0.002 A 
ATOM      4  C5  UNL d   1      -1.064   3.561  -2.795  0.00  0.00    -0.004 A 
ATOM      5  C6  UNL d   1      -2.144   2.934  -2.174  0.00  0.00     0.002 A 
ATOM      6  C7  UNL d   1      -1.953   1.736  -1.483  0.00  0.00     0.002 A 
ENDROOT
BRANCH   1   7
ATOM      7  C1  UNL d   1      -0.466  -0.112  -0.621  0.00  0.00     0.055 C 
ATOM      8  C   UNL d   1      -0.783   0.094   0.854  0.00  0.00     0.019 C 
ENDBRANCH   1   7
TORSDOF 1
ENDMDL
