MODEL 1
REMARK minimizedAffinity -2.11951184
REMARK minimizedRMSD -1
REMARK  1 active torsions:
REMARK  status: ('A' for Active; 'I' for Inactive)
REMARK    1  A    between atoms: C1_2  and  C2_3 
ROOT
ATOM      1  C2  UNL d   1      -0.097   1.652  -1.112  0.00  0.00    -0.077 A 
ATOM      2  C3  UNL d   1      -1.008   0.741  -1.665  0.00  0.00     0.002 A 
ATOM      3  C4  UNL d   1      -1.553  -0.277  -0.880  0.00  0.00     0.002 A 
ATOM      4  C5  UNL d   1      -1.196  -0.392   0.461  0.00  0.00    -0.004 A 
ATOM      5  C6  UNL d   1      -0.289   0.507   1.020  0.00  0.00     0.002 A 
ATOM      6  C7  UNL d   1       0.258   1.525   0.237  0.00  0.00     0.002 A 
ENDROOT
BRANCH   1   7
ATOM      7  C1  UNL d   1       0.454   2.781  -1.943  0.00  0.00     0.055 C 
ATOM      8  C   UNL d   1      -0.573   3.890  -2.120  0.00  0.00     0.019 C 
ENDBRANCH   1   7
TORSDOF 1
ENDMDL
