MODEL 1
REMARK minimizedAffinity -4.59756279
REMARK minimizedRMSD -1
REMARK  1 active torsions:
REMARK  status: ('A' for Active; 'I' for Inactive)
REMARK    1  A    between atoms: C1_2  and  C2_3 
ROOT
ATOM      1  C2  UNL d   1       0.483  -1.198   0.097  0.00  0.00    -0.077 A 
ATOM      2  C3  UNL d   1       1.664  -1.904  -0.172  0.00  0.00     0.002 A 
ATOM      3  C4  UNL d   1       2.287  -2.646   0.833  0.00  0.00     0.002 A 
ATOM      4  C5  UNL d   1       1.736  -2.692   2.111  0.00  0.00    -0.004 A 
ATOM      5  C6  UNL d   1       0.563  -1.991   2.389  0.00  0.00     0.002 A 
ATOM      6  C7  UNL d   1      -0.061  -1.248   1.386  0.00  0.00     0.002 A 
ENDROOT
BRANCH   1   7
ATOM      7  C1  UNL d   1      -0.218  -0.437  -0.999  0.00  0.00     0.055 C 
ATOM      8  C   UNL d   1      -0.123   1.066  -0.777  0.00  0.00     0.019 C 
ENDBRANCH   1   7
TORSDOF 1
ENDMDL
