MODEL 1
REMARK minimizedAffinity -4.25813341
REMARK minimizedRMSD -1
REMARK  1 active torsions:
REMARK  status: ('A' for Active; 'I' for Inactive)
REMARK    1  A    between atoms: C1_2  and  C2_3 
ROOT
ATOM      1  C2  UNL d   1      -0.519   1.046  -1.465  0.00  0.00    -0.077 A 
ATOM      2  C3  UNL d   1       0.365   1.159  -2.548  0.00  0.00     0.002 A 
ATOM      3  C4  UNL d   1       0.546   2.387  -3.187  0.00  0.00     0.002 A 
ATOM      4  C5  UNL d   1      -0.149   3.512  -2.748  0.00  0.00    -0.004 A 
ATOM      5  C6  UNL d   1      -1.032   3.409  -1.673  0.00  0.00     0.002 A 
ATOM      6  C7  UNL d   1      -1.215   2.182  -1.034  0.00  0.00     0.002 A 
ENDROOT
BRANCH   1   7
ATOM      7  C1  UNL d   1      -0.679  -0.267  -0.744  0.00  0.00     0.055 C 
ATOM      8  C   UNL d   1      -0.357  -0.127   0.737  0.00  0.00     0.019 C 
ENDBRANCH   1   7
TORSDOF 1
ENDMDL
