MODEL 1
REMARK minimizedAffinity -3.34535384
REMARK minimizedRMSD -1
REMARK  1 active torsions:
REMARK  status: ('A' for Active; 'I' for Inactive)
REMARK    1  A    between atoms: C1_2  and  C2_3 
ROOT
ATOM      1  C2  UNL d   1       0.996  -1.674   1.146  0.00  0.00    -0.077 A 
ATOM      2  C3  UNL d   1       0.680  -1.054  -0.071  0.00  0.00     0.002 A 
ATOM      3  C4  UNL d   1      -0.383  -0.153  -0.151  0.00  0.00     0.002 A 
ATOM      4  C5  UNL d   1      -1.138   0.139   0.984  0.00  0.00    -0.004 A 
ATOM      5  C6  UNL d   1      -0.833  -0.474   2.199  0.00  0.00     0.002 A 
ATOM      6  C7  UNL d   1       0.229  -1.375   2.280  0.00  0.00     0.002 A 
ENDROOT
BRANCH   1   7
ATOM      7  C1  UNL d   1       2.173  -2.608   1.245  0.00  0.00     0.055 C 
ATOM      8  C   UNL d   1       2.959  -2.648  -0.057  0.00  0.00     0.019 C 
ENDBRANCH   1   7
TORSDOF 1
ENDMDL
