MODEL 1
REMARK minimizedAffinity -2.57821536
REMARK minimizedRMSD -1
REMARK  1 active torsions:
REMARK  status: ('A' for Active; 'I' for Inactive)
REMARK    1  A    between atoms: C1_2  and  C2_3 
ROOT
ATOM      1  C2  UNL d   1      -0.305   1.254  -1.553  0.00  0.00    -0.077 A 
ATOM      2  C3  UNL d   1       0.752   2.114  -1.882  0.00  0.00     0.002 A 
ATOM      3  C4  UNL d   1       0.496   3.354  -2.470  0.00  0.00     0.002 A 
ATOM      4  C5  UNL d   1      -0.815   3.747  -2.729  0.00  0.00    -0.004 A 
ATOM      5  C6  UNL d   1      -1.873   2.898  -2.407  0.00  0.00     0.002 A 
ATOM      6  C7  UNL d   1      -1.619   1.657  -1.821  0.00  0.00     0.002 A 
ENDROOT
BRANCH   1   7
ATOM      7  C1  UNL d   1      -0.034  -0.064  -0.874  0.00  0.00     0.055 C 
ATOM      8  C   UNL d   1      -0.545  -0.063   0.559  0.00  0.00     0.019 C 
ENDBRANCH   1   7
TORSDOF 1
ENDMDL
