MODEL 1
REMARK minimizedAffinity -1.60385776
REMARK minimizedRMSD -1
REMARK  1 active torsions:
REMARK  status: ('A' for Active; 'I' for Inactive)
REMARK    1  A    between atoms: C1_2  and  C2_3 
ROOT
ATOM      1  C2  UNL d   1       0.320  -0.832   0.900  0.00  0.00    -0.077 A 
ATOM      2  C3  UNL d   1       1.327  -1.348   0.073  0.00  0.00     0.002 A 
ATOM      3  C4  UNL d   1       2.159  -2.373   0.529  0.00  0.00     0.002 A 
ATOM      4  C5  UNL d   1       1.988  -2.893   1.810  0.00  0.00    -0.004 A 
ATOM      5  C6  UNL d   1       0.990  -2.386   2.640  0.00  0.00     0.002 A 
ATOM      6  C7  UNL d   1       0.159  -1.360   2.187  0.00  0.00     0.002 A 
ENDROOT
BRANCH   1   7
ATOM      7  C1  UNL d   1      -0.610   0.240   0.393  0.00  0.00     0.055 C 
ATOM      8  C   UNL d   1      -0.551   0.351  -1.124  0.00  0.00     0.019 C 
ENDBRANCH   1   7
TORSDOF 1
ENDMDL
