MODEL 1
REMARK minimizedAffinity 10.7467403
REMARK minimizedRMSD -1
REMARK  0 active torsions:
REMARK  status: ('A' for Active; 'I' for Inactive)
ROOT
ATOM      1  C   UNL d   1       0.824   4.629   0.128  0.00  0.00     0.124 A 
ATOM      2  C1  UNL d   1       1.221   4.192   1.384  0.00  0.00     0.062 A 
ATOM      3  C2  UNL d   1       0.569   3.121   1.990  0.00  0.00     0.162 A 
ATOM      4  C3  UNL d   1      -0.486   2.480   1.340  0.00  0.00    -0.034 A 
ATOM      5  C4  UNL d   1      -0.879   2.927   0.077  0.00  0.00     0.162 A 
ATOM      6  C5  UNL d   1      -0.225   3.997  -0.524  0.00  0.00     0.062 A 
ATOM      7  F   UNL d   1      -0.609   4.418  -1.738  0.00  0.00    -0.097 F 
ATOM      8  F1  UNL d   1      -1.890   2.333  -0.576  0.00  0.00    -0.096 F 
ATOM      9  I   UNL d   1      -1.463   0.880   2.243  0.00  0.00    -0.060 I 
ATOM     10  F2  UNL d   1       0.973   2.720   3.204  0.00  0.00    -0.096 F 
ATOM     11  F3  UNL d   1       2.233   4.802   2.016  0.00  0.00    -0.097 F 
ATOM     12  F4  UNL d   1       1.452   5.660  -0.453  0.00  0.00    -0.092 F 
ENDROOT
TORSDOF 0
ENDMDL
