MODEL 1
REMARK minimizedAffinity 12.6605024
REMARK minimizedRMSD -1
REMARK  0 active torsions:
REMARK  status: ('A' for Active; 'I' for Inactive)
ROOT
ATOM      1  C   UNL d   1       5.078  -2.506  -2.065  0.00  0.00     0.124 A 
ATOM      2  C1  UNL d   1       4.137  -2.317  -1.063  0.00  0.00     0.062 A 
ATOM      3  C2  UNL d   1       3.207  -3.313  -0.779  0.00  0.00     0.162 A 
ATOM      4  C3  UNL d   1       3.214  -4.508  -1.499  0.00  0.00    -0.034 A 
ATOM      5  C4  UNL d   1       4.163  -4.690  -2.506  0.00  0.00     0.162 A 
ATOM      6  C5  UNL d   1       5.091  -3.692  -2.786  0.00  0.00     0.062 A 
ATOM      7  F   UNL d   1       5.999  -3.876  -3.754  0.00  0.00    -0.097 F 
ATOM      8  F1  UNL d   1       4.198  -5.827  -3.217  0.00  0.00    -0.096 F 
ATOM      9  I   UNL d   1       1.825  -6.000  -1.078  0.00  0.00    -0.060 I 
ATOM     10  F2  UNL d   1       2.308  -3.103   0.195  0.00  0.00    -0.096 F 
ATOM     11  F3  UNL d   1       4.122  -1.171  -0.366  0.00  0.00    -0.097 F 
ATOM     12  F4  UNL d   1       5.971  -1.545  -2.337  0.00  0.00    -0.092 F 
ENDROOT
TORSDOF 0
ENDMDL
