MODEL 1
REMARK minimizedAffinity 3.9821167
REMARK minimizedRMSD -1
REMARK  0 active torsions:
REMARK  status: ('A' for Active; 'I' for Inactive)
ROOT
ATOM      1  C   UNL d   1       0.754   3.353  -1.999  0.00  0.00     0.124 A 
ATOM      2  C1  UNL d   1      -0.121   4.061  -1.187  0.00  0.00     0.062 A 
ATOM      3  C2  UNL d   1      -0.736   3.435  -0.107  0.00  0.00     0.162 A 
ATOM      4  C3  UNL d   1      -0.479   2.092   0.168  0.00  0.00    -0.034 A 
ATOM      5  C4  UNL d   1       0.401   1.386  -0.654  0.00  0.00     0.162 A 
ATOM      6  C5  UNL d   1       1.014   2.016  -1.732  0.00  0.00     0.062 A 
ATOM      7  F   UNL d   1       1.859   1.330  -2.516  0.00  0.00    -0.097 F 
ATOM      8  F1  UNL d   1       0.671   0.093  -0.418  0.00  0.00    -0.096 F 
ATOM      9  I   UNL d   1      -1.398   1.152   1.781  0.00  0.00    -0.060 I 
ATOM     10  F2  UNL d   1      -1.577   4.144   0.661  0.00  0.00    -0.096 F 
ATOM     11  F3  UNL d   1      -0.374   5.353  -1.443  0.00  0.00    -0.097 F 
ATOM     12  F4  UNL d   1       1.344   3.958  -3.038  0.00  0.00    -0.092 F 
ENDROOT
TORSDOF 0
ENDMDL
