MODEL 1
REMARK minimizedAffinity 11.048954
REMARK minimizedRMSD -1
REMARK  0 active torsions:
REMARK  status: ('A' for Active; 'I' for Inactive)
ROOT
ATOM      1  C   UNL d   1      -0.160   0.650   1.064  0.00  0.00     0.124 A 
ATOM      2  C1  UNL d   1       0.725   0.620  -0.004  0.00  0.00     0.062 A 
ATOM      3  C2  UNL d   1       0.927   1.758  -0.779  0.00  0.00     0.162 A 
ATOM      4  C3  UNL d   1       0.243   2.938  -0.488  0.00  0.00    -0.034 A 
ATOM      5  C4  UNL d   1      -0.647   2.961   0.588  0.00  0.00     0.162 A 
ATOM      6  C5  UNL d   1      -0.845   1.820   1.359  0.00  0.00     0.062 A 
ATOM      7  F   UNL d   1      -1.702   1.852   2.391  0.00  0.00    -0.097 F 
ATOM      8  F1  UNL d   1      -1.322   4.079   0.896  0.00  0.00    -0.096 F 
ATOM      9  I   UNL d   1       0.541   4.643  -1.644  0.00  0.00    -0.060 I 
ATOM     10  F2  UNL d   1       1.789   1.700  -1.805  0.00  0.00    -0.096 F 
ATOM     11  F3  UNL d   1       1.388  -0.510  -0.292  0.00  0.00    -0.097 F 
ATOM     12  F4  UNL d   1      -0.353  -0.447   1.807  0.00  0.00    -0.092 F 
ENDROOT
TORSDOF 0
ENDMDL
