MODEL 1
REMARK minimizedAffinity 4.15537453
REMARK minimizedRMSD -1
REMARK  0 active torsions:
REMARK  status: ('A' for Active; 'I' for Inactive)
ROOT
ATOM      1  C   UNL d   1      -0.168   3.950  -0.584  0.00  0.00     0.124 A 
ATOM      2  C1  UNL d   1      -1.249   4.023   0.283  0.00  0.00     0.062 A 
ATOM      3  C2  UNL d   1      -1.630   2.907   1.023  0.00  0.00     0.162 A 
ATOM      4  C3  UNL d   1      -0.928   1.708   0.899  0.00  0.00    -0.034 A 
ATOM      5  C4  UNL d   1       0.157   1.641   0.024  0.00  0.00     0.162 A 
ATOM      6  C5  UNL d   1       0.534   2.760  -0.713  0.00  0.00     0.062 A 
ATOM      7  F   UNL d   1       1.578   2.687  -1.551  0.00  0.00    -0.097 F 
ATOM      8  F1  UNL d   1       0.854   0.504  -0.119  0.00  0.00    -0.096 F 
ATOM      9  I   UNL d   1      -1.494   0.037   2.003  0.00  0.00    -0.060 I 
ATOM     10  F2  UNL d   1      -2.678   3.006   1.854  0.00  0.00    -0.096 F 
ATOM     11  F3  UNL d   1      -1.930   5.171   0.409  0.00  0.00    -0.097 F 
ATOM     12  F4  UNL d   1       0.195   5.025  -1.295  0.00  0.00    -0.092 F 
ENDROOT
TORSDOF 0
ENDMDL
