MODEL 1
REMARK minimizedAffinity 11.383894
REMARK minimizedRMSD -1
REMARK  0 active torsions:
REMARK  status: ('A' for Active; 'I' for Inactive)
ROOT
ATOM      1  C   UNL d   1      -1.944   1.990   1.358  0.00  0.00     0.124 A 
ATOM      2  C1  UNL d   1      -1.023   2.501   0.455  0.00  0.00     0.062 A 
ATOM      3  C2  UNL d   1       0.206   1.872   0.278  0.00  0.00     0.162 A 
ATOM      4  C3  UNL d   1       0.521   0.723   1.005  0.00  0.00    -0.034 A 
ATOM      5  C4  UNL d   1      -0.411   0.216   1.912  0.00  0.00     0.162 A 
ATOM      6  C5  UNL d   1      -1.638   0.848   2.086  0.00  0.00     0.062 A 
ATOM      7  F   UNL d   1      -2.527   0.353   2.959  0.00  0.00    -0.097 F 
ATOM      8  F1  UNL d   1      -0.141  -0.886   2.627  0.00  0.00    -0.096 F 
ATOM      9  I   UNL d   1       2.357  -0.220   0.742  0.00  0.00    -0.060 I 
ATOM     10  F2  UNL d   1       1.078   2.387  -0.602  0.00  0.00    -0.096 F 
ATOM     11  F3  UNL d   1      -1.316   3.604  -0.248  0.00  0.00    -0.097 F 
ATOM     12  F4  UNL d   1      -3.126   2.597   1.528  0.00  0.00    -0.092 F 
ENDROOT
TORSDOF 0
ENDMDL
