MODEL 1
REMARK minimizedAffinity 5.48308182
REMARK minimizedRMSD -1
REMARK  0 active torsions:
REMARK  status: ('A' for Active; 'I' for Inactive)
ROOT
ATOM      1  C   UNL d   1      -0.776   2.954  -0.534  0.00  0.00     0.124 A 
ATOM      2  C1  UNL d   1      -1.908   3.099   0.256  0.00  0.00     0.062 A 
ATOM      3  C2  UNL d   1      -2.215   2.145   1.222  0.00  0.00     0.162 A 
ATOM      4  C3  UNL d   1      -1.387   1.038   1.405  0.00  0.00    -0.034 A 
ATOM      5  C4  UNL d   1      -0.250   0.898   0.606  0.00  0.00     0.162 A 
ATOM      6  C5  UNL d   1       0.052   1.855  -0.358  0.00  0.00     0.062 A 
ATOM      7  F   UNL d   1       1.146   1.713  -1.120  0.00  0.00    -0.097 F 
ATOM      8  F1  UNL d   1       0.567  -0.154   0.756  0.00  0.00    -0.096 F 
ATOM      9  I   UNL d   1      -1.842  -0.391   2.848  0.00  0.00    -0.060 I 
ATOM     10  F2  UNL d   1      -3.315   2.311   1.970  0.00  0.00    -0.096 F 
ATOM     11  F3  UNL d   1      -2.710   4.161   0.087  0.00  0.00    -0.097 F 
ATOM     12  F4  UNL d   1      -0.483   3.873  -1.463  0.00  0.00    -0.092 F 
ENDROOT
TORSDOF 0
ENDMDL
