MODEL 1
REMARK minimizedAffinity 1.34985137
REMARK minimizedRMSD -1
REMARK  0 active torsions:
REMARK  status: ('A' for Active; 'I' for Inactive)
ROOT
ATOM      1  C   UNL d   1      -0.412   3.482  -0.924  0.00  0.00     0.124 A 
ATOM      2  C1  UNL d   1      -1.539   3.643  -0.130  0.00  0.00     0.062 A 
ATOM      3  C2  UNL d   1      -1.877   2.672   0.809  0.00  0.00     0.162 A 
ATOM      4  C3  UNL d   1      -1.087   1.532   0.959  0.00  0.00    -0.034 A 
ATOM      5  C4  UNL d   1       0.044   1.378   0.155  0.00  0.00     0.162 A 
ATOM      6  C5  UNL d   1       0.378   2.351  -0.781  0.00  0.00     0.062 A 
ATOM      7  F   UNL d   1       1.466   2.194  -1.548  0.00  0.00    -0.097 F 
ATOM      8  F1  UNL d   1       0.825   0.294   0.273  0.00  0.00    -0.096 F 
ATOM      9  I   UNL d   1      -1.590   0.078   2.361  0.00  0.00    -0.060 I 
ATOM     10  F2  UNL d   1      -2.972   2.853   1.563  0.00  0.00    -0.096 F 
ATOM     11  F3  UNL d   1      -2.304   4.735  -0.266  0.00  0.00    -0.097 F 
ATOM     12  F4  UNL d   1      -0.090   4.417  -1.827  0.00  0.00    -0.092 F 
ENDROOT
TORSDOF 0
ENDMDL
