MODEL 1
REMARK minimizedAffinity 17.2791424
REMARK minimizedRMSD -1
REMARK  0 active torsions:
REMARK  status: ('A' for Active; 'I' for Inactive)
ROOT
ATOM      1  C   UNL d   1       0.631   4.564  -0.137  0.00  0.00     0.124 A 
ATOM      2  C1  UNL d   1      -0.132   3.706  -0.917  0.00  0.00     0.062 A 
ATOM      3  C2  UNL d   1      -0.840   2.664  -0.325  0.00  0.00     0.162 A 
ATOM      4  C3  UNL d   1      -0.790   2.475   1.057  0.00  0.00    -0.034 A 
ATOM      5  C4  UNL d   1      -0.020   3.342   1.835  0.00  0.00     0.162 A 
ATOM      6  C5  UNL d   1       0.685   4.381   1.238  0.00  0.00     0.062 A 
ATOM      7  F   UNL d   1       1.421   5.210   1.994  0.00  0.00    -0.097 F 
ATOM      8  F1  UNL d   1       0.050   3.189   3.165  0.00  0.00    -0.096 F 
ATOM      9  I   UNL d   1      -1.847   0.919   1.946  0.00  0.00    -0.060 I 
ATOM     10  F2  UNL d   1      -1.568   1.850  -1.103  0.00  0.00    -0.096 F 
ATOM     11  F3  UNL d   1      -0.186   3.879  -2.245  0.00  0.00    -0.097 F 
ATOM     12  F4  UNL d   1       1.312   5.565  -0.709  0.00  0.00    -0.092 F 
ENDROOT
TORSDOF 0
ENDMDL
