MODEL 1
REMARK minimizedAffinity 8.94222546
REMARK minimizedRMSD -1
REMARK  0 active torsions:
REMARK  status: ('A' for Active; 'I' for Inactive)
ROOT
ATOM      1  C   UNL d   1       0.396   2.686  -1.153  0.00  0.00     0.124 A 
ATOM      2  C1  UNL d   1       0.811   1.369  -1.007  0.00  0.00     0.062 A 
ATOM      3  C2  UNL d   1       0.339   0.601   0.054  0.00  0.00     0.162 A 
ATOM      4  C3  UNL d   1      -0.553   1.146   0.977  0.00  0.00    -0.034 A 
ATOM      5  C4  UNL d   1      -0.964   2.472   0.824  0.00  0.00     0.162 A 
ATOM      6  C5  UNL d   1      -0.490   3.236  -0.238  0.00  0.00     0.062 A 
ATOM      7  F   UNL d   1      -0.892   4.508  -0.377  0.00  0.00    -0.097 F 
ATOM      8  F1  UNL d   1      -1.821   3.028   1.693  0.00  0.00    -0.096 F 
ATOM      9  I   UNL d   1      -1.260   0.001   2.564  0.00  0.00    -0.060 I 
ATOM     10  F2  UNL d   1       0.757  -0.669   0.170  0.00  0.00    -0.096 F 
ATOM     11  F3  UNL d   1       1.668   0.836  -1.889  0.00  0.00    -0.097 F 
ATOM     12  F4  UNL d   1       0.852   3.423  -2.173  0.00  0.00    -0.092 F 
ENDROOT
TORSDOF 0
ENDMDL
