MODEL 1
REMARK minimizedAffinity 17.1075478
REMARK minimizedRMSD -1
REMARK  0 active torsions:
REMARK  status: ('A' for Active; 'I' for Inactive)
ROOT
ATOM      1  C   UNL d   1      -0.512   3.821   0.539  0.00  0.00     0.124 A 
ATOM      2  C1  UNL d   1       0.057   3.814  -0.727  0.00  0.00     0.062 A 
ATOM      3  C2  UNL d   1      -0.096   2.708  -1.558  0.00  0.00     0.162 A 
ATOM      4  C3  UNL d   1      -0.821   1.598  -1.125  0.00  0.00    -0.034 A 
ATOM      5  C4  UNL d   1      -1.389   1.611   0.150  0.00  0.00     0.162 A 
ATOM      6  C5  UNL d   1      -1.234   2.719   0.976  0.00  0.00     0.062 A 
ATOM      7  F   UNL d   1      -1.784   2.723   2.199  0.00  0.00    -0.097 F 
ATOM      8  F1  UNL d   1      -2.093   0.561   0.597  0.00  0.00    -0.096 F 
ATOM      9  I   UNL d   1      -1.052  -0.058  -2.364  0.00  0.00    -0.060 I 
ATOM     10  F2  UNL d   1       0.465   2.730  -2.776  0.00  0.00    -0.096 F 
ATOM     11  F3  UNL d   1       0.756   4.877  -1.152  0.00  0.00    -0.097 F 
ATOM     12  F4  UNL d   1      -0.362   4.886   1.336  0.00  0.00    -0.092 F 
ENDROOT
TORSDOF 0
ENDMDL
