MODEL 1
REMARK minimizedAffinity 9.52766705
REMARK minimizedRMSD -1
REMARK  0 active torsions:
REMARK  status: ('A' for Active; 'I' for Inactive)
ROOT
ATOM      1  C   UNL d   1      -0.277   3.185  -0.995  0.00  0.00     0.124 A 
ATOM      2  C1  UNL d   1      -1.206   3.499  -0.012  0.00  0.00     0.062 A 
ATOM      3  C2  UNL d   1      -1.520   2.570   0.976  0.00  0.00     0.162 A 
ATOM      4  C3  UNL d   1      -0.906   1.318   0.986  0.00  0.00    -0.034 A 
ATOM      5  C4  UNL d   1       0.026   1.009  -0.006  0.00  0.00     0.162 A 
ATOM      6  C5  UNL d   1       0.337   1.941  -0.991  0.00  0.00     0.062 A 
ATOM      7  F   UNL d   1       1.234   1.635  -1.940  0.00  0.00    -0.097 F 
ATOM      8  F1  UNL d   1       0.636  -0.186  -0.026  0.00  0.00    -0.096 F 
ATOM      9  I   UNL d   1      -1.374  -0.073   2.462  0.00  0.00    -0.060 I 
ATOM     10  F2  UNL d   1      -2.421   2.901   1.914  0.00  0.00    -0.096 F 
ATOM     11  F3  UNL d   1      -1.801   4.700  -0.014  0.00  0.00    -0.097 F 
ATOM     12  F4  UNL d   1       0.023   4.080  -1.945  0.00  0.00    -0.092 F 
ENDROOT
TORSDOF 0
ENDMDL
