MODEL 1
REMARK minimizedAffinity 17.0589466
REMARK minimizedRMSD -1
REMARK  0 active torsions:
REMARK  status: ('A' for Active; 'I' for Inactive)
ROOT
ATOM      1  C   UNL d   1      -2.574  -1.639   3.352  0.00  0.00     0.124 A 
ATOM      2  C1  UNL d   1      -3.165  -2.673   4.064  0.00  0.00     0.062 A 
ATOM      3  C2  UNL d   1      -2.380  -3.540   4.820  0.00  0.00     0.162 A 
ATOM      4  C3  UNL d   1      -0.996  -3.375   4.868  0.00  0.00    -0.034 A 
ATOM      5  C4  UNL d   1      -0.409  -2.333   4.148  0.00  0.00     0.162 A 
ATOM      6  C5  UNL d   1      -1.197  -1.470   3.394  0.00  0.00     0.062 A 
ATOM      7  F   UNL d   1      -0.625  -0.471   2.706  0.00  0.00    -0.097 F 
ATOM      8  F1  UNL d   1       0.919  -2.146   4.173  0.00  0.00    -0.096 F 
ATOM      9  I   UNL d   1       0.180  -4.669   5.998  0.00  0.00    -0.060 I 
ATOM     10  F2  UNL d   1      -2.978  -4.530   5.499  0.00  0.00    -0.096 F 
ATOM     11  F3  UNL d   1      -4.494  -2.839   4.024  0.00  0.00    -0.097 F 
ATOM     12  F4  UNL d   1      -3.331  -0.807   2.624  0.00  0.00    -0.092 F 
ENDROOT
TORSDOF 0
ENDMDL
