MODEL 1
REMARK minimizedAffinity 11.6328211
REMARK minimizedRMSD -1
REMARK  0 active torsions:
REMARK  status: ('A' for Active; 'I' for Inactive)
ROOT
ATOM      1  C   UNL d   1      -0.110   2.362   2.263  0.00  0.00     0.124 A 
ATOM      2  C1  UNL d   1      -0.665   2.984   1.152  0.00  0.00     0.062 A 
ATOM      3  C2  UNL d   1      -0.444   2.469  -0.122  0.00  0.00     0.162 A 
ATOM      4  C3  UNL d   1       0.336   1.325  -0.293  0.00  0.00    -0.034 A 
ATOM      5  C4  UNL d   1       0.892   0.706   0.829  0.00  0.00     0.162 A 
ATOM      6  C5  UNL d   1       0.667   1.224   2.100  0.00  0.00     0.062 A 
ATOM      7  F   UNL d   1       1.204   0.623   3.171  0.00  0.00    -0.097 F 
ATOM      8  F1  UNL d   1       1.646  -0.395   0.700  0.00  0.00    -0.096 F 
ATOM      9  I   UNL d   1       0.669   0.552  -2.196  0.00  0.00    -0.060 I 
ATOM     10  F2  UNL d   1      -0.992   3.090  -1.176  0.00  0.00    -0.096 F 
ATOM     11  F3  UNL d   1      -1.416   4.084   1.307  0.00  0.00    -0.097 F 
ATOM     12  F4  UNL d   1      -0.324   2.860   3.487  0.00  0.00    -0.092 F 
ENDROOT
TORSDOF 0
ENDMDL
