MODEL 1
REMARK minimizedAffinity 12.8325329
REMARK minimizedRMSD -1
REMARK  0 active torsions:
REMARK  status: ('A' for Active; 'I' for Inactive)
ROOT
ATOM      1  C   UNL d   1       1.054   0.518   2.386  0.00  0.00     0.124 A 
ATOM      2  C1  UNL d   1       1.562   0.077   1.172  0.00  0.00     0.062 A 
ATOM      3  C2  UNL d   1       1.195   0.710  -0.012  0.00  0.00     0.162 A 
ATOM      4  C3  UNL d   1       0.315   1.792   0.012  0.00  0.00    -0.034 A 
ATOM      5  C4  UNL d   1      -0.193   2.229   1.237  0.00  0.00     0.162 A 
ATOM      6  C5  UNL d   1       0.177   1.593   2.417  0.00  0.00     0.062 A 
ATOM      7  F   UNL d   1      -0.315   2.021   3.589  0.00  0.00    -0.097 F 
ATOM      8  F1  UNL d   1      -1.041   3.266   1.296  0.00  0.00    -0.096 F 
ATOM      9  I   UNL d   1      -0.237   2.741  -1.756  0.00  0.00    -0.060 I 
ATOM     10  F2  UNL d   1       1.701   0.262  -1.171  0.00  0.00    -0.096 F 
ATOM     11  F3  UNL d   1       2.409  -0.962   1.139  0.00  0.00    -0.097 F 
ATOM     12  F4  UNL d   1       1.409  -0.093   3.524  0.00  0.00    -0.092 F 
ENDROOT
TORSDOF 0
ENDMDL
