MODEL 1
REMARK minimizedAffinity 21.8349533
REMARK minimizedRMSD -1
REMARK  0 active torsions:
REMARK  status: ('A' for Active; 'I' for Inactive)
ROOT
ATOM      1  C   UNL d   1       0.748   1.126   2.372  0.00  0.00     0.124 A 
ATOM      2  C1  UNL d   1       0.325   2.442   2.500  0.00  0.00     0.062 A 
ATOM      3  C2  UNL d   1       0.061   3.206   1.367  0.00  0.00     0.162 A 
ATOM      4  C3  UNL d   1       0.219   2.656   0.095  0.00  0.00    -0.034 A 
ATOM      5  C4  UNL d   1       0.646   1.332  -0.026  0.00  0.00     0.162 A 
ATOM      6  C5  UNL d   1       0.908   0.573   1.110  0.00  0.00     0.062 A 
ATOM      7  F   UNL d   1       1.317  -0.698   0.984  0.00  0.00    -0.097 F 
ATOM      8  F1  UNL d   1       0.808   0.772  -1.234  0.00  0.00    -0.096 F 
ATOM      9  I   UNL d   1      -0.174   3.795  -1.602  0.00  0.00    -0.060 I 
ATOM     10  F2  UNL d   1      -0.346   4.475   1.520  0.00  0.00    -0.096 F 
ATOM     11  F3  UNL d   1       0.171   2.980   3.719  0.00  0.00    -0.097 F 
ATOM     12  F4  UNL d   1       1.002   0.394   3.464  0.00  0.00    -0.092 F 
ENDROOT
TORSDOF 0
ENDMDL
