MODEL 1
REMARK minimizedAffinity -3.39345813
REMARK minimizedRMSD -1
REMARK  0 active torsions:
REMARK  status: ('A' for Active; 'I' for Inactive)
ROOT
ATOM      1  C   UNL d   1      -1.931  -1.292   0.480  0.00  0.00    -0.002 A 
ATOM      2  C1  UNL d   1      -0.755  -1.842   0.968  0.00  0.00     0.010 A 
ATOM      3  C2  UNL d   1       0.410  -1.076   1.042  0.00  0.00     0.041 A 
ATOM      4  C3  UNL d   1       0.372   0.266   0.615  0.00  0.00    -0.075 A 
ATOM      5  S   UNL d   1       1.675   1.394   0.614  0.00  0.00     0.015 SA
ATOM      6  C4  UNL d   1       0.700   2.633  -0.033  0.00  0.00     0.022 A 
ATOM      7  C5  UNL d   1      -0.591   2.214  -0.250  0.00  0.00     0.026 A 
ATOM      8  C6  UNL d   1      -0.802   0.842   0.120  0.00  0.00    -0.082 A 
ATOM      9  C7  UNL d   1      -1.966   0.039   0.057  0.00  0.00     0.045 A 
ENDROOT
TORSDOF 0
ENDMDL
