MODEL 1
REMARK minimizedAffinity -5.20812607
REMARK minimizedRMSD -1
REMARK  0 active torsions:
REMARK  status: ('A' for Active; 'I' for Inactive)
ROOT
ATOM      1  C   UNL d   1      -3.226  -1.306  -0.373  0.00  0.00    -0.002 A 
ATOM      2  C1  UNL d   1      -2.424  -1.986   0.532  0.00  0.00     0.010 A 
ATOM      3  C2  UNL d   1      -1.091  -1.615   0.719  0.00  0.00     0.041 A 
ATOM      4  C3  UNL d   1      -0.573  -0.537  -0.025  0.00  0.00    -0.075 A 
ATOM      5  S   UNL d   1       1.030   0.095   0.038  0.00  0.00     0.015 SA
ATOM      6  C4  UNL d   1       0.688   1.283  -1.135  0.00  0.00     0.022 A 
ATOM      7  C5  UNL d   1      -0.613   1.213  -1.575  0.00  0.00     0.026 A 
ATOM      8  C6  UNL d   1      -1.361   0.164  -0.943  0.00  0.00    -0.082 A 
ATOM      9  C7  UNL d   1      -2.708  -0.237  -1.110  0.00  0.00     0.045 A 
ENDROOT
TORSDOF 0
ENDMDL
