MODEL 1
REMARK minimizedAffinity 1.75691295
REMARK minimizedRMSD -1
REMARK  0 active torsions:
REMARK  status: ('A' for Active; 'I' for Inactive)
ROOT
ATOM      1  C   UNL d   1       5.196   4.526  -1.266  0.00  0.00    -0.002 A 
ATOM      2  C1  UNL d   1       5.122   3.171  -1.553  0.00  0.00     0.010 A 
ATOM      3  C2  UNL d   1       4.331   2.322  -0.775  0.00  0.00     0.041 A 
ATOM      4  C3  UNL d   1       3.608   2.865   0.305  0.00  0.00    -0.075 A 
ATOM      5  S   UNL d   1       2.573   2.017   1.393  0.00  0.00     0.015 SA
ATOM      6  C4  UNL d   1       2.204   3.435   2.264  0.00  0.00     0.022 A 
ATOM      7  C5  UNL d   1       2.846   4.537   1.751  0.00  0.00     0.026 A 
ATOM      8  C6  UNL d   1       3.665   4.227   0.613  0.00  0.00    -0.082 A 
ATOM      9  C7  UNL d   1       4.477   5.061  -0.194  0.00  0.00     0.045 A 
ENDROOT
TORSDOF 0
ENDMDL
