MODEL 1
REMARK minimizedAffinity 4.17336416
REMARK minimizedRMSD -1
REMARK  0 active torsions:
REMARK  status: ('A' for Active; 'I' for Inactive)
ROOT
ATOM      1  C   UNL d   1       0.566  -1.475   2.602  0.00  0.00    -0.002 A 
ATOM      2  C1  UNL d   1       0.358  -0.183   3.064  0.00  0.00     0.010 A 
ATOM      3  C2  UNL d   1       0.220   0.878   2.168  0.00  0.00     0.041 A 
ATOM      4  C3  UNL d   1       0.292   0.617   0.785  0.00  0.00    -0.075 A 
ATOM      5  S   UNL d   1       0.150   1.759  -0.498  0.00  0.00     0.015 SA
ATOM      6  C4  UNL d   1       0.359   0.560  -1.690  0.00  0.00     0.022 A 
ATOM      7  C5  UNL d   1       0.536  -0.688  -1.140  0.00  0.00     0.026 A 
ATOM      8  C6  UNL d   1       0.499  -0.676   0.295  0.00  0.00    -0.082 A 
ATOM      9  C7  UNL d   1       0.637  -1.731   1.230  0.00  0.00     0.045 A 
ENDROOT
TORSDOF 0
ENDMDL
