MODEL 1
REMARK minimizedAffinity -1.15200865
REMARK minimizedRMSD -1
REMARK  0 active torsions:
REMARK  status: ('A' for Active; 'I' for Inactive)
ROOT
ATOM      1  C   UNL d   1       2.658   2.792   1.664  0.00  0.00    -0.002 A 
ATOM      2  C1  UNL d   1       3.453   2.424   0.587  0.00  0.00     0.010 A 
ATOM      3  C2  UNL d   1       3.026   1.440  -0.307  0.00  0.00     0.041 A 
ATOM      4  C3  UNL d   1       1.775   0.827  -0.100  0.00  0.00    -0.075 A 
ATOM      5  S   UNL d   1       1.047  -0.402  -1.066  0.00  0.00     0.015 SA
ATOM      6  C4  UNL d   1      -0.337  -0.467  -0.072  0.00  0.00     0.022 A 
ATOM      7  C5  UNL d   1      -0.261   0.420   0.975  0.00  0.00     0.026 A 
ATOM      8  C6  UNL d   1       0.957   1.181   0.977  0.00  0.00    -0.082 A 
ATOM      9  C7  UNL d   1       1.417   2.181   1.866  0.00  0.00     0.045 A 
ENDROOT
TORSDOF 0
ENDMDL
