MODEL 1
REMARK minimizedAffinity 2.93982935
REMARK minimizedRMSD -1
REMARK  0 active torsions:
REMARK  status: ('A' for Active; 'I' for Inactive)
ROOT
ATOM      1  C   UNL d   1       3.217   2.437   0.947  0.00  0.00    -0.002 A 
ATOM      2  C1  UNL d   1       3.267   2.544   2.330  0.00  0.00     0.010 A 
ATOM      3  C2  UNL d   1       2.549   1.659   3.137  0.00  0.00     0.041 A 
ATOM      4  C3  UNL d   1       1.775   0.654   2.525  0.00  0.00    -0.075 A 
ATOM      5  S   UNL d   1       0.814  -0.542   3.312  0.00  0.00     0.015 SA
ATOM      6  C4  UNL d   1       0.317  -1.224   1.832  0.00  0.00     0.022 A 
ATOM      7  C5  UNL d   1       0.860  -0.568   0.753  0.00  0.00     0.026 A 
ATOM      8  C6  UNL d   1       1.710   0.525   1.135  0.00  0.00    -0.082 A 
ATOM      9  C7  UNL d   1       2.448   1.438   0.344  0.00  0.00     0.045 A 
ENDROOT
TORSDOF 0
ENDMDL
