MODEL 1
REMARK minimizedAffinity -0.897515833
REMARK minimizedRMSD -1
REMARK  0 active torsions:
REMARK  status: ('A' for Active; 'I' for Inactive)
ROOT
ATOM      1  C   UNL d   1      -2.892  -1.743   0.269  0.00  0.00    -0.002 A 
ATOM      2  C1  UNL d   1      -2.975  -1.721  -1.116  0.00  0.00     0.010 A 
ATOM      3  C2  UNL d   1      -1.999  -1.073  -1.876  0.00  0.00     0.041 A 
ATOM      4  C3  UNL d   1      -0.928  -0.442  -1.214  0.00  0.00    -0.075 A 
ATOM      5  S   UNL d   1       0.383   0.412  -1.939  0.00  0.00     0.015 SA
ATOM      6  C4  UNL d   1       1.085   0.768  -0.427  0.00  0.00     0.022 A 
ATOM      7  C5  UNL d   1       0.350   0.255   0.616  0.00  0.00     0.026 A 
ATOM      8  C6  UNL d   1      -0.822  -0.451   0.179  0.00  0.00    -0.082 A 
ATOM      9  C7  UNL d   1      -1.827  -1.116   0.922  0.00  0.00     0.045 A 
ENDROOT
TORSDOF 0
ENDMDL
