MODEL 1
REMARK minimizedAffinity -2.43486762
REMARK minimizedRMSD -1
REMARK  0 active torsions:
REMARK  status: ('A' for Active; 'I' for Inactive)
ROOT
ATOM      1  C   UNL d   1       3.471   1.889   1.248  0.00  0.00    -0.002 A 
ATOM      2  C1  UNL d   1       2.671   3.022   1.316  0.00  0.00     0.010 A 
ATOM      3  C2  UNL d   1       1.354   2.990   0.854  0.00  0.00     0.041 A 
ATOM      4  C3  UNL d   1       0.848   1.789   0.319  0.00  0.00    -0.075 A 
ATOM      5  S   UNL d   1      -0.735   1.515  -0.306  0.00  0.00     0.015 SA
ATOM      6  C4  UNL d   1      -0.388  -0.112  -0.677  0.00  0.00     0.022 A 
ATOM      7  C5  UNL d   1       0.900  -0.455  -0.338  0.00  0.00     0.026 A 
ATOM      8  C6  UNL d   1       1.633   0.635   0.241  0.00  0.00    -0.082 A 
ATOM      9  C7  UNL d   1       2.965   0.699   0.717  0.00  0.00     0.045 A 
ENDROOT
TORSDOF 0
ENDMDL
