MODEL 1
REMARK minimizedAffinity -0.104363844
REMARK minimizedRMSD -1
REMARK  0 active torsions:
REMARK  status: ('A' for Active; 'I' for Inactive)
ROOT
ATOM      1  C   UNL d   1      -0.249  -0.064  -0.506  0.00  0.00    -0.002 A 
ATOM      2  C1  UNL d   1      -0.956   1.128  -0.443  0.00  0.00     0.010 A 
ATOM      3  C2  UNL d   1      -0.390   2.258   0.151  0.00  0.00     0.041 A 
ATOM      4  C3  UNL d   1       0.911   2.169   0.683  0.00  0.00    -0.075 A 
ATOM      5  S   UNL d   1       1.806   3.424   1.456  0.00  0.00     0.015 SA
ATOM      6  C4  UNL d   1       3.148   2.406   1.720  0.00  0.00     0.022 A 
ATOM      7  C5  UNL d   1       2.935   1.137   1.237  0.00  0.00     0.026 A 
ATOM      8  C6  UNL d   1       1.643   0.979   0.631  0.00  0.00    -0.082 A 
ATOM      9  C7  UNL d   1       1.041  -0.149   0.023  0.00  0.00     0.045 A 
ENDROOT
TORSDOF 0
ENDMDL
