MODEL 1
REMARK minimizedAffinity -3.77325392
REMARK minimizedRMSD -1
REMARK  0 active torsions:
REMARK  status: ('A' for Active; 'I' for Inactive)
ROOT
ATOM      1  C   UNL d   1      -2.331  -0.353  -1.434  0.00  0.00    -0.002 A 
ATOM      2  C1  UNL d   1      -2.334  -1.172  -0.314  0.00  0.00     0.010 A 
ATOM      3  C2  UNL d   1      -1.236  -1.201   0.548  0.00  0.00     0.041 A 
ATOM      4  C3  UNL d   1      -0.124  -0.383   0.263  0.00  0.00    -0.075 A 
ATOM      5  S   UNL d   1       1.332  -0.254   1.177  0.00  0.00     0.015 SA
ATOM      6  C4  UNL d   1       1.992   0.893   0.102  0.00  0.00     0.022 A 
ATOM      7  C5  UNL d   1       1.136   1.180  -0.935  0.00  0.00     0.026 A 
ATOM      8  C6  UNL d   1      -0.098   0.450  -0.859  0.00  0.00    -0.082 A 
ATOM      9  C7  UNL d   1      -1.226   0.456  -1.714  0.00  0.00     0.045 A 
ENDROOT
TORSDOF 0
ENDMDL
