MODEL 1
REMARK minimizedAffinity 7.51422024
REMARK minimizedRMSD -1
REMARK  1 active torsions:
REMARK  status: ('A' for Active; 'I' for Inactive)
REMARK    1  A    between atoms: C1_2  and  C2_3 
ROOT
ATOM      1  C2  UNL d   1       0.634   0.293   3.024  0.00  0.00    -0.077 A 
ATOM      2  C3  UNL d   1      -0.390   1.075   3.577  0.00  0.00     0.002 A 
ATOM      3  C4  UNL d   1      -0.778   2.268   2.964  0.00  0.00     0.002 A 
ATOM      4  C5  UNL d   1      -0.150   2.687   1.793  0.00  0.00    -0.004 A 
ATOM      5  C6  UNL d   1       0.871   1.918   1.236  0.00  0.00     0.002 A 
ATOM      6  C7  UNL d   1       1.261   0.726   1.849  0.00  0.00     0.002 A 
ENDROOT
BRANCH   1   7
ATOM      7  C1  UNL d   1       1.019  -1.018   3.657  0.00  0.00     0.055 C 
ATOM      8  C   UNL d   1       0.954  -0.941   5.175  0.00  0.00     0.019 C 
ENDBRANCH   1   7
TORSDOF 1
ENDMDL
