MODEL 1
REMARK minimizedAffinity 1.22887743
REMARK minimizedRMSD -1
REMARK  1 active torsions:
REMARK  status: ('A' for Active; 'I' for Inactive)
REMARK    1  A    between atoms: C1_2  and  C2_3 
ROOT
ATOM      1  C2  UNL d   1       0.210   1.348   2.668  0.00  0.00    -0.077 A 
ATOM      2  C3  UNL d   1      -1.109   0.911   2.856  0.00  0.00     0.002 A 
ATOM      3  C4  UNL d   1      -2.180   1.681   2.397  0.00  0.00     0.002 A 
ATOM      4  C5  UNL d   1      -1.943   2.889   1.744  0.00  0.00    -0.004 A 
ATOM      5  C6  UNL d   1      -0.635   3.333   1.555  0.00  0.00     0.002 A 
ATOM      6  C7  UNL d   1       0.437   2.566   2.014  0.00  0.00     0.002 A 
ENDROOT
BRANCH   1   7
ATOM      7  C1  UNL d   1       1.368   0.496   3.119  0.00  0.00     0.055 C 
ATOM      8  C   UNL d   1       0.889  -0.733   3.877  0.00  0.00     0.019 C 
ENDBRANCH   1   7
TORSDOF 1
ENDMDL
