MODEL 1
REMARK minimizedAffinity 6.27154779
REMARK minimizedRMSD -1
REMARK  1 active torsions:
REMARK  status: ('A' for Active; 'I' for Inactive)
REMARK    1  A    between atoms: C1_2  and  C2_3 
ROOT
ATOM      1  C2  UNL d   1      -4.348  -0.537   2.398  0.00  0.00    -0.077 A 
ATOM      2  C3  UNL d   1      -3.459  -1.416   3.032  0.00  0.00     0.002 A 
ATOM      3  C4  UNL d   1      -3.835  -2.081   4.201  0.00  0.00     0.002 A 
ATOM      4  C5  UNL d   1      -5.102  -1.877   4.743  0.00  0.00    -0.004 A 
ATOM      5  C6  UNL d   1      -5.993  -1.003   4.122  0.00  0.00     0.002 A 
ATOM      6  C7  UNL d   1      -5.618  -0.337   2.954  0.00  0.00     0.002 A 
ENDROOT
BRANCH   1   7
ATOM      7  C1  UNL d   1      -3.963   0.143   1.111  0.00  0.00     0.055 C 
ATOM      8  C   UNL d   1      -3.270  -0.823   0.160  0.00  0.00     0.019 C 
ENDBRANCH   1   7
TORSDOF 1
ENDMDL
