MODEL 1
REMARK minimizedAffinity 4.47268677
REMARK minimizedRMSD -1
REMARK  1 active torsions:
REMARK  status: ('A' for Active; 'I' for Inactive)
REMARK    1  A    between atoms: C1_2  and  C2_3 
ROOT
ATOM      1  C2  UNL d   1      -0.983   0.394  -1.868  0.00  0.00    -0.077 A 
ATOM      2  C3  UNL d   1      -0.685  -0.368  -3.006  0.00  0.00     0.002 A 
ATOM      3  C4  UNL d   1      -1.707  -0.984  -3.731  0.00  0.00     0.002 A 
ATOM      4  C5  UNL d   1      -3.033  -0.842  -3.328  0.00  0.00    -0.004 A 
ATOM      5  C6  UNL d   1      -3.339  -0.089  -2.196  0.00  0.00     0.002 A 
ATOM      6  C7  UNL d   1      -2.319   0.527  -1.469  0.00  0.00     0.002 A 
ENDROOT
BRANCH   1   7
ATOM      7  C1  UNL d   1       0.113   1.100  -1.113  0.00  0.00     0.055 C 
ATOM      8  C   UNL d   1      -0.421   2.317  -0.371  0.00  0.00     0.019 C 
ENDBRANCH   1   7
TORSDOF 1
ENDMDL
