MODEL 1
REMARK minimizedAffinity -2.75525069
REMARK minimizedRMSD -1
REMARK  1 active torsions:
REMARK  status: ('A' for Active; 'I' for Inactive)
REMARK    1  A    between atoms: C1_2  and  C2_3 
ROOT
ATOM      1  C2  UNL d   1       0.609   1.069  -0.598  0.00  0.00    -0.077 A 
ATOM      2  C3  UNL d   1       0.613   0.134   0.447  0.00  0.00     0.002 A 
ATOM      3  C4  UNL d   1       0.591   0.560   1.776  0.00  0.00     0.002 A 
ATOM      4  C5  UNL d   1       0.559   1.921   2.073  0.00  0.00    -0.004 A 
ATOM      5  C6  UNL d   1       0.557   2.859   1.041  0.00  0.00     0.002 A 
ATOM      6  C7  UNL d   1       0.581   2.435  -0.288  0.00  0.00     0.002 A 
ENDROOT
BRANCH   1   7
ATOM      7  C1  UNL d   1       0.584   0.610  -2.033  0.00  0.00     0.055 C 
ATOM      8  C   UNL d   1      -0.826   0.240  -2.471  0.00  0.00     0.019 C 
ENDBRANCH   1   7
TORSDOF 1
ENDMDL
