MODEL 1
REMARK minimizedAffinity -3.65598416
REMARK minimizedRMSD -1
REMARK  1 active torsions:
REMARK  status: ('A' for Active; 'I' for Inactive)
REMARK    1  A    between atoms: C1_2  and  C2_3 
ROOT
ATOM      1  C2  UNL d   1       0.136  -0.551   0.234  0.00  0.00    -0.076 A 
ATOM      2  C3  UNL d   1       1.526  -0.759   0.267  0.00  0.00     0.004 A 
ATOM      3  C4  UNL d   1       2.187  -0.999   1.470  0.00  0.00    -0.003 A 
ATOM      4  C5  UNL d   1       1.469  -1.034   2.660  0.00  0.00     0.000 A 
ATOM      5  C6  UNL d   1       0.088  -0.846   2.644  0.00  0.00     0.000 A 
ATOM      6  C7  UNL d   1      -0.597  -0.620   1.438  0.00  0.00    -0.073 A 
ATOM      7  C8  UNL d   1      -2.087  -0.418   1.480  0.00  0.00     0.078 C 
ENDROOT
BRANCH   1   8
ATOM      8  C1  UNL d   1      -0.522  -0.269  -1.098  0.00  0.00     0.053 C 
ATOM      9  C   UNL d   1      -0.453   1.201  -1.482  0.00  0.00     0.018 C 
ENDBRANCH   1   8
TORSDOF 1
ENDMDL
