MODEL 1
REMARK minimizedAffinity -2.07956648
REMARK minimizedRMSD -1
REMARK  1 active torsions:
REMARK  status: ('A' for Active; 'I' for Inactive)
REMARK    1  A    between atoms: C1_2  and  C2_3 
ROOT
ATOM      1  C2  UNL d   1      -0.160  -0.070  -0.120  0.00  0.00    -0.076 A 
ATOM      2  C3  UNL d   1      -1.157   0.252   0.816  0.00  0.00     0.004 A 
ATOM      3  C4  UNL d   1      -1.012  -0.081   2.162  0.00  0.00    -0.003 A 
ATOM      4  C5  UNL d   1       0.134  -0.741   2.593  0.00  0.00     0.000 A 
ATOM      5  C6  UNL d   1       1.142  -1.052   1.681  0.00  0.00     0.000 A 
ATOM      6  C7  UNL d   1       1.018  -0.709   0.323  0.00  0.00    -0.073 A 
ATOM      7  C8  UNL d   1       2.133  -1.074  -0.618  0.00  0.00     0.078 C 
ENDROOT
BRANCH   1   8
ATOM      8  C1  UNL d   1      -0.384   0.292  -1.571  0.00  0.00     0.053 C 
ATOM      9  C   UNL d   1      -0.306   1.791  -1.816  0.00  0.00     0.018 C 
ENDBRANCH   1   8
TORSDOF 1
ENDMDL
