MODEL 1
REMARK minimizedAffinity -5.10658884
REMARK minimizedRMSD -1
REMARK  1 active torsions:
REMARK  status: ('A' for Active; 'I' for Inactive)
REMARK    1  A    between atoms: C1_2  and  C2_3 
ROOT
ATOM      1  C2  UNL d   1       0.045  -0.322   0.027  0.00  0.00    -0.076 A 
ATOM      2  C3  UNL d   1      -0.553  -0.101   1.280  0.00  0.00     0.004 A 
ATOM      3  C4  UNL d   1      -0.045  -0.696   2.433  0.00  0.00    -0.003 A 
ATOM      4  C5  UNL d   1       1.072  -1.521   2.352  0.00  0.00     0.000 A 
ATOM      5  C6  UNL d   1       1.689  -1.737   1.120  0.00  0.00     0.000 A 
ATOM      6  C7  UNL d   1       1.198  -1.132  -0.049  0.00  0.00    -0.073 A 
ATOM      7  C8  UNL d   1       1.899  -1.405  -1.352  0.00  0.00     0.078 C 
ENDROOT
BRANCH   1   8
ATOM      8  C1  UNL d   1      -0.567   0.328  -1.193  0.00  0.00     0.053 C 
ATOM      9  C   UNL d   1      -0.096   1.761  -1.388  0.00  0.00     0.018 C 
ENDBRANCH   1   8
TORSDOF 1
ENDMDL
