MODEL 1
REMARK minimizedAffinity -6.41001129
REMARK minimizedRMSD -1
REMARK  1 active torsions:
REMARK  status: ('A' for Active; 'I' for Inactive)
REMARK    1  A    between atoms: C1_2  and  C2_3 
ROOT
ATOM      1  C2  UNL d   1       1.127  -1.434   0.456  0.00  0.00    -0.076 A 
ATOM      2  C3  UNL d   1       1.463  -1.835   1.761  0.00  0.00     0.004 A 
ATOM      3  C4  UNL d   1       0.751  -1.364   2.862  0.00  0.00    -0.003 A 
ATOM      4  C5  UNL d   1      -0.310  -0.484   2.677  0.00  0.00     0.000 A 
ATOM      5  C6  UNL d   1      -0.668  -0.089   1.388  0.00  0.00     0.000 A 
ATOM      6  C7  UNL d   1       0.030  -0.568   0.266  0.00  0.00    -0.073 A 
ATOM      7  C8  UNL d   1      -0.396  -0.104  -1.100  0.00  0.00     0.078 C 
ENDROOT
BRANCH   1   8
ATOM      8  C1  UNL d   1       1.953  -1.956  -0.698  0.00  0.00     0.053 C 
ATOM      9  C   UNL d   1       3.413  -2.162  -0.323  0.00  0.00     0.018 C 
ENDBRANCH   1   8
TORSDOF 1
ENDMDL
