MODEL 1
REMARK minimizedAffinity -4.94785547
REMARK minimizedRMSD -1
REMARK  1 active torsions:
REMARK  status: ('A' for Active; 'I' for Inactive)
REMARK    1  A    between atoms: C1_2  and  C2_3 
ROOT
ATOM      1  C2  UNL d   1       1.401  -0.823   0.169  0.00  0.00    -0.076 A 
ATOM      2  C3  UNL d   1       0.513  -0.736  -0.917  0.00  0.00     0.004 A 
ATOM      3  C4  UNL d   1      -0.840  -0.467  -0.718  0.00  0.00    -0.003 A 
ATOM      4  C5  UNL d   1      -1.327  -0.280   0.571  0.00  0.00     0.000 A 
ATOM      5  C6  UNL d   1      -0.457  -0.346   1.659  0.00  0.00     0.000 A 
ATOM      6  C7  UNL d   1       0.913  -0.600   1.474  0.00  0.00    -0.073 A 
ATOM      7  C8  UNL d   1       1.804  -0.666   2.684  0.00  0.00     0.078 C 
ENDROOT
BRANCH   1   8
ATOM      8  C1  UNL d   1       2.853  -1.144  -0.107  0.00  0.00     0.053 C 
ATOM      9  C   UNL d   1       3.038  -1.959  -1.377  0.00  0.00     0.018 C 
ENDBRANCH   1   8
TORSDOF 1
ENDMDL
