MODEL 1
REMARK minimizedAffinity -1.54640388
REMARK minimizedRMSD -1
REMARK  0 active torsions:
REMARK  status: ('A' for Active; 'I' for Inactive)
ROOT
ATOM      1  C   UNL d   1       1.005   1.368  -1.801  0.00  0.00     0.020 A 
ATOM      2  C1  UNL d   1       0.811   0.864  -0.515  0.00  0.00     0.020 A 
ATOM      3  C2  UNL d   1       0.905   1.713   0.589  0.00  0.00     0.034 A 
ATOM      4  C3  UNL d   1       1.194   3.071   0.411  0.00  0.00     0.017 A 
ATOM      5  C4  UNL d   1       1.388   3.576  -0.880  0.00  0.00     0.017 A 
ATOM      6  C5  UNL d   1       1.293   2.721  -1.983  0.00  0.00     0.034 A 
ATOM      7 Cl   UNL d   1       1.748   5.240  -1.180  0.00  0.00    -0.070 Cl
ATOM      8 Cl1  UNL d   1       1.294   4.063   1.822  0.00  0.00    -0.070 Cl
ENDROOT
TORSDOF 0
ENDMDL
