MODEL 1
REMARK minimizedAffinity 3.86233425
REMARK minimizedRMSD -1
REMARK  0 active torsions:
REMARK  status: ('A' for Active; 'I' for Inactive)
ROOT
ATOM      1  C   UNL d   1       0.744   2.239   2.234  0.00  0.00     0.020 A 
ATOM      2  C1  UNL d   1       2.011   2.302   2.813  0.00  0.00     0.020 A 
ATOM      3  C2  UNL d   1       3.063   1.558   2.275  0.00  0.00     0.034 A 
ATOM      4  C3  UNL d   1       2.850   0.746   1.154  0.00  0.00     0.017 A 
ATOM      5  C4  UNL d   1       1.578   0.683   0.574  0.00  0.00     0.017 A 
ATOM      6  C5  UNL d   1       0.528   1.431   1.117  0.00  0.00     0.034 A 
ATOM      7 Cl   UNL d   1       1.238  -0.295  -0.810  0.00  0.00    -0.070 Cl
ATOM      8 Cl1  UNL d   1       4.196  -0.147   0.541  0.00  0.00    -0.070 Cl
ENDROOT
TORSDOF 0
ENDMDL
