MODEL 1
REMARK minimizedAffinity -1.59194303
REMARK minimizedRMSD -1
REMARK  0 active torsions:
REMARK  status: ('A' for Active; 'I' for Inactive)
ROOT
ATOM      1  C   UNL d   1       0.956   0.095  -0.739  0.00  0.00     0.020 A 
ATOM      2  C1  UNL d   1       1.142   0.701  -1.981  0.00  0.00     0.020 A 
ATOM      3  C2  UNL d   1       1.451   2.061  -2.055  0.00  0.00     0.034 A 
ATOM      4  C3  UNL d   1       1.575   2.820  -0.886  0.00  0.00     0.017 A 
ATOM      5  C4  UNL d   1       1.388   2.211   0.360  0.00  0.00     0.017 A 
ATOM      6  C5  UNL d   1       1.079   0.849   0.429  0.00  0.00     0.034 A 
ATOM      7 Cl   UNL d   1       1.525   3.081   1.847  0.00  0.00    -0.070 Cl
ATOM      8 Cl1  UNL d   1       1.959   4.496  -1.052  0.00  0.00    -0.070 Cl
ENDROOT
TORSDOF 0
ENDMDL
