MODEL 1
REMARK minimizedAffinity 6.72757864
REMARK minimizedRMSD -1
REMARK  0 active torsions:
REMARK  status: ('A' for Active; 'I' for Inactive)
ROOT
ATOM      1  C   UNL d   1       1.090   1.645  -0.260  0.00  0.00     0.020 A 
ATOM      2  C1  UNL d   1       1.344   2.042  -1.572  0.00  0.00     0.020 A 
ATOM      3  C2  UNL d   1       1.555   3.391  -1.865  0.00  0.00     0.034 A 
ATOM      4  C3  UNL d   1       1.513   4.348  -0.845  0.00  0.00     0.017 A 
ATOM      5  C4  UNL d   1       1.258   3.948   0.472  0.00  0.00     0.017 A 
ATOM      6  C5  UNL d   1       1.047   2.596   0.760  0.00  0.00     0.034 A 
ATOM      7 Cl   UNL d   1       1.190   5.071   1.785  0.00  0.00    -0.070 Cl
ATOM      8 Cl1  UNL d   1       1.784   5.998  -1.279  0.00  0.00    -0.070 Cl
ENDROOT
TORSDOF 0
ENDMDL
