MODEL 1
REMARK minimizedAffinity 1.16494918
REMARK minimizedRMSD -1
REMARK  0 active torsions:
REMARK  status: ('A' for Active; 'I' for Inactive)
ROOT
ATOM      1  C   UNL d   1       1.055  -0.052   0.004  0.00  0.00     0.020 A 
ATOM      2  C1  UNL d   1       1.162   0.144  -1.372  0.00  0.00     0.020 A 
ATOM      3  C2  UNL d   1       1.289   1.437  -1.885  0.00  0.00     0.034 A 
ATOM      4  C3  UNL d   1       1.309   2.538  -1.022  0.00  0.00     0.017 A 
ATOM      5  C4  UNL d   1       1.203   2.340   0.360  0.00  0.00     0.017 A 
ATOM      6  C5  UNL d   1       1.076   1.044   0.868  0.00  0.00     0.034 A 
ATOM      7 Cl   UNL d   1       1.221   3.650   1.488  0.00  0.00    -0.070 Cl
ATOM      8 Cl1  UNL d   1       1.469   4.108  -1.726  0.00  0.00    -0.070 Cl
ENDROOT
TORSDOF 0
ENDMDL
