MODEL 1
REMARK minimizedAffinity -1.47485542
REMARK minimizedRMSD -1
REMARK  0 active torsions:
REMARK  status: ('A' for Active; 'I' for Inactive)
ROOT
ATOM      1  C   UNL d   1       0.956  -0.042  -0.086  0.00  0.00     0.020 A 
ATOM      2  C1  UNL d   1       1.069   0.278  -1.438  0.00  0.00     0.020 A 
ATOM      3  C2  UNL d   1       1.249   1.607  -1.828  0.00  0.00     0.034 A 
ATOM      4  C3  UNL d   1       1.316   2.620  -0.865  0.00  0.00     0.017 A 
ATOM      5  C4  UNL d   1       1.202   2.297   0.493  0.00  0.00     0.017 A 
ATOM      6  C5  UNL d   1       1.023   0.965   0.877  0.00  0.00     0.034 A 
ATOM      7 Cl   UNL d   1       1.276   3.493   1.739  0.00  0.00    -0.070 Cl
ATOM      8 Cl1  UNL d   1       1.540   4.242  -1.418  0.00  0.00    -0.070 Cl
ENDROOT
TORSDOF 0
ENDMDL
