MODEL 1
REMARK minimizedAffinity -0.994961679
REMARK minimizedRMSD -1
REMARK  0 active torsions:
REMARK  status: ('A' for Active; 'I' for Inactive)
ROOT
ATOM      1  C   UNL d   1       1.160   0.463  -1.262  0.00  0.00     0.020 A 
ATOM      2  C1  UNL d   1       0.946   0.228   0.095  0.00  0.00     0.020 A 
ATOM      3  C2  UNL d   1       0.972   1.291   1.001  0.00  0.00     0.034 A 
ATOM      4  C3  UNL d   1       1.213   2.594   0.550  0.00  0.00     0.017 A 
ATOM      5  C4  UNL d   1       1.428   2.829  -0.813  0.00  0.00     0.017 A 
ATOM      6  C5  UNL d   1       1.401   1.761  -1.715  0.00  0.00     0.034 A 
ATOM      7 Cl   UNL d   1       1.731   4.409  -1.444  0.00  0.00    -0.070 Cl
ATOM      8 Cl1  UNL d   1       1.231   3.860   1.725  0.00  0.00    -0.070 Cl
ENDROOT
TORSDOF 0
ENDMDL
