MODEL 1
REMARK minimizedAffinity 5.48889112
REMARK minimizedRMSD -1
REMARK  0 active torsions:
REMARK  status: ('A' for Active; 'I' for Inactive)
ROOT
ATOM      1  C   UNL d   1       0.848  -0.313  -1.127  0.00  0.00     0.020 A 
ATOM      2  C1  UNL d   1       1.627   0.256  -0.120  0.00  0.00     0.020 A 
ATOM      3  C2  UNL d   1       2.081   1.570  -0.247  0.00  0.00     0.034 A 
ATOM      4  C3  UNL d   1       1.758   2.320  -1.384  0.00  0.00     0.017 A 
ATOM      5  C4  UNL d   1       0.976   1.749  -2.394  0.00  0.00     0.017 A 
ATOM      6  C5  UNL d   1       0.523   0.432  -2.262  0.00  0.00     0.034 A 
ATOM      7 Cl   UNL d   1       0.536   2.611  -3.825  0.00  0.00    -0.070 Cl
ATOM      8 Cl1  UNL d   1       2.354   3.940  -1.474  0.00  0.00    -0.070 Cl
ENDROOT
TORSDOF 0
ENDMDL
