MODEL 1
REMARK minimizedAffinity 9.1140604
REMARK minimizedRMSD -1
REMARK  0 active torsions:
REMARK  status: ('A' for Active; 'I' for Inactive)
ROOT
ATOM      1  C   UNL d   1      -2.696   2.504   0.160  0.00  0.00     0.020 A 
ATOM      2  C1  UNL d   1      -2.264   2.847   1.440  0.00  0.00     0.020 A 
ATOM      3  C2  UNL d   1      -0.972   2.515   1.854  0.00  0.00     0.034 A 
ATOM      4  C3  UNL d   1      -0.107   1.839   0.986  0.00  0.00     0.017 A 
ATOM      5  C4  UNL d   1      -0.541   1.495  -0.300  0.00  0.00     0.017 A 
ATOM      6  C5  UNL d   1      -1.836   1.830  -0.708  0.00  0.00     0.034 A 
ATOM      7 Cl   UNL d   1       0.469   0.661  -1.427  0.00  0.00    -0.070 Cl
ATOM      8 Cl1  UNL d   1       1.477   1.461   1.563  0.00  0.00    -0.070 Cl
ENDROOT
TORSDOF 0
ENDMDL
