MODEL 1
REMARK minimizedAffinity -5.2444067
REMARK minimizedRMSD -1
REMARK  0 active torsions:
REMARK  status: ('A' for Active; 'I' for Inactive)
ROOT
ATOM      1  C   UNL d   1       0.627   0.164  -0.162  0.00  0.00     0.020 A 
ATOM      2  C1  UNL d   1       0.710   0.613  -1.479  0.00  0.00     0.020 A 
ATOM      3  C2  UNL d   1       0.994   1.955  -1.742  0.00  0.00     0.034 A 
ATOM      4  C3  UNL d   1       1.196   2.852  -0.687  0.00  0.00     0.017 A 
ATOM      5  C4  UNL d   1       1.112   2.400   0.635  0.00  0.00     0.017 A 
ATOM      6  C5  UNL d   1       0.828   1.055   0.893  0.00  0.00     0.034 A 
ATOM      7 Cl   UNL d   1       1.349   3.447   1.990  0.00  0.00    -0.070 Cl
ATOM      8 Cl1  UNL d   1       1.544   4.497  -1.086  0.00  0.00    -0.070 Cl
ENDROOT
TORSDOF 0
ENDMDL
