MODEL 1
REMARK minimizedAffinity -2.37819791
REMARK minimizedRMSD -1
REMARK  0 active torsions:
REMARK  status: ('A' for Active; 'I' for Inactive)
ROOT
ATOM      1  C   UNL d   1       1.263   1.570  -1.488  0.00  0.00     0.020 A 
ATOM      2  C1  UNL d   1       1.162   1.109  -0.176  0.00  0.00     0.020 A 
ATOM      3  C2  UNL d   1       1.320   1.997   0.890  0.00  0.00     0.034 A 
ATOM      4  C3  UNL d   1       1.581   3.351   0.646  0.00  0.00     0.017 A 
ATOM      5  C4  UNL d   1       1.683   3.812  -0.671  0.00  0.00     0.017 A 
ATOM      6  C5  UNL d   1       1.523   2.919  -1.735  0.00  0.00     0.034 A 
ATOM      7 Cl   UNL d   1       2.003   5.468  -1.051  0.00  0.00    -0.070 Cl
ATOM      8 Cl1  UNL d   1       1.766   4.392   2.012  0.00  0.00    -0.070 Cl
ENDROOT
TORSDOF 0
ENDMDL
