MODEL 1
REMARK minimizedAffinity -1.691908
REMARK minimizedRMSD -1
REMARK  0 active torsions:
REMARK  status: ('A' for Active; 'I' for Inactive)
ROOT
ATOM      1  C   UNL d   1       0.888   1.632  -2.339  0.00  0.00     0.020 A 
ATOM      2  C1  UNL d   1       1.359   0.376  -1.959  0.00  0.00     0.020 A 
ATOM      3  C2  UNL d   1       1.728   0.141  -0.633  0.00  0.00     0.034 A 
ATOM      4  C3  UNL d   1       1.626   1.163   0.318  0.00  0.00     0.017 A 
ATOM      5  C4  UNL d   1       1.152   2.423  -0.064  0.00  0.00     0.017 A 
ATOM      6  C5  UNL d   1       0.784   2.653  -1.393  0.00  0.00     0.034 A 
ATOM      7 Cl   UNL d   1       0.998   3.733   1.053  0.00  0.00    -0.070 Cl
ATOM      8 Cl1  UNL d   1       2.099   0.801   1.940  0.00  0.00    -0.070 Cl
ENDROOT
TORSDOF 0
ENDMDL
