MODEL 1
REMARK minimizedAffinity 3.8489306
REMARK minimizedRMSD -1
REMARK  0 active torsions:
REMARK  status: ('A' for Active; 'I' for Inactive)
ROOT
ATOM      1  C   UNL d   1       3.116   0.443   0.770  0.00  0.00     0.020 A 
ATOM      2  C1  UNL d   1       2.894   0.126  -0.569  0.00  0.00     0.020 A 
ATOM      3  C2  UNL d   1       2.147   0.986  -1.376  0.00  0.00     0.034 A 
ATOM      4  C3  UNL d   1       1.619   2.169  -0.845  0.00  0.00     0.017 A 
ATOM      5  C4  UNL d   1       1.842   2.486   0.500  0.00  0.00     0.017 A 
ATOM      6  C5  UNL d   1       2.591   1.621   1.303  0.00  0.00     0.034 A 
ATOM      7 Cl   UNL d   1       1.223   3.927   1.227  0.00  0.00    -0.070 Cl
ATOM      8 Cl1  UNL d   1       0.704   3.186  -1.900  0.00  0.00    -0.070 Cl
ENDROOT
TORSDOF 0
ENDMDL
