MODEL 1
REMARK minimizedAffinity -0.00221012998
REMARK minimizedRMSD -1
REMARK  0 active torsions:
REMARK  status: ('A' for Active; 'I' for Inactive)
ROOT
ATOM      1  C   UNL d   1       0.447   1.099  -1.748  0.00  0.00     0.020 A 
ATOM      2  C1  UNL d   1       1.023  -0.099  -1.329  0.00  0.00     0.020 A 
ATOM      3  C2  UNL d   1       1.573  -0.200  -0.049  0.00  0.00     0.034 A 
ATOM      4  C3  UNL d   1       1.548   0.900   0.816  0.00  0.00     0.017 A 
ATOM      5  C4  UNL d   1       0.970   2.103   0.395  0.00  0.00     0.017 A 
ATOM      6  C5  UNL d   1       0.420   2.198  -0.888  0.00  0.00     0.034 A 
ATOM      7 Cl   UNL d   1       0.902   3.503   1.406  0.00  0.00    -0.070 Cl
ATOM      8 Cl1  UNL d   1       2.247   0.704   2.384  0.00  0.00    -0.070 Cl
ENDROOT
TORSDOF 0
ENDMDL
