MODEL 1
REMARK minimizedAffinity 4.5277462
REMARK minimizedRMSD -1
REMARK  0 active torsions:
REMARK  status: ('A' for Active; 'I' for Inactive)
ROOT
ATOM      1  C   UNL d   1       1.710   0.599  -0.017  0.00  0.00     0.020 A 
ATOM      2  C1  UNL d   1       0.972  -0.015  -1.028  0.00  0.00     0.020 A 
ATOM      3  C2  UNL d   1       0.322   0.763  -1.989  0.00  0.00     0.034 A 
ATOM      4  C3  UNL d   1       0.411   2.159  -1.942  0.00  0.00     0.017 A 
ATOM      5  C4  UNL d   1       1.152   2.774  -0.927  0.00  0.00     0.017 A 
ATOM      6  C5  UNL d   1       1.800   1.991   0.033  0.00  0.00     0.034 A 
ATOM      7 Cl   UNL d   1       1.307   4.491  -0.804  0.00  0.00    -0.070 Cl
ATOM      8 Cl1  UNL d   1      -0.417   3.058  -3.164  0.00  0.00    -0.070 Cl
ENDROOT
TORSDOF 0
ENDMDL
