MODEL 1
REMARK minimizedAffinity 6.29896069
REMARK minimizedRMSD -1
REMARK  0 active torsions:
REMARK  status: ('A' for Active; 'I' for Inactive)
ROOT
ATOM      1  C   UNL d   1       1.816   0.926  -1.003  0.00  0.00     0.020 A 
ATOM      2  C1  UNL d   1       0.898   0.450  -1.937  0.00  0.00     0.020 A 
ATOM      3  C2  UNL d   1      -0.040   1.318  -2.500  0.00  0.00     0.034 A 
ATOM      4  C3  UNL d   1      -0.062   2.668  -2.127  0.00  0.00     0.017 A 
ATOM      5  C4  UNL d   1       0.861   3.144  -1.189  0.00  0.00     0.017 A 
ATOM      6  C5  UNL d   1       1.798   2.270  -0.629  0.00  0.00     0.034 A 
ATOM      7 Cl   UNL d   1       0.896   4.796  -0.680  0.00  0.00    -0.070 Cl
ATOM      8 Cl1  UNL d   1      -1.249   3.685  -2.863  0.00  0.00    -0.070 Cl
ENDROOT
TORSDOF 0
ENDMDL
