MODEL 1
REMARK minimizedAffinity 14.3820705
REMARK minimizedRMSD -1
REMARK  0 active torsions:
REMARK  status: ('A' for Active; 'I' for Inactive)
ROOT
ATOM      1  O1  BZF d   1       2.477  -3.400   4.262  0.00  0.00    -0.204 OA
ATOM      2  C2  BZF d   1       2.037  -3.289   5.567  0.00  0.00     0.174 A 
ATOM      3  C3  BZF d   1       1.428  -2.103   5.767  0.00  0.00    -0.012 A 
ATOM      4  C3A BZF d   1       1.409  -1.468   4.485  0.00  0.00    -0.107 A 
ATOM      5  C4  BZF d   1       0.922  -0.274   4.036  0.00  0.00     0.055 A 
ATOM      6  C5  BZF d   1       1.131   0.078   2.740  0.00  0.00    -0.016 A 
ATOM      7  C6  BZF d   1       1.824  -0.736   1.869  0.00  0.00     0.022 A 
ATOM      8  C7  BZF d   1       2.321  -1.932   2.267  0.00  0.00     0.029 A 
ATOM      9  C7A BZF d   1       2.084  -2.306   3.567  0.00  0.00     0.058 A 
ENDROOT
TORSDOF 0
ENDMDL
