MODEL 1
REMARK minimizedAffinity 12.4133596
REMARK minimizedRMSD -1
REMARK  0 active torsions:
REMARK  status: ('A' for Active; 'I' for Inactive)
ROOT
ATOM      1  O1  BZF d   1      -1.721  -1.811   1.454  0.00  0.00    -0.204 OA
ATOM      2  C2  BZF d   1      -2.147  -3.036   0.976  0.00  0.00     0.174 A 
ATOM      3  C3  BZF d   1      -1.106  -3.880   0.830  0.00  0.00    -0.012 A 
ATOM      4  C3A BZF d   1       0.030  -3.168   1.329  0.00  0.00    -0.107 A 
ATOM      5  C4  BZF d   1       1.351  -3.484   1.465  0.00  0.00     0.055 A 
ATOM      6  C5  BZF d   1       2.214  -2.538   1.920  0.00  0.00    -0.016 A 
ATOM      7  C6  BZF d   1       1.790  -1.265   2.244  0.00  0.00     0.022 A 
ATOM      8  C7  BZF d   1       0.488  -0.906   2.131  0.00  0.00     0.029 A 
ATOM      9  C7A BZF d   1      -0.391  -1.870   1.702  0.00  0.00     0.058 A 
ENDROOT
TORSDOF 0
ENDMDL
