MODEL 1
REMARK minimizedAffinity 2.9675715
REMARK minimizedRMSD -1
REMARK  0 active torsions:
REMARK  status: ('A' for Active; 'I' for Inactive)
ROOT
ATOM      1  O1  BZF d   1      -3.420   1.783  -4.549  0.00  0.00    -0.204 OA
ATOM      2  C2  BZF d   1      -3.273   0.999  -3.421  0.00  0.00     0.174 A 
ATOM      3  C3  BZF d   1      -3.485   1.723  -2.303  0.00  0.00    -0.012 A 
ATOM      4  C3A BZF d   1      -3.874   3.021  -2.764  0.00  0.00    -0.107 A 
ATOM      5  C4  BZF d   1      -4.231   4.174  -2.127  0.00  0.00     0.055 A 
ATOM      6  C5  BZF d   1      -4.482   5.286  -2.867  0.00  0.00    -0.016 A 
ATOM      7  C6  BZF d   1      -4.381   5.281  -4.243  0.00  0.00     0.022 A 
ATOM      8  C7  BZF d   1      -4.035   4.159  -4.919  0.00  0.00     0.029 A 
ATOM      9  C7A BZF d   1      -3.812   3.025  -4.177  0.00  0.00     0.058 A 
ENDROOT
TORSDOF 0
ENDMDL
