MODEL 1
REMARK minimizedAffinity 13.3183699
REMARK minimizedRMSD -1
REMARK  0 active torsions:
REMARK  status: ('A' for Active; 'I' for Inactive)
ROOT
ATOM      1  O1  BZF d   1       2.380  -4.202   4.564  0.00  0.00    -0.204 OA
ATOM      2  C2  BZF d   1       2.085  -3.924   5.884  0.00  0.00     0.174 A 
ATOM      3  C3  BZF d   1       1.499  -2.715   6.000  0.00  0.00    -0.012 A 
ATOM      4  C3A BZF d   1       1.339  -2.245   4.658  0.00  0.00    -0.107 A 
ATOM      5  C4  BZF d   1       0.804  -1.111   4.118  0.00  0.00     0.055 A 
ATOM      6  C5  BZF d   1       0.868  -0.925   2.773  0.00  0.00    -0.016 A 
ATOM      7  C6  BZF d   1       1.464  -1.849   1.940  0.00  0.00     0.022 A 
ATOM      8  C7  BZF d   1       2.004  -2.993   2.429  0.00  0.00     0.029 A 
ATOM      9  C7A BZF d   1       1.911  -3.198   3.784  0.00  0.00     0.058 A 
ENDROOT
TORSDOF 0
ENDMDL
