MODEL 1
REMARK minimizedAffinity 15.3981724
REMARK minimizedRMSD -1
REMARK  0 active torsions:
REMARK  status: ('A' for Active; 'I' for Inactive)
ROOT
ATOM      1  O1  BZF d   1       0.904  -0.613   2.751  0.00  0.00    -0.204 OA
ATOM      2  C2  BZF d   1       1.413  -0.801   1.481  0.00  0.00     0.174 A 
ATOM      3  C3  BZF d   1       2.157  -1.924   1.425  0.00  0.00    -0.012 A 
ATOM      4  C3A BZF d   1       2.035  -2.522   2.720  0.00  0.00    -0.107 A 
ATOM      5  C4  BZF d   1       2.534  -3.664   3.277  0.00  0.00     0.055 A 
ATOM      6  C5  BZF d   1       2.286  -3.922   4.588  0.00  0.00    -0.016 A 
ATOM      7  C6  BZF d   1       1.550  -3.057   5.372  0.00  0.00     0.022 A 
ATOM      8  C7  BZF d   1       1.030  -1.914   4.862  0.00  0.00     0.029 A 
ATOM      9  C7A BZF d   1       1.251  -1.667   3.529  0.00  0.00     0.058 A 
ENDROOT
TORSDOF 0
ENDMDL
