MODEL 1
REMARK minimizedAffinity 5.01749086
REMARK minimizedRMSD -1
REMARK  0 active torsions:
REMARK  status: ('A' for Active; 'I' for Inactive)
ROOT
ATOM      1  O1  BZF d   1       2.486  -3.461   4.824  0.00  0.00    -0.204 OA
ATOM      2  C2  BZF d   1       1.946  -2.974   5.999  0.00  0.00     0.174 A 
ATOM      3  C3  BZF d   1       1.423  -1.745   5.812  0.00  0.00    -0.012 A 
ATOM      4  C3A BZF d   1       1.568  -1.483   4.413  0.00  0.00    -0.107 A 
ATOM      5  C4  BZF d   1       1.224  -0.430   3.614  0.00  0.00     0.055 A 
ATOM      6  C5  BZF d   1       1.573  -0.456   2.301  0.00  0.00    -0.016 A 
ATOM      7  C6  BZF d   1       2.269  -1.515   1.755  0.00  0.00     0.022 A 
ATOM      8  C7  BZF d   1       2.628  -2.584   2.507  0.00  0.00     0.029 A 
ATOM      9  C7A BZF d   1       2.248  -2.576   3.827  0.00  0.00     0.058 A 
ENDROOT
TORSDOF 0
ENDMDL
