MODEL 1
REMARK minimizedAffinity 8.46707916
REMARK minimizedRMSD -1
REMARK  0 active torsions:
REMARK  status: ('A' for Active; 'I' for Inactive)
ROOT
ATOM      1  O1  BZF d   1      -1.873  -4.248   0.874  0.00  0.00    -0.204 OA
ATOM      2  C2  BZF d   1      -2.879  -3.909  -0.010  0.00  0.00     0.174 A 
ATOM      3  C3  BZF d   1      -2.396  -3.798  -1.265  0.00  0.00    -0.012 A 
ATOM      4  C3A BZF d   1      -1.019  -4.176  -1.173  0.00  0.00    -0.107 A 
ATOM      5  C4  BZF d   1      -0.012  -4.282  -2.089  0.00  0.00     0.055 A 
ATOM      6  C5  BZF d   1       1.237  -4.607  -1.662  0.00  0.00    -0.016 A 
ATOM      7  C6  BZF d   1       1.515  -4.826  -0.328  0.00  0.00     0.022 A 
ATOM      8  C7  BZF d   1       0.547  -4.737   0.616  0.00  0.00     0.029 A 
ATOM      9  C7A BZF d   1      -0.723  -4.442   0.184  0.00  0.00     0.058 A 
ENDROOT
TORSDOF 0
ENDMDL
