MODEL 1
REMARK minimizedAffinity 11.7433758
REMARK minimizedRMSD -1
REMARK  0 active torsions:
REMARK  status: ('A' for Active; 'I' for Inactive)
ROOT
ATOM      1  O1  BZF d   1      -2.434   3.052  -3.427  0.00  0.00    -0.204 OA
ATOM      2  C2  BZF d   1      -2.281   2.010  -2.533  0.00  0.00     0.174 A 
ATOM      3  C3  BZF d   1      -3.311   1.972  -1.662  0.00  0.00    -0.012 A 
ATOM      4  C3A BZF d   1      -4.206   3.001  -2.094  0.00  0.00    -0.107 A 
ATOM      5  C4  BZF d   1      -5.416   3.444  -1.641  0.00  0.00     0.055 A 
ATOM      6  C5  BZF d   1      -5.995   4.517  -2.242  0.00  0.00    -0.016 A 
ATOM      7  C6  BZF d   1      -5.389   5.174  -3.293  0.00  0.00     0.022 A 
ATOM      8  C7  BZF d   1      -4.191   4.769  -3.780  0.00  0.00     0.029 A 
ATOM      9  C7A BZF d   1      -3.620   3.664  -3.197  0.00  0.00     0.058 A 
ENDROOT
TORSDOF 0
ENDMDL
