MODEL 1
REMARK minimizedAffinity 16.0499916
REMARK minimizedRMSD -1
REMARK  0 active torsions:
REMARK  status: ('A' for Active; 'I' for Inactive)
ROOT
ATOM      1  O1  BZF d   1      -1.752  -4.819   0.902  0.00  0.00    -0.204 OA
ATOM      2  C2  BZF d   1      -2.693  -5.414   0.085  0.00  0.00     0.174 A 
ATOM      3  C3  BZF d   1      -2.150  -5.756  -1.101  0.00  0.00    -0.012 A 
ATOM      4  C3A BZF d   1      -0.761  -5.434  -0.986  0.00  0.00    -0.107 A 
ATOM      5  C4  BZF d   1       0.305  -5.557  -1.830  0.00  0.00     0.055 A 
ATOM      6  C5  BZF d   1       1.516  -5.080  -1.440  0.00  0.00    -0.016 A 
ATOM      7  C6  BZF d   1       1.695  -4.469  -0.216  0.00  0.00     0.022 A 
ATOM      8  C7  BZF d   1       0.669  -4.327   0.658  0.00  0.00     0.029 A 
ATOM      9  C7A BZF d   1      -0.548  -4.839   0.280  0.00  0.00     0.058 A 
ENDROOT
TORSDOF 0
ENDMDL
