MODEL 1
REMARK minimizedAffinity 1.03547049
REMARK minimizedRMSD -1
REMARK  3 active torsions:
REMARK  status: ('A' for Active; 'I' for Inactive)
REMARK    1  A    between atoms: C3'_2  and  C2'_3 
REMARK    2  A    between atoms: C2'_3  and  C1'_4 
REMARK    3  A    between atoms: C1'_4  and  C1_5 
ROOT
ATOM      1  C1  N4B d   1      -0.995   1.740   1.629  0.00  0.00    -0.075 A 
ATOM      2  C2  N4B d   1      -0.023   2.264   0.749  0.00  0.00     0.002 A 
ATOM      3  C3  N4B d   1       1.041   1.488   0.361  0.00  0.00     0.002 A 
ATOM      4  C4  N4B d   1       1.165   0.198   0.853  0.00  0.00    -0.004 A 
ATOM      5  C5  N4B d   1       0.208  -0.310   1.683  0.00  0.00     0.002 A 
ATOM      6  C6  N4B d   1      -0.869   0.458   2.078  0.00  0.00     0.002 A 
ENDROOT
BRANCH   1   7
ATOM      7  C1' N4B d   1      -2.130   2.579   2.149  0.00  0.00     0.057 C 
BRANCH   7   8
ATOM      8  C2' N4B d   1      -2.431   2.178   3.590  0.00  0.00     0.009 C 
BRANCH   8   9
ATOM      9  C3' N4B d   1      -3.908   2.304   3.919  0.00  0.00     0.004 C 
ATOM     10  C4' N4B d   1      -4.156   2.666   5.353  0.00  0.00     0.003 C 
ENDBRANCH   8   9
ENDBRANCH   7   8
ENDBRANCH   1   7
TORSDOF 3
ENDMDL
