MODEL 1
REMARK minimizedAffinity -0.463715404
REMARK minimizedRMSD -1
REMARK  3 active torsions:
REMARK  status: ('A' for Active; 'I' for Inactive)
REMARK    1  A    between atoms: C3'_2  and  C2'_3 
REMARK    2  A    between atoms: C2'_3  and  C1'_4 
REMARK    3  A    between atoms: C1'_4  and  C1_5 
ROOT
ATOM      1  C1  N4B d   1      -2.138   1.399   1.996  0.00  0.00    -0.075 A 
ATOM      2  C2  N4B d   1      -0.982   2.170   1.743  0.00  0.00     0.002 A 
ATOM      3  C3  N4B d   1       0.213   1.547   1.475  0.00  0.00     0.002 A 
ATOM      4  C4  N4B d   1       0.279   0.162   1.471  0.00  0.00    -0.004 A 
ATOM      5  C5  N4B d   1      -0.848  -0.575   1.691  0.00  0.00     0.002 A 
ATOM      6  C6  N4B d   1      -2.056   0.037   1.958  0.00  0.00     0.002 A 
ENDROOT
BRANCH   1   7
ATOM      7  C1' N4B d   1      -3.447   2.034   2.379  0.00  0.00     0.057 C 
BRANCH   7   8
ATOM      8  C2' N4B d   1      -3.920   1.445   3.704  0.00  0.00     0.009 C 
BRANCH   8   9
ATOM      9  C3' N4B d   1      -5.058   2.248   4.309  0.00  0.00     0.004 C 
ATOM     10  C4' N4B d   1      -4.918   2.429   5.791  0.00  0.00     0.003 C 
ENDBRANCH   8   9
ENDBRANCH   7   8
ENDBRANCH   1   7
TORSDOF 3
ENDMDL
