MODEL 1
REMARK minimizedAffinity -2.03283453
REMARK minimizedRMSD -1
REMARK  3 active torsions:
REMARK  status: ('A' for Active; 'I' for Inactive)
REMARK    1  A    between atoms: C3'_2  and  C2'_3 
REMARK    2  A    between atoms: C2'_3  and  C1'_4 
REMARK    3  A    between atoms: C1'_4  and  C1_5 
ROOT
ATOM      1  C1  N4B d   1       0.242   1.104   0.963  0.00  0.00    -0.075 A 
ATOM      2  C2  N4B d   1      -0.530   2.270   1.162  0.00  0.00     0.002 A 
ATOM      3  C3  N4B d   1      -1.792   2.175   1.695  0.00  0.00     0.002 A 
ATOM      4  C4  N4B d   1      -2.308   0.929   2.018  0.00  0.00    -0.004 A 
ATOM      5  C5  N4B d   1      -1.546  -0.190   1.847  0.00  0.00     0.002 A 
ATOM      6  C6  N4B d   1      -0.275  -0.109   1.316  0.00  0.00     0.002 A 
ENDROOT
BRANCH   1   7
ATOM      7  C1' N4B d   1       1.594   1.149   0.304  0.00  0.00     0.057 C 
BRANCH   7   8
ATOM      8  C2' N4B d   1       2.156  -0.267   0.217  0.00  0.00     0.009 C 
BRANCH   8   9
ATOM      9  C3' N4B d   1       2.942  -0.489  -1.064  0.00  0.00     0.004 C 
ATOM     10  C4' N4B d   1       3.046   0.750  -1.903  0.00  0.00     0.003 C 
ENDBRANCH   8   9
ENDBRANCH   7   8
ENDBRANCH   1   7
TORSDOF 3
ENDMDL
