MODEL 1
REMARK minimizedAffinity -0.281955779
REMARK minimizedRMSD -1
REMARK  3 active torsions:
REMARK  status: ('A' for Active; 'I' for Inactive)
REMARK    1  A    between atoms: C3'_2  and  C2'_3 
REMARK    2  A    between atoms: C2'_3  and  C1'_4 
REMARK    3  A    between atoms: C1'_4  and  C1_5 
ROOT
ATOM      1  C1  N4B d   1       0.151   0.365   1.045  0.00  0.00    -0.075 A 
ATOM      2  C2  N4B d   1      -0.872  -0.580   1.279  0.00  0.00     0.002 A 
ATOM      3  C3  N4B d   1      -2.090  -0.168   1.762  0.00  0.00     0.002 A 
ATOM      4  C4  N4B d   1      -2.300   1.175   2.035  0.00  0.00    -0.004 A 
ATOM      5  C5  N4B d   1      -1.316   2.085   1.782  0.00  0.00     0.002 A 
ATOM      6  C6  N4B d   1      -0.088   1.685   1.293  0.00  0.00     0.002 A 
ENDROOT
BRANCH   1   7
ATOM      7  C1' N4B d   1       1.527  -0.048   0.599  0.00  0.00     0.057 C 
BRANCH   7   8
ATOM      8  C2' N4B d   1       2.048   0.961  -0.419  0.00  0.00     0.009 C 
BRANCH   8   9
ATOM      9  C3' N4B d   1       2.868   0.296  -1.511  0.00  0.00     0.004 C 
ATOM     10  C4' N4B d   1       3.448   1.279  -2.483  0.00  0.00     0.003 C 
ENDBRANCH   8   9
ENDBRANCH   7   8
ENDBRANCH   1   7
TORSDOF 3
ENDMDL
