MODEL 1
REMARK minimizedAffinity 1.18924606
REMARK minimizedRMSD -1
REMARK  3 active torsions:
REMARK  status: ('A' for Active; 'I' for Inactive)
REMARK    1  A    between atoms: C3'_2  and  C2'_3 
REMARK    2  A    between atoms: C2'_3  and  C1'_4 
REMARK    3  A    between atoms: C1'_4  and  C1_5 
ROOT
ATOM      1  C1  N4B d   1      -0.608   0.189   1.091  0.00  0.00    -0.075 A 
ATOM      2  C2  N4B d   1       0.225  -0.839   1.584  0.00  0.00     0.002 A 
ATOM      3  C3  N4B d   1      -0.323  -1.904   2.256  0.00  0.00     0.002 A 
ATOM      4  C4  N4B d   1      -1.694  -1.952   2.463  0.00  0.00    -0.004 A 
ATOM      5  C5  N4B d   1      -2.494  -0.967   1.961  0.00  0.00     0.002 A 
ATOM      6  C6  N4B d   1      -1.957   0.106   1.280  0.00  0.00     0.002 A 
ENDROOT
BRANCH   1   7
ATOM      7  C1' N4B d   1      -0.046   1.416   0.425  0.00  0.00     0.057 C 
BRANCH   7   8
ATOM      8  C2' N4B d   1       0.665   2.271   1.470  0.00  0.00     0.009 C 
BRANCH   8   9
ATOM      9  C3' N4B d   1      -0.198   3.430   1.938  0.00  0.00     0.004 C 
ATOM     10  C4' N4B d   1      -1.660   3.099   1.946  0.00  0.00     0.003 C 
ENDBRANCH   8   9
ENDBRANCH   7   8
ENDBRANCH   1   7
TORSDOF 3
ENDMDL
