MODEL 1
REMARK minimizedAffinity 1.2447263
REMARK minimizedRMSD -1
REMARK  3 active torsions:
REMARK  status: ('A' for Active; 'I' for Inactive)
REMARK    1  A    between atoms: C3'_2  and  C2'_3 
REMARK    2  A    between atoms: C2'_3  and  C1'_4 
REMARK    3  A    between atoms: C1'_4  and  C1_5 
ROOT
ATOM      1  C1  N4B d   1      -1.622  -0.234   1.200  0.00  0.00    -0.075 A 
ATOM      2  C2  N4B d   1      -0.403  -0.677   1.756  0.00  0.00     0.002 A 
ATOM      3  C3  N4B d   1       0.693   0.150   1.755  0.00  0.00     0.002 A 
ATOM      4  C4  N4B d   1       0.599   1.412   1.187  0.00  0.00    -0.004 A 
ATOM      5  C5  N4B d   1      -0.590   1.842   0.674  0.00  0.00     0.002 A 
ATOM      6  C6  N4B d   1      -1.701   1.022   0.673  0.00  0.00     0.002 A 
ENDROOT
BRANCH   1   7
ATOM      7  C1' N4B d   1      -2.824  -1.135   1.101  0.00  0.00     0.057 C 
BRANCH   7   8
ATOM      8  C2' N4B d   1      -2.587  -2.168   0.005  0.00  0.00     0.009 C 
BRANCH   8   9
ATOM      9  C3' N4B d   1      -3.839  -2.423  -0.817  0.00  0.00     0.004 C 
ATOM     10  C4' N4B d   1      -3.754  -1.846  -2.198  0.00  0.00     0.003 C 
ENDBRANCH   8   9
ENDBRANCH   7   8
ENDBRANCH   1   7
TORSDOF 3
ENDMDL
