MODEL 1
REMARK minimizedAffinity 0.119005784
REMARK minimizedRMSD -1
REMARK  3 active torsions:
REMARK  status: ('A' for Active; 'I' for Inactive)
REMARK    1  A    between atoms: C3'_2  and  C2'_3 
REMARK    2  A    between atoms: C2'_3  and  C1'_4 
REMARK    3  A    between atoms: C1'_4  and  C1_5 
ROOT
ATOM      1  C1  N4B d   1      -1.795   1.682   2.296  0.00  0.00    -0.075 A 
ATOM      2  C2  N4B d   1      -0.645   2.223   1.680  0.00  0.00     0.002 A 
ATOM      3  C3  N4B d   1       0.336   1.388   1.205  0.00  0.00     0.002 A 
ATOM      4  C4  N4B d   1       0.199   0.015   1.351  0.00  0.00    -0.004 A 
ATOM      5  C5  N4B d   1      -0.927  -0.500   1.924  0.00  0.00     0.002 A 
ATOM      6  C6  N4B d   1      -1.923   0.328   2.403  0.00  0.00     0.002 A 
ENDROOT
BRANCH   1   7
ATOM      7  C1' N4B d   1      -2.854   2.558   2.908  0.00  0.00     0.057 C 
BRANCH   7   8
ATOM      8  C2' N4B d   1      -3.785   1.699   3.758  0.00  0.00     0.009 C 
BRANCH   8   9
ATOM      9  C3' N4B d   1      -4.869   2.526   4.427  0.00  0.00     0.004 C 
ATOM     10  C4' N4B d   1      -4.897   2.350   5.916  0.00  0.00     0.003 C 
ENDBRANCH   8   9
ENDBRANCH   7   8
ENDBRANCH   1   7
TORSDOF 3
ENDMDL
