MODEL 1
REMARK minimizedAffinity 3.29039097
REMARK minimizedRMSD -1
REMARK  3 active torsions:
REMARK  status: ('A' for Active; 'I' for Inactive)
REMARK    1  A    between atoms: C3'_2  and  C2'_3 
REMARK    2  A    between atoms: C2'_3  and  C1'_4 
REMARK    3  A    between atoms: C1'_4  and  C1_5 
ROOT
ATOM      1  C1  N4B d   1      -0.698   1.466   1.710  0.00  0.00    -0.075 A 
ATOM      2  C2  N4B d   1       0.441   1.503   0.877  0.00  0.00     0.002 A 
ATOM      3  C3  N4B d   1       0.997   0.333   0.421  0.00  0.00     0.002 A 
ATOM      4  C4  N4B d   1       0.445  -0.882   0.799  0.00  0.00    -0.004 A 
ATOM      5  C5  N4B d   1      -0.671  -0.909   1.583  0.00  0.00     0.002 A 
ATOM      6  C6  N4B d   1      -1.243   0.260   2.045  0.00  0.00     0.002 A 
ENDROOT
BRANCH   1   7
ATOM      7  C1' N4B d   1      -1.290   2.715   2.303  0.00  0.00     0.057 C 
BRANCH   7   8
ATOM      8  C2' N4B d   1      -2.811   2.602   2.295  0.00  0.00     0.009 C 
BRANCH   8   9
ATOM      9  C3' N4B d   1      -3.380   2.485   3.699  0.00  0.00     0.004 C 
ATOM     10  C4' N4B d   1      -4.426   1.416   3.815  0.00  0.00     0.003 C 
ENDBRANCH   8   9
ENDBRANCH   7   8
ENDBRANCH   1   7
TORSDOF 3
ENDMDL
