MODEL 1
REMARK minimizedAffinity 6.03314066
REMARK minimizedRMSD -1
REMARK  3 active torsions:
REMARK  status: ('A' for Active; 'I' for Inactive)
REMARK    1  A    between atoms: C3'_2  and  C2'_3 
REMARK    2  A    between atoms: C2'_3  and  C1'_4 
REMARK    3  A    between atoms: C1'_4  and  C1_5 
ROOT
ATOM      1  C1  N4B d   1       3.206   3.864  -4.876  0.00  0.00    -0.075 A 
ATOM      2  C2  N4B d   1       2.492   4.946  -5.436  0.00  0.00     0.002 A 
ATOM      3  C3  N4B d   1       3.171   5.999  -6.000  0.00  0.00     0.002 A 
ATOM      4  C4  N4B d   1       4.558   6.000  -5.998  0.00  0.00    -0.004 A 
ATOM      5  C5  N4B d   1       5.240   4.938  -5.478  0.00  0.00     0.002 A 
ATOM      6  C6  N4B d   1       4.570   3.872  -4.912  0.00  0.00     0.002 A 
ENDROOT
BRANCH   1   7
ATOM      7  C1' N4B d   1       2.509   2.732  -4.172  0.00  0.00     0.057 C 
BRANCH   7   8
ATOM      8  C2' N4B d   1       3.553   1.804  -3.561  0.00  0.00     0.009 C 
BRANCH   8   9
ATOM      9  C3' N4B d   1       3.453   0.392  -4.114  0.00  0.00     0.004 C 
ATOM     10  C4' N4B d   1       2.975  -0.598  -3.095  0.00  0.00     0.003 C 
ENDBRANCH   8   9
ENDBRANCH   7   8
ENDBRANCH   1   7
TORSDOF 3
ENDMDL
