MODEL 1
REMARK minimizedAffinity 4.34818459
REMARK minimizedRMSD -1
REMARK  3 active torsions:
REMARK  status: ('A' for Active; 'I' for Inactive)
REMARK    1  A    between atoms: C3'_2  and  C2'_3 
REMARK    2  A    between atoms: C2'_3  and  C1'_4 
REMARK    3  A    between atoms: C1'_4  and  C1_5 
ROOT
ATOM      1  C1  N4B d   1      -2.308   1.880   2.630  0.00  0.00    -0.075 A 
ATOM      2  C2  N4B d   1      -2.388   3.159   2.038  0.00  0.00     0.002 A 
ATOM      3  C3  N4B d   1      -1.462   3.539   1.097  0.00  0.00     0.002 A 
ATOM      4  C4  N4B d   1      -0.441   2.667   0.748  0.00  0.00    -0.004 A 
ATOM      5  C5  N4B d   1      -0.386   1.424   1.306  0.00  0.00     0.002 A 
ATOM      6  C6  N4B d   1      -1.312   1.027   2.250  0.00  0.00     0.002 A 
ENDROOT
BRANCH   1   7
ATOM      7  C1' N4B d   1      -3.246   1.452   3.725  0.00  0.00     0.057 C 
BRANCH   7   8
ATOM      8  C2' N4B d   1      -4.122   2.635   4.125  0.00  0.00     0.009 C 
BRANCH   8   9
ATOM      9  C3' N4B d   1      -4.864   2.379   5.425  0.00  0.00     0.004 C 
ATOM     10  C4' N4B d   1      -5.475   3.622   6.000  0.00  0.00     0.003 C 
ENDBRANCH   8   9
ENDBRANCH   7   8
ENDBRANCH   1   7
TORSDOF 3
ENDMDL
