MODEL 1
REMARK minimizedAffinity 4.7759819
REMARK minimizedRMSD -1
REMARK  1 active torsions:
REMARK  status: ('A' for Active; 'I' for Inactive)
REMARK    1  A    between atoms: C3_4  and  O_7 
ROOT
ATOM      1  C   UNL d   1       1.759  -2.588  -1.134  0.00  0.00    -0.033 A 
ATOM      2  C1  UNL d   1       1.712  -1.247  -0.747  0.00  0.00     0.039 A 
ATOM      3  C2  UNL d   1       0.929  -0.339  -1.463  0.00  0.00    -0.080 A 
ATOM      4  C3  UNL d   1       0.198  -0.784  -2.561  0.00  0.00     0.150 A 
ATOM      5  C4  UNL d   1       0.236  -2.119  -2.949  0.00  0.00    -0.007 A 
ATOM      6  C5  UNL d   1       1.020  -3.025  -2.234  0.00  0.00     0.039 A 
ENDROOT
BRANCH   4   7
ATOM      7  O   UNL d   1      -0.577   0.066  -3.293  0.00  0.00    -0.526 OA
ATOM      8  H5  UNL d   1      -0.483   0.961  -2.926  0.00  0.00     0.418 HD
ENDBRANCH   4   7
TORSDOF 1
ENDMDL
