MODEL 1
REMARK minimizedAffinity 7.36261606
REMARK minimizedRMSD -1
REMARK  1 active torsions:
REMARK  status: ('A' for Active; 'I' for Inactive)
REMARK    1  A    between atoms: C3_4  and  O_7 
ROOT
ATOM      1  C   UNL d   1       0.493  -2.316  -1.052  0.00  0.00    -0.033 A 
ATOM      2  C1  UNL d   1       0.325  -1.027  -0.542  0.00  0.00     0.039 A 
ATOM      3  C2  UNL d   1       1.440  -0.237  -0.254  0.00  0.00    -0.080 A 
ATOM      4  C3  UNL d   1       2.715  -0.747  -0.480  0.00  0.00     0.150 A 
ATOM      5  C4  UNL d   1       2.890  -2.028  -0.991  0.00  0.00    -0.007 A 
ATOM      6  C5  UNL d   1       1.776  -2.816  -1.278  0.00  0.00     0.039 A 
ENDROOT
BRANCH   4   7
ATOM      7  O   UNL d   1       3.833  -0.015  -0.209  0.00  0.00    -0.526 OA
ATOM      8  H5  UNL d   1       3.559   0.839   0.165  0.00  0.00     0.418 HD
ENDBRANCH   4   7
TORSDOF 1
ENDMDL
