MODEL 1
REMARK minimizedAffinity 13.0490322
REMARK minimizedRMSD -1
REMARK  1 active torsions:
REMARK  status: ('A' for Active; 'I' for Inactive)
REMARK    1  A    between atoms: C3_4  and  O_7 
ROOT
ATOM      1  C   UNL d   1      -3.192  -1.620  -4.114  0.00  0.00    -0.033 A 
ATOM      2  C1  UNL d   1      -2.634  -0.515  -3.469  0.00  0.00     0.039 A 
ATOM      3  C2  UNL d   1      -2.643   0.736  -4.089  0.00  0.00    -0.080 A 
ATOM      4  C3  UNL d   1      -3.212   0.868  -5.353  0.00  0.00     0.150 A 
ATOM      5  C4  UNL d   1      -3.773  -0.228  -6.000  0.00  0.00    -0.007 A 
ATOM      6  C5  UNL d   1      -3.762  -1.476  -5.379  0.00  0.00     0.039 A 
ENDROOT
BRANCH   4   7
ATOM      7  O   UNL d   1      -3.240   2.068  -6.000  0.00  0.00    -0.526 OA
ATOM      8  H5  UNL d   1      -2.791   2.727  -5.445  0.00  0.00     0.418 HD
ENDBRANCH   4   7
TORSDOF 1
ENDMDL
