MODEL 1
REMARK minimizedAffinity 8.27497387
REMARK minimizedRMSD -1
REMARK  1 active torsions:
REMARK  status: ('A' for Active; 'I' for Inactive)
REMARK    1  A    between atoms: C3_4  and  O_7 
ROOT
ATOM      1  C   UNL d   1       0.594   0.035  -1.564  0.00  0.00    -0.033 A 
ATOM      2  C1  UNL d   1       0.196  -1.023  -2.383  0.00  0.00     0.039 A 
ATOM      3  C2  UNL d   1       0.587  -2.328  -2.080  0.00  0.00    -0.080 A 
ATOM      4  C3  UNL d   1       1.375  -2.562  -0.956  0.00  0.00     0.150 A 
ATOM      5  C4  UNL d   1       1.772  -1.513  -0.134  0.00  0.00    -0.007 A 
ATOM      6  C5  UNL d   1       1.381  -0.210  -0.439  0.00  0.00     0.039 A 
ENDROOT
BRANCH   4   7
ATOM      7  O   UNL d   1       1.786  -3.818  -0.623  0.00  0.00    -0.526 OA
ATOM      8  H5  UNL d   1       1.460  -4.438  -1.297  0.00  0.00     0.418 HD
ENDBRANCH   4   7
TORSDOF 1
ENDMDL
