MODEL 1
REMARK minimizedAffinity 1.44708467
REMARK minimizedRMSD -1
REMARK  1 active torsions:
REMARK  status: ('A' for Active; 'I' for Inactive)
REMARK    1  A    between atoms: C3_4  and  O_7 
ROOT
ATOM      1  C   UNL d   1       0.905  -3.152  -1.515  0.00  0.00    -0.033 A 
ATOM      2  C1  UNL d   1       2.202  -3.664  -1.601  0.00  0.00     0.039 A 
ATOM      3  C2  UNL d   1       3.292  -2.874  -1.231  0.00  0.00    -0.080 A 
ATOM      4  C3  UNL d   1       3.073  -1.577  -0.776  0.00  0.00     0.150 A 
ATOM      5  C4  UNL d   1       1.784  -1.062  -0.684  0.00  0.00    -0.007 A 
ATOM      6  C5  UNL d   1       0.696  -1.852  -1.055  0.00  0.00     0.039 A 
ENDROOT
BRANCH   4   7
ATOM      7  O   UNL d   1       4.105  -0.766  -0.409  0.00  0.00    -0.526 OA
ATOM      8  H5  UNL d   1       4.939  -1.245  -0.552  0.00  0.00     0.418 HD
ENDBRANCH   4   7
TORSDOF 1
ENDMDL
