MODEL 1
REMARK minimizedAffinity 3.11307502
REMARK minimizedRMSD -1
REMARK  1 active torsions:
REMARK  status: ('A' for Active; 'I' for Inactive)
REMARK    1  A    between atoms: C3_4  and  O_7 
ROOT
ATOM      1  C   UNL d   1      -1.560   1.885   4.484  0.00  0.00    -0.033 A 
ATOM      2  C1  UNL d   1      -2.047   2.154   3.204  0.00  0.00     0.039 A 
ATOM      3  C2  UNL d   1      -3.423   2.157   2.964  0.00  0.00    -0.080 A 
ATOM      4  C3  UNL d   1      -4.299   1.891   4.013  0.00  0.00     0.150 A 
ATOM      5  C4  UNL d   1      -3.821   1.626   5.292  0.00  0.00    -0.007 A 
ATOM      6  C5  UNL d   1      -2.447   1.622   5.529  0.00  0.00     0.039 A 
ENDROOT
BRANCH   4   7
ATOM      7  O   UNL d   1      -5.649   1.878   3.827  0.00  0.00    -0.526 OA
ATOM      8  H5  UNL d   1      -5.832   2.050   2.888  0.00  0.00     0.418 HD
ENDBRANCH   4   7
TORSDOF 1
ENDMDL
