MODEL 1
REMARK minimizedAffinity 2.13492441
REMARK minimizedRMSD -1
REMARK  1 active torsions:
REMARK  status: ('A' for Active; 'I' for Inactive)
REMARK    1  A    between atoms: C3_4  and  O_7 
ROOT
ATOM      1  C   UNL d   1       0.764   3.763   1.113  0.00  0.00    -0.033 A 
ATOM      2  C1  UNL d   1       1.094   5.111   1.265  0.00  0.00     0.039 A 
ATOM      3  C2  UNL d   1       1.441   5.877   0.150  0.00  0.00    -0.080 A 
ATOM      4  C3  UNL d   1       1.453   5.283  -1.109  0.00  0.00     0.150 A 
ATOM      5  C4  UNL d   1       1.121   3.942  -1.268  0.00  0.00    -0.007 A 
ATOM      6  C5  UNL d   1       0.776   3.179  -0.153  0.00  0.00     0.039 A 
ENDROOT
BRANCH   4   7
ATOM      7  O   UNL d   1       1.790   5.988  -2.226  0.00  0.00    -0.526 OA
ATOM      8  H5  UNL d   1       2.023   6.893  -1.960  0.00  0.00     0.418 HD
ENDBRANCH   4   7
TORSDOF 1
ENDMDL
