MODEL 1
REMARK minimizedAffinity 0.64774543
REMARK minimizedRMSD -1
REMARK  1 active torsions:
REMARK  status: ('A' for Active; 'I' for Inactive)
REMARK    1  A    between atoms: C3_4  and  O_7 
ROOT
ATOM      1  C   UNL d   1      -3.653   2.555  -4.208  0.00  0.00    -0.033 A 
ATOM      2  C1  UNL d   1      -2.892   1.599  -3.534  0.00  0.00     0.039 A 
ATOM      3  C2  UNL d   1      -3.004   0.249  -3.873  0.00  0.00    -0.080 A 
ATOM      4  C3  UNL d   1      -3.881  -0.131  -4.886  0.00  0.00     0.150 A 
ATOM      5  C4  UNL d   1      -4.640   0.817  -5.564  0.00  0.00    -0.007 A 
ATOM      6  C5  UNL d   1      -4.526   2.165  -5.224  0.00  0.00     0.039 A 
ENDROOT
BRANCH   4   7
ATOM      7  O   UNL d   1      -4.028  -1.437  -5.248  0.00  0.00    -0.526 OA
ATOM      8  H5  UNL d   1      -3.463  -1.981  -4.674  0.00  0.00     0.418 HD
ENDBRANCH   4   7
TORSDOF 1
ENDMDL
