MODEL 1
REMARK minimizedAffinity 0.910995424
REMARK minimizedRMSD -1
REMARK  1 active torsions:
REMARK  status: ('A' for Active; 'I' for Inactive)
REMARK    1  A    between atoms: C3_4  and  O_7 
ROOT
ATOM      1  C   UNL d   1      -1.894   3.278   2.010  0.00  0.00    -0.033 A 
ATOM      2  C1  UNL d   1      -2.176   2.719   3.258  0.00  0.00     0.039 A 
ATOM      3  C2  UNL d   1      -3.455   2.233   3.535  0.00  0.00    -0.080 A 
ATOM      4  C3  UNL d   1      -4.443   2.313   2.557  0.00  0.00     0.150 A 
ATOM      5  C4  UNL d   1      -4.168   2.866   1.310  0.00  0.00    -0.007 A 
ATOM      6  C5  UNL d   1      -2.890   3.351   1.036  0.00  0.00     0.039 A 
ENDROOT
BRANCH   4   7
ATOM      7  O   UNL d   1      -5.708   1.857   2.782  0.00  0.00    -0.526 OA
ATOM      8  H5  UNL d   1      -5.758   1.528   3.695  0.00  0.00     0.418 HD
ENDBRANCH   4   7
TORSDOF 1
ENDMDL
