MODEL 1
REMARK minimizedAffinity 7.49881983
REMARK minimizedRMSD -1
REMARK  1 active torsions:
REMARK  status: ('A' for Active; 'I' for Inactive)
REMARK    1  A    between atoms: C3_4  and  O_7 
ROOT
ATOM      1  C   UNL d   1       2.277  -3.625  -0.806  0.00  0.00    -0.033 A 
ATOM      2  C1  UNL d   1       1.088  -3.000  -1.187  0.00  0.00     0.039 A 
ATOM      3  C2  UNL d   1       0.341  -3.506  -2.252  0.00  0.00    -0.080 A 
ATOM      4  C3  UNL d   1       0.793  -4.637  -2.927  0.00  0.00     0.150 A 
ATOM      5  C4  UNL d   1       1.974  -5.267  -2.550  0.00  0.00    -0.007 A 
ATOM      6  C5  UNL d   1       2.719  -4.760  -1.487  0.00  0.00     0.039 A 
ENDROOT
BRANCH   4   7
ATOM      7  O   UNL d   1       0.100  -5.165  -3.976  0.00  0.00    -0.526 OA
ATOM      8  H5  UNL d   1      -0.679  -4.608  -4.141  0.00  0.00     0.418 HD
ENDBRANCH   4   7
TORSDOF 1
ENDMDL
