MODEL 1
REMARK minimizedAffinity -1.19472313
REMARK minimizedRMSD -1
REMARK  1 active torsions:
REMARK  status: ('A' for Active; 'I' for Inactive)
REMARK    1  A    between atoms: C3_4  and  O_7 
ROOT
ATOM      1  C   UNL d   1       0.498  -0.877  -2.050  0.00  0.00    -0.033 A 
ATOM      2  C1  UNL d   1       0.969  -0.538  -0.780  0.00  0.00     0.039 A 
ATOM      3  C2  UNL d   1       1.546   0.715  -0.560  0.00  0.00    -0.080 A 
ATOM      4  C3  UNL d   1       1.643   1.618  -1.615  0.00  0.00     0.150 A 
ATOM      5  C4  UNL d   1       1.171   1.288  -2.881  0.00  0.00    -0.007 A 
ATOM      6  C5  UNL d   1       0.597   0.036  -3.100  0.00  0.00     0.039 A 
ENDROOT
BRANCH   4   7
ATOM      7  O   UNL d   1       2.202   2.850  -1.449  0.00  0.00    -0.526 OA
ATOM      8  H5  UNL d   1       2.509   2.928  -0.530  0.00  0.00     0.418 HD
ENDBRANCH   4   7
TORSDOF 1
ENDMDL
