MODEL 1
REMARK minimizedAffinity 4.47408724
REMARK minimizedRMSD -1
REMARK  1 active torsions:
REMARK  status: ('A' for Active; 'I' for Inactive)
REMARK    1  A    between atoms: C3_4  and  O_7 
ROOT
ATOM      1  C   UNL d   1       0.241  -1.730  -2.723  0.00  0.00    -0.033 A 
ATOM      2  C1  UNL d   1       0.921  -2.080  -1.555  0.00  0.00     0.039 A 
ATOM      3  C2  UNL d   1       1.430  -1.087  -0.717  0.00  0.00    -0.080 A 
ATOM      4  C3  UNL d   1       1.252   0.252  -1.057  0.00  0.00     0.150 A 
ATOM      5  C4  UNL d   1       0.573   0.608  -2.217  0.00  0.00    -0.007 A 
ATOM      6  C5  UNL d   1       0.066  -0.386  -3.054  0.00  0.00     0.039 A 
ENDROOT
BRANCH   4   7
ATOM      7  O   UNL d   1       1.735   1.256  -0.272  0.00  0.00    -0.526 OA
ATOM      8  H5  UNL d   1       2.206   0.860   0.480  0.00  0.00     0.418 HD
ENDBRANCH   4   7
TORSDOF 1
ENDMDL
