MODEL 1
REMARK minimizedAffinity -1.27926946
REMARK minimizedRMSD -1
REMARK  1 active torsions:
REMARK  status: ('A' for Active; 'I' for Inactive)
REMARK    1  A    between atoms: C3_4  and  O_7 
ROOT
ATOM      1  C   UNL d   1       0.738  -2.107  -1.125  0.00  0.00    -0.033 A 
ATOM      2  C1  UNL d   1       0.344  -1.387  -2.255  0.00  0.00     0.039 A 
ATOM      3  C2  UNL d   1       0.646  -0.028  -2.358  0.00  0.00    -0.080 A 
ATOM      4  C3  UNL d   1       1.341   0.598  -1.328  0.00  0.00     0.150 A 
ATOM      5  C4  UNL d   1       1.740  -0.114  -0.202  0.00  0.00    -0.007 A 
ATOM      6  C5  UNL d   1       1.437  -1.471  -0.099  0.00  0.00     0.039 A 
ENDROOT
BRANCH   4   7
ATOM      7  O   UNL d   1       1.654   1.924  -1.382  0.00  0.00    -0.526 OA
ATOM      8  H5  UNL d   1       1.291   2.293  -2.204  0.00  0.00     0.418 HD
ENDBRANCH   4   7
TORSDOF 1
ENDMDL
