MODEL 1
REMARK minimizedAffinity -4.26367426
REMARK minimizedRMSD -1
REMARK  1 active torsions:
REMARK  status: ('A' for Active; 'I' for Inactive)
REMARK    1  A    between atoms: C3_4  and  O_7 
ROOT
ATOM      1  C   UNL d   1       0.883   0.274  -3.091  0.00  0.00    -0.033 A 
ATOM      2  C1  UNL d   1       1.378   1.145  -2.119  0.00  0.00     0.039 A 
ATOM      3  C2  UNL d   1       1.090   0.926  -0.770  0.00  0.00    -0.080 A 
ATOM      4  C3  UNL d   1       0.309  -0.168  -0.407  0.00  0.00     0.150 A 
ATOM      5  C4  UNL d   1      -0.184  -1.042  -1.370  0.00  0.00    -0.007 A 
ATOM      6  C5  UNL d   1       0.103  -0.821  -2.716  0.00  0.00     0.039 A 
ENDROOT
BRANCH   4   7
ATOM      7  O   UNL d   1      -0.002  -0.420   0.896  0.00  0.00    -0.526 OA
ATOM      8  H5  UNL d   1       0.382   0.283   1.446  0.00  0.00     0.418 HD
ENDBRANCH   4   7
TORSDOF 1
ENDMDL
