MODEL 1
REMARK minimizedAffinity -0.206881464
REMARK minimizedRMSD -1
REMARK  1 active torsions:
REMARK  status: ('A' for Active; 'I' for Inactive)
REMARK    1  A    between atoms: C3_4  and  O_7 
ROOT
ATOM      1  C   UNL d   1      -4.980  -3.990  -5.733  0.00  0.00    -0.033 A 
ATOM      2  C1  UNL d   1      -4.103  -3.843  -4.657  0.00  0.00     0.039 A 
ATOM      3  C2  UNL d   1      -4.171  -2.707  -3.848  0.00  0.00    -0.080 A 
ATOM      4  C3  UNL d   1      -5.120  -1.727  -4.124  0.00  0.00     0.150 A 
ATOM      5  C4  UNL d   1      -6.000  -1.869  -5.192  0.00  0.00    -0.007 A 
ATOM      6  C5  UNL d   1      -5.930  -3.003  -6.000  0.00  0.00     0.039 A 
ENDROOT
BRANCH   4   7
ATOM      7  O   UNL d   1      -5.222  -0.599  -3.366  0.00  0.00    -0.526 OA
ATOM      8  H5  UNL d   1      -4.531  -0.625  -2.682  0.00  0.00     0.418 HD
ENDBRANCH   4   7
TORSDOF 1
ENDMDL
