MODEL 1
REMARK minimizedAffinity 6.77915621
REMARK minimizedRMSD -1
REMARK  0 active torsions:
REMARK  status: ('A' for Active; 'I' for Inactive)
ROOT
ATOM      1  C   UNL d   1       3.899   2.894   1.989  0.00  0.00     0.124 A 
ATOM      2  C1  UNL d   1       3.733   1.516   2.013  0.00  0.00     0.062 A 
ATOM      3  C2  UNL d   1       4.332   0.755   3.013  0.00  0.00     0.162 A 
ATOM      4  C3  UNL d   1       5.102   1.371   3.999  0.00  0.00    -0.034 A 
ATOM      5  C4  UNL d   1       5.266   2.757   3.968  0.00  0.00     0.162 A 
ATOM      6  C5  UNL d   1       4.665   3.513   2.967  0.00  0.00     0.062 A 
ATOM      7  F   UNL d   1       4.827   4.844   2.946  0.00  0.00    -0.097 F 
ATOM      8  F1  UNL d   1       6.000   3.382   4.901  0.00  0.00    -0.096 F 
ATOM      9  I   UNL d   1       5.999   0.238   5.496  0.00  0.00    -0.060 I 
ATOM     10  F2  UNL d   1       4.154  -0.574   3.011  0.00  0.00    -0.096 F 
ATOM     11  F3  UNL d   1       2.994   0.915   1.069  0.00  0.00    -0.097 F 
ATOM     12  F4  UNL d   1       3.322   3.623   1.025  0.00  0.00    -0.092 F 
ENDROOT
TORSDOF 0
ENDMDL
