MODEL 1
REMARK minimizedAffinity 10.8026829
REMARK minimizedRMSD -1
REMARK  0 active torsions:
REMARK  status: ('A' for Active; 'I' for Inactive)
ROOT
ATOM      1  C   UNL d   1       5.912   0.283   2.562  0.00  0.00     0.124 A 
ATOM      2  C1  UNL d   1       5.943   0.271   3.950  0.00  0.00     0.062 A 
ATOM      3  C2  UNL d   1       5.968   1.468   4.660  0.00  0.00     0.162 A 
ATOM      4  C3  UNL d   1       5.962   2.688   3.983  0.00  0.00    -0.034 A 
ATOM      5  C4  UNL d   1       5.932   2.692   2.587  0.00  0.00     0.162 A 
ATOM      6  C5  UNL d   1       5.906   1.493   1.882  0.00  0.00     0.062 A 
ATOM      7  F   UNL d   1       5.877   1.507   0.542  0.00  0.00    -0.097 F 
ATOM      8  F1  UNL d   1       5.925   3.847   1.905  0.00  0.00    -0.096 F 
ATOM      9  I   UNL d   1       6.000   4.480   5.041  0.00  0.00    -0.060 I 
ATOM     10  F2  UNL d   1       5.998   1.426   6.000  0.00  0.00    -0.096 F 
ATOM     11  F3  UNL d   1       5.949  -0.897   4.608  0.00  0.00    -0.097 F 
ATOM     12  F4  UNL d   1       5.888  -0.870   1.881  0.00  0.00    -0.092 F 
ENDROOT
TORSDOF 0
ENDMDL
