MODEL 1
REMARK minimizedAffinity 12.7594185
REMARK minimizedRMSD -1
REMARK  0 active torsions:
REMARK  status: ('A' for Active; 'I' for Inactive)
ROOT
ATOM      1  C   UNL d   1       4.626   2.756   2.605  0.00  0.00     0.124 A 
ATOM      2  C1  UNL d   1       5.245   3.049   3.812  0.00  0.00     0.062 A 
ATOM      3  C2  UNL d   1       5.389   2.062   4.783  0.00  0.00     0.162 A 
ATOM      4  C3  UNL d   1       4.913   0.771   4.550  0.00  0.00    -0.034 A 
ATOM      5  C4  UNL d   1       4.290   0.484   3.334  0.00  0.00     0.162 A 
ATOM      6  C5  UNL d   1       4.149   1.474   2.367  0.00  0.00     0.062 A 
ATOM      7  F   UNL d   1       3.550   1.189   1.201  0.00  0.00    -0.097 F 
ATOM      8  F1  UNL d   1       3.821  -0.746   3.078  0.00  0.00    -0.096 F 
ATOM      9  I   UNL d   1       5.126  -0.708   5.999  0.00  0.00    -0.060 I 
ATOM     10  F2  UNL d   1       5.991   2.373   5.940  0.00  0.00    -0.096 F 
ATOM     11  F3  UNL d   1       5.706   4.286   4.045  0.00  0.00    -0.097 F 
ATOM     12  F4  UNL d   1       4.488   3.708   1.673  0.00  0.00    -0.092 F 
ENDROOT
TORSDOF 0
ENDMDL
