MODEL 1
REMARK minimizedAffinity 12.2422276
REMARK minimizedRMSD -1
REMARK  0 active torsions:
REMARK  status: ('A' for Active; 'I' for Inactive)
ROOT
ATOM      1  C   UNL d   1       5.537   3.347   3.640  0.00  0.00     0.124 A 
ATOM      2  C1  UNL d   1       5.530   2.641   4.834  0.00  0.00     0.062 A 
ATOM      3  C2  UNL d   1       5.661   1.255   4.829  0.00  0.00     0.162 A 
ATOM      4  C3  UNL d   1       5.802   0.566   3.625  0.00  0.00    -0.034 A 
ATOM      5  C4  UNL d   1       5.807   1.284   2.427  0.00  0.00     0.162 A 
ATOM      6  C5  UNL d   1       5.676   2.668   2.437  0.00  0.00     0.062 A 
ATOM      7  F   UNL d   1       5.683   3.349   1.282  0.00  0.00    -0.097 F 
ATOM      8  F1  UNL d   1       5.941   0.653   1.251  0.00  0.00    -0.096 F 
ATOM      9  I   UNL d   1       5.999  -1.505   3.612  0.00  0.00    -0.060 I 
ATOM     10  F2  UNL d   1       5.651   0.599   5.999  0.00  0.00    -0.096 F 
ATOM     11  F3  UNL d   1       5.395   3.295   5.997  0.00  0.00    -0.097 F 
ATOM     12  F4  UNL d   1       5.409   4.680   3.648  0.00  0.00    -0.092 F 
ENDROOT
TORSDOF 0
ENDMDL
