MODEL 1
REMARK minimizedAffinity 13.104681
REMARK minimizedRMSD -1
REMARK  0 active torsions:
REMARK  status: ('A' for Active; 'I' for Inactive)
ROOT
ATOM      1  C   UNL d   1       5.947   2.303   2.279  0.00  0.00     0.124 A 
ATOM      2  C1  UNL d   1       5.938   1.858   3.594  0.00  0.00     0.062 A 
ATOM      3  C2  UNL d   1       5.950   2.774   4.643  0.00  0.00     0.162 A 
ATOM      4  C3  UNL d   1       5.968   4.144   4.381  0.00  0.00    -0.034 A 
ATOM      5  C4  UNL d   1       5.978   4.583   3.056  0.00  0.00     0.162 A 
ATOM      6  C5  UNL d   1       5.966   3.664   2.011  0.00  0.00     0.062 A 
ATOM      7  F   UNL d   1       5.974   4.095   0.742  0.00  0.00    -0.097 F 
ATOM      8  F1  UNL d   1       5.995   5.893   2.768  0.00  0.00    -0.096 F 
ATOM      9  I   UNL d   1       5.985   5.516   5.945  0.00  0.00    -0.060 I 
ATOM     10  F2  UNL d   1       5.941   2.316   5.904  0.00  0.00    -0.096 F 
ATOM     11  F3  UNL d   1       5.920   0.543   3.856  0.00  0.00    -0.097 F 
ATOM     12  F4  UNL d   1       5.937   1.420   1.273  0.00  0.00    -0.092 F 
ENDROOT
TORSDOF 0
ENDMDL
