MODEL 1
REMARK minimizedAffinity 13.2355881
REMARK minimizedRMSD -1
REMARK  0 active torsions:
REMARK  status: ('A' for Active; 'I' for Inactive)
ROOT
ATOM      1  C   UNL d   1      -1.773   3.696   1.385  0.00  0.00     0.124 A 
ATOM      2  C1  UNL d   1      -0.957   3.805   2.503  0.00  0.00     0.062 A 
ATOM      3  C2  UNL d   1      -1.513   4.067   3.752  0.00  0.00     0.162 A 
ATOM      4  C3  UNL d   1      -2.893   4.220   3.890  0.00  0.00    -0.034 A 
ATOM      5  C4  UNL d   1      -3.706   4.110   2.761  0.00  0.00     0.162 A 
ATOM      6  C5  UNL d   1      -3.146   3.849   1.515  0.00  0.00     0.062 A 
ATOM      7  F   UNL d   1      -3.935   3.744   0.436  0.00  0.00    -0.097 F 
ATOM      8  F1  UNL d   1      -5.036   4.252   2.858  0.00  0.00    -0.096 F 
ATOM      9  I   UNL d   1      -3.728   4.611   5.756  0.00  0.00    -0.060 I 
ATOM     10  F2  UNL d   1      -0.701   4.167   4.815  0.00  0.00    -0.096 F 
ATOM     11  F3  UNL d   1       0.370   3.659   2.380  0.00  0.00    -0.097 F 
ATOM     12  F4  UNL d   1      -1.235   3.446   0.185  0.00  0.00    -0.092 F 
ENDROOT
TORSDOF 0
ENDMDL
