MODEL 1
REMARK minimizedAffinity 11.8151131
REMARK minimizedRMSD -1
REMARK  0 active torsions:
REMARK  status: ('A' for Active; 'I' for Inactive)
ROOT
ATOM      1  C   UNL d   1      -1.457   2.204   4.047  0.00  0.00     0.124 A 
ATOM      2  C1  UNL d   1      -0.846   2.925   3.031  0.00  0.00     0.062 A 
ATOM      3  C2  UNL d   1      -0.337   2.268   1.914  0.00  0.00     0.162 A 
ATOM      4  C3  UNL d   1      -0.437   0.881   1.807  0.00  0.00    -0.034 A 
ATOM      5  C4  UNL d   1      -1.052   0.162   2.834  0.00  0.00     0.162 A 
ATOM      6  C5  UNL d   1      -1.559   0.823   3.948  0.00  0.00     0.062 A 
ATOM      7  F   UNL d   1      -2.149   0.124   4.929  0.00  0.00    -0.097 F 
ATOM      8  F1  UNL d   1      -1.165  -1.173   2.764  0.00  0.00    -0.096 F 
ATOM      9  I   UNL d   1       0.322  -0.105   0.140  0.00  0.00    -0.060 I 
ATOM     10  F2  UNL d   1       0.247   2.991   0.947  0.00  0.00    -0.096 F 
ATOM     11  F3  UNL d   1      -0.746   4.259   3.125  0.00  0.00    -0.097 F 
ATOM     12  F4  UNL d   1      -1.945   2.838   5.121  0.00  0.00    -0.092 F 
ENDROOT
TORSDOF 0
ENDMDL
