MODEL 1
REMARK minimizedAffinity 18.7346096
REMARK minimizedRMSD -1
REMARK  0 active torsions:
REMARK  status: ('A' for Active; 'I' for Inactive)
ROOT
ATOM      1  C   UNL d   1       2.302  -0.697  -2.402  0.00  0.00     0.124 A 
ATOM      2  C1  UNL d   1       2.759   0.179  -1.427  0.00  0.00     0.062 A 
ATOM      3  C2  UNL d   1       2.063   0.318  -0.229  0.00  0.00     0.162 A 
ATOM      4  C3  UNL d   1       0.904  -0.422   0.001  0.00  0.00    -0.034 A 
ATOM      5  C4  UNL d   1       0.450  -1.301  -0.985  0.00  0.00     0.162 A 
ATOM      6  C5  UNL d   1       1.149  -1.436  -2.180  0.00  0.00     0.062 A 
ATOM      7  F   UNL d   1       0.706  -2.283  -3.121  0.00  0.00    -0.097 F 
ATOM      8  F1  UNL d   1      -0.661  -2.028  -0.796  0.00  0.00    -0.096 F 
ATOM      9  I   UNL d   1      -0.139  -0.218   1.790  0.00  0.00    -0.060 I 
ATOM     10  F2  UNL d   1       2.527   1.172   0.695  0.00  0.00    -0.096 F 
ATOM     11  F3  UNL d   1       3.872   0.895  -1.639  0.00  0.00    -0.097 F 
ATOM     12  F4  UNL d   1       2.973  -0.827  -3.554  0.00  0.00    -0.092 F 
ENDROOT
TORSDOF 0
ENDMDL
