MODEL 1
REMARK minimizedAffinity 6.83385706
REMARK minimizedRMSD -1
REMARK  0 active torsions:
REMARK  status: ('A' for Active; 'I' for Inactive)
ROOT
ATOM      1  C   UNL d   1       5.987  -0.082   3.518  0.00  0.00     0.124 A 
ATOM      2  C1  UNL d   1       5.989   0.567   4.745  0.00  0.00     0.062 A 
ATOM      3  C2  UNL d   1       5.990   1.958   4.801  0.00  0.00     0.162 A 
ATOM      4  C3  UNL d   1       5.988   2.709   3.625  0.00  0.00    -0.034 A 
ATOM      5  C4  UNL d   1       5.987   2.049   2.395  0.00  0.00     0.162 A 
ATOM      6  C5  UNL d   1       5.986   0.659   2.345  0.00  0.00     0.062 A 
ATOM      7  F   UNL d   1       5.985   0.033   1.159  0.00  0.00    -0.097 F 
ATOM      8  F1  UNL d   1       5.986   2.741   1.246  0.00  0.00    -0.096 F 
ATOM      9  I   UNL d   1       5.990   4.789   3.705  0.00  0.00    -0.060 I 
ATOM     10  F2  UNL d   1       5.991   2.559   6.000  0.00  0.00    -0.096 F 
ATOM     11  F3  UNL d   1       5.990  -0.147   5.880  0.00  0.00    -0.097 F 
ATOM     12  F4  UNL d   1       5.987  -1.421   3.467  0.00  0.00    -0.092 F 
ENDROOT
TORSDOF 0
ENDMDL
