MODEL 1
REMARK minimizedAffinity 10.9800224
REMARK minimizedRMSD -1
REMARK  0 active torsions:
REMARK  status: ('A' for Active; 'I' for Inactive)
ROOT
ATOM      1  C   UNL d   1       5.081  -0.051   3.031  0.00  0.00     0.124 A 
ATOM      2  C1  UNL d   1       5.275   0.893   2.032  0.00  0.00     0.062 A 
ATOM      3  C2  UNL d   1       5.536   2.219   2.363  0.00  0.00     0.162 A 
ATOM      4  C3  UNL d   1       5.604   2.611   3.700  0.00  0.00    -0.034 A 
ATOM      5  C4  UNL d   1       5.406   1.656   4.699  0.00  0.00     0.162 A 
ATOM      6  C5  UNL d   1       5.146   0.331   4.363  0.00  0.00     0.062 A 
ATOM      7  F   UNL d   1       4.958  -0.579   5.330  0.00  0.00    -0.097 F 
ATOM      8  F1  UNL d   1       5.464   1.998   5.995  0.00  0.00    -0.096 F 
ATOM      9  I   UNL d   1       5.992   4.593   4.199  0.00  0.00    -0.060 I 
ATOM     10  F2  UNL d   1       5.720   3.110   1.377  0.00  0.00    -0.096 F 
ATOM     11  F3  UNL d   1       5.212   0.526   0.744  0.00  0.00    -0.097 F 
ATOM     12  F4  UNL d   1       4.830  -1.326   2.710  0.00  0.00    -0.092 F 
ENDROOT
TORSDOF 0
ENDMDL
