MODEL 1
REMARK minimizedAffinity 2.77858925
REMARK minimizedRMSD -1
REMARK  0 active torsions:
REMARK  status: ('A' for Active; 'I' for Inactive)
ROOT
ATOM      1  C   UNL d   1       5.990   0.425   3.640  0.00  0.00     0.124 A 
ATOM      2  C1  UNL d   1       5.991   1.182   4.803  0.00  0.00     0.062 A 
ATOM      3  C2  UNL d   1       5.994   2.572   4.732  0.00  0.00     0.162 A 
ATOM      4  C3  UNL d   1       5.995   3.215   3.494  0.00  0.00    -0.034 A 
ATOM      5  C4  UNL d   1       5.995   2.446   2.329  0.00  0.00     0.162 A 
ATOM      6  C5  UNL d   1       5.992   1.057   2.404  0.00  0.00     0.062 A 
ATOM      7  F   UNL d   1       5.990   0.326   1.280  0.00  0.00    -0.097 F 
ATOM      8  F1  UNL d   1       5.995   3.031   1.122  0.00  0.00    -0.096 F 
ATOM      9  I   UNL d   1       5.999   5.293   3.385  0.00  0.00    -0.060 I 
ATOM     10  F2  UNL d   1       5.995   3.279   5.872  0.00  0.00    -0.096 F 
ATOM     11  F3  UNL d   1       5.990   0.574   5.998  0.00  0.00    -0.097 F 
ATOM     12  F4  UNL d   1       5.988  -0.913   3.710  0.00  0.00    -0.092 F 
ENDROOT
TORSDOF 0
ENDMDL
