MODEL 1
REMARK minimizedAffinity 14.3200998
REMARK minimizedRMSD -1
REMARK  0 active torsions:
REMARK  status: ('A' for Active; 'I' for Inactive)
ROOT
ATOM      1  C   UNL d   1       5.983  -1.501   3.637  0.00  0.00     0.124 A 
ATOM      2  C1  UNL d   1       5.987  -0.891   2.390  0.00  0.00     0.062 A 
ATOM      3  C2  UNL d   1       5.982   0.497   2.291  0.00  0.00     0.162 A 
ATOM      4  C3  UNL d   1       5.974   1.285   3.442  0.00  0.00    -0.034 A 
ATOM      5  C4  UNL d   1       5.969   0.664   4.692  0.00  0.00     0.162 A 
ATOM      6  C5  UNL d   1       5.974  -0.724   4.786  0.00  0.00     0.062 A 
ATOM      7  F   UNL d   1       5.970  -1.312   5.991  0.00  0.00    -0.097 F 
ATOM      8  F1  UNL d   1       5.962   1.392   5.819  0.00  0.00    -0.096 F 
ATOM      9  I   UNL d   1       5.967   3.362   3.297  0.00  0.00    -0.060 I 
ATOM     10  F2  UNL d   1       5.986   1.060   1.073  0.00  0.00    -0.096 F 
ATOM     11  F3  UNL d   1       5.994  -1.640   1.278  0.00  0.00    -0.097 F 
ATOM     12  F4  UNL d   1       5.986  -2.837   3.730  0.00  0.00    -0.092 F 
ENDROOT
TORSDOF 0
ENDMDL
