MODEL 1
REMARK minimizedAffinity 0.394928992
REMARK minimizedRMSD -1
REMARK  1 active torsions:
REMARK  status: ('A' for Active; 'I' for Inactive)
REMARK    1  A    between atoms: C1_2  and  C2_3 
ROOT
ATOM      1  C2  UNL d   1       1.505  -3.698  -0.767  0.00  0.00    -0.073 A 
ATOM      2  C3  UNL d   1       2.098  -3.372  -1.992  0.00  0.00    -0.002 A 
ATOM      3  C4  UNL d   1       2.174  -2.042  -2.407  0.00  0.00     0.004 A 
ATOM      4  C5  UNL d   1       1.665  -1.025  -1.599  0.00  0.00    -0.004 A 
ATOM      5  C6  UNL d   1       1.079  -1.329  -0.367  0.00  0.00    -0.075 A 
ATOM      6  C7  UNL d   1       0.525  -0.247   0.513  0.00  0.00     0.076 C 
ATOM      7  C8  UNL d   1       1.005  -2.668   0.042  0.00  0.00     0.001 A 
ENDROOT
BRANCH   1   8
ATOM      8  C1  UNL d   1       1.427  -5.132  -0.313  0.00  0.00     0.053 C 
ATOM      9  C   UNL d   1       2.721  -5.596   0.337  0.00  0.00     0.018 C 
ENDBRANCH   1   8
TORSDOF 1
ENDMDL
