MODEL 1
REMARK minimizedAffinity 0.394499958
REMARK minimizedRMSD -1
REMARK  1 active torsions:
REMARK  status: ('A' for Active; 'I' for Inactive)
REMARK    1  A    between atoms: C1_2  and  C2_3 
ROOT
ATOM      1  C2  UNL d   1      -4.937   0.310  -0.286  0.00  0.00    -0.073 A 
ATOM      2  C3  UNL d   1      -4.132  -0.742  -0.739  0.00  0.00    -0.002 A 
ATOM      3  C4  UNL d   1      -3.147  -0.511  -1.700  0.00  0.00     0.004 A 
ATOM      4  C5  UNL d   1      -2.951   0.771  -2.212  0.00  0.00    -0.004 A 
ATOM      5  C6  UNL d   1      -3.738   1.837  -1.763  0.00  0.00    -0.075 A 
ATOM      6  C7  UNL d   1      -3.542   3.223  -2.305  0.00  0.00     0.076 C 
ATOM      7  C8  UNL d   1      -4.727   1.598  -0.799  0.00  0.00     0.001 A 
ENDROOT
BRANCH   1   8
ATOM      8  C1  UNL d   1      -5.997   0.067   0.757  0.00  0.00     0.053 C 
ATOM      9  C   UNL d   1      -5.455  -0.696   1.955  0.00  0.00     0.018 C 
ENDBRANCH   1   8
TORSDOF 1
ENDMDL
