MODEL 1
REMARK minimizedAffinity 2.86758232
REMARK minimizedRMSD -1
REMARK  1 active torsions:
REMARK  status: ('A' for Active; 'I' for Inactive)
REMARK    1  A    between atoms: C1_2  and  C2_3 
ROOT
ATOM      1  C2  UNL d   1       4.109  -2.790  -1.287  0.00  0.00    -0.073 A 
ATOM      2  C3  UNL d   1       3.772  -3.093  -2.611  0.00  0.00    -0.002 A 
ATOM      3  C4  UNL d   1       4.120  -4.327  -3.162  0.00  0.00     0.004 A 
ATOM      4  C5  UNL d   1       4.800  -5.272  -2.395  0.00  0.00    -0.004 A 
ATOM      5  C6  UNL d   1       5.135  -4.993  -1.066  0.00  0.00    -0.075 A 
ATOM      6  C7  UNL d   1       5.869  -5.998  -0.227  0.00  0.00     0.076 C 
ATOM      7  C8  UNL d   1       4.785  -3.750  -0.520  0.00  0.00     0.001 A 
ENDROOT
BRANCH   1   8
ATOM      8  C1  UNL d   1       3.730  -1.462  -0.686  0.00  0.00     0.053 C 
ATOM      9  C   UNL d   1       4.387  -1.240   0.668  0.00  0.00     0.018 C 
ENDBRANCH   1   8
TORSDOF 1
ENDMDL
