MODEL 1
REMARK minimizedAffinity 7.39954138
REMARK minimizedRMSD -1
REMARK  1 active torsions:
REMARK  status: ('A' for Active; 'I' for Inactive)
REMARK    1  A    between atoms: C1_2  and  C2_3 
ROOT
ATOM      1  C2  UNL d   1       4.571  -3.311  -1.128  0.00  0.00    -0.073 A 
ATOM      2  C3  UNL d   1       5.344  -4.284  -0.485  0.00  0.00    -0.002 A 
ATOM      3  C4  UNL d   1       5.371  -5.594  -0.965  0.00  0.00     0.004 A 
ATOM      4  C5  UNL d   1       4.632  -5.942  -2.096  0.00  0.00    -0.004 A 
ATOM      5  C6  UNL d   1       3.863  -4.981  -2.760  0.00  0.00    -0.075 A 
ATOM      6  C7  UNL d   1       3.062  -5.340  -3.976  0.00  0.00     0.076 C 
ATOM      7  C8  UNL d   1       3.839  -3.668  -2.270  0.00  0.00     0.001 A 
ENDROOT
BRANCH   1   8
ATOM      8  C1  UNL d   1       4.544  -1.894  -0.616  0.00  0.00     0.053 C 
ATOM      9  C   UNL d   1       3.277  -1.596   0.170  0.00  0.00     0.018 C 
ENDBRANCH   1   8
TORSDOF 1
ENDMDL
