MODEL 1
REMARK minimizedAffinity -0.587573528
REMARK minimizedRMSD -1
REMARK  1 active torsions:
REMARK  status: ('A' for Active; 'I' for Inactive)
REMARK    1  A    between atoms: C1_2  and  C2_3 
ROOT
ATOM      1  C2  UNL d   1       3.828  -2.729  -2.173  0.00  0.00    -0.073 A 
ATOM      2  C3  UNL d   1       3.834  -3.270  -3.464  0.00  0.00    -0.002 A 
ATOM      3  C4  UNL d   1       4.543  -4.442  -3.733  0.00  0.00     0.004 A 
ATOM      4  C5  UNL d   1       5.246  -5.087  -2.715  0.00  0.00    -0.004 A 
ATOM      5  C6  UNL d   1       5.242  -4.568  -1.417  0.00  0.00    -0.075 A 
ATOM      6  C7  UNL d   1       5.995  -5.248  -0.311  0.00  0.00     0.076 C 
ATOM      7  C8  UNL d   1       4.530  -3.390  -1.155  0.00  0.00     0.001 A 
ENDROOT
BRANCH   1   8
ATOM      8  C1  UNL d   1       3.058  -1.468  -1.876  0.00  0.00     0.053 C 
ATOM      9  C   UNL d   1       2.641  -1.385  -0.416  0.00  0.00     0.018 C 
ENDBRANCH   1   8
TORSDOF 1
ENDMDL
