MODEL 1
REMARK minimizedAffinity -0.374013901
REMARK minimizedRMSD -1
REMARK  1 active torsions:
REMARK  status: ('A' for Active; 'I' for Inactive)
REMARK    1  A    between atoms: C1_2  and  C2_3 
ROOT
ATOM      1  C2  UNL d   1       4.560  -4.149  -2.671  0.00  0.00    -0.073 A 
ATOM      2  C3  UNL d   1       4.977  -3.030  -1.941  0.00  0.00    -0.002 A 
ATOM      3  C4  UNL d   1       4.224  -2.575  -0.859  0.00  0.00     0.004 A 
ATOM      4  C5  UNL d   1       3.052  -3.236  -0.490  0.00  0.00    -0.004 A 
ATOM      5  C6  UNL d   1       2.626  -4.363  -1.200  0.00  0.00    -0.075 A 
ATOM      6  C7  UNL d   1       1.366  -5.084  -0.818  0.00  0.00     0.076 C 
ATOM      7  C8  UNL d   1       3.386  -4.813  -2.288  0.00  0.00     0.001 A 
ENDROOT
BRANCH   1   8
ATOM      8  C1  UNL d   1       5.373  -4.649  -3.837  0.00  0.00     0.053 C 
ATOM      9  C   UNL d   1       4.884  -5.999  -4.336  0.00  0.00     0.018 C 
ENDBRANCH   1   8
TORSDOF 1
ENDMDL
