MODEL 1
REMARK minimizedAffinity -4.72752619
REMARK minimizedRMSD -1
REMARK  0 active torsions:
REMARK  status: ('A' for Active; 'I' for Inactive)
ROOT
ATOM      1  C1  BNZ d   1      -2.102  -1.226   1.029  0.00  0.00     0.000 A 
ATOM      2  C2  BNZ d   1      -2.784  -0.843  -0.095  0.00  0.00     0.000 A 
ATOM      3  C3  BNZ d   1      -2.126  -0.289  -1.158  0.00  0.00     0.000 A 
ATOM      4  C4  BNZ d   1      -0.796  -0.082  -1.080  0.00  0.00     0.000 A 
ATOM      5  C5  BNZ d   1      -0.096  -0.455   0.050  0.00  0.00     0.000 A 
ATOM      6  C6  BNZ d   1      -0.755  -1.048   1.102  0.00  0.00     0.000 A 
ENDROOT
TORSDOF 0
ENDMDL
