MODEL 1
REMARK minimizedAffinity -4.86516047
REMARK minimizedRMSD -1
REMARK  0 active torsions:
REMARK  status: ('A' for Active; 'I' for Inactive)
ROOT
ATOM      1  C1  BNZ d   1      -0.683   0.015  -1.809  0.00  0.00     0.000 A 
ATOM      2  C2  BNZ d   1      -1.969  -0.451  -1.851  0.00  0.00     0.000 A 
ATOM      3  C3  BNZ d   1      -2.650  -0.733  -0.700  0.00  0.00     0.000 A 
ATOM      4  C4  BNZ d   1      -2.031  -0.587   0.489  0.00  0.00     0.000 A 
ATOM      5  C5  BNZ d   1      -0.730  -0.126   0.548  0.00  0.00     0.000 A 
ATOM      6  C6  BNZ d   1      -0.061   0.193  -0.611  0.00  0.00     0.000 A 
ENDROOT
TORSDOF 0
ENDMDL
