MODEL 1
REMARK minimizedAffinity -4.40218544
REMARK minimizedRMSD -1
REMARK  0 active torsions:
REMARK  status: ('A' for Active; 'I' for Inactive)
ROOT
ATOM      1  C1  BNZ d   1      -2.197   0.215  -1.230  0.00  0.00     0.000 A 
ATOM      2  C2  BNZ d   1      -1.048   0.833  -1.645  0.00  0.00     0.000 A 
ATOM      3  C3  BNZ d   1       0.160   0.509  -1.094  0.00  0.00     0.000 A 
ATOM      4  C4  BNZ d   1       0.212  -0.402  -0.101  0.00  0.00     0.000 A 
ATOM      5  C5  BNZ d   1      -0.939  -1.027   0.336  0.00  0.00     0.000 A 
ATOM      6  C6  BNZ d   1      -2.148  -0.727  -0.249  0.00  0.00     0.000 A 
ENDROOT
TORSDOF 0
ENDMDL
