MODEL 1
REMARK minimizedAffinity -2.70879579
REMARK minimizedRMSD -1
REMARK  0 active torsions:
REMARK  status: ('A' for Active; 'I' for Inactive)
ROOT
ATOM      1  C1  BNZ d   1      -0.050  -1.449   1.415  0.00  0.00     0.000 A 
ATOM      2  C2  BNZ d   1      -1.038  -0.967   0.599  0.00  0.00     0.000 A 
ATOM      3  C3  BNZ d   1      -0.749  -0.089  -0.408  0.00  0.00     0.000 A 
ATOM      4  C4  BNZ d   1       0.520   0.336  -0.572  0.00  0.00     0.000 A 
ATOM      5  C5  BNZ d   1       1.527  -0.133   0.248  0.00  0.00     0.000 A 
ATOM      6  C6  BNZ d   1       1.238  -1.046   1.236  0.00  0.00     0.000 A 
ENDROOT
TORSDOF 0
ENDMDL
