MODEL 1
REMARK minimizedAffinity -4.74284554
REMARK minimizedRMSD -1
REMARK  0 active torsions:
REMARK  status: ('A' for Active; 'I' for Inactive)
ROOT
ATOM      1  C1  BNZ d   1      -1.958   0.015  -1.353  0.00  0.00     0.000 A 
ATOM      2  C2  BNZ d   1      -0.685   0.325  -1.751  0.00  0.00     0.000 A 
ATOM      3  C3  BNZ d   1       0.386   0.050  -0.947  0.00  0.00     0.000 A 
ATOM      4  C4  BNZ d   1       0.179  -0.497   0.269  0.00  0.00     0.000 A 
ATOM      5  C5  BNZ d   1      -1.099  -0.806   0.688  0.00  0.00     0.000 A 
ATOM      6  C6  BNZ d   1      -2.171  -0.564  -0.140  0.00  0.00     0.000 A 
ENDROOT
TORSDOF 0
ENDMDL
