MODEL 1
REMARK minimizedAffinity -3.77091503
REMARK minimizedRMSD -1
REMARK  0 active torsions:
REMARK  status: ('A' for Active; 'I' for Inactive)
ROOT
ATOM      1  C1  BNZ d   1      -2.220  -0.374   0.653  0.00  0.00     0.000 A 
ATOM      2  C2  BNZ d   1      -0.996   0.220   0.810  0.00  0.00     0.000 A 
ATOM      3  C3  BNZ d   1      -0.164   0.401  -0.260  0.00  0.00     0.000 A 
ATOM      4  C4  BNZ d   1      -0.540  -0.048  -1.475  0.00  0.00     0.000 A 
ATOM      5  C5  BNZ d   1      -1.767  -0.656  -1.647  0.00  0.00     0.000 A 
ATOM      6  C6  BNZ d   1      -2.618  -0.802  -0.575  0.00  0.00     0.000 A 
ENDROOT
TORSDOF 0
ENDMDL
