MODEL 1
REMARK minimizedAffinity -4.59798145
REMARK minimizedRMSD -1
REMARK  0 active torsions:
REMARK  status: ('A' for Active; 'I' for Inactive)
ROOT
ATOM      1  C1  BNZ d   1      -0.713   0.804  -1.766  0.00  0.00     0.000 A 
ATOM      2  C2  BNZ d   1       0.424   0.507  -1.062  0.00  0.00     0.000 A 
ATOM      3  C3  BNZ d   1       0.369  -0.272   0.060  0.00  0.00     0.000 A 
ATOM      4  C4  BNZ d   1      -0.825  -0.720   0.498  0.00  0.00     0.000 A 
ATOM      5  C5  BNZ d   1      -1.981  -0.422  -0.195  0.00  0.00     0.000 A 
ATOM      6  C6  BNZ d   1      -1.917   0.331  -1.345  0.00  0.00     0.000 A 
ENDROOT
TORSDOF 0
ENDMDL
