MODEL 1
REMARK minimizedAffinity -3.12835789
REMARK minimizedRMSD -1
REMARK  0 active torsions:
REMARK  status: ('A' for Active; 'I' for Inactive)
ROOT
ATOM      1  C1  BNZ d   1       0.006  -1.079   0.892  0.00  0.00     0.000 A 
ATOM      2  C2  BNZ d   1      -1.263  -1.590   0.950  0.00  0.00     0.000 A 
ATOM      3  C3  BNZ d   1      -2.211  -1.212   0.041  0.00  0.00     0.000 A 
ATOM      4  C4  BNZ d   1      -1.902  -0.296  -0.898  0.00  0.00     0.000 A 
ATOM      5  C5  BNZ d   1      -0.629   0.236  -0.964  0.00  0.00     0.000 A 
ATOM      6  C6  BNZ d   1       0.334  -0.176  -0.072  0.00  0.00     0.000 A 
ENDROOT
TORSDOF 0
ENDMDL
