MODEL 1
REMARK minimizedAffinity -4.51040697
REMARK minimizedRMSD -1
REMARK  0 active torsions:
REMARK  status: ('A' for Active; 'I' for Inactive)
ROOT
ATOM      1  C1  BNZ d   1      -2.125  -1.026   0.797  0.00  0.00     0.000 A 
ATOM      2  C2  BNZ d   1      -0.840  -0.574   0.935  0.00  0.00     0.000 A 
ATOM      3  C3  BNZ d   1      -0.191   0.020  -0.110  0.00  0.00     0.000 A 
ATOM      4  C4  BNZ d   1      -0.811   0.125  -1.303  0.00  0.00     0.000 A 
ATOM      5  C5  BNZ d   1      -2.104  -0.334  -1.461  0.00  0.00     0.000 A 
ATOM      6  C6  BNZ d   1      -2.768  -0.896  -0.396  0.00  0.00     0.000 A 
ENDROOT
TORSDOF 0
ENDMDL
