MODEL 1
REMARK minimizedAffinity -2.6925056
REMARK minimizedRMSD -1
REMARK  0 active torsions:
REMARK  status: ('A' for Active; 'I' for Inactive)
ROOT
ATOM      1  C1  BNZ d   1       1.155   0.599  -0.761  0.00  0.00     0.000 A 
ATOM      2  C2  BNZ d   1       1.103   0.103   0.515  0.00  0.00     0.000 A 
ATOM      3  C3  BNZ d   1       0.045  -0.658   0.928  0.00  0.00     0.000 A 
ATOM      4  C4  BNZ d   1      -0.977  -0.888   0.078  0.00  0.00     0.000 A 
ATOM      5  C5  BNZ d   1      -0.944  -0.388  -1.208  0.00  0.00     0.000 A 
ATOM      6  C6  BNZ d   1       0.141   0.345  -1.632  0.00  0.00     0.000 A 
ENDROOT
TORSDOF 0
ENDMDL
