MODEL 1
REMARK minimizedAffinity -2.4462533
REMARK minimizedRMSD -1
REMARK  0 active torsions:
REMARK  status: ('A' for Active; 'I' for Inactive)
ROOT
ATOM      1  C1  BNZ d   1       1.194  -0.996   1.174  0.00  0.00     0.000 A 
ATOM      2  C2  BNZ d   1      -0.147  -1.254   1.277  0.00  0.00     0.000 A 
ATOM      3  C3  BNZ d   1      -1.038  -0.683   0.413  0.00  0.00     0.000 A 
ATOM      4  C4  BNZ d   1      -0.593   0.175  -0.527  0.00  0.00     0.000 A 
ATOM      5  C5  BNZ d   1       0.755   0.453  -0.639  0.00  0.00     0.000 A 
ATOM      6  C6  BNZ d   1       1.653  -0.154   0.208  0.00  0.00     0.000 A 
ENDROOT
TORSDOF 0
ENDMDL
