MODEL 1
REMARK minimizedAffinity -4.75835037
REMARK minimizedRMSD -1
REMARK  0 active torsions:
REMARK  status: ('A' for Active; 'I' for Inactive)
ROOT
ATOM      1  C1  BNZ d   1      -0.663  -0.367   0.752  0.00  0.00     0.000 A 
ATOM      2  C2  BNZ d   1      -1.909  -0.932   0.830  0.00  0.00     0.000 A 
ATOM      3  C3  BNZ d   1      -2.736  -0.955  -0.258  0.00  0.00     0.000 A 
ATOM      4  C4  BNZ d   1      -2.334  -0.380  -1.409  0.00  0.00     0.000 A 
ATOM      5  C5  BNZ d   1      -1.085   0.202  -1.501  0.00  0.00     0.000 A 
ATOM      6  C6  BNZ d   1      -0.239   0.189  -0.415  0.00  0.00     0.000 A 
ENDROOT
TORSDOF 0
ENDMDL
