MODEL 1
REMARK minimizedAffinity -4.23202372
REMARK minimizedRMSD -1
REMARK  0 active torsions:
REMARK  status: ('A' for Active; 'I' for Inactive)
ROOT
ATOM      1  C1  BNZ d   1      -0.862   0.473  -0.621  0.00  0.00     0.000 A 
ATOM      2  C2  BNZ d   1       0.191   0.135   0.186  0.00  0.00     0.000 A 
ATOM      3  C3  BNZ d   1       0.023  -0.734   1.228  0.00  0.00     0.000 A 
ATOM      4  C4  BNZ d   1      -1.204  -1.231   1.486  0.00  0.00     0.000 A 
ATOM      5  C5  BNZ d   1      -2.278  -0.892   0.687  0.00  0.00     0.000 A 
ATOM      6  C6  BNZ d   1      -2.097  -0.048  -0.385  0.00  0.00     0.000 A 
ENDROOT
TORSDOF 0
ENDMDL
