MODEL 1
REMARK minimizedAffinity -4.91690445
REMARK minimizedRMSD -1
REMARK  0 active torsions:
REMARK  status: ('A' for Active; 'I' for Inactive)
ROOT
ATOM      1  C1  BNZ d   1      -0.745  -0.001  -0.969  0.00  0.00     0.000 A 
ATOM      2  C2  BNZ d   1      -1.967  -0.481  -0.581  0.00  0.00     0.000 A 
ATOM      3  C3  BNZ d   1      -2.139  -1.040   0.655  0.00  0.00     0.000 A 
ATOM      4  C4  BNZ d   1      -1.081  -1.155   1.484  0.00  0.00     0.000 A 
ATOM      5  C5  BNZ d   1       0.160  -0.684   1.103  0.00  0.00     0.000 A 
ATOM      6  C6  BNZ d   1       0.320  -0.086  -0.126  0.00  0.00     0.000 A 
ENDROOT
TORSDOF 0
ENDMDL
