MODEL 1
REMARK minimizedAffinity -1.82315063
REMARK minimizedRMSD -1
REMARK  0 active torsions:
REMARK  status: ('A' for Active; 'I' for Inactive)
ROOT
ATOM      1  C1  BNZ d   1      -0.521  -0.790   1.127  0.00  0.00     0.000 A 
ATOM      2  C2  BNZ d   1       0.746  -0.305   0.939  0.00  0.00     0.000 A 
ATOM      3  C3  BNZ d   1       1.055   0.434  -0.168  0.00  0.00     0.000 A 
ATOM      4  C4  BNZ d   1       0.110   0.654  -1.104  0.00  0.00     0.000 A 
ATOM      5  C5  BNZ d   1      -1.169   0.164  -0.934  0.00  0.00     0.000 A 
ATOM      6  C6  BNZ d   1      -1.488  -0.547   0.200  0.00  0.00     0.000 A 
ENDROOT
TORSDOF 0
ENDMDL
