MODEL 1
REMARK minimizedAffinity -2.11490512
REMARK minimizedRMSD -1
REMARK  0 active torsions:
REMARK  status: ('A' for Active; 'I' for Inactive)
ROOT
ATOM      1  C1  BNZ d   1       3.362   1.868  -0.537  0.00  0.00     0.000 A 
ATOM      2  C2  BNZ d   1       3.766   2.926   0.233  0.00  0.00     0.000 A 
ATOM      3  C3  BNZ d   1       3.171   3.183   1.436  0.00  0.00     0.000 A 
ATOM      4  C4  BNZ d   1       2.148   2.408   1.849  0.00  0.00     0.000 A 
ATOM      5  C5  BNZ d   1       1.723   1.343   1.079  0.00  0.00     0.000 A 
ATOM      6  C6  BNZ d   1       2.350   1.064  -0.113  0.00  0.00     0.000 A 
ENDROOT
TORSDOF 0
ENDMDL
