MODEL 1
REMARK minimizedAffinity -4.55997467
REMARK minimizedRMSD -1
REMARK  0 active torsions:
REMARK  status: ('A' for Active; 'I' for Inactive)
ROOT
ATOM      1  C1  BNZ d   1      -0.649  -0.038  -1.355  0.00  0.00     0.000 A 
ATOM      2  C2  BNZ d   1      -1.943  -0.483  -1.404  0.00  0.00     0.000 A 
ATOM      3  C3  BNZ d   1      -2.588  -0.884  -0.267  0.00  0.00     0.000 A 
ATOM      4  C4  BNZ d   1      -1.927  -0.877   0.908  0.00  0.00     0.000 A 
ATOM      5  C5  BNZ d   1      -0.619  -0.440   0.972  0.00  0.00     0.000 A 
ATOM      6  C6  BNZ d   1       0.015  -0.000  -0.168  0.00  0.00     0.000 A 
ENDROOT
TORSDOF 0
ENDMDL
