MODEL 1
REMARK minimizedAffinity 12.2023926
REMARK minimizedRMSD -1
REMARK  1 active torsions:
REMARK  status: ('A' for Active; 'I' for Inactive)
REMARK    1  A    between atoms: C1_2  and  C2_3 
ROOT
ATOM      1  C2  UNL d   1       4.895   1.749   2.911  0.00  0.00    -0.081 A 
ATOM      2  C3  UNL d   1       5.648   2.123   4.030  0.00  0.00     0.006 A 
ATOM      3  C4  UNL d   1       5.995   1.179   4.999  0.00  0.00     0.002 A 
ATOM      4  C5  UNL d   1       5.602  -0.157   4.861  0.00  0.00    -0.080 A 
ATOM      5  C6  UNL d   1       5.993  -1.187   5.878  0.00  0.00     0.076 C 
ATOM      6  C7  UNL d   1       4.834  -0.528   3.751  0.00  0.00     0.002 A 
ATOM      7  C8  UNL d   1       4.486   0.417   2.783  0.00  0.00     0.006 A 
ENDROOT
BRANCH   1   8
ATOM      8  C1  UNL d   1       4.574   2.752   1.832  0.00  0.00     0.054 C 
ATOM      9  C   UNL d   1       3.702   3.879   2.366  0.00  0.00     0.018 C 
ENDBRANCH   1   8
TORSDOF 1
ENDMDL
