MODEL 1
REMARK minimizedAffinity 9.32013035
REMARK minimizedRMSD -1
REMARK  1 active torsions:
REMARK  status: ('A' for Active; 'I' for Inactive)
REMARK    1  A    between atoms: C1_2  and  C2_3 
ROOT
ATOM      1  C2  UNL d   1       4.950   4.404   3.546  0.00  0.00    -0.081 A 
ATOM      2  C3  UNL d   1       5.362   3.094   3.820  0.00  0.00     0.006 A 
ATOM      3  C4  UNL d   1       4.424   2.064   3.927  0.00  0.00     0.002 A 
ATOM      4  C5  UNL d   1       3.061   2.325   3.754  0.00  0.00    -0.080 A 
ATOM      5  C6  UNL d   1       2.046   1.224   3.837  0.00  0.00     0.076 C 
ATOM      6  C7  UNL d   1       2.648   3.637   3.498  0.00  0.00     0.002 A 
ATOM      7  C8  UNL d   1       3.585   4.667   3.392  0.00  0.00     0.006 A 
ENDROOT
BRANCH   1   8
ATOM      8  C1  UNL d   1       5.965   5.504   3.366  0.00  0.00     0.054 C 
ATOM      9  C   UNL d   1       5.997   5.997   1.927  0.00  0.00     0.018 C 
ENDBRANCH   1   8
TORSDOF 1
ENDMDL
