MODEL 1
REMARK minimizedAffinity 10.0185099
REMARK minimizedRMSD -1
REMARK  1 active torsions:
REMARK  status: ('A' for Active; 'I' for Inactive)
REMARK    1  A    between atoms: C1_2  and  C2_3 
ROOT
ATOM      1  C2  UNL d   1       3.912   3.264   2.684  0.00  0.00    -0.081 A 
ATOM      2  C3  UNL d   1       2.710   3.501   3.362  0.00  0.00     0.006 A 
ATOM      3  C4  UNL d   1       1.505   3.001   2.864  0.00  0.00     0.002 A 
ATOM      4  C5  UNL d   1       1.483   2.249   1.685  0.00  0.00    -0.080 A 
ATOM      5  C6  UNL d   1       0.200   1.680   1.155  0.00  0.00     0.076 C 
ATOM      6  C7  UNL d   1       2.681   2.026   0.998  0.00  0.00     0.002 A 
ATOM      7  C8  UNL d   1       3.886   2.527   1.495  0.00  0.00     0.006 A 
ENDROOT
BRANCH   1   8
ATOM      8  C1  UNL d   1       5.222   3.747   3.253  0.00  0.00     0.054 C 
ATOM      9  C   UNL d   1       6.000   4.566   2.233  0.00  0.00     0.018 C 
ENDBRANCH   1   8
TORSDOF 1
ENDMDL
