MODEL 1
REMARK minimizedAffinity 13.2845411
REMARK minimizedRMSD -1
REMARK  1 active torsions:
REMARK  status: ('A' for Active; 'I' for Inactive)
REMARK    1  A    between atoms: C1_2  and  C2_3 
ROOT
ATOM      1  C2  UNL d   1       4.769   3.858   3.761  0.00  0.00    -0.081 A 
ATOM      2  C3  UNL d   1       4.808   3.337   2.461  0.00  0.00     0.006 A 
ATOM      3  C4  UNL d   1       3.656   2.803   1.878  0.00  0.00     0.002 A 
ATOM      4  C5  UNL d   1       2.446   2.788   2.579  0.00  0.00    -0.080 A 
ATOM      5  C6  UNL d   1       1.196   2.245   1.953  0.00  0.00     0.076 C 
ATOM      6  C7  UNL d   1       2.411   3.292   3.884  0.00  0.00     0.002 A 
ATOM      7  C8  UNL d   1       3.562   3.825   4.468  0.00  0.00     0.006 A 
ENDROOT
BRANCH   1   8
ATOM      8  C1  UNL d   1       5.993   4.493   4.369  0.00  0.00     0.054 C 
ATOM      9  C   UNL d   1       6.000   6.000   4.153  0.00  0.00     0.018 C 
ENDBRANCH   1   8
TORSDOF 1
ENDMDL
