MODEL 1
REMARK minimizedAffinity 7.50944424
REMARK minimizedRMSD -1
REMARK  1 active torsions:
REMARK  status: ('A' for Active; 'I' for Inactive)
REMARK    1  A    between atoms: C1_2  and  C2_3 
ROOT
ATOM      1  C2  UNL d   1       0.590   0.945   0.431  0.00  0.00    -0.081 A 
ATOM      2  C3  UNL d   1       0.011   0.126   1.408  0.00  0.00     0.006 A 
ATOM      3  C4  UNL d   1      -0.427  -1.161   1.084  0.00  0.00     0.002 A 
ATOM      4  C5  UNL d   1      -0.286  -1.651  -0.219  0.00  0.00    -0.080 A 
ATOM      5  C6  UNL d   1      -0.725  -3.042  -0.572  0.00  0.00     0.076 C 
ATOM      6  C7  UNL d   1       0.275  -0.826  -1.199  0.00  0.00     0.002 A 
ATOM      7  C8  UNL d   1       0.713   0.460  -0.876  0.00  0.00     0.006 A 
ENDROOT
BRANCH   1   8
ATOM      8  C1  UNL d   1       1.122   2.309   0.791  0.00  0.00     0.054 C 
ATOM      9  C   UNL d   1      -0.004   3.258   1.178  0.00  0.00     0.018 C 
ENDBRANCH   1   8
TORSDOF 1
ENDMDL
