MODEL 1
REMARK minimizedAffinity 14.4366722
REMARK minimizedRMSD -1
REMARK  1 active torsions:
REMARK  status: ('A' for Active; 'I' for Inactive)
REMARK    1  A    between atoms: C1_2  and  C2_3 
ROOT
ATOM      1  C2  UNL d   1       4.151   2.161  -4.239  0.00  0.00    -0.081 A 
ATOM      2  C3  UNL d   1       4.344   1.537  -3.001  0.00  0.00     0.006 A 
ATOM      3  C4  UNL d   1       3.350   0.722  -2.455  0.00  0.00     0.002 A 
ATOM      4  C5  UNL d   1       2.150   0.510  -3.143  0.00  0.00    -0.080 A 
ATOM      5  C6  UNL d   1       1.087  -0.387  -2.583  0.00  0.00     0.076 C 
ATOM      6  C7  UNL d   1       1.949   1.147  -4.372  0.00  0.00     0.002 A 
ATOM      7  C8  UNL d   1       2.943   1.963  -4.917  0.00  0.00     0.006 A 
ENDROOT
BRANCH   1   8
ATOM      8  C1  UNL d   1       5.247   2.989  -4.860  0.00  0.00     0.054 C 
ATOM      9  C   UNL d   1       5.999   2.203  -5.924  0.00  0.00     0.018 C 
ENDBRANCH   1   8
TORSDOF 1
ENDMDL
