MODEL 1
REMARK minimizedAffinity 9.05609226
REMARK minimizedRMSD -1
REMARK  1 active torsions:
REMARK  status: ('A' for Active; 'I' for Inactive)
REMARK    1  A    between atoms: C1_2  and  C2_3 
ROOT
ATOM      1  C2  UNL d   1       1.701  -5.528   2.304  0.00  0.00    -0.081 A 
ATOM      2  C3  UNL d   1       2.599  -5.999   1.338  0.00  0.00     0.006 A 
ATOM      3  C4  UNL d   1       3.973  -6.000   1.590  0.00  0.00     0.002 A 
ATOM      4  C5  UNL d   1       4.471  -5.538   2.813  0.00  0.00    -0.080 A 
ATOM      5  C6  UNL d   1       5.941  -5.562   3.108  0.00  0.00     0.076 C 
ATOM      6  C7  UNL d   1       3.575  -5.051   3.771  0.00  0.00     0.002 A 
ATOM      7  C8  UNL d   1       2.201  -5.049   3.520  0.00  0.00     0.006 A 
ENDROOT
BRANCH   1   8
ATOM      8  C1  UNL d   1       0.214  -5.586   2.061  0.00  0.00     0.054 C 
ATOM      9  C   UNL d   1      -0.239  -4.464   1.138  0.00  0.00     0.018 C 
ENDBRANCH   1   8
TORSDOF 1
ENDMDL
