MODEL 1
REMARK minimizedAffinity 3.50783658
REMARK minimizedRMSD -1
REMARK  1 active torsions:
REMARK  status: ('A' for Active; 'I' for Inactive)
REMARK    1  A    between atoms: C1_2  and  C2_3 
ROOT
ATOM      1  C2  UNL d   1      -1.304  -1.878  -0.033  0.00  0.00    -0.081 A 
ATOM      2  C3  UNL d   1      -0.584  -3.018   0.346  0.00  0.00     0.006 A 
ATOM      3  C4  UNL d   1      -1.240  -4.235   0.545  0.00  0.00     0.002 A 
ATOM      4  C5  UNL d   1      -2.623  -4.334   0.362  0.00  0.00    -0.080 A 
ATOM      5  C6  UNL d   1      -3.335  -5.642   0.544  0.00  0.00     0.076 C 
ATOM      6  C7  UNL d   1      -3.345  -3.192   0.001  0.00  0.00     0.002 A 
ATOM      7  C8  UNL d   1      -2.690  -1.974  -0.198  0.00  0.00     0.006 A 
ENDROOT
BRANCH   1   8
ATOM      8  C1  UNL d   1      -0.591  -0.579  -0.312  0.00  0.00     0.054 C 
ATOM      9  C   UNL d   1      -0.394   0.229   0.963  0.00  0.00     0.018 C 
ENDBRANCH   1   8
TORSDOF 1
ENDMDL
