MODEL 1
REMARK minimizedAffinity 5.9608593
REMARK minimizedRMSD -1
REMARK  1 active torsions:
REMARK  status: ('A' for Active; 'I' for Inactive)
REMARK    1  A    between atoms: C1_2  and  C2_3 
ROOT
ATOM      1  C2  UNL d   1       1.144  -3.059   1.108  0.00  0.00    -0.081 A 
ATOM      2  C3  UNL d   1       1.136  -4.411   0.740  0.00  0.00     0.006 A 
ATOM      3  C4  UNL d   1       1.786  -5.363   1.529  0.00  0.00     0.002 A 
ATOM      4  C5  UNL d   1       2.447  -4.982   2.701  0.00  0.00    -0.080 A 
ATOM      5  C6  UNL d   1       3.122  -5.999   3.573  0.00  0.00     0.076 C 
ATOM      6  C7  UNL d   1       2.469  -3.630   3.060  0.00  0.00     0.002 A 
ATOM      7  C8  UNL d   1       1.821  -2.677   2.271  0.00  0.00     0.006 A 
ENDROOT
BRANCH   1   8
ATOM      8  C1  UNL d   1       0.389  -2.039   0.294  0.00  0.00     0.054 C 
ATOM      9  C   UNL d   1      -1.106  -2.323   0.300  0.00  0.00     0.018 C 
ENDBRANCH   1   8
TORSDOF 1
ENDMDL
