MODEL 1
REMARK minimizedAffinity 5.71625996
REMARK minimizedRMSD -1
REMARK  1 active torsions:
REMARK  status: ('A' for Active; 'I' for Inactive)
REMARK    1  A    between atoms: C1_2  and  C2_3 
ROOT
ATOM      1  C2  UNL d   1       3.636   2.043  -0.816  0.00  0.00    -0.081 A 
ATOM      2  C3  UNL d   1       2.900   3.164  -0.412  0.00  0.00     0.006 A 
ATOM      3  C4  UNL d   1       3.285   4.445  -0.812  0.00  0.00     0.002 A 
ATOM      4  C5  UNL d   1       4.406   4.627  -1.630  0.00  0.00    -0.080 A 
ATOM      5  C6  UNL d   1       4.812   5.995  -2.092  0.00  0.00     0.076 C 
ATOM      6  C7  UNL d   1       5.151   3.509  -2.020  0.00  0.00     0.002 A 
ATOM      7  C8  UNL d   1       4.767   2.227  -1.619  0.00  0.00     0.006 A 
ENDROOT
BRANCH   1   8
ATOM      8  C1  UNL d   1       3.186   0.654  -0.439  0.00  0.00     0.054 C 
ATOM      9  C   UNL d   1       3.386   0.392   1.047  0.00  0.00     0.018 C 
ENDBRANCH   1   8
TORSDOF 1
ENDMDL
