MODEL 1
REMARK minimizedAffinity 5.89636707
REMARK minimizedRMSD -1
REMARK  1 active torsions:
REMARK  status: ('A' for Active; 'I' for Inactive)
REMARK    1  A    between atoms: C1_2  and  C2_3 
ROOT
ATOM      1  C2  UNL d   1       5.964   2.539   5.044  0.00  0.00    -0.081 A 
ATOM      2  C3  UNL d   1       5.994   3.852   5.531  0.00  0.00     0.006 A 
ATOM      3  C4  UNL d   1       5.983   4.934   4.649  0.00  0.00     0.002 A 
ATOM      4  C5  UNL d   1       5.934   4.723   3.267  0.00  0.00    -0.080 A 
ATOM      5  C6  UNL d   1       5.892   5.877   2.309  0.00  0.00     0.076 C 
ATOM      6  C7  UNL d   1       5.922   3.412   2.780  0.00  0.00     0.002 A 
ATOM      7  C8  UNL d   1       5.934   2.329   3.661  0.00  0.00     0.006 A 
ENDROOT
BRANCH   1   8
ATOM      8  C1  UNL d   1       5.910   1.370   5.995  0.00  0.00     0.054 C 
ATOM      9  C   UNL d   1       5.864   0.048   5.243  0.00  0.00     0.018 C 
ENDBRANCH   1   8
TORSDOF 1
ENDMDL
