MODEL 1
REMARK minimizedAffinity 12.7315969
REMARK minimizedRMSD -1
REMARK  1 active torsions:
REMARK  status: ('A' for Active; 'I' for Inactive)
REMARK    1  A    between atoms: C1_2  and  C2_3 
ROOT
ATOM      1  C2  UNL d   1       2.324   3.750   2.556  0.00  0.00    -0.081 A 
ATOM      2  C3  UNL d   1       2.318   4.119   3.906  0.00  0.00     0.006 A 
ATOM      3  C4  UNL d   1       3.507   4.469   4.550  0.00  0.00     0.002 A 
ATOM      4  C5  UNL d   1       4.720   4.466   3.852  0.00  0.00    -0.080 A 
ATOM      5  C6  UNL d   1       5.999   4.869   4.523  0.00  0.00     0.076 C 
ATOM      6  C7  UNL d   1       4.729   4.081   2.507  0.00  0.00     0.002 A 
ATOM      7  C8  UNL d   1       3.540   3.729   1.864  0.00  0.00     0.006 A 
ENDROOT
BRANCH   1   8
ATOM      8  C1  UNL d   1       1.035   3.434   1.842  0.00  0.00     0.054 C 
ATOM      9  C   UNL d   1       1.111   2.090   1.132  0.00  0.00     0.018 C 
ENDBRANCH   1   8
TORSDOF 1
ENDMDL
