MODEL 1
REMARK minimizedAffinity 18.8231773
REMARK minimizedRMSD -1
REMARK  1 active torsions:
REMARK  status: ('A' for Active; 'I' for Inactive)
REMARK    1  A    between atoms: C1_2  and  C2_3 
ROOT
ATOM      1  C2  UNL d   1      -4.434   1.462   4.744  0.00  0.00    -0.081 A 
ATOM      2  C3  UNL d   1      -3.998   2.040   5.943  0.00  0.00     0.006 A 
ATOM      3  C4  UNL d   1      -3.684   3.400   6.000  0.00  0.00     0.002 A 
ATOM      4  C5  UNL d   1      -3.808   4.206   4.863  0.00  0.00    -0.080 A 
ATOM      5  C6  UNL d   1      -3.503   5.673   4.918  0.00  0.00     0.076 C 
ATOM      6  C7  UNL d   1      -4.226   3.625   3.661  0.00  0.00     0.002 A 
ATOM      7  C8  UNL d   1      -4.540   2.265   3.603  0.00  0.00     0.006 A 
ENDROOT
BRANCH   1   8
ATOM      8  C1  UNL d   1      -4.835   0.010   4.695  0.00  0.00     0.054 C 
ATOM      9  C   UNL d   1      -5.844  -0.248   3.585  0.00  0.00     0.018 C 
ENDBRANCH   1   8
TORSDOF 1
ENDMDL
