MODEL 1
REMARK minimizedAffinity 15.3644123
REMARK minimizedRMSD -1
REMARK  0 active torsions:
REMARK  status: ('A' for Active; 'I' for Inactive)
ROOT
ATOM      1  O1  BZF d   1      -5.883  -2.710   4.414  0.00  0.00    -0.204 OA
ATOM      2  C2  BZF d   1      -5.965  -2.384   5.754  0.00  0.00     0.174 A 
ATOM      3  C3  BZF d   1      -5.512  -1.133   5.970  0.00  0.00    -0.012 A 
ATOM      4  C3A BZF d   1      -5.208  -0.613   4.673  0.00  0.00    -0.107 A 
ATOM      5  C4  BZF d   1      -4.734   0.589   4.230  0.00  0.00     0.055 A 
ATOM      6  C5  BZF d   1      -4.477   0.750   2.905  0.00  0.00    -0.016 A 
ATOM      7  C6  BZF d   1      -4.677  -0.269   1.997  0.00  0.00     0.022 A 
ATOM      8  C7  BZF d   1      -5.151  -1.477   2.388  0.00  0.00     0.029 A 
ATOM      9  C7A BZF d   1      -5.443  -1.633   3.721  0.00  0.00     0.058 A 
ENDROOT
TORSDOF 0
ENDMDL
