MODEL 1
REMARK minimizedAffinity 1.58210468
REMARK minimizedRMSD -1
REMARK  0 active torsions:
REMARK  status: ('A' for Active; 'I' for Inactive)
ROOT
ATOM      1  O1  BZF d   1      -3.624   0.791   5.949  0.00  0.00    -0.204 OA
ATOM      2  C2  BZF d   1      -2.894   1.807   5.364  0.00  0.00     0.174 A 
ATOM      3  C3  BZF d   1      -2.931   1.710   4.019  0.00  0.00    -0.012 A 
ATOM      4  C3A BZF d   1      -3.810   0.615   3.745  0.00  0.00    -0.107 A 
ATOM      5  C4  BZF d   1      -4.261   0.038   2.593  0.00  0.00     0.055 A 
ATOM      6  C5  BZF d   1      -5.054  -1.063   2.671  0.00  0.00    -0.016 A 
ATOM      7  C6  BZF d   1      -5.411  -1.616   3.883  0.00  0.00     0.022 A 
ATOM      8  C7  BZF d   1      -4.992  -1.076   5.054  0.00  0.00     0.029 A 
ATOM      9  C7A BZF d   1      -4.218   0.056   4.979  0.00  0.00     0.058 A 
ENDROOT
TORSDOF 0
ENDMDL
