MODEL 1
REMARK minimizedAffinity 8.40643024
REMARK minimizedRMSD -1
REMARK  0 active torsions:
REMARK  status: ('A' for Active; 'I' for Inactive)
ROOT
ATOM      1  O1  BZF d   1      -3.756   0.391   5.555  0.00  0.00    -0.204 OA
ATOM      2  C2  BZF d   1      -2.865   1.249   4.939  0.00  0.00     0.174 A 
ATOM      3  C3  BZF d   1      -2.703   0.919   3.641  0.00  0.00    -0.012 A 
ATOM      4  C3A BZF d   1      -3.614  -0.159   3.410  0.00  0.00    -0.107 A 
ATOM      5  C4  BZF d   1      -3.927  -0.905   2.309  0.00  0.00     0.055 A 
ATOM      6  C5  BZF d   1      -4.808  -1.932   2.435  0.00  0.00    -0.016 A 
ATOM      7  C6  BZF d   1      -5.390  -2.244   3.646  0.00  0.00     0.022 A 
ATOM      8  C7  BZF d   1      -5.115  -1.530   4.765  0.00  0.00     0.029 A 
ATOM      9  C7A BZF d   1      -4.251  -0.471   4.634  0.00  0.00     0.058 A 
ENDROOT
TORSDOF 0
ENDMDL
