MODEL 1
REMARK minimizedAffinity 14.5990667
REMARK minimizedRMSD -1
REMARK  0 active torsions:
REMARK  status: ('A' for Active; 'I' for Inactive)
ROOT
ATOM      1  O1  BZF d   1      -0.976  -0.751   3.298  0.00  0.00    -0.204 OA
ATOM      2  C2  BZF d   1       0.164  -0.786   4.079  0.00  0.00     0.174 A 
ATOM      3  C3  BZF d   1       0.951  -1.824   3.730  0.00  0.00    -0.012 A 
ATOM      4  C3A BZF d   1       0.305  -2.424   2.603  0.00  0.00    -0.107 A 
ATOM      5  C4  BZF d   1       0.611  -3.486   1.801  0.00  0.00     0.055 A 
ATOM      6  C5  BZF d   1      -0.267  -3.857   0.832  0.00  0.00    -0.016 A 
ATOM      7  C6  BZF d   1      -1.460  -3.192   0.641  0.00  0.00     0.022 A 
ATOM      8  C7  BZF d   1      -1.805  -2.129   1.407  0.00  0.00     0.029 A 
ATOM      9  C7A BZF d   1      -0.905  -1.732   2.366  0.00  0.00     0.058 A 
ENDROOT
TORSDOF 0
ENDMDL
