MODEL 1
REMARK minimizedAffinity -3.80024147
REMARK minimizedRMSD -1
REMARK  0 active torsions:
REMARK  status: ('A' for Active; 'I' for Inactive)
ROOT
ATOM      1  O1  BZF d   1       4.807  -4.942   0.078  0.00  0.00    -0.204 OA
ATOM      2  C2  BZF d   1       5.730  -4.940  -0.949  0.00  0.00     0.174 A 
ATOM      3  C3  BZF d   1       5.340  -4.114  -1.941  0.00  0.00    -0.012 A 
ATOM      4  C3A BZF d   1       4.141  -3.494  -1.466  0.00  0.00    -0.107 A 
ATOM      5  C4  BZF d   1       3.292  -2.564  -1.993  0.00  0.00     0.055 A 
ATOM      6  C5  BZF d   1       2.171  -2.227  -1.303  0.00  0.00    -0.016 A 
ATOM      7  C6  BZF d   1       1.866  -2.802  -0.087  0.00  0.00     0.022 A 
ATOM      8  C7  BZF d   1       2.681  -3.726   0.479  0.00  0.00     0.029 A 
ATOM      9  C7A BZF d   1       3.831  -4.045  -0.201  0.00  0.00     0.058 A 
ENDROOT
TORSDOF 0
ENDMDL
