MODEL 1
REMARK minimizedAffinity -2.68583512
REMARK minimizedRMSD -1
REMARK  0 active torsions:
REMARK  status: ('A' for Active; 'I' for Inactive)
ROOT
ATOM      1  O1  BZF d   1       5.999  -5.050  -1.397  0.00  0.00    -0.204 OA
ATOM      2  C2  BZF d   1       5.694  -5.998  -0.440  0.00  0.00     0.174 A 
ATOM      3  C3  BZF d   1       4.530  -5.701   0.173  0.00  0.00    -0.012 A 
ATOM      4  C3A BZF d   1       4.034  -4.541  -0.502  0.00  0.00    -0.107 A 
ATOM      5  C4  BZF d   1       2.908  -3.781  -0.360  0.00  0.00     0.055 A 
ATOM      6  C5  BZF d   1       2.759  -2.672  -1.130  0.00  0.00    -0.016 A 
ATOM      7  C6  BZF d   1       3.716  -2.290  -2.047  0.00  0.00     0.022 A 
ATOM      8  C7  BZF d   1       4.847  -3.015  -2.228  0.00  0.00     0.029 A 
ATOM      9  C7A BZF d   1       4.986  -4.155  -1.474  0.00  0.00     0.058 A 
ENDROOT
TORSDOF 0
ENDMDL
