MODEL 1
REMARK minimizedAffinity -4.74602795
REMARK minimizedRMSD -1
REMARK  0 active torsions:
REMARK  status: ('A' for Active; 'I' for Inactive)
ROOT
ATOM      1  O1  BZF d   1       2.124  -4.606   0.769  0.00  0.00    -0.204 OA
ATOM      2  C2  BZF d   1       1.636  -3.464   0.164  0.00  0.00     0.174 A 
ATOM      3  C3  BZF d   1       2.537  -2.958  -0.702  0.00  0.00    -0.012 A 
ATOM      4  C3A BZF d   1       3.622  -3.891  -0.703  0.00  0.00    -0.107 A 
ATOM      5  C4  BZF d   1       4.810  -3.948  -1.375  0.00  0.00     0.055 A 
ATOM      6  C5  BZF d   1       5.679  -4.954  -1.095  0.00  0.00    -0.016 A 
ATOM      7  C6  BZF d   1       5.396  -5.915  -0.146  0.00  0.00     0.022 A 
ATOM      8  C7  BZF d   1       4.229  -5.903   0.542  0.00  0.00     0.029 A 
ATOM      9  C7A BZF d   1       3.334  -4.906   0.238  0.00  0.00     0.058 A 
ENDROOT
TORSDOF 0
ENDMDL
