MODEL 1
REMARK minimizedAffinity -2.88778901
REMARK minimizedRMSD -1
REMARK  0 active torsions:
REMARK  status: ('A' for Active; 'I' for Inactive)
ROOT
ATOM      1  O1  BZF d   1       5.979  -4.940  -1.490  0.00  0.00    -0.204 OA
ATOM      2  C2  BZF d   1       5.998  -5.829  -0.433  0.00  0.00     0.174 A 
ATOM      3  C3  BZF d   1       4.980  -5.584   0.417  0.00  0.00    -0.012 A 
ATOM      4  C3A BZF d   1       4.227  -4.531  -0.193  0.00  0.00    -0.107 A 
ATOM      5  C4  BZF d   1       3.090  -3.862   0.163  0.00  0.00     0.055 A 
ATOM      6  C5  BZF d   1       2.656  -2.837  -0.616  0.00  0.00    -0.016 A 
ATOM      7  C6  BZF d   1       3.335  -2.451  -1.753  0.00  0.00     0.022 A 
ATOM      8  C7  BZF d   1       4.464  -3.087  -2.149  0.00  0.00     0.029 A 
ATOM      9  C7A BZF d   1       4.887  -4.145  -1.382  0.00  0.00     0.058 A 
ENDROOT
TORSDOF 0
ENDMDL
