MODEL 1
REMARK minimizedAffinity 9.80331326
REMARK minimizedRMSD -1
REMARK  0 active torsions:
REMARK  status: ('A' for Active; 'I' for Inactive)
ROOT
ATOM      1  O1  BZF d   1      -2.935  -1.284   1.314  0.00  0.00    -0.204 OA
ATOM      2  C2  BZF d   1      -2.598  -0.093   1.926  0.00  0.00     0.174 A 
ATOM      3  C3  BZF d   1      -1.292  -0.079   2.260  0.00  0.00    -0.012 A 
ATOM      4  C3A BZF d   1      -0.759  -1.304   1.745  0.00  0.00    -0.107 A 
ATOM      5  C4  BZF d   1       0.488  -1.858   1.746  0.00  0.00     0.055 A 
ATOM      6  C5  BZF d   1       0.659  -3.101   1.224  0.00  0.00    -0.016 A 
ATOM      7  C6  BZF d   1      -0.396  -3.819   0.698  0.00  0.00     0.022 A 
ATOM      8  C7  BZF d   1      -1.651  -3.308   0.671  0.00  0.00     0.029 A 
ATOM      9  C7A BZF d   1      -1.820  -2.039   1.168  0.00  0.00     0.058 A 
ENDROOT
TORSDOF 0
ENDMDL
