MODEL 1
REMARK minimizedAffinity -2.33355665
REMARK minimizedRMSD -1
REMARK  0 active torsions:
REMARK  status: ('A' for Active; 'I' for Inactive)
ROOT
ATOM      1  O1  BZF d   1       3.601  -5.367  -0.056  0.00  0.00    -0.204 OA
ATOM      2  C2  BZF d   1       4.680  -5.034  -0.851  0.00  0.00     0.174 A 
ATOM      3  C3  BZF d   1       4.527  -3.800  -1.373  0.00  0.00    -0.012 A 
ATOM      4  C3A BZF d   1       3.318  -3.296  -0.799  0.00  0.00    -0.107 A 
ATOM      5  C4  BZF d   1       2.643  -2.114  -0.918  0.00  0.00     0.055 A 
ATOM      6  C5  BZF d   1       1.453  -1.966  -0.280  0.00  0.00    -0.016 A 
ATOM      7  C6  BZF d   1       0.905  -2.980   0.480  0.00  0.00     0.022 A 
ATOM      8  C7  BZF d   1       1.539  -4.168   0.631  0.00  0.00     0.029 A 
ATOM      9  C7A BZF d   1       2.758  -4.309   0.014  0.00  0.00     0.058 A 
ENDROOT
TORSDOF 0
ENDMDL
