MODEL 1
REMARK minimizedAffinity -1.70082378
REMARK minimizedRMSD -1
REMARK  0 active torsions:
REMARK  status: ('A' for Active; 'I' for Inactive)
ROOT
ATOM      1  O1  BZF d   1       1.446  -1.497   0.289  0.00  0.00    -0.204 OA
ATOM      2  C2  BZF d   1       1.059  -2.522   1.131  0.00  0.00     0.174 A 
ATOM      3  C3  BZF d   1       1.663  -3.678   0.787  0.00  0.00    -0.012 A 
ATOM      4  C3A BZF d   1       2.549  -3.335  -0.283  0.00  0.00    -0.107 A 
ATOM      5  C4  BZF d   1       3.434  -4.054  -1.035  0.00  0.00     0.055 A 
ATOM      6  C5  BZF d   1       4.092  -3.435  -2.050  0.00  0.00    -0.016 A 
ATOM      7  C6  BZF d   1       3.886  -2.103  -2.344  0.00  0.00     0.022 A 
ATOM      8  C7  BZF d   1       3.021  -1.349  -1.623  0.00  0.00     0.029 A 
ATOM      9  C7A BZF d   1       2.380  -1.962  -0.575  0.00  0.00     0.058 A 
ENDROOT
TORSDOF 0
ENDMDL
