MODEL 1
REMARK minimizedAffinity -2.23258758
REMARK minimizedRMSD -1
REMARK  0 active torsions:
REMARK  status: ('A' for Active; 'I' for Inactive)
ROOT
ATOM      1  O1  BZF d   1       5.996  -4.304   0.204  0.00  0.00    -0.204 OA
ATOM      2  C2  BZF d   1       5.763  -5.640  -0.060  0.00  0.00     0.174 A 
ATOM      3  C3  BZF d   1       4.486  -5.837  -0.444  0.00  0.00    -0.012 A 
ATOM      4  C3A BZF d   1       3.906  -4.530  -0.507  0.00  0.00    -0.107 A 
ATOM      5  C4  BZF d   1       2.666  -4.068  -0.844  0.00  0.00     0.055 A 
ATOM      6  C5  BZF d   1       2.403  -2.740  -0.732  0.00  0.00    -0.016 A 
ATOM      7  C6  BZF d   1       3.354  -1.847  -0.282  0.00  0.00     0.022 A 
ATOM      8  C7  BZF d   1       4.600  -2.257   0.059  0.00  0.00     0.029 A 
ATOM      9  C7A BZF d   1       4.879  -3.594  -0.085  0.00  0.00     0.058 A 
ENDROOT
TORSDOF 0
ENDMDL
