MODEL 1
REMARK minimizedAffinity 2.67895269
REMARK minimizedRMSD -1
REMARK  0 active torsions:
REMARK  status: ('A' for Active; 'I' for Inactive)
ROOT
ATOM      1  O1  BZF d   1       5.962  -3.752   1.504  0.00  0.00    -0.204 OA
ATOM      2  C2  BZF d   1       5.973  -4.954   2.185  0.00  0.00     0.174 A 
ATOM      3  C3  BZF d   1       5.933  -5.992   1.324  0.00  0.00    -0.012 A 
ATOM      4  C3A BZF d   1       5.989  -5.402   0.021  0.00  0.00    -0.107 A 
ATOM      5  C4  BZF d   1       5.999  -5.918  -1.243  0.00  0.00     0.055 A 
ATOM      6  C5  BZF d   1       5.985  -5.068  -2.303  0.00  0.00    -0.016 A 
ATOM      7  C6  BZF d   1       5.954  -3.699  -2.136  0.00  0.00     0.022 A 
ATOM      8  C7  BZF d   1       5.948  -3.140  -0.901  0.00  0.00     0.029 A 
ATOM      9  C7A BZF d   1       5.996  -3.996   0.172  0.00  0.00     0.058 A 
ENDROOT
TORSDOF 0
ENDMDL
