MODEL 1
REMARK minimizedAffinity 8.71257877
REMARK minimizedRMSD -1
REMARK  0 active torsions:
REMARK  status: ('A' for Active; 'I' for Inactive)
ROOT
ATOM      1  O1  BZF d   1       5.126  -5.941   0.451  0.00  0.00    -0.204 OA
ATOM      2  C2  BZF d   1       5.961  -5.924  -0.649  0.00  0.00     0.174 A 
ATOM      3  C3  BZF d   1       5.248  -5.979  -1.793  0.00  0.00    -0.012 A 
ATOM      4  C3A BZF d   1       3.877  -5.940  -1.383  0.00  0.00    -0.107 A 
ATOM      5  C4  BZF d   1       2.694  -5.949  -2.064  0.00  0.00     0.055 A 
ATOM      6  C5  BZF d   1       1.529  -5.976  -1.364  0.00  0.00    -0.016 A 
ATOM      7  C6  BZF d   1       1.512  -6.000   0.015  0.00  0.00     0.022 A 
ATOM      8  C7  BZF d   1       2.660  -5.987   0.734  0.00  0.00     0.029 A 
ATOM      9  C7A BZF d   1       3.838  -5.926   0.030  0.00  0.00     0.058 A 
ENDROOT
TORSDOF 0
ENDMDL
