MODEL 1
REMARK minimizedAffinity 10.8518038
REMARK minimizedRMSD -1
REMARK  0 active torsions:
REMARK  status: ('A' for Active; 'I' for Inactive)
ROOT
ATOM      1  O1  BZF d   1       0.806   3.892  -4.436  0.00  0.00    -0.204 OA
ATOM      2  C2  BZF d   1      -0.112   4.902  -4.651  0.00  0.00     0.174 A 
ATOM      3  C3  BZF d   1      -0.582   5.378  -3.480  0.00  0.00    -0.012 A 
ATOM      4  C3A BZF d   1       0.152   4.682  -2.468  0.00  0.00    -0.107 A 
ATOM      5  C4  BZF d   1       0.146   4.730  -1.103  0.00  0.00     0.055 A 
ATOM      6  C5  BZF d   1       0.933   3.866  -0.409  0.00  0.00    -0.016 A 
ATOM      7  C6  BZF d   1       1.732   2.939  -1.046  0.00  0.00     0.022 A 
ATOM      8  C7  BZF d   1       1.774   2.857  -2.398  0.00  0.00     0.029 A 
ATOM      9  C7A BZF d   1       1.006   3.751  -3.103  0.00  0.00     0.058 A 
ENDROOT
TORSDOF 0
ENDMDL
