MODEL 1
REMARK minimizedAffinity -0.75594002
REMARK minimizedRMSD -1
REMARK  0 active torsions:
REMARK  status: ('A' for Active; 'I' for Inactive)
ROOT
ATOM      1  O1  BZF d   1       3.320  -5.469  -0.232  0.00  0.00    -0.204 OA
ATOM      2  C2  BZF d   1       4.669  -5.211  -0.380  0.00  0.00     0.174 A 
ATOM      3  C3  BZF d   1       4.921  -3.893  -0.250  0.00  0.00    -0.012 A 
ATOM      4  C3A BZF d   1       3.663  -3.300   0.086  0.00  0.00    -0.107 A 
ATOM      5  C4  BZF d   1       3.270  -2.021   0.355  0.00  0.00     0.055 A 
ATOM      6  C5  BZF d   1       1.954  -1.766   0.575  0.00  0.00    -0.016 A 
ATOM      7  C6  BZF d   1       1.003  -2.765   0.527  0.00  0.00     0.022 A 
ATOM      8  C7  BZF d   1       1.346  -4.051   0.268  0.00  0.00     0.029 A 
ATOM      9  C7A BZF d   1       2.680  -4.316   0.078  0.00  0.00     0.058 A 
ENDROOT
TORSDOF 0
ENDMDL
