MODEL 1
REMARK minimizedAffinity 9.08126831
REMARK minimizedRMSD -1
REMARK  0 active torsions:
REMARK  status: ('A' for Active; 'I' for Inactive)
ROOT
ATOM      1  O1  BZF d   1       5.622   3.268  -1.398  0.00  0.00    -0.204 OA
ATOM      2  C2  BZF d   1       4.691   2.247  -1.419  0.00  0.00     0.174 A 
ATOM      3  C3  BZF d   1       3.769   2.421  -0.450  0.00  0.00    -0.012 A 
ATOM      4  C3A BZF d   1       4.095   3.674   0.159  0.00  0.00    -0.107 A 
ATOM      5  C4  BZF d   1       3.535   4.399   1.172  0.00  0.00     0.055 A 
ATOM      6  C5  BZF d   1       4.139   5.549   1.573  0.00  0.00    -0.016 A 
ATOM      7  C6  BZF d   1       5.304   5.999   0.987  0.00  0.00     0.022 A 
ATOM      8  C7  BZF d   1       5.893   5.317  -0.025  0.00  0.00     0.029 A 
ATOM      9  C7A BZF d   1       5.268   4.172  -0.454  0.00  0.00     0.058 A 
ENDROOT
TORSDOF 0
ENDMDL
