MODEL 1
REMARK minimizedAffinity 4.01783037
REMARK minimizedRMSD -1
REMARK  0 active torsions:
REMARK  status: ('A' for Active; 'I' for Inactive)
ROOT
ATOM      1  O1  BZF d   1       2.154   5.999   1.817  0.00  0.00    -0.204 OA
ATOM      2  C2  BZF d   1       1.064   5.252   1.416  0.00  0.00     0.174 A 
ATOM      3  C3  BZF d   1       1.416   4.365   0.463  0.00  0.00    -0.012 A 
ATOM      4  C3A BZF d   1       2.833   4.507   0.322  0.00  0.00    -0.107 A 
ATOM      5  C4  BZF d   1       3.765   3.887  -0.459  0.00  0.00     0.055 A 
ATOM      6  C5  BZF d   1       5.056   4.310  -0.409  0.00  0.00    -0.016 A 
ATOM      7  C6  BZF d   1       5.447   5.352   0.406  0.00  0.00     0.022 A 
ATOM      8  C7  BZF d   1       4.559   5.994   1.203  0.00  0.00     0.029 A 
ATOM      9  C7A BZF d   1       3.260   5.547   1.179  0.00  0.00     0.058 A 
ENDROOT
TORSDOF 0
ENDMDL
