MODEL 1
REMARK minimizedAffinity 6.68788815
REMARK minimizedRMSD -1
REMARK  0 active torsions:
REMARK  status: ('A' for Active; 'I' for Inactive)
ROOT
ATOM      1  C   UNL d   1      -3.057   3.747   1.638  0.00  0.00     0.077 C 
ATOM      2  C1  UNL d   1      -2.237   3.328   0.454  0.00  0.00    -0.074 A 
ATOM      3  C2  UNL d   1      -2.662   2.292  -0.385  0.00  0.00    -0.005 A 
ATOM      4  C3  UNL d   1      -1.893   1.920  -1.487  0.00  0.00     0.006 A 
ATOM      5  C4  UNL d   1      -0.693   2.577  -1.762  0.00  0.00    -0.005 A 
ATOM      6  C5  UNL d   1      -0.252   3.615  -0.935  0.00  0.00    -0.074 A 
ATOM      7  C6  UNL d   1       1.030   4.339  -1.221  0.00  0.00     0.077 C 
ATOM      8  C7  UNL d   1      -1.034   3.989   0.167  0.00  0.00    -0.001 A 
ENDROOT
TORSDOF 0
ENDMDL
