MODEL 1
REMARK minimizedAffinity 1.43878365
REMARK minimizedRMSD -1
REMARK  0 active torsions:
REMARK  status: ('A' for Active; 'I' for Inactive)
ROOT
ATOM      1  C   UNL d   1      -0.224   1.949   1.222  0.00  0.00     0.077 C 
ATOM      2  C1  UNL d   1      -0.313   2.497  -0.172  0.00  0.00    -0.074 A 
ATOM      3  C2  UNL d   1       0.788   3.114  -0.773  0.00  0.00    -0.005 A 
ATOM      4  C3  UNL d   1       0.693   3.610  -2.074  0.00  0.00     0.006 A 
ATOM      5  C4  UNL d   1      -0.501   3.493  -2.785  0.00  0.00    -0.005 A 
ATOM      6  C5  UNL d   1      -1.613   2.877  -2.200  0.00  0.00    -0.074 A 
ATOM      7  C6  UNL d   1      -2.901   2.734  -2.955  0.00  0.00     0.077 C 
ATOM      8  C7  UNL d   1      -1.508   2.376  -0.896  0.00  0.00    -0.001 A 
ENDROOT
TORSDOF 0
ENDMDL
