MODEL 1
REMARK minimizedAffinity 9.29483318
REMARK minimizedRMSD -1
REMARK  0 active torsions:
REMARK  status: ('A' for Active; 'I' for Inactive)
ROOT
ATOM      1  C   UNL d   1      -3.341   1.703  -3.151  0.00  0.00     0.077 C 
ATOM      2  C1  UNL d   1      -2.099   2.081  -2.400  0.00  0.00    -0.074 A 
ATOM      3  C2  UNL d   1      -0.896   2.316  -3.073  0.00  0.00    -0.005 A 
ATOM      4  C3  UNL d   1       0.249   2.676  -2.361  0.00  0.00     0.006 A 
ATOM      5  C4  UNL d   1       0.201   2.805  -0.973  0.00  0.00    -0.005 A 
ATOM      6  C5  UNL d   1      -0.993   2.575  -0.283  0.00  0.00    -0.074 A 
ATOM      7  C6  UNL d   1      -1.064   2.719   1.208  0.00  0.00     0.077 C 
ATOM      8  C7  UNL d   1      -2.141   2.220  -1.006  0.00  0.00    -0.001 A 
ENDROOT
TORSDOF 0
ENDMDL
