MODEL 1
REMARK minimizedAffinity 19.2879162
REMARK minimizedRMSD -1
REMARK  0 active torsions:
REMARK  status: ('A' for Active; 'I' for Inactive)
ROOT
ATOM      1  C   UNL d   1       4.886  -6.000  -1.317  0.00  0.00     0.077 C 
ATOM      2  C1  UNL d   1       3.562  -5.327  -1.105  0.00  0.00    -0.074 A 
ATOM      3  C2  UNL d   1       2.364  -6.000  -1.368  0.00  0.00    -0.005 A 
ATOM      4  C3  UNL d   1       1.140  -5.365  -1.157  0.00  0.00     0.006 A 
ATOM      5  C4  UNL d   1       1.101  -4.053  -0.683  0.00  0.00    -0.005 A 
ATOM      6  C5  UNL d   1       2.289  -3.365  -0.415  0.00  0.00    -0.074 A 
ATOM      7  C6  UNL d   1       2.265  -1.958   0.105  0.00  0.00     0.077 C 
ATOM      8  C7  UNL d   1       3.514  -4.012  -0.622  0.00  0.00    -0.001 A 
ENDROOT
TORSDOF 0
ENDMDL
