MODEL 1
REMARK minimizedAffinity 8.3339901
REMARK minimizedRMSD -1
REMARK  0 active torsions:
REMARK  status: ('A' for Active; 'I' for Inactive)
ROOT
ATOM      1  C   UNL d   1      -0.807   1.998   2.562  0.00  0.00     0.077 C 
ATOM      2  C1  UNL d   1      -0.623   2.450   1.144  0.00  0.00    -0.074 A 
ATOM      3  C2  UNL d   1      -1.165   1.721   0.081  0.00  0.00    -0.005 A 
ATOM      4  C3  UNL d   1      -0.994   2.159  -1.232  0.00  0.00     0.006 A 
ATOM      5  C4  UNL d   1      -0.280   3.328  -1.496  0.00  0.00    -0.005 A 
ATOM      6  C5  UNL d   1       0.269   4.071  -0.446  0.00  0.00    -0.074 A 
ATOM      7  C6  UNL d   1       1.031   5.335  -0.710  0.00  0.00     0.077 C 
ATOM      8  C7  UNL d   1       0.087   3.628   0.872  0.00  0.00    -0.001 A 
ENDROOT
TORSDOF 0
ENDMDL
