MODEL 1
REMARK minimizedAffinity 4.15303659
REMARK minimizedRMSD -1
REMARK  0 active torsions:
REMARK  status: ('A' for Active; 'I' for Inactive)
ROOT
ATOM      1  C   UNL d   1       0.550   0.431  -2.163  0.00  0.00     0.077 C 
ATOM      2  C1  UNL d   1       0.464   0.962  -0.763  0.00  0.00    -0.074 A 
ATOM      3  C2  UNL d   1       1.494   0.737   0.156  0.00  0.00    -0.005 A 
ATOM      4  C3  UNL d   1       1.404   1.246   1.452  0.00  0.00     0.006 A 
ATOM      5  C4  UNL d   1       0.286   1.984   1.841  0.00  0.00    -0.005 A 
ATOM      6  C5  UNL d   1      -0.754   2.220   0.936  0.00  0.00    -0.074 A 
ATOM      7  C6  UNL d   1      -1.958   3.019   1.335  0.00  0.00     0.077 C 
ATOM      8  C7  UNL d   1      -0.653   1.711  -0.367  0.00  0.00    -0.001 A 
ENDROOT
TORSDOF 0
ENDMDL
