MODEL 1
REMARK minimizedAffinity 8.15748024
REMARK minimizedRMSD -1
REMARK  0 active torsions:
REMARK  status: ('A' for Active; 'I' for Inactive)
ROOT
ATOM      1  C   UNL d   1       1.004  -0.456  -1.322  0.00  0.00     0.077 C 
ATOM      2  C1  UNL d   1      -0.435  -0.053  -1.451  0.00  0.00    -0.074 A 
ATOM      3  C2  UNL d   1      -1.463  -0.968  -1.203  0.00  0.00    -0.005 A 
ATOM      4  C3  UNL d   1      -2.797  -0.576  -1.318  0.00  0.00     0.006 A 
ATOM      5  C4  UNL d   1      -3.115   0.733  -1.683  0.00  0.00    -0.005 A 
ATOM      6  C5  UNL d   1      -2.101   1.662  -1.935  0.00  0.00    -0.074 A 
ATOM      7  C6  UNL d   1      -2.426   3.075  -2.318  0.00  0.00     0.077 C 
ATOM      8  C7  UNL d   1      -0.763   1.262  -1.810  0.00  0.00    -0.001 A 
ENDROOT
TORSDOF 0
ENDMDL
