MODEL 1
REMARK minimizedAffinity 6.80742884
REMARK minimizedRMSD -1
REMARK  0 active torsions:
REMARK  status: ('A' for Active; 'I' for Inactive)
ROOT
ATOM      1  C   UNL d   1      -0.064   2.307   0.082  0.00  0.00     0.077 C 
ATOM      2  C1  UNL d   1      -0.219   3.587  -0.684  0.00  0.00    -0.074 A 
ATOM      3  C2  UNL d   1       0.809   4.535  -0.714  0.00  0.00    -0.005 A 
ATOM      4  C3  UNL d   1       0.655   5.717  -1.438  0.00  0.00     0.006 A 
ATOM      5  C4  UNL d   1      -0.527   5.963  -2.139  0.00  0.00    -0.005 A 
ATOM      6  C5  UNL d   1      -1.565   5.026  -2.121  0.00  0.00    -0.074 A 
ATOM      7  C6  UNL d   1      -2.838   5.270  -2.877  0.00  0.00     0.077 C 
ATOM      8  C7  UNL d   1      -1.400   3.838  -1.396  0.00  0.00    -0.001 A 
ENDROOT
TORSDOF 0
ENDMDL
