MODEL 1
REMARK minimizedAffinity 12.8655262
REMARK minimizedRMSD -1
REMARK  0 active torsions:
REMARK  status: ('A' for Active; 'I' for Inactive)
ROOT
ATOM      1  C   UNL d   1       1.127  -6.000  -1.600  0.00  0.00     0.077 C 
ATOM      2  C1  UNL d   1       2.422  -5.308  -1.293  0.00  0.00    -0.074 A 
ATOM      3  C2  UNL d   1       3.645  -5.969  -1.447  0.00  0.00    -0.005 A 
ATOM      4  C3  UNL d   1       4.841  -5.310  -1.167  0.00  0.00     0.006 A 
ATOM      5  C4  UNL d   1       4.828  -3.985  -0.729  0.00  0.00    -0.005 A 
ATOM      6  C5  UNL d   1       3.615  -3.307  -0.569  0.00  0.00    -0.074 A 
ATOM      7  C6  UNL d   1       3.583  -1.880  -0.109  0.00  0.00     0.077 C 
ATOM      8  C7  UNL d   1       2.417  -3.975  -0.860  0.00  0.00    -0.001 A 
ENDROOT
TORSDOF 0
ENDMDL
