MODEL 1
REMARK minimizedAffinity 7.39252663
REMARK minimizedRMSD -1
REMARK  0 active torsions:
REMARK  status: ('A' for Active; 'I' for Inactive)
ROOT
ATOM      1  C   UNL d   1      -2.704   1.037  -1.535  0.00  0.00     0.077 C 
ATOM      2  C1  UNL d   1      -1.589   1.863  -0.966  0.00  0.00    -0.074 A 
ATOM      3  C2  UNL d   1      -0.971   2.859  -1.730  0.00  0.00    -0.005 A 
ATOM      4  C3  UNL d   1       0.058   3.626  -1.184  0.00  0.00     0.006 A 
ATOM      5  C4  UNL d   1       0.479   3.405   0.128  0.00  0.00    -0.005 A 
ATOM      6  C5  UNL d   1      -0.128   2.415   0.907  0.00  0.00    -0.074 A 
ATOM      7  C6  UNL d   1       0.305   2.172   2.322  0.00  0.00     0.077 C 
ATOM      8  C7  UNL d   1      -1.167   1.653   0.354  0.00  0.00    -0.001 A 
ENDROOT
TORSDOF 0
ENDMDL
