MODEL 1
REMARK minimizedAffinity 8.1180954
REMARK minimizedRMSD -1
REMARK  1 active torsions:
REMARK  status: ('A' for Active; 'I' for Inactive)
REMARK    1  A    between atoms: C1_2  and  C2_3 
ROOT
ATOM      1  C2  UNL d   1       3.341   0.023  -0.615  0.00  0.00    -0.073 A 
ATOM      2  C3  UNL d   1       4.276  -0.785   0.042  0.00  0.00    -0.002 A 
ATOM      3  C4  UNL d   1       5.599  -0.364   0.178  0.00  0.00     0.004 A 
ATOM      4  C5  UNL d   1       6.000   0.869  -0.336  0.00  0.00    -0.004 A 
ATOM      5  C6  UNL d   1       5.078   1.696  -0.986  0.00  0.00    -0.075 A 
ATOM      6  C7  UNL d   1       5.493   3.024  -1.547  0.00  0.00     0.076 C 
ATOM      7  C8  UNL d   1       3.751   1.265  -1.121  0.00  0.00     0.001 A 
ENDROOT
BRANCH   1   8
ATOM      8  C1  UNL d   1       1.909  -0.425  -0.758  0.00  0.00     0.053 C 
ATOM      9  C   UNL d   1       0.928   0.682  -0.403  0.00  0.00     0.018 C 
ENDBRANCH   1   8
TORSDOF 1
ENDMDL
