MODEL 1
REMARK minimizedAffinity 2.34241891
REMARK minimizedRMSD -1
REMARK  1 active torsions:
REMARK  status: ('A' for Active; 'I' for Inactive)
REMARK    1  A    between atoms: C1_2  and  C2_3 
ROOT
ATOM      1  C2  UNL d   1       3.858  -1.403  -0.156  0.00  0.00    -0.073 A 
ATOM      2  C3  UNL d   1       4.973  -1.727   0.626  0.00  0.00    -0.002 A 
ATOM      3  C4  UNL d   1       5.993  -0.795   0.819  0.00  0.00     0.004 A 
ATOM      4  C5  UNL d   1       5.906   0.471   0.239  0.00  0.00    -0.004 A 
ATOM      5  C6  UNL d   1       4.794   0.818  -0.535  0.00  0.00    -0.075 A 
ATOM      6  C7  UNL d   1       4.687   2.174  -1.167  0.00  0.00     0.076 C 
ATOM      7  C8  UNL d   1       3.775  -0.125  -0.726  0.00  0.00     0.001 A 
ENDROOT
BRANCH   1   8
ATOM      8  C1  UNL d   1       2.750  -2.404  -0.362  0.00  0.00     0.053 C 
ATOM      9  C   UNL d   1       2.912  -3.173  -1.663  0.00  0.00     0.018 C 
ENDBRANCH   1   8
TORSDOF 1
ENDMDL
