MODEL 1
REMARK minimizedAffinity 9.96677685
REMARK minimizedRMSD -1
REMARK  1 active torsions:
REMARK  status: ('A' for Active; 'I' for Inactive)
REMARK    1  A    between atoms: C1_2  and  C2_3 
ROOT
ATOM      1  C2  UNL d   1       3.311   0.016  -0.653  0.00  0.00    -0.073 A 
ATOM      2  C3  UNL d   1       4.177  -0.773   0.112  0.00  0.00    -0.002 A 
ATOM      3  C4  UNL d   1       5.516  -0.408   0.261  0.00  0.00     0.004 A 
ATOM      4  C5  UNL d   1       6.000   0.751  -0.345  0.00  0.00    -0.004 A 
ATOM      5  C6  UNL d   1       5.146   1.559  -1.103  0.00  0.00    -0.075 A 
ATOM      6  C7  UNL d   1       5.652   2.808  -1.764  0.00  0.00     0.076 C 
ATOM      7  C8  UNL d   1       3.804   1.184  -1.251  0.00  0.00     0.001 A 
ENDROOT
BRANCH   1   8
ATOM      8  C1  UNL d   1       1.863  -0.370  -0.812  0.00  0.00     0.053 C 
ATOM      9  C   UNL d   1       0.925   0.762  -0.427  0.00  0.00     0.018 C 
ENDBRANCH   1   8
TORSDOF 1
ENDMDL
