MODEL 1
REMARK minimizedAffinity 6.90942144
REMARK minimizedRMSD -1
REMARK  1 active torsions:
REMARK  status: ('A' for Active; 'I' for Inactive)
REMARK    1  A    between atoms: C1_2  and  C2_3 
ROOT
ATOM      1  C2  UNL d   1       2.317   1.353   1.106  0.00  0.00    -0.077 A 
ATOM      2  C3  UNL d   1       2.463   2.601   0.484  0.00  0.00     0.002 A 
ATOM      3  C4  UNL d   1       1.552   3.628   0.737  0.00  0.00     0.002 A 
ATOM      4  C5  UNL d   1       0.491   3.419   1.616  0.00  0.00    -0.004 A 
ATOM      5  C6  UNL d   1       0.336   2.181   2.239  0.00  0.00     0.002 A 
ATOM      6  C7  UNL d   1       1.245   1.153   1.986  0.00  0.00     0.002 A 
ENDROOT
BRANCH   1   7
ATOM      7  C1  UNL d   1       3.327   0.260   0.872  0.00  0.00     0.055 C 
ATOM      8  C   UNL d   1       4.078  -0.082   2.150  0.00  0.00     0.019 C 
ENDBRANCH   1   7
TORSDOF 1
ENDMDL
