MODEL 1
REMARK minimizedAffinity 10.1286726
REMARK minimizedRMSD -1
REMARK  1 active torsions:
REMARK  status: ('A' for Active; 'I' for Inactive)
REMARK    1  A    between atoms: C1_2  and  C2_3 
ROOT
ATOM      1  C2  UNL d   1       2.999   1.550  -1.240  0.00  0.00    -0.077 A 
ATOM      2  C3  UNL d   1       3.300   0.286  -0.712  0.00  0.00     0.002 A 
ATOM      3  C4  UNL d   1       2.730  -0.129   0.493  0.00  0.00     0.002 A 
ATOM      4  C5  UNL d   1       1.853   0.711   1.177  0.00  0.00    -0.004 A 
ATOM      5  C6  UNL d   1       1.550   1.970   0.661  0.00  0.00     0.002 A 
ATOM      6  C7  UNL d   1       2.119   2.387  -0.543  0.00  0.00     0.002 A 
ENDROOT
BRANCH   1   7
ATOM      7  C1  UNL d   1       3.575   1.980  -2.564  0.00  0.00     0.055 C 
ATOM      8  C   UNL d   1       3.951   0.780  -3.420  0.00  0.00     0.019 C 
ENDBRANCH   1   7
TORSDOF 1
ENDMDL
