MODEL 1
REMARK minimizedAffinity 5.3747468
REMARK minimizedRMSD -1
REMARK  1 active torsions:
REMARK  status: ('A' for Active; 'I' for Inactive)
REMARK    1  A    between atoms: C1_2  and  C2_3 
ROOT
ATOM      1  C2  UNL d   1      -3.848  -3.659  -1.844  0.00  0.00    -0.077 A 
ATOM      2  C3  UNL d   1      -5.032  -3.363  -2.535  0.00  0.00     0.002 A 
ATOM      3  C4  UNL d   1      -5.937  -4.378  -2.853  0.00  0.00     0.002 A 
ATOM      4  C5  UNL d   1      -5.670  -5.694  -2.480  0.00  0.00    -0.004 A 
ATOM      5  C6  UNL d   1      -4.495  -5.999  -1.794  0.00  0.00     0.002 A 
ATOM      6  C7  UNL d   1      -3.589  -4.986  -1.477  0.00  0.00     0.002 A 
ENDROOT
BRANCH   1   7
ATOM      7  C1  UNL d   1      -2.895  -2.560  -1.458  0.00  0.00     0.055 C 
ATOM      8  C   UNL d   1      -2.027  -2.140  -2.635  0.00  0.00     0.019 C 
ENDBRANCH   1   7
TORSDOF 1
ENDMDL
