MODEL 1
REMARK minimizedAffinity -0.811633468
REMARK minimizedRMSD -1
REMARK  1 active torsions:
REMARK  status: ('A' for Active; 'I' for Inactive)
REMARK    1  A    between atoms: C1_2  and  C2_3 
ROOT
ATOM      1  C2  UNL d   1       4.412   1.684   0.529  0.00  0.00    -0.077 A 
ATOM      2  C3  UNL d   1       4.417   0.365   1.005  0.00  0.00     0.002 A 
ATOM      3  C4  UNL d   1       3.242  -0.217   1.484  0.00  0.00     0.002 A 
ATOM      4  C5  UNL d   1       2.053   0.509   1.486  0.00  0.00    -0.004 A 
ATOM      5  C6  UNL d   1       2.038   1.822   1.016  0.00  0.00     0.002 A 
ATOM      6  C7  UNL d   1       3.211   2.406   0.539  0.00  0.00     0.002 A 
ENDROOT
BRANCH   1   7
ATOM      7  C1  UNL d   1       5.667   2.298  -0.034  0.00  0.00     0.055 C 
ATOM      8  C   UNL d   1       5.357   3.216  -1.206  0.00  0.00     0.019 C 
ENDBRANCH   1   7
TORSDOF 1
ENDMDL
