MODEL 1
REMARK minimizedAffinity 2.17398453
REMARK minimizedRMSD -1
REMARK  1 active torsions:
REMARK  status: ('A' for Active; 'I' for Inactive)
REMARK    1  A    between atoms: C1_2  and  C2_3 
ROOT
ATOM      1  C2  UNL d   1       4.864   5.298   3.448  0.00  0.00    -0.077 A 
ATOM      2  C3  UNL d   1       5.480   4.038   3.433  0.00  0.00     0.002 A 
ATOM      3  C4  UNL d   1       6.000   3.492   4.607  0.00  0.00     0.002 A 
ATOM      4  C5  UNL d   1       5.905   4.195   5.806  0.00  0.00    -0.004 A 
ATOM      5  C6  UNL d   1       5.296   5.449   5.832  0.00  0.00     0.002 A 
ATOM      6  C7  UNL d   1       4.777   5.997   4.659  0.00  0.00     0.002 A 
ENDROOT
BRANCH   1   7
ATOM      7  C1  UNL d   1       4.259   5.867   2.192  0.00  0.00     0.055 C 
ATOM      8  C   UNL d   1       2.741   5.754   2.208  0.00  0.00     0.019 C 
ENDBRANCH   1   7
TORSDOF 1
ENDMDL
