MODEL 1
REMARK minimizedAffinity 1.74821448
REMARK minimizedRMSD -1
REMARK  1 active torsions:
REMARK  status: ('A' for Active; 'I' for Inactive)
REMARK    1  A    between atoms: C1_2  and  C2_3 
ROOT
ATOM      1  C2  UNL d   1       3.065   3.827  -3.991  0.00  0.00    -0.077 A 
ATOM      2  C3  UNL d   1       1.754   3.955  -4.471  0.00  0.00     0.002 A 
ATOM      3  C4  UNL d   1       1.400   5.038  -5.278  0.00  0.00     0.002 A 
ATOM      4  C5  UNL d   1       2.352   5.998  -5.615  0.00  0.00    -0.004 A 
ATOM      5  C6  UNL d   1       3.658   5.880  -5.141  0.00  0.00     0.002 A 
ATOM      6  C7  UNL d   1       4.013   4.799  -4.334  0.00  0.00     0.002 A 
ENDROOT
BRANCH   1   7
ATOM      7  C1  UNL d   1       3.461   2.633  -3.161  0.00  0.00     0.055 C 
ATOM      8  C   UNL d   1       4.634   1.890  -3.785  0.00  0.00     0.019 C 
ENDBRANCH   1   7
TORSDOF 1
ENDMDL
