MODEL 1
REMARK minimizedAffinity 12.051527
REMARK minimizedRMSD -1
REMARK  1 active torsions:
REMARK  status: ('A' for Active; 'I' for Inactive)
REMARK    1  A    between atoms: C1_2  and  C2_3 
ROOT
ATOM      1  C2  UNL d   1       3.300   0.091   0.894  0.00  0.00    -0.077 A 
ATOM      2  C3  UNL d   1       3.378   1.387   0.367  0.00  0.00     0.002 A 
ATOM      3  C4  UNL d   1       2.287   2.253   0.457  0.00  0.00     0.002 A 
ATOM      4  C5  UNL d   1       1.112   1.834   1.077  0.00  0.00    -0.004 A 
ATOM      5  C6  UNL d   1       1.024   0.545   1.603  0.00  0.00     0.002 A 
ATOM      6  C7  UNL d   1       2.113  -0.322   1.513  0.00  0.00     0.002 A 
ENDROOT
BRANCH   1   7
ATOM      7  C1  UNL d   1       4.493  -0.828   0.842  0.00  0.00     0.055 C 
ATOM      8  C   UNL d   1       5.160  -0.948   2.204  0.00  0.00     0.019 C 
ENDBRANCH   1   7
TORSDOF 1
ENDMDL
