MODEL 1
REMARK minimizedAffinity 9.90888786
REMARK minimizedRMSD -1
REMARK  1 active torsions:
REMARK  status: ('A' for Active; 'I' for Inactive)
REMARK    1  A    between atoms: C1_2  and  C2_3 
ROOT
ATOM      1  C2  UNL d   1      -3.760  -3.722  -2.625  0.00  0.00    -0.077 A 
ATOM      2  C3  UNL d   1      -5.085  -3.558  -3.054  0.00  0.00     0.002 A 
ATOM      3  C4  UNL d   1      -5.999  -4.608  -2.938  0.00  0.00     0.002 A 
ATOM      4  C5  UNL d   1      -5.599  -5.825  -2.391  0.00  0.00    -0.004 A 
ATOM      5  C6  UNL d   1      -4.283  -5.998  -1.964  0.00  0.00     0.002 A 
ATOM      6  C7  UNL d   1      -3.368  -4.951  -2.080  0.00  0.00     0.002 A 
ENDROOT
BRANCH   1   7
ATOM      7  C1  UNL d   1      -2.785  -2.576  -2.704  0.00  0.00     0.055 C 
ATOM      8  C   UNL d   1      -2.422  -2.063  -1.318  0.00  0.00     0.019 C 
ENDBRANCH   1   7
TORSDOF 1
ENDMDL
