MODEL 1
REMARK minimizedAffinity 10.3636179
REMARK minimizedRMSD -1
REMARK  1 active torsions:
REMARK  status: ('A' for Active; 'I' for Inactive)
REMARK    1  A    between atoms: C1_2  and  C2_3 
ROOT
ATOM      1  C2  UNL d   1      -2.578   3.018   0.432  0.00  0.00    -0.077 A 
ATOM      2  C3  UNL d   1      -2.590   2.142  -0.663  0.00  0.00     0.002 A 
ATOM      3  C4  UNL d   1      -2.657   2.641  -1.965  0.00  0.00     0.002 A 
ATOM      4  C5  UNL d   1      -2.709   4.016  -2.185  0.00  0.00    -0.004 A 
ATOM      5  C6  UNL d   1      -2.700   4.895  -1.102  0.00  0.00     0.002 A 
ATOM      6  C7  UNL d   1      -2.634   4.398   0.200  0.00  0.00     0.002 A 
ENDROOT
BRANCH   1   7
ATOM      7  C1  UNL d   1      -2.456   2.483   1.835  0.00  0.00     0.055 C 
ATOM      8  C   UNL d   1      -1.027   2.065   2.146  0.00  0.00     0.019 C 
ENDBRANCH   1   7
TORSDOF 1
ENDMDL
