MODEL 1
REMARK minimizedAffinity 6.367064
REMARK minimizedRMSD -1
REMARK  1 active torsions:
REMARK  status: ('A' for Active; 'I' for Inactive)
REMARK    1  A    between atoms: C1_2  and  C2_3 
ROOT
ATOM      1  C2  UNL d   1      -5.210   3.301   5.382  0.00  0.00    -0.077 A 
ATOM      2  C3  UNL d   1      -4.542   3.439   4.158  0.00  0.00     0.002 A 
ATOM      3  C4  UNL d   1      -3.922   2.337   3.564  0.00  0.00     0.002 A 
ATOM      4  C5  UNL d   1      -3.969   1.091   4.185  0.00  0.00    -0.004 A 
ATOM      5  C6  UNL d   1      -4.630   0.945   5.404  0.00  0.00     0.002 A 
ATOM      6  C7  UNL d   1      -5.248   2.045   6.000  0.00  0.00     0.002 A 
ENDROOT
BRANCH   1   7
ATOM      7  C1  UNL d   1      -5.921   4.477   6.000  0.00  0.00     0.055 C 
ATOM      8  C   UNL d   1      -5.987   5.653   5.036  0.00  0.00     0.019 C 
ENDBRANCH   1   7
TORSDOF 1
ENDMDL
