MODEL 1
REMARK minimizedAffinity 7.39480305
REMARK minimizedRMSD -1
REMARK  1 active torsions:
REMARK  status: ('A' for Active; 'I' for Inactive)
REMARK    1  A    between atoms: C1_2  and  C2_3 
ROOT
ATOM      1  C2  UNL d   1      -3.059  -4.042  -0.348  0.00  0.00    -0.077 A 
ATOM      2  C3  UNL d   1      -2.698  -3.555  -1.612  0.00  0.00     0.002 A 
ATOM      3  C4  UNL d   1      -3.395  -2.489  -2.184  0.00  0.00     0.002 A 
ATOM      4  C5  UNL d   1      -4.454  -1.898  -1.497  0.00  0.00    -0.004 A 
ATOM      5  C6  UNL d   1      -4.822  -2.377  -0.240  0.00  0.00     0.002 A 
ATOM      6  C7  UNL d   1      -4.127  -3.443   0.332  0.00  0.00     0.002 A 
ENDROOT
BRANCH   1   7
ATOM      7  C1  UNL d   1      -2.277  -5.159   0.292  0.00  0.00     0.055 C 
ATOM      8  C   UNL d   1      -0.923  -4.673   0.789  0.00  0.00     0.019 C 
ENDBRANCH   1   7
TORSDOF 1
ENDMDL
