MODEL 1
REMARK minimizedAffinity -1.32882941
REMARK minimizedRMSD -1
REMARK  1 active torsions:
REMARK  status: ('A' for Active; 'I' for Inactive)
REMARK    1  A    between atoms: C1_2  and  C2_3 
ROOT
ATOM      1  C2  UNL d   1      -0.390   0.966   2.152  0.00  0.00    -0.077 A 
ATOM      2  C3  UNL d   1      -1.149   2.010   2.698  0.00  0.00     0.002 A 
ATOM      3  C4  UNL d   1      -2.500   1.821   2.995  0.00  0.00     0.002 A 
ATOM      4  C5  UNL d   1      -3.102   0.588   2.753  0.00  0.00    -0.004 A 
ATOM      5  C6  UNL d   1      -2.357  -0.456   2.208  0.00  0.00     0.002 A 
ATOM      6  C7  UNL d   1      -1.006  -0.268   1.909  0.00  0.00     0.002 A 
ENDROOT
BRANCH   1   7
ATOM      7  C1  UNL d   1       1.079   1.153   1.876  0.00  0.00     0.055 C 
ATOM      8  C   UNL d   1       1.932   0.448   2.921  0.00  0.00     0.019 C 
ENDBRANCH   1   7
TORSDOF 1
ENDMDL
