MODEL 1
REMARK minimizedAffinity -0.371975452
REMARK minimizedRMSD -1
REMARK  1 active torsions:
REMARK  status: ('A' for Active; 'I' for Inactive)
REMARK    1  A    between atoms: C1_2  and  C2_3 
ROOT
ATOM      1  C2  UNL d   1      -4.159  -2.909  -3.380  0.00  0.00    -0.077 A 
ATOM      2  C3  UNL d   1      -3.097  -2.904  -4.295  0.00  0.00     0.002 A 
ATOM      3  C4  UNL d   1      -3.286  -3.368  -5.598  0.00  0.00     0.002 A 
ATOM      4  C5  UNL d   1      -4.536  -3.836  -5.999  0.00  0.00    -0.004 A 
ATOM      5  C6  UNL d   1      -5.598  -3.846  -5.095  0.00  0.00     0.002 A 
ATOM      6  C7  UNL d   1      -5.411  -3.384  -3.792  0.00  0.00     0.002 A 
ENDROOT
BRANCH   1   7
ATOM      7  C1  UNL d   1      -3.970  -2.363  -1.988  0.00  0.00     0.055 C 
ATOM      8  C   UNL d   1      -3.659  -3.473  -0.996  0.00  0.00     0.019 C 
ENDBRANCH   1   7
TORSDOF 1
ENDMDL
