MODEL 1
REMARK minimizedAffinity 0.505145192
REMARK minimizedRMSD -1
REMARK  1 active torsions:
REMARK  status: ('A' for Active; 'I' for Inactive)
REMARK    1  A    between atoms: C1_2  and  C2_3 
ROOT
ATOM      1  C2  UNL d   1      -1.155   0.606   2.364  0.00  0.00    -0.077 A 
ATOM      2  C3  UNL d   1      -0.967   1.983   2.178  0.00  0.00     0.002 A 
ATOM      3  C4  UNL d   1       0.320   2.515   2.088  0.00  0.00     0.002 A 
ATOM      4  C5  UNL d   1       1.430   1.677   2.179  0.00  0.00    -0.004 A 
ATOM      5  C6  UNL d   1       1.254   0.306   2.366  0.00  0.00     0.002 A 
ATOM      6  C7  UNL d   1      -0.032  -0.227   2.457  0.00  0.00     0.002 A 
ENDROOT
BRANCH   1   7
ATOM      7  C1  UNL d   1      -2.543   0.024   2.411  0.00  0.00     0.055 C 
ATOM      8  C   UNL d   1      -3.504   0.943   3.151  0.00  0.00     0.019 C 
ENDBRANCH   1   7
TORSDOF 1
ENDMDL
