MODEL 1
REMARK minimizedAffinity -4.48807335
REMARK minimizedRMSD -1
REMARK  1 active torsions:
REMARK  status: ('A' for Active; 'I' for Inactive)
REMARK    1  A    between atoms: C1_2  and  C2_3 
ROOT
ATOM      1  C2  UNL d   1      -0.683   0.216  -0.295  0.00  0.00    -0.081 A 
ATOM      2  C3  UNL d   1      -0.315  -1.122  -0.487  0.00  0.00     0.006 A 
ATOM      3  C4  UNL d   1       0.984  -1.547  -0.199  0.00  0.00     0.002 A 
ATOM      4  C5  UNL d   1       1.933  -0.645   0.294  0.00  0.00    -0.080 A 
ATOM      5  C6  UNL d   1       3.322  -1.096   0.636  0.00  0.00     0.076 C 
ATOM      6  C7  UNL d   1       1.571   0.695   0.469  0.00  0.00     0.002 A 
ATOM      7  C8  UNL d   1       0.272   1.121   0.180  0.00  0.00     0.006 A 
ENDROOT
BRANCH   1   8
ATOM      8  C1  UNL d   1      -2.101   0.664  -0.544  0.00  0.00     0.054 C 
ATOM      9  C   UNL d   1      -2.848   0.886   0.763  0.00  0.00     0.018 C 
ENDBRANCH   1   8
TORSDOF 1
ENDMDL
