MODEL 1
REMARK minimizedAffinity -0.854963005
REMARK minimizedRMSD -1
REMARK  1 active torsions:
REMARK  status: ('A' for Active; 'I' for Inactive)
REMARK    1  A    between atoms: C1_2  and  C2_3 
ROOT
ATOM      1  C2  UNL d   1      -0.905   0.510   0.078  0.00  0.00    -0.081 A 
ATOM      2  C3  UNL d   1      -0.880  -0.567  -0.817  0.00  0.00     0.006 A 
ATOM      3  C4  UNL d   1       0.320  -1.220  -1.106  0.00  0.00     0.002 A 
ATOM      4  C5  UNL d   1       1.513  -0.813  -0.499  0.00  0.00    -0.080 A 
ATOM      5  C6  UNL d   1       2.804  -1.526  -0.778  0.00  0.00     0.076 C 
ATOM      6  C7  UNL d   1       1.492   0.273   0.381  0.00  0.00     0.002 A 
ATOM      7  C8  UNL d   1       0.292   0.927   0.670  0.00  0.00     0.006 A 
ENDROOT
BRANCH   1   8
ATOM      8  C1  UNL d   1      -2.208   1.175   0.441  0.00  0.00     0.054 C 
ATOM      9  C   UNL d   1      -3.393   0.442  -0.170  0.00  0.00     0.018 C 
ENDBRANCH   1   8
TORSDOF 1
ENDMDL
