MODEL 1
REMARK minimizedAffinity -0.970554411
REMARK minimizedRMSD -1
REMARK  1 active torsions:
REMARK  status: ('A' for Active; 'I' for Inactive)
REMARK    1  A    between atoms: C1_2  and  C2_3 
ROOT
ATOM      1  C2  UNL d   1       1.493   0.556  -0.126  0.00  0.00    -0.081 A 
ATOM      2  C3  UNL d   1       0.884   1.810  -0.254  0.00  0.00     0.006 A 
ATOM      3  C4  UNL d   1      -0.502   1.941  -0.128  0.00  0.00     0.002 A 
ATOM      4  C5  UNL d   1      -1.299   0.822   0.135  0.00  0.00    -0.080 A 
ATOM      5  C6  UNL d   1      -2.784   0.953   0.302  0.00  0.00     0.076 C 
ATOM      6  C7  UNL d   1      -0.692  -0.434   0.245  0.00  0.00     0.002 A 
ATOM      7  C8  UNL d   1       0.692  -0.565   0.119  0.00  0.00     0.006 A 
ENDROOT
BRANCH   1   8
ATOM      8  C1  UNL d   1       2.993   0.422  -0.196  0.00  0.00     0.054 C 
ATOM      9  C   UNL d   1       3.418  -1.040  -0.203  0.00  0.00     0.018 C 
ENDBRANCH   1   8
TORSDOF 1
ENDMDL
