MODEL 1
REMARK minimizedAffinity 0.274617374
REMARK minimizedRMSD -1
REMARK  1 active torsions:
REMARK  status: ('A' for Active; 'I' for Inactive)
REMARK    1  A    between atoms: C1_2  and  C2_3 
ROOT
ATOM      1  C2  UNL d   1       1.606   0.239   0.894  0.00  0.00    -0.081 A 
ATOM      2  C3  UNL d   1       2.174  -0.994   0.551  0.00  0.00     0.006 A 
ATOM      3  C4  UNL d   1       1.485  -1.886  -0.273  0.00  0.00     0.002 A 
ATOM      4  C5  UNL d   1       0.221  -1.558  -0.774  0.00  0.00    -0.080 A 
ATOM      5  C6  UNL d   1      -0.517  -2.494  -1.685  0.00  0.00     0.076 C 
ATOM      6  C7  UNL d   1      -0.355  -0.333  -0.417  0.00  0.00     0.002 A 
ATOM      7  C8  UNL d   1       0.334   0.559   0.408  0.00  0.00     0.006 A 
ENDROOT
BRANCH   1   8
ATOM      8  C1  UNL d   1       2.374   1.231   1.730  0.00  0.00     0.054 C 
ATOM      9  C   UNL d   1       2.370   2.613   1.092  0.00  0.00     0.018 C 
ENDBRANCH   1   8
TORSDOF 1
ENDMDL
