MODEL 1
REMARK minimizedAffinity -3.88282442
REMARK minimizedRMSD -1
REMARK  0 active torsions:
REMARK  status: ('A' for Active; 'I' for Inactive)
ROOT
ATOM      1  C   UNL d   1      -0.080   0.662  -0.459  0.00  0.00     0.172 C 
ATOM      2  N   UNL d   1       0.345   0.141   0.820  0.00  0.00    -0.070 N 
ATOM      3  C1  UNL d   1       1.625   0.167   1.307  0.00  0.00    -0.004 A 
ATOM      4  C2  UNL d   1       1.614  -0.425   2.551  0.00  0.00    -0.047 A 
ATOM      5  C3  UNL d   1       0.282  -0.820   2.821  0.00  0.00    -0.047 A 
ATOM      6  C4  UNL d   1      -0.482  -0.458   1.733  0.00  0.00    -0.004 A 
ENDROOT
TORSDOF 0
ENDMDL
