MODEL 1
REMARK minimizedAffinity -3.0261023
REMARK minimizedRMSD -1
REMARK  0 active torsions:
REMARK  status: ('A' for Active; 'I' for Inactive)
ROOT
ATOM      1  C   UNL d   1       0.720   0.379  -0.516  0.00  0.00     0.172 C 
ATOM      2  N   UNL d   1       0.643  -0.125   0.835  0.00  0.00    -0.070 N 
ATOM      3  C1  UNL d   1       1.678  -0.678   1.541  0.00  0.00    -0.004 A 
ATOM      4  C2  UNL d   1       1.200  -1.031   2.784  0.00  0.00    -0.047 A 
ATOM      5  C3  UNL d   1      -0.170  -0.679   2.827  0.00  0.00    -0.047 A 
ATOM      6  C4  UNL d   1      -0.489  -0.120   1.607  0.00  0.00    -0.004 A 
ENDROOT
TORSDOF 0
ENDMDL
