MODEL 1
REMARK minimizedAffinity -2.24429488
REMARK minimizedRMSD -1
REMARK  0 active torsions:
REMARK  status: ('A' for Active; 'I' for Inactive)
ROOT
ATOM      1  C   UNL d   1       1.138  -0.372   2.272  0.00  0.00     0.172 C 
ATOM      2  N   UNL d   1       0.628  -0.154   0.939  0.00  0.00    -0.070 N 
ATOM      3  C1  UNL d   1      -0.653   0.215   0.625  0.00  0.00    -0.004 A 
ATOM      4  C2  UNL d   1      -0.738   0.320  -0.746  0.00  0.00    -0.047 A 
ATOM      5  C3  UNL d   1       0.535   0.002  -1.275  0.00  0.00    -0.047 A 
ATOM      6  C4  UNL d   1       1.362  -0.288  -0.210  0.00  0.00    -0.004 A 
ENDROOT
TORSDOF 0
ENDMDL
