MODEL 1
REMARK minimizedAffinity -2.94705534
REMARK minimizedRMSD -1
REMARK  0 active torsions:
REMARK  status: ('A' for Active; 'I' for Inactive)
ROOT
ATOM      1  C   UNL d   1       1.186  -1.190   2.715  0.00  0.00     0.172 C 
ATOM      2  N   UNL d   1       0.871  -0.769   1.371  0.00  0.00    -0.070 N 
ATOM      3  C1  UNL d   1       1.653  -0.976   0.266  0.00  0.00    -0.004 A 
ATOM      4  C2  UNL d   1       1.005  -0.427  -0.819  0.00  0.00    -0.047 A 
ATOM      5  C3  UNL d   1      -0.208   0.130  -0.350  0.00  0.00    -0.047 A 
ATOM      6  C4  UNL d   1      -0.266  -0.096   1.009  0.00  0.00    -0.004 A 
ENDROOT
TORSDOF 0
ENDMDL
