MODEL 1
REMARK minimizedAffinity -2.96660018
REMARK minimizedRMSD -1
REMARK  0 active torsions:
REMARK  status: ('A' for Active; 'I' for Inactive)
ROOT
ATOM      1  C   UNL d   1       0.798  -1.523   3.100  0.00  0.00     0.172 C 
ATOM      2  N   UNL d   1       0.451  -0.948   1.821  0.00  0.00    -0.070 N 
ATOM      3  C1  UNL d   1       1.237  -0.962   0.700  0.00  0.00    -0.004 A 
ATOM      4  C2  UNL d   1       0.551  -0.314  -0.304  0.00  0.00    -0.047 A 
ATOM      5  C3  UNL d   1      -0.689   0.106   0.233  0.00  0.00    -0.047 A 
ATOM      6  C4  UNL d   1      -0.725  -0.299   1.550  0.00  0.00    -0.004 A 
ENDROOT
TORSDOF 0
ENDMDL
