MODEL 1
REMARK minimizedAffinity 0.728380382
REMARK minimizedRMSD -1
REMARK  0 active torsions:
REMARK  status: ('A' for Active; 'I' for Inactive)
ROOT
ATOM      1  C   UNL d   1      -1.732  -1.566   0.807  0.00  0.00     0.077 C 
ATOM      2  C1  UNL d   1      -0.914  -0.505   0.133  0.00  0.00    -0.074 A 
ATOM      3  C2  UNL d   1       0.481  -0.495   0.242  0.00  0.00    -0.005 A 
ATOM      4  C3  UNL d   1       1.229   0.492  -0.398  0.00  0.00     0.006 A 
ATOM      5  C4  UNL d   1       0.593   1.478  -1.152  0.00  0.00    -0.005 A 
ATOM      6  C5  UNL d   1      -0.800   1.484  -1.273  0.00  0.00    -0.074 A 
ATOM      7  C6  UNL d   1      -1.500   2.531  -2.089  0.00  0.00     0.077 C 
ATOM      8  C7  UNL d   1      -1.545   0.485  -0.633  0.00  0.00    -0.001 A 
ENDROOT
TORSDOF 0
ENDMDL
