MODEL 1
REMARK minimizedAffinity -6.26093054
REMARK minimizedRMSD -1
REMARK  0 active torsions:
REMARK  status: ('A' for Active; 'I' for Inactive)
ROOT
ATOM      1  C   UNL d   1      -0.454   0.827  -0.972  0.00  0.00     0.077 C 
ATOM      2  C1  UNL d   1       0.175   0.013   0.120  0.00  0.00    -0.074 A 
ATOM      3  C2  UNL d   1      -0.423  -0.082   1.381  0.00  0.00    -0.005 A 
ATOM      4  C3  UNL d   1       0.168  -0.851   2.383  0.00  0.00     0.006 A 
ATOM      5  C4  UNL d   1       1.360  -1.531   2.136  0.00  0.00    -0.005 A 
ATOM      6  C5  UNL d   1       1.972  -1.449   0.881  0.00  0.00    -0.074 A 
ATOM      7  C6  UNL d   1       3.249  -2.183   0.595  0.00  0.00     0.077 C 
ATOM      8  C7  UNL d   1       1.369  -0.680  -0.123  0.00  0.00    -0.001 A 
ENDROOT
TORSDOF 0
ENDMDL
