MODEL 1
REMARK minimizedAffinity -4.98578691
REMARK minimizedRMSD -1
REMARK  0 active torsions:
REMARK  status: ('A' for Active; 'I' for Inactive)
ROOT
ATOM      1  C   UNL d   1      -1.069   0.360   0.987  0.00  0.00     0.077 C 
ATOM      2  C1  UNL d   1       0.151  -0.384   1.442  0.00  0.00    -0.074 A 
ATOM      3  C2  UNL d   1       0.329  -0.718   2.789  0.00  0.00    -0.005 A 
ATOM      4  C3  UNL d   1       1.464  -1.418   3.196  0.00  0.00     0.006 A 
ATOM      5  C4  UNL d   1       2.432  -1.790   2.262  0.00  0.00    -0.005 A 
ATOM      6  C5  UNL d   1       2.272  -1.466   0.911  0.00  0.00    -0.074 A 
ATOM      7  C6  UNL d   1       3.298  -1.867  -0.106  0.00  0.00     0.077 C 
ATOM      8  C7  UNL d   1       1.124  -0.768   0.509  0.00  0.00    -0.001 A 
ENDROOT
TORSDOF 0
ENDMDL
