MODEL 1
REMARK minimizedAffinity -3.94297218
REMARK minimizedRMSD -1
REMARK  0 active torsions:
REMARK  status: ('A' for Active; 'I' for Inactive)
ROOT
ATOM      1  C   UNL d   1      -1.721   1.335  -2.209  0.00  0.00     0.077 C 
ATOM      2  C1  UNL d   1      -1.093   0.698  -1.005  0.00  0.00    -0.074 A 
ATOM      3  C2  UNL d   1      -1.655   0.855   0.266  0.00  0.00    -0.005 A 
ATOM      4  C3  UNL d   1      -1.065   0.248   1.375  0.00  0.00     0.006 A 
ATOM      5  C4  UNL d   1       0.089  -0.521   1.224  0.00  0.00    -0.005 A 
ATOM      6  C5  UNL d   1       0.665  -0.690  -0.040  0.00  0.00    -0.074 A 
ATOM      7  C6  UNL d   1       1.900  -1.521  -0.221  0.00  0.00     0.077 C 
ATOM      8  C7  UNL d   1       0.062  -0.083  -1.150  0.00  0.00    -0.001 A 
ENDROOT
TORSDOF 0
ENDMDL
