MODEL 1
REMARK minimizedAffinity -3.08063173
REMARK minimizedRMSD -1
REMARK  0 active torsions:
REMARK  status: ('A' for Active; 'I' for Inactive)
ROOT
ATOM      1  C   UNL d   1      -0.564   0.777  -1.339  0.00  0.00     0.077 C 
ATOM      2  C1  UNL d   1      -0.250   0.003  -0.093  0.00  0.00    -0.074 A 
ATOM      3  C2  UNL d   1      -1.035   0.141   1.056  0.00  0.00    -0.005 A 
ATOM      4  C3  UNL d   1      -0.737  -0.593   2.204  0.00  0.00     0.006 A 
ATOM      5  C4  UNL d   1       0.348  -1.471   2.215  0.00  0.00    -0.005 A 
ATOM      6  C5  UNL d   1       1.144  -1.622   1.075  0.00  0.00    -0.074 A 
ATOM      7  C6  UNL d   1       2.308  -2.568   1.067  0.00  0.00     0.077 C 
ATOM      8  C7  UNL d   1       0.834  -0.886  -0.077  0.00  0.00    -0.001 A 
ENDROOT
TORSDOF 0
ENDMDL
