MODEL 1
REMARK minimizedAffinity -4.9399786
REMARK minimizedRMSD -1
REMARK  0 active torsions:
REMARK  status: ('A' for Active; 'I' for Inactive)
ROOT
ATOM      1  O1  BZF d   1       0.355  -0.863   0.474  0.00  0.00    -0.204 OA
ATOM      2  C2  BZF d   1       1.208  -0.080  -0.279  0.00  0.00     0.174 A 
ATOM      3  C3  BZF d   1       0.519   0.647  -1.182  0.00  0.00    -0.012 A 
ATOM      4  C3A BZF d   1      -0.859   0.365  -0.920  0.00  0.00    -0.107 A 
ATOM      5  C4  BZF d   1      -2.028   0.798  -1.476  0.00  0.00     0.055 A 
ATOM      6  C5  BZF d   1      -3.203   0.273  -1.038  0.00  0.00    -0.016 A 
ATOM      7  C6  BZF d   1      -3.244  -0.689  -0.050  0.00  0.00     0.022 A 
ATOM      8  C7  BZF d   1      -2.111  -1.146   0.536  0.00  0.00     0.029 A 
ATOM      9  C7A BZF d   1      -0.924  -0.594   0.118  0.00  0.00     0.058 A 
ENDROOT
TORSDOF 0
ENDMDL
