MODEL 1
REMARK minimizedAffinity -2.59441328
REMARK minimizedRMSD -1
REMARK  0 active torsions:
REMARK  status: ('A' for Active; 'I' for Inactive)
ROOT
ATOM      1  O1  BZF d   1       0.350  -0.169   1.473  0.00  0.00    -0.204 OA
ATOM      2  C2  BZF d   1       0.043  -0.501   0.168  0.00  0.00     0.174 A 
ATOM      3  C3  BZF d   1       0.681   0.315  -0.696  0.00  0.00    -0.012 A 
ATOM      4  C3A BZF d   1       1.504   1.155   0.118  0.00  0.00    -0.107 A 
ATOM      5  C4  BZF d   1       2.386   2.160  -0.160  0.00  0.00     0.055 A 
ATOM      6  C5  BZF d   1       2.972   2.829   0.867  0.00  0.00    -0.016 A 
ATOM      7  C6  BZF d   1       2.696   2.522   2.184  0.00  0.00     0.022 A 
ATOM      8  C7  BZF d   1       1.833   1.530   2.510  0.00  0.00     0.029 A 
ATOM      9  C7A BZF d   1       1.264   0.831   1.474  0.00  0.00     0.058 A 
ENDROOT
TORSDOF 0
ENDMDL
