MODEL 1
REMARK minimizedAffinity -3.73662877
REMARK minimizedRMSD -1
REMARK  0 active torsions:
REMARK  status: ('A' for Active; 'I' for Inactive)
ROOT
ATOM      1  O1  BZF d   1       0.705  -0.415   0.910  0.00  0.00    -0.204 OA
ATOM      2  C2  BZF d   1       1.528   0.357   0.113  0.00  0.00     0.174 A 
ATOM      3  C3  BZF d   1       0.886   0.738  -1.010  0.00  0.00    -0.012 A 
ATOM      4  C3A BZF d   1      -0.450   0.245  -0.866  0.00  0.00    -0.107 A 
ATOM      5  C4  BZF d   1      -1.567   0.318  -1.648  0.00  0.00     0.055 A 
ATOM      6  C5  BZF d   1      -2.693  -0.332  -1.253  0.00  0.00    -0.016 A 
ATOM      7  C6  BZF d   1      -2.736  -1.067  -0.086  0.00  0.00     0.022 A 
ATOM      8  C7  BZF d   1      -1.654  -1.165   0.725  0.00  0.00     0.029 A 
ATOM      9  C7A BZF d   1      -0.525  -0.482   0.345  0.00  0.00     0.058 A 
ENDROOT
TORSDOF 0
ENDMDL
