MODEL 1
REMARK minimizedAffinity -2.27596474
REMARK minimizedRMSD -1
REMARK  0 active torsions:
REMARK  status: ('A' for Active; 'I' for Inactive)
ROOT
ATOM      1  O1  BZF d   1      -2.628  -0.786  -1.605  0.00  0.00    -0.204 OA
ATOM      2  C2  BZF d   1      -3.293  -1.455  -0.595  0.00  0.00     0.174 A 
ATOM      3  C3  BZF d   1      -2.531  -1.522   0.516  0.00  0.00    -0.012 A 
ATOM      4  C3A BZF d   1      -1.351  -0.774   0.209  0.00  0.00    -0.107 A 
ATOM      5  C4  BZF d   1      -0.226  -0.463   0.918  0.00  0.00     0.055 A 
ATOM      6  C5  BZF d   1       0.773   0.224   0.303  0.00  0.00    -0.016 A 
ATOM      7  C6  BZF d   1       0.682   0.611  -1.018  0.00  0.00     0.022 A 
ATOM      8  C7  BZF d   1      -0.417   0.330  -1.760  0.00  0.00     0.029 A 
ATOM      9  C7A BZF d   1      -1.441  -0.335  -1.132  0.00  0.00     0.058 A 
ENDROOT
TORSDOF 0
ENDMDL
