MODEL 1
REMARK minimizedAffinity -4.7480216
REMARK minimizedRMSD -1
REMARK  0 active torsions:
REMARK  status: ('A' for Active; 'I' for Inactive)
ROOT
ATOM      1  O1  BZF d   1       1.514   0.261   0.573  0.00  0.00    -0.204 OA
ATOM      2  C2  BZF d   1       1.347   1.319  -0.300  0.00  0.00     0.174 A 
ATOM      3  C3  BZF d   1       0.072   1.382  -0.736  0.00  0.00    -0.012 A 
ATOM      4  C3A BZF d   1      -0.621   0.352  -0.024  0.00  0.00    -0.107 A 
ATOM      5  C4  BZF d   1      -1.919  -0.072  -0.014  0.00  0.00     0.055 A 
ATOM      6  C5  BZF d   1      -2.255  -1.152   0.740  0.00  0.00    -0.016 A 
ATOM      7  C6  BZF d   1      -1.319  -1.834   1.489  0.00  0.00     0.022 A 
ATOM      8  C7  BZF d   1      -0.020  -1.448   1.514  0.00  0.00     0.029 A 
ATOM      9  C7A BZF d   1       0.317  -0.337   0.780  0.00  0.00     0.058 A 
ENDROOT
TORSDOF 0
ENDMDL
