MODEL 1
REMARK minimizedAffinity 0.584828317
REMARK minimizedRMSD -1
REMARK  0 active torsions:
REMARK  status: ('A' for Active; 'I' for Inactive)
ROOT
ATOM      1  O1  BZF d   1      -1.994  -1.042  -1.194  0.00  0.00    -0.204 OA
ATOM      2  C2  BZF d   1      -1.908   0.141  -1.903  0.00  0.00     0.174 A 
ATOM      3  C3  BZF d   1      -0.914   0.916  -1.423  0.00  0.00    -0.012 A 
ATOM      4  C3A BZF d   1      -0.283   0.132  -0.406  0.00  0.00    -0.107 A 
ATOM      5  C4  BZF d   1       0.778   0.351   0.426  0.00  0.00     0.055 A 
ATOM      6  C5  BZF d   1       1.092  -0.589   1.356  0.00  0.00    -0.016 A 
ATOM      7  C6  BZF d   1       0.365  -1.754   1.486  0.00  0.00     0.022 A 
ATOM      8  C7  BZF d   1      -0.692  -2.018   0.681  0.00  0.00     0.029 A 
ATOM      9  C7A BZF d   1      -0.993  -1.085  -0.282  0.00  0.00     0.058 A 
ENDROOT
TORSDOF 0
ENDMDL
