MODEL 1
REMARK minimizedAffinity -5.55377626
REMARK minimizedRMSD -1
REMARK  0 active torsions:
REMARK  status: ('A' for Active; 'I' for Inactive)
ROOT
ATOM      1  O1  BZF d   1       0.705  -1.270   1.072  0.00  0.00    -0.204 OA
ATOM      2  C2  BZF d   1       1.890  -0.671   0.689  0.00  0.00     0.174 A 
ATOM      3  C3  BZF d   1       1.694   0.143  -0.368  0.00  0.00    -0.012 A 
ATOM      4  C3A BZF d   1       0.284   0.117  -0.607  0.00  0.00    -0.107 A 
ATOM      5  C4  BZF d   1      -0.526   0.736  -1.516  0.00  0.00     0.055 A 
ATOM      6  C5  BZF d   1      -1.852   0.441  -1.528  0.00  0.00    -0.016 A 
ATOM      7  C6  BZF d   1      -2.401  -0.472  -0.651  0.00  0.00     0.022 A 
ATOM      8  C7  BZF d   1      -1.638  -1.108   0.271  0.00  0.00     0.029 A 
ATOM      9  C7A BZF d   1      -0.303  -0.787   0.308  0.00  0.00     0.058 A 
ENDROOT
TORSDOF 0
ENDMDL
