MODEL 1
REMARK minimizedAffinity -3.94606209
REMARK minimizedRMSD -1
REMARK  0 active torsions:
REMARK  status: ('A' for Active; 'I' for Inactive)
ROOT
ATOM      1  O1  BZF d   1      -2.580  -0.804  -1.452  0.00  0.00    -0.204 OA
ATOM      2  C2  BZF d   1      -3.377  -1.029  -0.346  0.00  0.00     0.174 A 
ATOM      3  C3  BZF d   1      -2.700  -0.774   0.792  0.00  0.00    -0.012 A 
ATOM      4  C3A BZF d   1      -1.427  -0.275   0.368  0.00  0.00    -0.107 A 
ATOM      5  C4  BZF d   1      -0.321   0.166   1.038  0.00  0.00     0.055 A 
ATOM      6  C5  BZF d   1       0.784   0.516   0.329  0.00  0.00    -0.016 A 
ATOM      7  C6  BZF d   1       0.820   0.432  -1.047  0.00  0.00     0.022 A 
ATOM      8  C7  BZF d   1      -0.253   0.005  -1.756  0.00  0.00     0.029 A 
ATOM      9  C7A BZF d   1      -1.383  -0.318  -1.044  0.00  0.00     0.058 A 
ENDROOT
TORSDOF 0
ENDMDL
