MODEL 1
REMARK minimizedAffinity -5.39352512
REMARK minimizedRMSD -1
REMARK  0 active torsions:
REMARK  status: ('A' for Active; 'I' for Inactive)
ROOT
ATOM      1  O1  BZF d   1      -2.571  -0.331  -1.306  0.00  0.00    -0.204 OA
ATOM      2  C2  BZF d   1      -3.101  -0.848  -0.140  0.00  0.00     0.174 A 
ATOM      3  C3  BZF d   1      -2.139  -1.010   0.792  0.00  0.00    -0.012 A 
ATOM      4  C3A BZF d   1      -0.949  -0.480   0.201  0.00  0.00    -0.107 A 
ATOM      5  C4  BZF d   1       0.336  -0.341   0.640  0.00  0.00     0.055 A 
ATOM      6  C5  BZF d   1       1.276   0.149  -0.210  0.00  0.00    -0.016 A 
ATOM      7  C6  BZF d   1       0.967   0.507  -1.506  0.00  0.00     0.022 A 
ATOM      8  C7  BZF d   1      -0.296   0.392  -1.986  0.00  0.00     0.029 A 
ATOM      9  C7A BZF d   1      -1.254  -0.072  -1.118  0.00  0.00     0.058 A 
ENDROOT
TORSDOF 0
ENDMDL
