MODEL 1
REMARK minimizedAffinity -4.36851931
REMARK minimizedRMSD -1
REMARK  0 active torsions:
REMARK  status: ('A' for Active; 'I' for Inactive)
ROOT
ATOM      1  O1  BZF d   1      -2.910  -0.205  -0.603  0.00  0.00    -0.204 OA
ATOM      2  C2  BZF d   1      -3.290  -0.543   0.681  0.00  0.00     0.174 A 
ATOM      3  C3  BZF d   1      -2.214  -0.643   1.488  0.00  0.00    -0.012 A 
ATOM      4  C3A BZF d   1      -1.099  -0.259   0.678  0.00  0.00    -0.107 A 
ATOM      5  C4  BZF d   1       0.240  -0.142   0.918  0.00  0.00     0.055 A 
ATOM      6  C5  BZF d   1       1.069   0.186  -0.108  0.00  0.00    -0.016 A 
ATOM      7  C6  BZF d   1       0.594   0.398  -1.386  0.00  0.00     0.022 A 
ATOM      8  C7  BZF d   1      -0.727   0.298  -1.672  0.00  0.00     0.029 A 
ATOM      9  C7A BZF d   1      -1.571  -0.001  -0.630  0.00  0.00     0.058 A 
ENDROOT
TORSDOF 0
ENDMDL
