MODEL 1
REMARK minimizedAffinity -4.30167294
REMARK minimizedRMSD -1
REMARK  0 active torsions:
REMARK  status: ('A' for Active; 'I' for Inactive)
ROOT
ATOM      1  O1  BZF d   1      -2.856  -0.746  -1.541  0.00  0.00    -0.204 OA
ATOM      2  C2  BZF d   1      -3.543  -1.248  -0.453  0.00  0.00     0.174 A 
ATOM      3  C3  BZF d   1      -2.774  -1.216   0.654  0.00  0.00    -0.012 A 
ATOM      4  C3A BZF d   1      -1.560  -0.575   0.251  0.00  0.00    -0.107 A 
ATOM      5  C4  BZF d   1      -0.412  -0.238   0.910  0.00  0.00     0.055 A 
ATOM      6  C5  BZF d   1       0.614   0.313   0.210  0.00  0.00    -0.016 A 
ATOM      7  C6  BZF d   1       0.528   0.537  -1.148  0.00  0.00     0.022 A 
ATOM      8  C7  BZF d   1      -0.592   0.224  -1.845  0.00  0.00     0.029 A 
ATOM      9  C7A BZF d   1      -1.642  -0.303  -1.134  0.00  0.00     0.058 A 
ENDROOT
TORSDOF 0
ENDMDL
