MODEL 1
REMARK minimizedAffinity -4.32688379
REMARK minimizedRMSD -1
REMARK  0 active torsions:
REMARK  status: ('A' for Active; 'I' for Inactive)
ROOT
ATOM      1  O1  BZF d   1       0.270  -0.459   1.315  0.00  0.00    -0.204 OA
ATOM      2  C2  BZF d   1       1.389   0.165   0.798  0.00  0.00     0.174 A 
ATOM      3  C3  BZF d   1       1.154   0.607  -0.455  0.00  0.00    -0.012 A 
ATOM      4  C3A BZF d   1      -0.224   0.317  -0.704  0.00  0.00    -0.107 A 
ATOM      5  C4  BZF d   1      -1.051   0.532  -1.770  0.00  0.00     0.055 A 
ATOM      6  C5  BZF d   1      -2.326   0.063  -1.722  0.00  0.00    -0.016 A 
ATOM      7  C6  BZF d   1      -2.804  -0.629  -0.628  0.00  0.00     0.022 A 
ATOM      8  C7  BZF d   1      -2.023  -0.862   0.454  0.00  0.00     0.029 A 
ATOM      9  C7A BZF d   1      -0.745  -0.360   0.423  0.00  0.00     0.058 A 
ENDROOT
TORSDOF 0
ENDMDL
