MODEL 1
REMARK minimizedAffinity -3.88266802
REMARK minimizedRMSD -1
REMARK  0 active torsions:
REMARK  status: ('A' for Active; 'I' for Inactive)
ROOT
ATOM      1  O1  BZF d   1       0.249  -0.272   1.229  0.00  0.00    -0.204 OA
ATOM      2  C2  BZF d   1       1.364   0.421   0.799  0.00  0.00     0.174 A 
ATOM      3  C3  BZF d   1       1.225   0.800  -0.488  0.00  0.00    -0.012 A 
ATOM      4  C3A BZF d   1      -0.096   0.393  -0.859  0.00  0.00    -0.107 A 
ATOM      5  C4  BZF d   1      -0.824   0.505  -2.009  0.00  0.00     0.055 A 
ATOM      6  C5  BZF d   1      -2.057  -0.062  -2.067  0.00  0.00    -0.016 A 
ATOM      7  C6  BZF d   1      -2.591  -0.752  -0.998  0.00  0.00     0.022 A 
ATOM      8  C7  BZF d   1      -1.908  -0.885   0.165  0.00  0.00     0.029 A 
ATOM      9  C7A BZF d   1      -0.675  -0.284   0.238  0.00  0.00     0.058 A 
ENDROOT
TORSDOF 0
ENDMDL
