MODEL 1
REMARK minimizedAffinity 1.53754342
REMARK minimizedRMSD -1
REMARK  0 active torsions:
REMARK  status: ('A' for Active; 'I' for Inactive)
ROOT
ATOM      1  O1  BZF d   1       1.467   0.181  -0.267  0.00  0.00    -0.204 OA
ATOM      2  C2  BZF d   1       0.919   1.020  -1.218  0.00  0.00     0.174 A 
ATOM      3  C3  BZF d   1      -0.428   0.988  -1.164  0.00  0.00    -0.012 A 
ATOM      4  C3A BZF d   1      -0.740   0.143  -0.053  0.00  0.00    -0.107 A 
ATOM      5  C4  BZF d   1      -1.913  -0.264   0.517  0.00  0.00     0.055 A 
ATOM      6  C5  BZF d   1      -1.875  -1.151   1.546  0.00  0.00    -0.016 A 
ATOM      7  C6  BZF d   1      -0.683  -1.653   2.028  0.00  0.00     0.022 A 
ATOM      8  C7  BZF d   1       0.506  -1.275   1.499  0.00  0.00     0.029 A 
ATOM      9  C7A BZF d   1       0.472  -0.354   0.480  0.00  0.00     0.058 A 
ENDROOT
TORSDOF 0
ENDMDL
