MODEL 1
REMARK minimizedAffinity -3.15111732
REMARK minimizedRMSD -1
REMARK  0 active torsions:
REMARK  status: ('A' for Active; 'I' for Inactive)
ROOT
ATOM      1  O1  BZF d   1       1.665  -0.189   1.250  0.00  0.00    -0.204 OA
ATOM      2  C2  BZF d   1       1.989   1.057   0.750  0.00  0.00     0.174 A 
ATOM      3  C3  BZF d   1       0.943   1.595   0.090  0.00  0.00    -0.012 A 
ATOM      4  C3A BZF d   1      -0.130   0.664   0.263  0.00  0.00    -0.107 A 
ATOM      5  C4  BZF d   1      -1.433   0.646  -0.146  0.00  0.00     0.055 A 
ATOM      6  C5  BZF d   1      -2.196  -0.445   0.126  0.00  0.00    -0.016 A 
ATOM      7  C6  BZF d   1      -1.688  -1.536   0.801  0.00  0.00     0.022 A 
ATOM      8  C7  BZF d   1      -0.403  -1.562   1.232  0.00  0.00     0.029 A 
ATOM      9  C7A BZF d   1       0.361  -0.447   0.986  0.00  0.00     0.058 A 
ENDROOT
TORSDOF 0
ENDMDL
