MODEL 1
REMARK minimizedAffinity -3.8301003
REMARK minimizedRMSD -1
REMARK  0 active torsions:
REMARK  status: ('A' for Active; 'I' for Inactive)
ROOT
ATOM      1  O1  BZF d   1       0.064  -0.035   1.702  0.00  0.00    -0.204 OA
ATOM      2  C2  BZF d   1      -0.165  -0.685   0.504  0.00  0.00     0.174 A 
ATOM      3  C3  BZF d   1       0.542  -0.114  -0.492  0.00  0.00    -0.012 A 
ATOM      4  C3A BZF d   1       1.329   0.902   0.138  0.00  0.00    -0.107 A 
ATOM      5  C4  BZF d   1       2.246   1.801  -0.324  0.00  0.00     0.055 A 
ATOM      6  C5  BZF d   1       2.779   2.705   0.540  0.00  0.00    -0.016 A 
ATOM      7  C6  BZF d   1       2.413   2.741   1.870  0.00  0.00     0.022 A 
ATOM      8  C7  BZF d   1       1.511   1.865   2.376  0.00  0.00     0.029 A 
ATOM      9  C7A BZF d   1       0.996   0.929   1.512  0.00  0.00     0.058 A 
ENDROOT
TORSDOF 0
ENDMDL
