MODEL 1
REMARK minimizedAffinity -4.76015949
REMARK minimizedRMSD -1
REMARK  0 active torsions:
REMARK  status: ('A' for Active; 'I' for Inactive)
ROOT
ATOM      1  O1  BZF d   1      -2.636  -1.587   0.830  0.00  0.00    -0.204 OA
ATOM      2  C2  BZF d   1      -3.311  -1.230  -0.322  0.00  0.00     0.174 A 
ATOM      3  C3  BZF d   1      -2.545  -0.435  -1.097  0.00  0.00    -0.012 A 
ATOM      4  C3A BZF d   1      -1.282  -0.361  -0.429  0.00  0.00    -0.107 A 
ATOM      5  C4  BZF d   1      -0.104   0.267  -0.716  0.00  0.00     0.055 A 
ATOM      6  C5  BZF d   1       0.916   0.199   0.180  0.00  0.00    -0.016 A 
ATOM      7  C6  BZF d   1       0.790  -0.483   1.373  0.00  0.00     0.022 A 
ATOM      8  C7  BZF d   1      -0.357  -1.126   1.699  0.00  0.00     0.029 A 
ATOM      9  C7A BZF d   1      -1.378  -1.087   0.781  0.00  0.00     0.058 A 
ENDROOT
TORSDOF 0
ENDMDL
