MODEL 1
REMARK minimizedAffinity -2.69408131
REMARK minimizedRMSD -1
REMARK  0 active torsions:
REMARK  status: ('A' for Active; 'I' for Inactive)
ROOT
ATOM      1  N1  IND d   1      -0.625  -3.586   0.928  0.00  0.00    -0.196 N 
ATOM      2  C2  IND d   1      -0.357  -4.002  -0.347  0.00  0.00     0.054 A 
ATOM      3  C3  IND d   1       0.002  -2.951  -1.118  0.00  0.00    -0.031 A 
ATOM      4  C4  IND d   1       0.317  -0.479  -0.472  0.00  0.00     0.051 A 
ATOM      5  C5  IND d   1       0.155   0.391   0.570  0.00  0.00    -0.031 A 
ATOM      6  C6  IND d   1      -0.281  -0.029   1.810  0.00  0.00     0.015 A 
ATOM      7  C7  IND d   1      -0.562  -1.343   2.059  0.00  0.00    -0.016 A 
ATOM      8  C8  IND d   1      -0.406  -2.228   1.001  0.00  0.00    -0.047 A 
ATOM      9  C9  IND d   1      -0.005  -1.801  -0.271  0.00  0.00    -0.096 A 
ATOM     10  HN1 IND d   1      -0.886  -4.088   1.575  0.00  0.00     0.298 HD
ENDROOT
TORSDOF 0
ENDMDL
