MODEL 1
REMARK minimizedAffinity 6.06202316
REMARK minimizedRMSD -1
REMARK  0 active torsions:
REMARK  status: ('A' for Active; 'I' for Inactive)
ROOT
ATOM      1  N1  IND d   1       5.013  -2.792  -0.812  0.00  0.00    -0.196 N 
ATOM      2  C2  IND d   1       5.963  -2.096  -1.506  0.00  0.00     0.054 A 
ATOM      3  C3  IND d   1       5.980  -2.486  -2.800  0.00  0.00    -0.031 A 
ATOM      4  C4  IND d   1       4.469  -4.175  -4.020  0.00  0.00     0.051 A 
ATOM      5  C5  IND d   1       3.478  -5.090  -3.798  0.00  0.00    -0.031 A 
ATOM      6  C6  IND d   1       2.935  -5.287  -2.545  0.00  0.00     0.015 A 
ATOM      7  C7  IND d   1       3.357  -4.566  -1.464  0.00  0.00    -0.016 A 
ATOM      8  C8  IND d   1       4.368  -3.642  -1.684  0.00  0.00    -0.047 A 
ATOM      9  C9  IND d   1       4.952  -3.467  -2.945  0.00  0.00    -0.096 A 
ATOM     10  HN1 IND d   1       4.846  -2.713   0.028  0.00  0.00     0.298 HD
ENDROOT
TORSDOF 0
ENDMDL
