MODEL 1
REMARK minimizedAffinity 5.50219011
REMARK minimizedRMSD -1
REMARK  0 active torsions:
REMARK  status: ('A' for Active; 'I' for Inactive)
ROOT
ATOM      1  N1  IND d   1       1.101   0.888   1.597  0.00  0.00    -0.196 N 
ATOM      2  C2  IND d   1       0.946   0.621   2.929  0.00  0.00     0.054 A 
ATOM      3  C3  IND d   1      -0.091   1.327   3.433  0.00  0.00    -0.031 A 
ATOM      4  C4  IND d   1      -1.734   2.903   2.231  0.00  0.00     0.051 A 
ATOM      5  C5  IND d   1      -1.973   3.490   1.020  0.00  0.00    -0.031 A 
ATOM      6  C6  IND d   1      -1.186   3.232  -0.083  0.00  0.00     0.015 A 
ATOM      7  C7  IND d   1      -0.132   2.365  -0.019  0.00  0.00    -0.016 A 
ATOM      8  C8  IND d   1       0.119   1.773   1.211  0.00  0.00    -0.047 A 
ATOM      9  C9  IND d   1      -0.651   2.063   2.345  0.00  0.00    -0.096 A 
ATOM     10  HN1 IND d   1       1.710   0.559   1.087  0.00  0.00     0.298 HD
ENDROOT
TORSDOF 0
ENDMDL
