MODEL 1
REMARK minimizedAffinity -4.98521757
REMARK minimizedRMSD -1
REMARK  1 active torsions:
REMARK  status: ('A' for Active; 'I' for Inactive)
REMARK    1  A    between atoms: C1_2  and  C2_3 
ROOT
ATOM      1  C2  UNL d   1       1.459  -0.084  -0.414  0.00  0.00    -0.073 A 
ATOM      2  C3  UNL d   1       2.728   0.484  -0.575  0.00  0.00    -0.002 A 
ATOM      3  C4  UNL d   1       3.108   1.588   0.190  0.00  0.00     0.004 A 
ATOM      4  C5  UNL d   1       2.228   2.129   1.127  0.00  0.00    -0.004 A 
ATOM      5  C6  UNL d   1       0.961   1.568   1.311  0.00  0.00    -0.075 A 
ATOM      6  C7  UNL d   1       0.002   2.140   2.313  0.00  0.00     0.076 C 
ATOM      7  C8  UNL d   1       0.585   0.462   0.537  0.00  0.00     0.001 A 
ENDROOT
BRANCH   1   8
ATOM      8  C1  UNL d   1       1.046  -1.279  -1.233  0.00  0.00     0.053 C 
ATOM      9  C   UNL d   1      -0.407  -1.659  -0.995  0.00  0.00     0.018 C 
ENDBRANCH   1   8
TORSDOF 1
ENDMDL
