MODEL 1
REMARK minimizedAffinity -5.18256903
REMARK minimizedRMSD -1
REMARK  1 active torsions:
REMARK  status: ('A' for Active; 'I' for Inactive)
REMARK    1  A    between atoms: C1_2  and  C2_3 
ROOT
ATOM      1  C2  UNL d   1      -0.543  -0.419  -0.943  0.00  0.00    -0.073 A 
ATOM      2  C3  UNL d   1      -0.924  -1.207   0.149  0.00  0.00    -0.002 A 
ATOM      3  C4  UNL d   1      -0.747  -0.739   1.452  0.00  0.00     0.004 A 
ATOM      4  C5  UNL d   1      -0.194   0.521   1.676  0.00  0.00    -0.004 A 
ATOM      5  C6  UNL d   1       0.182   1.329   0.598  0.00  0.00    -0.075 A 
ATOM      6  C7  UNL d   1       0.780   2.687   0.822  0.00  0.00     0.076 C 
ATOM      7  C8  UNL d   1       0.003   0.851  -0.707  0.00  0.00     0.001 A 
ENDROOT
BRANCH   1   8
ATOM      8  C1  UNL d   1      -0.738  -0.917  -2.351  0.00  0.00     0.053 C 
ATOM      9  C   UNL d   1      -2.163  -1.386  -2.598  0.00  0.00     0.018 C 
ENDBRANCH   1   8
TORSDOF 1
ENDMDL
