MODEL 1
REMARK minimizedAffinity -3.60565948
REMARK minimizedRMSD -1
REMARK  1 active torsions:
REMARK  status: ('A' for Active; 'I' for Inactive)
REMARK    1  A    between atoms: C1_2  and  C2_3 
ROOT
ATOM      1  C2  UNL d   1      -0.382  -0.207  -0.143  0.00  0.00    -0.073 A 
ATOM      2  C3  UNL d   1      -0.559   0.765  -1.134  0.00  0.00    -0.002 A 
ATOM      3  C4  UNL d   1      -0.212   2.094  -0.887  0.00  0.00     0.004 A 
ATOM      4  C5  UNL d   1       0.319   2.463   0.349  0.00  0.00    -0.004 A 
ATOM      5  C6  UNL d   1       0.514   1.504   1.348  0.00  0.00    -0.075 A 
ATOM      6  C7  UNL d   1       1.082   1.885   2.683  0.00  0.00     0.076 C 
ATOM      7  C8  UNL d   1       0.161   0.172   1.093  0.00  0.00     0.001 A 
ENDROOT
BRANCH   1   8
ATOM      8  C1  UNL d   1      -0.749  -1.645  -0.407  0.00  0.00     0.053 C 
ATOM      9  C   UNL d   1      -1.139  -1.876  -1.858  0.00  0.00     0.018 C 
ENDBRANCH   1   8
TORSDOF 1
ENDMDL
