MODEL 1
REMARK minimizedAffinity -3.55084467
REMARK minimizedRMSD -1
REMARK  1 active torsions:
REMARK  status: ('A' for Active; 'I' for Inactive)
REMARK    1  A    between atoms: C1_2  and  C2_3 
ROOT
ATOM      1  C2  UNL d   1      -1.172  -2.389  -1.834  0.00  0.00    -0.073 A 
ATOM      2  C3  UNL d   1      -1.057  -2.025  -3.180  0.00  0.00    -0.002 A 
ATOM      3  C4  UNL d   1      -2.158  -2.120  -4.032  0.00  0.00     0.004 A 
ATOM      4  C5  UNL d   1      -3.385  -2.572  -3.546  0.00  0.00    -0.004 A 
ATOM      5  C6  UNL d   1      -3.523  -2.929  -2.201  0.00  0.00    -0.075 A 
ATOM      6  C7  UNL d   1      -4.835  -3.419  -1.663  0.00  0.00     0.076 C 
ATOM      7  C8  UNL d   1      -2.412  -2.833  -1.352  0.00  0.00     0.001 A 
ENDROOT
BRANCH   1   8
ATOM      8  C1  UNL d   1       0.013  -2.282  -0.908  0.00  0.00     0.053 C 
ATOM      9  C   UNL d   1      -0.032  -1.014  -0.070  0.00  0.00     0.018 C 
ENDBRANCH   1   8
TORSDOF 1
ENDMDL
