MODEL 1
REMARK minimizedAffinity -1.57761431
REMARK minimizedRMSD -1
REMARK  1 active torsions:
REMARK  status: ('A' for Active; 'I' for Inactive)
REMARK    1  A    between atoms: C1_2  and  C2_3 
ROOT
ATOM      1  C2  UNL d   1      -0.921  -1.095  -0.297  0.00  0.00    -0.073 A 
ATOM      2  C3  UNL d   1      -1.458  -0.469   0.834  0.00  0.00    -0.002 A 
ATOM      3  C4  UNL d   1      -0.705   0.465   1.547  0.00  0.00     0.004 A 
ATOM      4  C5  UNL d   1       0.587   0.787   1.133  0.00  0.00    -0.004 A 
ATOM      5  C6  UNL d   1       1.137   0.181  -0.001  0.00  0.00    -0.075 A 
ATOM      6  C7  UNL d   1       2.527   0.515  -0.457  0.00  0.00     0.076 C 
ATOM      7  C8  UNL d   1       0.376  -0.758  -0.710  0.00  0.00     0.001 A 
ENDROOT
BRANCH   1   8
ATOM      8  C1  UNL d   1      -1.732  -2.100  -1.073  0.00  0.00     0.053 C 
ATOM      9  C   UNL d   1      -2.081  -1.597  -2.465  0.00  0.00     0.018 C 
ENDBRANCH   1   8
TORSDOF 1
ENDMDL
