MODEL 1
REMARK minimizedAffinity -3.23890686
REMARK minimizedRMSD -1
REMARK  1 active torsions:
REMARK  status: ('A' for Active; 'I' for Inactive)
REMARK    1  A    between atoms: C1_2  and  C2_3 
ROOT
ATOM      1  C2  UNL d   1      -0.669  -0.850  -0.945  0.00  0.00    -0.073 A 
ATOM      2  C3  UNL d   1      -0.503  -0.355  -2.244  0.00  0.00    -0.002 A 
ATOM      3  C4  UNL d   1      -1.381  -0.734  -3.260  0.00  0.00     0.004 A 
ATOM      4  C5  UNL d   1      -2.436  -1.605  -2.988  0.00  0.00    -0.004 A 
ATOM      5  C6  UNL d   1      -2.625  -2.101  -1.694  0.00  0.00    -0.075 A 
ATOM      6  C7  UNL d   1      -3.754  -3.041  -1.385  0.00  0.00     0.076 C 
ATOM      7  C8  UNL d   1      -1.738  -1.718  -0.679  0.00  0.00     0.001 A 
ENDROOT
BRANCH   1   8
ATOM      8  C1  UNL d   1       0.273  -0.438   0.157  0.00  0.00     0.053 C 
ATOM      9  C   UNL d   1      -0.343   0.611   1.070  0.00  0.00     0.018 C 
ENDBRANCH   1   8
TORSDOF 1
ENDMDL
