MODEL 1
REMARK minimizedAffinity 2.709795
REMARK minimizedRMSD -1
REMARK  1 active torsions:
REMARK  status: ('A' for Active; 'I' for Inactive)
REMARK    1  A    between atoms: C1_2  and  C2_3 
ROOT
ATOM      1  C2  UNL d   1      -2.011  -1.034  -1.980  0.00  0.00    -0.073 A 
ATOM      2  C3  UNL d   1      -0.780  -0.699  -2.556  0.00  0.00    -0.002 A 
ATOM      3  C4  UNL d   1       0.307  -0.360  -1.750  0.00  0.00     0.004 A 
ATOM      4  C5  UNL d   1       0.177  -0.357  -0.361  0.00  0.00    -0.004 A 
ATOM      5  C6  UNL d   1      -1.041  -0.699   0.234  0.00  0.00    -0.075 A 
ATOM      6  C7  UNL d   1      -1.198  -0.699   1.726  0.00  0.00     0.076 C 
ATOM      7  C8  UNL d   1      -2.129  -1.037  -0.583  0.00  0.00     0.001 A 
ENDROOT
BRANCH   1   8
ATOM      8  C1  UNL d   1      -3.186  -1.408  -2.846  0.00  0.00     0.053 C 
ATOM      9  C   UNL d   1      -3.971  -2.575  -2.269  0.00  0.00     0.018 C 
ENDBRANCH   1   8
TORSDOF 1
ENDMDL
