MODEL 1
REMARK minimizedAffinity -1.68950891
REMARK minimizedRMSD -1
REMARK  1 active torsions:
REMARK  status: ('A' for Active; 'I' for Inactive)
REMARK    1  A    between atoms: C1_2  and  C2_3 
ROOT
ATOM      1  C2  UNL d   1       0.329  -0.252  -0.319  0.00  0.00    -0.073 A 
ATOM      2  C3  UNL d   1      -0.649  -0.681   0.585  0.00  0.00    -0.002 A 
ATOM      3  C4  UNL d   1      -0.905   0.052   1.745  0.00  0.00     0.004 A 
ATOM      4  C5  UNL d   1      -0.193   1.221   2.009  0.00  0.00    -0.004 A 
ATOM      5  C6  UNL d   1       0.780   1.672   1.111  0.00  0.00    -0.075 A 
ATOM      6  C7  UNL d   1       1.557   2.927   1.381  0.00  0.00     0.076 C 
ATOM      7  C8  UNL d   1       1.034   0.930  -0.050  0.00  0.00     0.001 A 
ENDROOT
BRANCH   1   8
ATOM      8  C1  UNL d   1       0.605  -1.036  -1.576  0.00  0.00     0.053 C 
ATOM      9  C   UNL d   1      -0.656  -1.264  -2.394  0.00  0.00     0.018 C 
ENDBRANCH   1   8
TORSDOF 1
ENDMDL
