MODEL 1
REMARK minimizedAffinity -2.74713731
REMARK minimizedRMSD -1
REMARK  1 active torsions:
REMARK  status: ('A' for Active; 'I' for Inactive)
REMARK    1  A    between atoms: C1_2  and  C2_3 
ROOT
ATOM      1  C2  UNL d   1      -1.474  -1.538  -1.684  0.00  0.00    -0.073 A 
ATOM      2  C3  UNL d   1      -1.579  -0.987  -2.966  0.00  0.00    -0.002 A 
ATOM      3  C4  UNL d   1      -2.760  -1.124  -3.697  0.00  0.00     0.004 A 
ATOM      4  C5  UNL d   1      -3.847  -1.807  -3.153  0.00  0.00    -0.004 A 
ATOM      5  C6  UNL d   1      -3.766  -2.355  -1.869  0.00  0.00    -0.075 A 
ATOM      6  C7  UNL d   1      -4.926  -3.094  -1.270  0.00  0.00     0.076 C 
ATOM      7  C8  UNL d   1      -2.576  -2.215  -1.141  0.00  0.00     0.001 A 
ENDROOT
BRANCH   1   8
ATOM      8  C1  UNL d   1      -0.204  -1.387  -0.888  0.00  0.00     0.053 C 
ATOM      9  C   UNL d   1      -0.088  -0.009  -0.255  0.00  0.00     0.018 C 
ENDBRANCH   1   8
TORSDOF 1
ENDMDL
