MODEL 1
REMARK minimizedAffinity -3.42873597
REMARK minimizedRMSD -1
REMARK  1 active torsions:
REMARK  status: ('A' for Active; 'I' for Inactive)
REMARK    1  A    between atoms: C1_2  and  C2_3 
ROOT
ATOM      1  C2  UNL d   1      -0.713  -0.897  -0.850  0.00  0.00    -0.073 A 
ATOM      2  C3  UNL d   1      -1.328  -0.462   0.329  0.00  0.00    -0.002 A 
ATOM      3  C4  UNL d   1      -0.635   0.351   1.227  0.00  0.00     0.004 A 
ATOM      4  C5  UNL d   1       0.675   0.743   0.952  0.00  0.00    -0.004 A 
ATOM      5  C6  UNL d   1       1.303   0.329  -0.228  0.00  0.00    -0.075 A 
ATOM      6  C7  UNL d   1       2.712   0.740  -0.537  0.00  0.00     0.076 C 
ATOM      7  C8  UNL d   1       0.601  -0.490  -1.123  0.00  0.00     0.001 A 
ENDROOT
BRANCH   1   8
ATOM      8  C1  UNL d   1      -1.459  -1.770  -1.826  0.00  0.00     0.053 C 
ATOM      9  C   UNL d   1      -1.736  -1.053  -3.137  0.00  0.00     0.018 C 
ENDBRANCH   1   8
TORSDOF 1
ENDMDL
