MODEL 1
REMARK minimizedAffinity -6.81895781
REMARK minimizedRMSD -1
REMARK  1 active torsions:
REMARK  status: ('A' for Active; 'I' for Inactive)
REMARK    1  A    between atoms: C1_2  and  C2_3 
ROOT
ATOM      1  C2  UNL d   1       1.314   1.496   0.982  0.00  0.00    -0.073 A 
ATOM      2  C3  UNL d   1       0.406   1.899   1.969  0.00  0.00    -0.002 A 
ATOM      3  C4  UNL d   1      -0.850   1.298   2.059  0.00  0.00     0.004 A 
ATOM      4  C5  UNL d   1      -1.209   0.285   1.169  0.00  0.00    -0.004 A 
ATOM      5  C6  UNL d   1      -0.312  -0.139   0.184  0.00  0.00    -0.075 A 
ATOM      6  C7  UNL d   1      -0.683  -1.225  -0.783  0.00  0.00     0.076 C 
ATOM      7  C8  UNL d   1       0.947   0.471   0.098  0.00  0.00     0.001 A 
ENDROOT
BRANCH   1   8
ATOM      8  C1  UNL d   1       2.674   2.138   0.886  0.00  0.00     0.053 C 
ATOM      9  C   UNL d   1       3.694   1.216   0.237  0.00  0.00     0.018 C 
ENDBRANCH   1   8
TORSDOF 1
ENDMDL
