MODEL 1
REMARK minimizedAffinity -5.31210041
REMARK minimizedRMSD -1
REMARK  0 active torsions:
REMARK  status: ('A' for Active; 'I' for Inactive)
ROOT
ATOM      1  C   UNL d   1       0.637   0.525   0.161  0.00  0.00     0.020 A 
ATOM      2  C1  UNL d   1      -0.264   1.556   0.427  0.00  0.00     0.020 A 
ATOM      3  C2  UNL d   1      -1.542   1.260   0.905  0.00  0.00     0.034 A 
ATOM      4  C3  UNL d   1      -1.924  -0.069   1.118  0.00  0.00     0.017 A 
ATOM      5  C4  UNL d   1      -1.020  -1.104   0.850  0.00  0.00     0.017 A 
ATOM      6  C5  UNL d   1       0.259  -0.802   0.372  0.00  0.00     0.034 A 
ATOM      7 Cl   UNL d   1      -1.419  -2.768   1.088  0.00  0.00    -0.070 Cl
ATOM      8 Cl1  UNL d   1      -3.521  -0.362   1.711  0.00  0.00    -0.070 Cl
ENDROOT
TORSDOF 0
ENDMDL
