MODEL 1
REMARK minimizedAffinity -3.49372458
REMARK minimizedRMSD -1
REMARK  0 active torsions:
REMARK  status: ('A' for Active; 'I' for Inactive)
ROOT
ATOM      1  C   UNL d   1       0.962  -0.915  -0.032  0.00  0.00     0.020 A 
ATOM      2  C1  UNL d   1       0.438  -2.067   0.552  0.00  0.00     0.020 A 
ATOM      3  C2  UNL d   1      -0.691  -1.985   1.369  0.00  0.00     0.034 A 
ATOM      4  C3  UNL d   1      -1.300  -0.747   1.605  0.00  0.00     0.017 A 
ATOM      5  C4  UNL d   1      -0.774   0.410   1.018  0.00  0.00     0.017 A 
ATOM      6  C5  UNL d   1       0.357   0.321   0.200  0.00  0.00     0.034 A 
ATOM      7 Cl   UNL d   1      -1.471   1.972   1.262  0.00  0.00    -0.070 Cl
ATOM      8 Cl1  UNL d   1      -2.694  -0.719   2.626  0.00  0.00    -0.070 Cl
ENDROOT
TORSDOF 0
ENDMDL
