MODEL 1
REMARK minimizedAffinity -3.42511249
REMARK minimizedRMSD -1
REMARK  0 active torsions:
REMARK  status: ('A' for Active; 'I' for Inactive)
ROOT
ATOM      1  C   UNL d   1      -1.864  -2.129   1.881  0.00  0.00     0.020 A 
ATOM      2  C1  UNL d   1      -2.435  -0.858   1.828  0.00  0.00     0.020 A 
ATOM      3  C2  UNL d   1      -1.786   0.171   1.142  0.00  0.00     0.034 A 
ATOM      4  C3  UNL d   1      -0.562  -0.069   0.507  0.00  0.00     0.017 A 
ATOM      5  C4  UNL d   1       0.010  -1.345   0.561  0.00  0.00     0.017 A 
ATOM      6  C5  UNL d   1      -0.644  -2.372   1.249  0.00  0.00     0.034 A 
ATOM      7 Cl   UNL d   1       1.518  -1.717  -0.198  0.00  0.00    -0.070 Cl
ATOM      8 Cl1  UNL d   1       0.184   1.250  -0.324  0.00  0.00    -0.070 Cl
ENDROOT
TORSDOF 0
ENDMDL
