MODEL 1
REMARK minimizedAffinity -3.1534214
REMARK minimizedRMSD -1
REMARK  0 active torsions:
REMARK  status: ('A' for Active; 'I' for Inactive)
ROOT
ATOM      1  C   UNL d   1       0.174  -1.929   1.224  0.00  0.00     0.020 A 
ATOM      2  C1  UNL d   1       0.910  -2.079   0.049  0.00  0.00     0.020 A 
ATOM      3  C2  UNL d   1       1.042  -1.005  -0.834  0.00  0.00     0.034 A 
ATOM      4  C3  UNL d   1       0.437   0.224  -0.544  0.00  0.00     0.017 A 
ATOM      5  C4  UNL d   1      -0.301   0.373   0.636  0.00  0.00     0.017 A 
ATOM      6  C5  UNL d   1      -0.430  -0.705   1.517  0.00  0.00     0.034 A 
ATOM      7 Cl   UNL d   1      -1.075   1.858   1.063  0.00  0.00    -0.070 Cl
ATOM      8 Cl1  UNL d   1       0.642   1.509  -1.680  0.00  0.00    -0.070 Cl
ENDROOT
TORSDOF 0
ENDMDL
