MODEL 1
REMARK minimizedAffinity 0.683030844
REMARK minimizedRMSD -1
REMARK  0 active torsions:
REMARK  status: ('A' for Active; 'I' for Inactive)
ROOT
ATOM      1  C   UNL d   1      -0.073  -2.491   0.545  0.00  0.00     0.020 A 
ATOM      2  C1  UNL d   1      -1.095  -2.304   1.474  0.00  0.00     0.020 A 
ATOM      3  C2  UNL d   1      -1.629  -1.030   1.678  0.00  0.00     0.034 A 
ATOM      4  C3  UNL d   1      -1.140   0.063   0.952  0.00  0.00     0.017 A 
ATOM      5  C4  UNL d   1      -0.114  -0.126   0.019  0.00  0.00     0.017 A 
ATOM      6  C5  UNL d   1       0.417  -1.404  -0.181  0.00  0.00     0.034 A 
ATOM      7 Cl   UNL d   1       0.540   1.173  -0.915  0.00  0.00    -0.070 Cl
ATOM      8 Cl1  UNL d   1      -1.847   1.610   1.254  0.00  0.00    -0.070 Cl
ENDROOT
TORSDOF 0
ENDMDL
