MODEL 1
REMARK minimizedAffinity -5.21141911
REMARK minimizedRMSD -1
REMARK  0 active torsions:
REMARK  status: ('A' for Active; 'I' for Inactive)
ROOT
ATOM      1  C   UNL d   1      -1.717  -2.558   1.584  0.00  0.00     0.020 A 
ATOM      2  C1  UNL d   1      -2.469  -1.564   0.960  0.00  0.00     0.020 A 
ATOM      3  C2  UNL d   1      -1.842  -0.624   0.141  0.00  0.00     0.034 A 
ATOM      4  C3  UNL d   1      -0.457  -0.676  -0.058  0.00  0.00     0.017 A 
ATOM      5  C4  UNL d   1       0.298  -1.674   0.568  0.00  0.00     0.017 A 
ATOM      6  C5  UNL d   1      -0.336  -2.613   1.388  0.00  0.00     0.034 A 
ATOM      7 Cl   UNL d   1       2.010  -1.802   0.372  0.00  0.00    -0.070 Cl
ATOM      8 Cl1  UNL d   1       0.253   0.519  -1.084  0.00  0.00    -0.070 Cl
ENDROOT
TORSDOF 0
ENDMDL
