MODEL 1
REMARK minimizedAffinity -4.87707806
REMARK minimizedRMSD -1
REMARK  0 active torsions:
REMARK  status: ('A' for Active; 'I' for Inactive)
ROOT
ATOM      1  C   UNL d   1      -2.576  -2.516   1.798  0.00  0.00     0.020 A 
ATOM      2  C1  UNL d   1      -3.114  -1.230   1.779  0.00  0.00     0.020 A 
ATOM      3  C2  UNL d   1      -2.356  -0.163   1.291  0.00  0.00     0.034 A 
ATOM      4  C3  UNL d   1      -1.056  -0.381   0.821  0.00  0.00     0.017 A 
ATOM      5  C4  UNL d   1      -0.516  -1.672   0.841  0.00  0.00     0.017 A 
ATOM      6  C5  UNL d   1      -1.280  -2.737   1.330  0.00  0.00     0.034 A 
ATOM      7 Cl   UNL d   1       1.080  -2.019   0.278  0.00  0.00    -0.070 Cl
ATOM      8 Cl1  UNL d   1      -0.175   0.984   0.232  0.00  0.00    -0.070 Cl
ENDROOT
TORSDOF 0
ENDMDL
