MODEL 1
REMARK minimizedAffinity -4.7428484
REMARK minimizedRMSD -1
REMARK  0 active torsions:
REMARK  status: ('A' for Active; 'I' for Inactive)
ROOT
ATOM      1  C   UNL d   1       1.139  -1.136   0.268  0.00  0.00     0.020 A 
ATOM      2  C1  UNL d   1       0.922   0.242   0.284  0.00  0.00     0.020 A 
ATOM      3  C2  UNL d   1      -0.338   0.746   0.612  0.00  0.00     0.034 A 
ATOM      4  C3  UNL d   1      -1.386  -0.127   0.925  0.00  0.00     0.017 A 
ATOM      5  C4  UNL d   1      -1.167  -1.509   0.908  0.00  0.00     0.017 A 
ATOM      6  C5  UNL d   1       0.097  -2.009   0.579  0.00  0.00     0.034 A 
ATOM      7 Cl   UNL d   1      -2.411  -2.649   1.283  0.00  0.00    -0.070 Cl
ATOM      8 Cl1  UNL d   1      -2.918   0.566   1.322  0.00  0.00    -0.070 Cl
ENDROOT
TORSDOF 0
ENDMDL
