MODEL 1
REMARK minimizedAffinity -2.1740272
REMARK minimizedRMSD -1
REMARK  0 active torsions:
REMARK  status: ('A' for Active; 'I' for Inactive)
ROOT
ATOM      1  C   UNL d   1       1.224   0.552  -1.155  0.00  0.00     0.020 A 
ATOM      2  C1  UNL d   1       0.432   1.671  -0.905  0.00  0.00     0.020 A 
ATOM      3  C2  UNL d   1      -0.584   1.608   0.051  0.00  0.00     0.034 A 
ATOM      4  C3  UNL d   1      -0.811   0.424   0.761  0.00  0.00     0.017 A 
ATOM      5  C4  UNL d   1      -0.014  -0.700   0.510  0.00  0.00     0.017 A 
ATOM      6  C5  UNL d   1       1.002  -0.631  -0.448  0.00  0.00     0.034 A 
ATOM      7 Cl   UNL d   1      -0.233  -2.196   1.346  0.00  0.00    -0.070 Cl
ATOM      8 Cl1  UNL d   1      -2.084   0.418   1.929  0.00  0.00    -0.070 Cl
ENDROOT
TORSDOF 0
ENDMDL
