MODEL 1
REMARK minimizedAffinity -4.66405249
REMARK minimizedRMSD -1
REMARK  0 active torsions:
REMARK  status: ('A' for Active; 'I' for Inactive)
ROOT
ATOM      1  C   UNL d   1      -2.990  -0.773   1.713  0.00  0.00     0.020 A 
ATOM      2  C1  UNL d   1      -2.685  -2.121   1.896  0.00  0.00     0.020 A 
ATOM      3  C2  UNL d   1      -1.420  -2.603   1.558  0.00  0.00     0.034 A 
ATOM      4  C3  UNL d   1      -0.453  -1.737   1.033  0.00  0.00     0.017 A 
ATOM      5  C4  UNL d   1      -0.760  -0.384   0.850  0.00  0.00     0.017 A 
ATOM      6  C5  UNL d   1      -2.029   0.094   1.191  0.00  0.00     0.034 A 
ATOM      7 Cl   UNL d   1       0.380   0.746   0.208  0.00  0.00    -0.070 Cl
ATOM      8 Cl1  UNL d   1       1.092  -2.402   0.637  0.00  0.00    -0.070 Cl
ENDROOT
TORSDOF 0
ENDMDL
