MODEL 1
REMARK minimizedAffinity -3.03165197
REMARK minimizedRMSD -1
REMARK  0 active torsions:
REMARK  status: ('A' for Active; 'I' for Inactive)
ROOT
ATOM      1  C   UNL d   1       0.361  -2.157   0.643  0.00  0.00     0.020 A 
ATOM      2  C1  UNL d   1       1.153  -1.210  -0.005  0.00  0.00     0.020 A 
ATOM      3  C2  UNL d   1       0.839   0.148   0.094  0.00  0.00     0.034 A 
ATOM      4  C3  UNL d   1      -0.270   0.561   0.842  0.00  0.00     0.017 A 
ATOM      5  C4  UNL d   1      -1.063  -0.391   1.492  0.00  0.00     0.017 A 
ATOM      6  C5  UNL d   1      -0.744  -1.749   1.390  0.00  0.00     0.034 A 
ATOM      7 Cl   UNL d   1      -2.447   0.043   2.434  0.00  0.00    -0.070 Cl
ATOM      8 Cl1  UNL d   1      -0.599   2.255   0.922  0.00  0.00    -0.070 Cl
ENDROOT
TORSDOF 0
ENDMDL
