MODEL 1
REMARK minimizedAffinity -4.39458561
REMARK minimizedRMSD -1
REMARK  0 active torsions:
REMARK  status: ('A' for Active; 'I' for Inactive)
ROOT
ATOM      1  C   UNL d   1       0.615   1.226   0.177  0.00  0.00     0.020 A 
ATOM      2  C1  UNL d   1       1.237  -0.022   0.183  0.00  0.00     0.020 A 
ATOM      3  C2  UNL d   1       0.516  -1.160   0.553  0.00  0.00     0.034 A 
ATOM      4  C3  UNL d   1      -0.831  -1.051   0.919  0.00  0.00     0.017 A 
ATOM      5  C4  UNL d   1      -1.454   0.202   0.912  0.00  0.00     0.017 A 
ATOM      6  C5  UNL d   1      -0.727   1.337   0.541  0.00  0.00     0.034 A 
ATOM      7 Cl   UNL d   1      -3.112   0.415   1.351  0.00  0.00    -0.070 Cl
ATOM      8 Cl1  UNL d   1      -1.661  -2.499   1.365  0.00  0.00    -0.070 Cl
ENDROOT
TORSDOF 0
ENDMDL
