MODEL 1
REMARK minimizedAffinity -4.57704449
REMARK minimizedRMSD -1
REMARK  0 active torsions:
REMARK  status: ('A' for Active; 'I' for Inactive)
ROOT
ATOM      1  C   UNL d   1      -3.142  -0.419   1.983  0.00  0.00     0.020 A 
ATOM      2  C1  UNL d   1      -2.750  -1.737   2.215  0.00  0.00     0.020 A 
ATOM      3  C2  UNL d   1      -1.599  -2.241   1.606  0.00  0.00     0.034 A 
ATOM      4  C3  UNL d   1      -0.835  -1.427   0.762  0.00  0.00     0.017 A 
ATOM      5  C4  UNL d   1      -1.229  -0.104   0.530  0.00  0.00     0.017 A 
ATOM      6  C5  UNL d   1      -2.383   0.396   1.142  0.00  0.00     0.034 A 
ATOM      7 Cl   UNL d   1      -0.338   0.961  -0.499  0.00  0.00    -0.070 Cl
ATOM      8 Cl1  UNL d   1       0.577  -2.116   0.043  0.00  0.00    -0.070 Cl
ENDROOT
TORSDOF 0
ENDMDL
