MODEL 1
REMARK minimizedAffinity -4.24379349
REMARK minimizedRMSD -1
REMARK  0 active torsions:
REMARK  status: ('A' for Active; 'I' for Inactive)
ROOT
ATOM      1  C   UNL d   1      -2.193  -2.952   1.179  0.00  0.00     0.020 A 
ATOM      2  C1  UNL d   1      -3.294  -2.196   1.580  0.00  0.00     0.020 A 
ATOM      3  C2  UNL d   1      -3.183  -0.809   1.698  0.00  0.00     0.034 A 
ATOM      4  C3  UNL d   1      -1.969  -0.173   1.414  0.00  0.00     0.017 A 
ATOM      5  C4  UNL d   1      -0.864  -0.933   1.012  0.00  0.00     0.017 A 
ATOM      6  C5  UNL d   1      -0.981  -2.321   0.896  0.00  0.00     0.034 A 
ATOM      7 Cl   UNL d   1       0.667  -0.219   0.645  0.00  0.00    -0.070 Cl
ATOM      8 Cl1  UNL d   1      -1.904   1.545   1.580  0.00  0.00    -0.070 Cl
ENDROOT
TORSDOF 0
ENDMDL
