MODEL 1
REMARK minimizedAffinity 23.918396
REMARK minimizedRMSD -1
REMARK  0 active torsions:
REMARK  status: ('A' for Active; 'I' for Inactive)
ROOT
ATOM      1  C   UNL d   1      -3.457   5.653   0.844  0.00  0.00     0.124 A 
ATOM      2  C1  UNL d   1      -2.288   5.652   0.095  0.00  0.00     0.062 A 
ATOM      3  C2  UNL d   1      -2.319   5.291  -1.249  0.00  0.00     0.162 A 
ATOM      4  C3  UNL d   1      -3.523   4.928  -1.853  0.00  0.00    -0.034 A 
ATOM      5  C4  UNL d   1      -4.693   4.930  -1.093  0.00  0.00     0.162 A 
ATOM      6  C5  UNL d   1      -4.658   5.292   0.250  0.00  0.00     0.062 A 
ATOM      7  F   UNL d   1      -5.788   5.292   0.972  0.00  0.00    -0.097 F 
ATOM      8  F1  UNL d   1      -5.868   4.586  -1.642  0.00  0.00    -0.096 F 
ATOM      9  I   UNL d   1      -3.572   4.387  -3.862  0.00  0.00    -0.060 I 
ATOM     10  F2  UNL d   1      -1.175   5.300  -1.949  0.00  0.00    -0.096 F 
ATOM     11  F3  UNL d   1      -1.127   6.000   0.667  0.00  0.00    -0.097 F 
ATOM     12  F4  UNL d   1      -3.424   6.000   2.137  0.00  0.00    -0.092 F 
ENDROOT
TORSDOF 0
ENDMDL
