MODEL 1
REMARK minimizedAffinity 22.3934708
REMARK minimizedRMSD -1
REMARK  0 active torsions:
REMARK  status: ('A' for Active; 'I' for Inactive)
ROOT
ATOM      1  C   UNL d   1      -4.871   2.351  -2.628  0.00  0.00     0.124 A 
ATOM      2  C1  UNL d   1      -4.591   1.379  -1.677  0.00  0.00     0.062 A 
ATOM      3  C2  UNL d   1      -3.418   1.448  -0.930  0.00  0.00     0.162 A 
ATOM      4  C3  UNL d   1      -2.517   2.494  -1.130  0.00  0.00    -0.034 A 
ATOM      5  C4  UNL d   1      -2.805   3.467  -2.089  0.00  0.00     0.162 A 
ATOM      6  C5  UNL d   1      -3.978   3.393  -2.833  0.00  0.00     0.062 A 
ATOM      7  F   UNL d   1      -4.247   4.333  -3.751  0.00  0.00    -0.097 F 
ATOM      8  F1  UNL d   1      -1.961   4.486  -2.307  0.00  0.00    -0.096 F 
ATOM      9  I   UNL d   1      -0.763   2.601  -0.016  0.00  0.00    -0.060 I 
ATOM     10  F2  UNL d   1      -3.174   0.496  -0.018  0.00  0.00    -0.096 F 
ATOM     11  F3  UNL d   1      -5.451   0.370  -1.478  0.00  0.00    -0.097 F 
ATOM     12  F4  UNL d   1      -6.000   2.281  -3.346  0.00  0.00    -0.092 F 
ENDROOT
TORSDOF 0
ENDMDL
