MODEL 1
REMARK minimizedAffinity 18.3514938
REMARK minimizedRMSD -1
REMARK  0 active torsions:
REMARK  status: ('A' for Active; 'I' for Inactive)
ROOT
ATOM      1  C   UNL d   1       4.262  -2.388  -0.929  0.00  0.00     0.124 A 
ATOM      2  C1  UNL d   1       2.905  -2.102  -0.984  0.00  0.00     0.062 A 
ATOM      3  C2  UNL d   1       1.970  -3.131  -0.928  0.00  0.00     0.162 A 
ATOM      4  C3  UNL d   1       2.389  -4.457  -0.814  0.00  0.00    -0.034 A 
ATOM      5  C4  UNL d   1       3.755  -4.737  -0.760  0.00  0.00     0.162 A 
ATOM      6  C5  UNL d   1       4.686  -3.704  -0.817  0.00  0.00     0.062 A 
ATOM      7  F   UNL d   1       5.997  -3.982  -0.764  0.00  0.00    -0.097 F 
ATOM      8  F1  UNL d   1       4.193  -6.000  -0.651  0.00  0.00    -0.096 F 
ATOM      9  I   UNL d   1       0.994  -5.999  -0.730  0.00  0.00    -0.060 I 
ATOM     10  F2  UNL d   1       0.665  -2.826  -0.983  0.00  0.00    -0.096 F 
ATOM     11  F3  UNL d   1       2.493  -0.831  -1.093  0.00  0.00    -0.097 F 
ATOM     12  F4  UNL d   1       5.159  -1.395  -0.984  0.00  0.00    -0.092 F 
ENDROOT
TORSDOF 0
ENDMDL
