MODEL 1
REMARK minimizedAffinity 31.0931187
REMARK minimizedRMSD -1
REMARK  0 active torsions:
REMARK  status: ('A' for Active; 'I' for Inactive)
ROOT
ATOM      1  C   UNL d   1       1.507  -2.990  -0.196  0.00  0.00     0.124 A 
ATOM      2  C1  UNL d   1       2.623  -2.232   0.129  0.00  0.00     0.062 A 
ATOM      3  C2  UNL d   1       3.901  -2.738  -0.088  0.00  0.00     0.162 A 
ATOM      4  C3  UNL d   1       4.071  -4.010  -0.634  0.00  0.00    -0.034 A 
ATOM      5  C4  UNL d   1       2.944  -4.768  -0.957  0.00  0.00     0.162 A 
ATOM      6  C5  UNL d   1       1.668  -4.257  -0.739  0.00  0.00     0.062 A 
ATOM      7  F   UNL d   1       0.591  -4.991  -1.053  0.00  0.00    -0.097 F 
ATOM      8  F1  UNL d   1       3.070  -5.995  -1.484  0.00  0.00    -0.096 F 
ATOM      9  I   UNL d   1       5.980  -4.771  -0.960  0.00  0.00    -0.060 I 
ATOM     10  F2  UNL d   1       4.962  -1.983   0.236  0.00  0.00    -0.096 F 
ATOM     11  F3  UNL d   1       2.470  -1.007   0.655  0.00  0.00    -0.097 F 
ATOM     12  F4  UNL d   1       0.279  -2.501   0.015  0.00  0.00    -0.092 F 
ENDROOT
TORSDOF 0
ENDMDL
