MODEL 1
REMARK minimizedAffinity 18.2422924
REMARK minimizedRMSD -1
REMARK  0 active torsions:
REMARK  status: ('A' for Active; 'I' for Inactive)
ROOT
ATOM      1  C   UNL d   1       0.874   3.856  -1.085  0.00  0.00     0.124 A 
ATOM      2  C1  UNL d   1       1.948   3.783  -0.208  0.00  0.00     0.062 A 
ATOM      3  C2  UNL d   1       1.872   2.978   0.925  0.00  0.00     0.162 A 
ATOM      4  C3  UNL d   1       0.718   2.239   1.188  0.00  0.00    -0.034 A 
ATOM      5  C4  UNL d   1      -0.358   2.320   0.303  0.00  0.00     0.162 A 
ATOM      6  C5  UNL d   1      -0.278   3.125  -0.828  0.00  0.00     0.062 A 
ATOM      7  F   UNL d   1      -1.316   3.195  -1.674  0.00  0.00    -0.097 F 
ATOM      8  F1  UNL d   1      -1.482   1.623   0.526  0.00  0.00    -0.096 F 
ATOM      9  I   UNL d   1       0.602   1.035   2.882  0.00  0.00    -0.060 I 
ATOM     10  F2  UNL d   1       2.925   2.926   1.754  0.00  0.00    -0.096 F 
ATOM     11  F3  UNL d   1       3.061   4.489  -0.453  0.00  0.00    -0.097 F 
ATOM     12  F4  UNL d   1       0.949   4.632  -2.174  0.00  0.00    -0.092 F 
ENDROOT
TORSDOF 0
ENDMDL
