MODEL 1
REMARK minimizedAffinity 34.881485
REMARK minimizedRMSD -1
REMARK  0 active torsions:
REMARK  status: ('A' for Active; 'I' for Inactive)
ROOT
ATOM      1  C   UNL d   1       1.882  -3.629  -1.234  0.00  0.00     0.124 A 
ATOM      2  C1  UNL d   1       2.991  -3.602  -0.400  0.00  0.00     0.062 A 
ATOM      3  C2  UNL d   1       4.167  -4.242  -0.779  0.00  0.00     0.162 A 
ATOM      4  C3  UNL d   1       4.241  -4.915  -1.998  0.00  0.00    -0.034 A 
ATOM      5  C4  UNL d   1       3.121  -4.938  -2.832  0.00  0.00     0.162 A 
ATOM      6  C5  UNL d   1       1.948  -4.297  -2.449  0.00  0.00     0.062 A 
ATOM      7  F   UNL d   1       0.877  -4.324  -3.256  0.00  0.00    -0.097 F 
ATOM      8  F1  UNL d   1       3.158  -5.576  -4.011  0.00  0.00    -0.096 F 
ATOM      9  I   UNL d   1       5.998  -5.873  -2.568  0.00  0.00    -0.060 I 
ATOM     10  F2  UNL d   1       5.224  -4.200   0.047  0.00  0.00    -0.096 F 
ATOM     11  F3  UNL d   1       2.929  -2.958   0.775  0.00  0.00    -0.097 F 
ATOM     12  F4  UNL d   1       0.751  -3.013  -0.867  0.00  0.00    -0.092 F 
ENDROOT
TORSDOF 0
ENDMDL
