MODEL 1
REMARK minimizedAffinity 13.1728106
REMARK minimizedRMSD -1
REMARK  0 active torsions:
REMARK  status: ('A' for Active; 'I' for Inactive)
ROOT
ATOM      1  C   UNL d   1       1.791  -1.734  -0.465  0.00  0.00     0.124 A 
ATOM      2  C1  UNL d   1       3.033  -1.238  -0.094  0.00  0.00     0.062 A 
ATOM      3  C2  UNL d   1       4.134  -2.086  -0.028  0.00  0.00     0.162 A 
ATOM      4  C3  UNL d   1       3.999  -3.440  -0.334  0.00  0.00    -0.034 A 
ATOM      5  C4  UNL d   1       2.747  -3.932  -0.706  0.00  0.00     0.162 A 
ATOM      6  C5  UNL d   1       1.649  -3.080  -0.770  0.00  0.00     0.062 A 
ATOM      7  F   UNL d   1       0.450  -3.561  -1.129  0.00  0.00    -0.097 F 
ATOM      8  F1  UNL d   1       2.581  -5.229  -1.007  0.00  0.00    -0.096 F 
ATOM      9  I   UNL d   1       5.644  -4.712  -0.237  0.00  0.00    -0.060 I 
ATOM     10  F2  UNL d   1       5.323  -1.579   0.334  0.00  0.00    -0.096 F 
ATOM     11  F3  UNL d   1       3.173   0.062   0.203  0.00  0.00    -0.097 F 
ATOM     12  F4  UNL d   1       0.733  -0.916  -0.526  0.00  0.00    -0.092 F 
ENDROOT
TORSDOF 0
ENDMDL
