MODEL 1
REMARK minimizedAffinity 15.5460882
REMARK minimizedRMSD -1
REMARK  0 active torsions:
REMARK  status: ('A' for Active; 'I' for Inactive)
ROOT
ATOM      1  C   UNL d   1      -0.565   2.349   1.569  0.00  0.00     0.124 A 
ATOM      2  C1  UNL d   1      -0.044   2.093   0.308  0.00  0.00     0.062 A 
ATOM      3  C2  UNL d   1      -0.778   2.411  -0.831  0.00  0.00     0.162 A 
ATOM      4  C3  UNL d   1      -2.042   2.991  -0.715  0.00  0.00    -0.034 A 
ATOM      5  C4  UNL d   1      -2.560   3.244   0.557  0.00  0.00     0.162 A 
ATOM      6  C5  UNL d   1      -1.822   2.924   1.692  0.00  0.00     0.062 A 
ATOM      7  F   UNL d   1      -2.327   3.172   2.909  0.00  0.00    -0.097 F 
ATOM      8  F1  UNL d   1      -3.771   3.801   0.705  0.00  0.00    -0.096 F 
ATOM      9  I   UNL d   1      -3.142   3.468  -2.415  0.00  0.00    -0.060 I 
ATOM     10  F2  UNL d   1      -0.250   2.153  -2.036  0.00  0.00    -0.096 F 
ATOM     11  F3  UNL d   1       1.170   1.536   0.186  0.00  0.00    -0.097 F 
ATOM     12  F4  UNL d   1       0.143   2.041   2.663  0.00  0.00    -0.092 F 
ENDROOT
TORSDOF 0
ENDMDL
