MODEL 1
REMARK minimizedAffinity 15.2083235
REMARK minimizedRMSD -1
REMARK  0 active torsions:
REMARK  status: ('A' for Active; 'I' for Inactive)
ROOT
ATOM      1  C   UNL d   1      -4.375   1.587   0.118  0.00  0.00     0.124 A 
ATOM      2  C1  UNL d   1      -3.686   2.471   0.937  0.00  0.00     0.062 A 
ATOM      3  C2  UNL d   1      -2.392   2.864   0.611  0.00  0.00     0.162 A 
ATOM      4  C3  UNL d   1      -1.777   2.375  -0.542  0.00  0.00    -0.034 A 
ATOM      5  C4  UNL d   1      -2.475   1.486  -1.361  0.00  0.00     0.162 A 
ATOM      6  C5  UNL d   1      -3.769   1.095  -1.030  0.00  0.00     0.062 A 
ATOM      7  F   UNL d   1      -4.432   0.241  -1.823  0.00  0.00    -0.097 F 
ATOM      8  F1  UNL d   1      -1.914   0.996  -2.476  0.00  0.00    -0.096 F 
ATOM      9  I   UNL d   1       0.159   2.961  -1.034  0.00  0.00    -0.060 I 
ATOM     10  F2  UNL d   1      -1.750   3.719   1.421  0.00  0.00    -0.096 F 
ATOM     11  F3  UNL d   1      -4.269   2.946   2.047  0.00  0.00    -0.097 F 
ATOM     12  F4  UNL d   1      -5.620   1.209   0.435  0.00  0.00    -0.092 F 
ENDROOT
TORSDOF 0
ENDMDL
