MODEL 1
REMARK minimizedAffinity -5.69599295
REMARK minimizedRMSD -1
REMARK  3 active torsions:
REMARK  status: ('A' for Active; 'I' for Inactive)
REMARK    1  A    between atoms: C3'_2  and  C2'_3 
REMARK    2  A    between atoms: C2'_3  and  C1'_4 
REMARK    3  A    between atoms: C1'_4  and  C1_5 
ROOT
ATOM      1  C1  N4B d   1       0.100   0.199  -0.018  0.00  0.00    -0.075 A 
ATOM      2  C2  N4B d   1       1.074  -0.819   0.081  0.00  0.00     0.002 A 
ATOM      3  C3  N4B d   1       2.374  -0.498   0.384  0.00  0.00     0.002 A 
ATOM      4  C4  N4B d   1       2.726   0.829   0.574  0.00  0.00    -0.004 A 
ATOM      5  C5  N4B d   1       1.774   1.804   0.502  0.00  0.00     0.002 A 
ATOM      6  C6  N4B d   1       0.463   1.496   0.202  0.00  0.00     0.002 A 
ENDROOT
BRANCH   1   7
ATOM      7  C1' N4B d   1      -1.317  -0.095  -0.431  0.00  0.00     0.057 C 
BRANCH   7   8
ATOM      8  C2' N4B d   1      -1.309  -0.775  -1.797  0.00  0.00     0.009 C 
BRANCH   8   9
ATOM      9  C3' N4B d   1      -2.199  -0.055  -2.796  0.00  0.00     0.004 C 
ATOM     10  C4' N4B d   1      -3.321   0.693  -2.140  0.00  0.00     0.003 C 
ENDBRANCH   8   9
ENDBRANCH   7   8
ENDBRANCH   1   7
TORSDOF 3
ENDMDL
