MODEL 1
REMARK minimizedAffinity -5.07169342
REMARK minimizedRMSD -1
REMARK  3 active torsions:
REMARK  status: ('A' for Active; 'I' for Inactive)
REMARK    1  A    between atoms: C3'_2  and  C2'_3 
REMARK    2  A    between atoms: C2'_3  and  C1'_4 
REMARK    3  A    between atoms: C1'_4  and  C1_5 
ROOT
ATOM      1  C1  N4B d   1       0.602   0.007   0.408  0.00  0.00    -0.075 A 
ATOM      2  C2  N4B d   1       1.770   0.723   0.751  0.00  0.00     0.002 A 
ATOM      3  C3  N4B d   1       2.714   0.146   1.565  0.00  0.00     0.002 A 
ATOM      4  C4  N4B d   1       2.504  -1.132   2.061  0.00  0.00    -0.004 A 
ATOM      5  C5  N4B d   1       1.385  -1.826   1.704  0.00  0.00     0.002 A 
ATOM      6  C6  N4B d   1       0.430  -1.260   0.884  0.00  0.00     0.002 A 
ENDROOT
BRANCH   1   7
ATOM      7  C1' N4B d   1      -0.498   0.628  -0.409  0.00  0.00     0.057 C 
BRANCH   7   8
ATOM      8  C2' N4B d   1      -1.718  -0.288  -0.384  0.00  0.00     0.009 C 
BRANCH   8   9
ATOM      9  C3' N4B d   1      -2.693   0.035  -1.503  0.00  0.00     0.004 C 
ATOM     10  C4' N4B d   1      -2.593   1.457  -1.969  0.00  0.00     0.003 C 
ENDBRANCH   8   9
ENDBRANCH   7   8
ENDBRANCH   1   7
TORSDOF 3
ENDMDL
