MODEL 1
REMARK minimizedAffinity -5.75404739
REMARK minimizedRMSD -1
REMARK  3 active torsions:
REMARK  status: ('A' for Active; 'I' for Inactive)
REMARK    1  A    between atoms: C3'_2  and  C2'_3 
REMARK    2  A    between atoms: C2'_3  and  C1'_4 
REMARK    3  A    between atoms: C1'_4  and  C1_5 
ROOT
ATOM      1  C1  N4B d   1       0.748  -0.678   0.387  0.00  0.00    -0.075 A 
ATOM      2  C2  N4B d   1       1.456  -1.452   1.333  0.00  0.00     0.002 A 
ATOM      3  C3  N4B d   1       2.721  -1.078   1.717  0.00  0.00     0.002 A 
ATOM      4  C4  N4B d   1       3.303   0.049   1.156  0.00  0.00    -0.004 A 
ATOM      5  C5  N4B d   1       2.602   0.805   0.262  0.00  0.00     0.002 A 
ATOM      6  C6  N4B d   1       1.329   0.444  -0.129  0.00  0.00     0.002 A 
ENDROOT
BRANCH   1   7
ATOM      7  C1' N4B d   1      -0.603  -1.094  -0.127  0.00  0.00     0.057 C 
BRANCH   7   8
ATOM      8  C2' N4B d   1      -1.376   0.146  -0.565  0.00  0.00     0.009 C 
BRANCH   8   9
ATOM      9  C3' N4B d   1      -2.313  -0.148  -1.724  0.00  0.00     0.004 C 
ATOM     10  C4' N4B d   1      -3.097   1.055  -2.156  0.00  0.00     0.003 C 
ENDBRANCH   8   9
ENDBRANCH   7   8
ENDBRANCH   1   7
TORSDOF 3
ENDMDL
