MODEL 1
REMARK minimizedAffinity -6.00975561
REMARK minimizedRMSD -1
REMARK  3 active torsions:
REMARK  status: ('A' for Active; 'I' for Inactive)
REMARK    1  A    between atoms: C3'_2  and  C2'_3 
REMARK    2  A    between atoms: C2'_3  and  C1'_4 
REMARK    3  A    between atoms: C1'_4  and  C1_5 
ROOT
ATOM      1  C1  N4B d   1       0.341  -0.063   0.280  0.00  0.00    -0.075 A 
ATOM      2  C2  N4B d   1       0.860   1.099   0.894  0.00  0.00     0.002 A 
ATOM      3  C3  N4B d   1       2.186   1.153   1.249  0.00  0.00     0.002 A 
ATOM      4  C4  N4B d   1       3.003   0.057   1.020  0.00  0.00    -0.004 A 
ATOM      5  C5  N4B d   1       2.500  -1.052   0.403  0.00  0.00     0.002 A 
ATOM      6  C6  N4B d   1       1.171  -1.119   0.037  0.00  0.00     0.002 A 
ENDROOT
BRANCH   1   7
ATOM      7  C1' N4B d   1      -1.120  -0.201  -0.048  0.00  0.00     0.057 C 
BRANCH   7   8
ATOM      8  C2' N4B d   1      -1.433   0.619  -1.296  0.00  0.00     0.009 C 
BRANCH   8   9
ATOM      9  C3' N4B d   1      -2.798   0.281  -1.871  0.00  0.00     0.004 C 
ATOM     10  C4' N4B d   1      -2.721  -0.664  -3.033  0.00  0.00     0.003 C 
ENDBRANCH   8   9
ENDBRANCH   7   8
ENDBRANCH   1   7
TORSDOF 3
ENDMDL
