MODEL 1
REMARK minimizedAffinity 5.12902975
REMARK minimizedRMSD -1
REMARK  0 active torsions:
REMARK  status: ('A' for Active; 'I' for Inactive)
ROOT
ATOM      1  C   UNL d   1       1.927   1.522   4.023  0.00  0.00     0.172 C 
ATOM      2  N   UNL d   1       1.388   0.326   3.420  0.00  0.00    -0.070 N 
ATOM      3  C1  UNL d   1       0.059   0.008   3.326  0.00  0.00    -0.004 A 
ATOM      4  C2  UNL d   1      -0.039  -1.209   2.687  0.00  0.00    -0.047 A 
ATOM      5  C3  UNL d   1       1.275  -1.638   2.386  0.00  0.00    -0.047 A 
ATOM      6  C4  UNL d   1       2.139  -0.669   2.851  0.00  0.00    -0.004 A 
ENDROOT
TORSDOF 0
ENDMDL
