MODEL 1
REMARK minimizedAffinity -3.19723964
REMARK minimizedRMSD -1
REMARK  0 active torsions:
REMARK  status: ('A' for Active; 'I' for Inactive)
ROOT
ATOM      1  C   UNL d   1      -1.079  -0.767   0.613  0.00  0.00     0.172 C 
ATOM      2  N   UNL d   1       0.128  -0.735   1.404  0.00  0.00    -0.070 N 
ATOM      3  C1  UNL d   1       0.330  -1.406   2.581  0.00  0.00    -0.004 A 
ATOM      4  C2  UNL d   1       1.604  -1.117   3.019  0.00  0.00    -0.047 A 
ATOM      5  C3  UNL d   1       2.188  -0.241   2.073  0.00  0.00    -0.047 A 
ATOM      6  C4  UNL d   1       1.253  -0.021   1.084  0.00  0.00    -0.004 A 
ENDROOT
TORSDOF 0
ENDMDL
