MODEL 1
REMARK minimizedAffinity 0.157906234
REMARK minimizedRMSD -1
REMARK  0 active torsions:
REMARK  status: ('A' for Active; 'I' for Inactive)
ROOT
ATOM      1  C   UNL d   1       5.999  -0.488   0.076  0.00  0.00     0.172 C 
ATOM      2  N   UNL d   1       5.367   0.731   0.525  0.00  0.00    -0.070 N 
ATOM      3  C1  UNL d   1       6.000   1.780   1.137  0.00  0.00    -0.004 A 
ATOM      4  C2  UNL d   1       5.054   2.744   1.407  0.00  0.00    -0.047 A 
ATOM      5  C3  UNL d   1       3.809   2.258   0.941  0.00  0.00    -0.047 A 
ATOM      6  C4  UNL d   1       4.032   1.010   0.400  0.00  0.00    -0.004 A 
ENDROOT
TORSDOF 0
ENDMDL
