MODEL 1
REMARK minimizedAffinity -1.39733434
REMARK minimizedRMSD -1
REMARK  0 active torsions:
REMARK  status: ('A' for Active; 'I' for Inactive)
ROOT
ATOM      1  C   UNL d   1       1.458  -4.536   1.508  0.00  0.00     0.172 C 
ATOM      2  N   UNL d   1       0.384  -3.767   2.090  0.00  0.00    -0.070 N 
ATOM      3  C1  UNL d   1      -0.716  -4.283   2.722  0.00  0.00    -0.004 A 
ATOM      4  C2  UNL d   1      -1.500  -3.227   3.135  0.00  0.00    -0.047 A 
ATOM      5  C3  UNL d   1      -0.849  -2.035   2.736  0.00  0.00    -0.047 A 
ATOM      6  C4  UNL d   1       0.315  -2.399   2.092  0.00  0.00    -0.004 A 
ENDROOT
TORSDOF 0
ENDMDL
