MODEL 1
REMARK minimizedAffinity 0.510320246
REMARK minimizedRMSD -1
REMARK  0 active torsions:
REMARK  status: ('A' for Active; 'I' for Inactive)
ROOT
ATOM      1  C   UNL d   1       1.302  -2.948   1.348  0.00  0.00     0.172 C 
ATOM      2  N   UNL d   1       0.515  -1.745   1.481  0.00  0.00    -0.070 N 
ATOM      3  C1  UNL d   1      -0.331  -1.454   2.518  0.00  0.00    -0.004 A 
ATOM      4  C2  UNL d   1      -0.889  -0.218   2.273  0.00  0.00    -0.047 A 
ATOM      5  C3  UNL d   1      -0.361   0.250   1.046  0.00  0.00    -0.047 A 
ATOM      6  C4  UNL d   1       0.505  -0.715   0.577  0.00  0.00    -0.004 A 
ENDROOT
TORSDOF 0
ENDMDL
