MODEL 1
REMARK minimizedAffinity 1.98968136
REMARK minimizedRMSD -1
REMARK  0 active torsions:
REMARK  status: ('A' for Active; 'I' for Inactive)
ROOT
ATOM      1  C   UNL d   1       3.356   5.923   2.493  0.00  0.00     0.172 C 
ATOM      2  N   UNL d   1       2.732   5.941   3.795  0.00  0.00    -0.070 N 
ATOM      3  C1  UNL d   1       3.388   5.901   4.996  0.00  0.00    -0.004 A 
ATOM      4  C2  UNL d   1       2.441   5.936   5.997  0.00  0.00    -0.047 A 
ATOM      5  C3  UNL d   1       1.171   5.998   5.375  0.00  0.00    -0.047 A 
ATOM      6  C4  UNL d   1       1.380   5.999   4.012  0.00  0.00    -0.004 A 
ENDROOT
TORSDOF 0
ENDMDL
