MODEL 1
REMARK minimizedAffinity 2.25684118
REMARK minimizedRMSD -1
REMARK  0 active torsions:
REMARK  status: ('A' for Active; 'I' for Inactive)
ROOT
ATOM      1  C   UNL d   1       0.612  -1.188   0.085  0.00  0.00     0.172 C 
ATOM      2  N   UNL d   1      -0.465  -0.776   0.954  0.00  0.00    -0.070 N 
ATOM      3  C1  UNL d   1      -0.451  -0.827   2.322  0.00  0.00    -0.004 A 
ATOM      4  C2  UNL d   1      -1.661  -0.347   2.775  0.00  0.00    -0.047 A 
ATOM      5  C3  UNL d   1      -2.429   0.004   1.639  0.00  0.00    -0.047 A 
ATOM      6  C4  UNL d   1      -1.665  -0.272   0.525  0.00  0.00    -0.004 A 
ENDROOT
TORSDOF 0
ENDMDL
