MODEL 1
REMARK minimizedAffinity 4.13297415
REMARK minimizedRMSD -1
REMARK  0 active torsions:
REMARK  status: ('A' for Active; 'I' for Inactive)
ROOT
ATOM      1  C   UNL d   1      -0.400  -0.492   2.292  0.00  0.00     0.172 C 
ATOM      2  N   UNL d   1      -0.339  -1.915   2.534  0.00  0.00    -0.070 N 
ATOM      3  C1  UNL d   1      -1.262  -2.645   3.234  0.00  0.00    -0.004 A 
ATOM      4  C2  UNL d   1      -0.844  -3.959   3.239  0.00  0.00    -0.047 A 
ATOM      5  C3  UNL d   1       0.372  -4.019   2.519  0.00  0.00    -0.047 A 
ATOM      6  C4  UNL d   1       0.662  -2.740   2.094  0.00  0.00    -0.004 A 
ENDROOT
TORSDOF 0
ENDMDL
