MODEL 1
REMARK minimizedAffinity -2.04566407
REMARK minimizedRMSD -1
REMARK  0 active torsions:
REMARK  status: ('A' for Active; 'I' for Inactive)
ROOT
ATOM      1  C   UNL d   1       1.971  -0.003  -0.742  0.00  0.00     0.172 C 
ATOM      2  N   UNL d   1       0.972  -0.158   0.289  0.00  0.00    -0.070 N 
ATOM      3  C1  UNL d   1       1.190  -0.039   1.636  0.00  0.00    -0.004 A 
ATOM      4  C2  UNL d   1      -0.010  -0.257   2.278  0.00  0.00    -0.047 A 
ATOM      5  C3  UNL d   1      -0.982  -0.516   1.283  0.00  0.00    -0.047 A 
ATOM      6  C4  UNL d   1      -0.347  -0.449   0.061  0.00  0.00    -0.004 A 
ENDROOT
TORSDOF 0
ENDMDL
