MODEL 1
REMARK minimizedAffinity -2.4114697
REMARK minimizedRMSD -1
REMARK  0 active torsions:
REMARK  status: ('A' for Active; 'I' for Inactive)
ROOT
ATOM      1  C4' PXY d   1       5.970   3.920  -6.000  0.00  0.00     0.077 C 
ATOM      2  C1' PXY d   1       0.356   4.945  -5.082  0.00  0.00     0.077 C 
ATOM      3  C1  PXY d   1       1.828   4.667  -5.314  0.00  0.00    -0.082 A 
ATOM      4  C2  PXY d   1       2.615   5.635  -5.754  0.00  0.00     0.003 A 
ATOM      5  C3  PXY d   1       3.942   5.391  -6.000  0.00  0.00     0.003 A 
ATOM      6  C4  PXY d   1       4.480   4.159  -5.742  0.00  0.00    -0.082 A 
ATOM      7  C5  PXY d   1       3.685   3.169  -5.283  0.00  0.00     0.003 A 
ATOM      8  C6  PXY d   1       2.332   3.425  -5.079  0.00  0.00     0.003 A 
ENDROOT
TORSDOF 0
ENDMDL
