MODEL 1
REMARK minimizedAffinity -1.96204019
REMARK minimizedRMSD -1
REMARK  0 active torsions:
REMARK  status: ('A' for Active; 'I' for Inactive)
ROOT
ATOM      1  C4' PXY d   1       0.503   4.847  -5.511  0.00  0.00     0.077 C 
ATOM      2  C1' PXY d   1       5.998   3.124  -5.999  0.00  0.00     0.077 C 
ATOM      3  C1  PXY d   1       4.553   3.564  -5.874  0.00  0.00    -0.082 A 
ATOM      4  C2  PXY d   1       4.246   4.845  -5.998  0.00  0.00     0.003 A 
ATOM      5  C3  PXY d   1       2.949   5.264  -5.856  0.00  0.00     0.003 A 
ATOM      6  C4  PXY d   1       1.947   4.357  -5.638  0.00  0.00    -0.082 A 
ATOM      7  C5  PXY d   1       2.251   3.046  -5.522  0.00  0.00     0.003 A 
ATOM      8  C6  PXY d   1       3.579   2.646  -5.628  0.00  0.00     0.003 A 
ENDROOT
TORSDOF 0
ENDMDL
