MODEL 1
REMARK minimizedAffinity -2.66906095
REMARK minimizedRMSD -1
REMARK  0 active torsions:
REMARK  status: ('A' for Active; 'I' for Inactive)
ROOT
ATOM      1  C4' PXY d   1       6.000   3.070  -5.652  0.00  0.00     0.077 C 
ATOM      2  C1' PXY d   1       0.363   4.324  -5.390  0.00  0.00     0.077 C 
ATOM      3  C1  PXY d   1       1.840   3.986  -5.450  0.00  0.00    -0.082 A 
ATOM      4  C2  PXY d   1       2.698   4.884  -5.905  0.00  0.00     0.003 A 
ATOM      5  C3  PXY d   1       4.033   4.584  -5.996  0.00  0.00     0.003 A 
ATOM      6  C4  PXY d   1       4.501   3.371  -5.565  0.00  0.00    -0.082 A 
ATOM      7  C5  PXY d   1       3.633   2.454  -5.089  0.00  0.00     0.003 A 
ATOM      8  C6  PXY d   1       2.276   2.763  -5.044  0.00  0.00     0.003 A 
ENDROOT
TORSDOF 0
ENDMDL
