MODEL 1
REMARK minimizedAffinity -0.514360428
REMARK minimizedRMSD -1
REMARK  0 active torsions:
REMARK  status: ('A' for Active; 'I' for Inactive)
ROOT
ATOM      1  C4' PXY d   1       6.000  -0.752   2.639  0.00  0.00     0.077 C 
ATOM      2  C1' PXY d   1       1.953   3.095   1.144  0.00  0.00     0.077 C 
ATOM      3  C1  PXY d   1       3.023   2.093   1.529  0.00  0.00    -0.082 A 
ATOM      4  C2  PXY d   1       2.675   0.862   1.867  0.00  0.00     0.003 A 
ATOM      5  C3  PXY d   1       3.627  -0.048   2.249  0.00  0.00     0.003 A 
ATOM      6  C4  PXY d   1       4.954   0.290   2.234  0.00  0.00    -0.082 A 
ATOM      7  C5  PXY d   1       5.318   1.541   1.880  0.00  0.00     0.003 A 
ATOM      8  C6  PXY d   1       4.333   2.462   1.535  0.00  0.00     0.003 A 
ENDROOT
TORSDOF 0
ENDMDL
