MODEL 1
REMARK minimizedAffinity -1.28733432
REMARK minimizedRMSD -1
REMARK  0 active torsions:
REMARK  status: ('A' for Active; 'I' for Inactive)
ROOT
ATOM      1  C4' PXY d   1       0.410   6.000  -5.888  0.00  0.00     0.077 C 
ATOM      2  C1' PXY d   1       5.405   3.093  -6.000  0.00  0.00     0.077 C 
ATOM      3  C1  PXY d   1       4.101   3.866  -5.965  0.00  0.00    -0.082 A 
ATOM      4  C2  PXY d   1       2.953   3.210  -5.915  0.00  0.00     0.003 A 
ATOM      5  C3  PXY d   1       1.764   3.892  -5.916  0.00  0.00     0.003 A 
ATOM      6  C4  PXY d   1       1.751   5.261  -5.914  0.00  0.00    -0.082 A 
ATOM      7  C5  PXY d   1       2.918   5.938  -5.955  0.00  0.00     0.003 A 
ATOM      8  C6  PXY d   1       4.113   5.226  -5.995  0.00  0.00     0.003 A 
ENDROOT
TORSDOF 0
ENDMDL
