MODEL 1
REMARK minimizedAffinity 0.733276427
REMARK minimizedRMSD -1
REMARK  0 active torsions:
REMARK  status: ('A' for Active; 'I' for Inactive)
ROOT
ATOM      1  C4' PXY d   1       5.984   5.988  -5.995  0.00  0.00     0.077 C 
ATOM      2  C1' PXY d   1       3.222   0.923  -5.630  0.00  0.00     0.077 C 
ATOM      3  C1  PXY d   1       3.936   2.257  -5.729  0.00  0.00    -0.082 A 
ATOM      4  C2  PXY d   1       5.242   2.287  -5.939  0.00  0.00     0.003 A 
ATOM      5  C3  PXY d   1       5.907   3.484  -6.000  0.00  0.00     0.003 A 
ATOM      6  C4  PXY d   1       5.221   4.664  -5.897  0.00  0.00    -0.082 A 
ATOM      7  C5  PXY d   1       3.887   4.643  -5.693  0.00  0.00     0.003 A 
ATOM      8  C6  PXY d   1       3.236   3.416  -5.594  0.00  0.00     0.003 A 
ENDROOT
TORSDOF 0
ENDMDL
