MODEL 1
REMARK minimizedAffinity -1.57853496
REMARK minimizedRMSD -1
REMARK  0 active torsions:
REMARK  status: ('A' for Active; 'I' for Inactive)
ROOT
ATOM      1  C4' PXY d   1       4.528   1.508  -4.870  0.00  0.00     0.077 C 
ATOM      2  C1' PXY d   1       1.070   6.000  -6.000  0.00  0.00     0.077 C 
ATOM      3  C1  PXY d   1       1.987   4.830  -5.704  0.00  0.00    -0.082 A 
ATOM      4  C2  PXY d   1       1.590   3.600  -5.987  0.00  0.00     0.003 A 
ATOM      5  C3  PXY d   1       2.394   2.527  -5.696  0.00  0.00     0.003 A 
ATOM      6  C4  PXY d   1       3.639   2.720  -5.160  0.00  0.00    -0.082 A 
ATOM      7  C5  PXY d   1       4.056   3.973  -4.879  0.00  0.00     0.003 A 
ATOM      8  C6  PXY d   1       3.208   5.045  -5.143  0.00  0.00     0.003 A 
ENDROOT
TORSDOF 0
ENDMDL
