MODEL 1
REMARK minimizedAffinity -0.832132459
REMARK minimizedRMSD -1
REMARK  0 active torsions:
REMARK  status: ('A' for Active; 'I' for Inactive)
ROOT
ATOM      1  C4' PXY d   1      -0.258   5.034  -5.955  0.00  0.00     0.077 C 
ATOM      2  C1' PXY d   1       5.488   4.405  -6.000  0.00  0.00     0.077 C 
ATOM      3  C1  PXY d   1       3.982   4.582  -5.983  0.00  0.00    -0.082 A 
ATOM      4  C2  PXY d   1       3.199   3.516  -5.976  0.00  0.00     0.003 A 
ATOM      5  C3  PXY d   1       1.835   3.658  -5.993  0.00  0.00     0.003 A 
ATOM      6  C4  PXY d   1       1.267   4.903  -5.963  0.00  0.00    -0.082 A 
ATOM      7  C5  PXY d   1       2.060   5.996  -5.959  0.00  0.00     0.003 A 
ATOM      8  C6  PXY d   1       3.442   5.831  -5.983  0.00  0.00     0.003 A 
ENDROOT
TORSDOF 0
ENDMDL
