MODEL 1
REMARK minimizedAffinity -0.31078887
REMARK minimizedRMSD -1
REMARK  0 active torsions:
REMARK  status: ('A' for Active; 'I' for Inactive)
ROOT
ATOM      1  C4' PXY d   1       5.854   3.316  -5.857  0.00  0.00     0.077 C 
ATOM      2  C1' PXY d   1       0.730   5.989  -5.968  0.00  0.00     0.077 C 
ATOM      3  C1  PXY d   1       2.068   5.278  -5.933  0.00  0.00    -0.082 A 
ATOM      4  C2  PXY d   1       3.186   5.984  -5.996  0.00  0.00     0.003 A 
ATOM      5  C3  PXY d   1       4.404   5.354  -5.997  0.00  0.00     0.003 A 
ATOM      6  C4  PXY d   1       4.480   3.992  -5.880  0.00  0.00    -0.082 A 
ATOM      7  C5  PXY d   1       3.345   3.266  -5.805  0.00  0.00     0.003 A 
ATOM      8  C6  PXY d   1       2.117   3.921  -5.846  0.00  0.00     0.003 A 
ENDROOT
TORSDOF 0
ENDMDL
