MODEL 1
REMARK minimizedAffinity -0.218673095
REMARK minimizedRMSD -1
REMARK  0 active torsions:
REMARK  status: ('A' for Active; 'I' for Inactive)
ROOT
ATOM      1  C4' PXY d   1       5.999   3.330  -6.000  0.00  0.00     0.077 C 
ATOM      2  C1' PXY d   1       0.470   4.851  -5.273  0.00  0.00     0.077 C 
ATOM      3  C1  PXY d   1       1.918   4.442  -5.456  0.00  0.00    -0.082 A 
ATOM      4  C2  PXY d   1       2.816   5.351  -5.799  0.00  0.00     0.003 A 
ATOM      5  C3  PXY d   1       4.124   4.992  -6.000  0.00  0.00     0.003 A 
ATOM      6  C4  PXY d   1       4.528   3.700  -5.795  0.00  0.00    -0.082 A 
ATOM      7  C5  PXY d   1       3.620   2.769  -5.434  0.00  0.00     0.003 A 
ATOM      8  C6  PXY d   1       2.289   3.145  -5.276  0.00  0.00     0.003 A 
ENDROOT
TORSDOF 0
ENDMDL
