MODEL 1
REMARK minimizedAffinity -2.77678347
REMARK minimizedRMSD -1
REMARK  0 active torsions:
REMARK  status: ('A' for Active; 'I' for Inactive)
ROOT
ATOM      1  C4' PXY d   1       0.229   4.418  -5.998  0.00  0.00     0.077 C 
ATOM      2  C1' PXY d   1       5.999   4.764  -5.979  0.00  0.00     0.077 C 
ATOM      3  C1  PXY d   1       4.487   4.661  -5.989  0.00  0.00    -0.082 A 
ATOM      4  C2  PXY d   1       3.756   5.764  -5.997  0.00  0.00     0.003 A 
ATOM      5  C3  PXY d   1       2.388   5.690  -5.974  0.00  0.00     0.003 A 
ATOM      6  C4  PXY d   1       1.759   4.474  -5.997  0.00  0.00    -0.082 A 
ATOM      7  C5  PXY d   1       2.498   3.343  -6.000  0.00  0.00     0.003 A 
ATOM      8  C6  PXY d   1       3.886   3.440  -5.981  0.00  0.00     0.003 A 
ENDROOT
TORSDOF 0
ENDMDL
