MODEL 1
REMARK minimizedAffinity 0.635298789
REMARK minimizedRMSD -1
REMARK  0 active torsions:
REMARK  status: ('A' for Active; 'I' for Inactive)
ROOT
ATOM      1  C4' PXY d   1       5.792   1.879  -6.000  0.00  0.00     0.077 C 
ATOM      2  C1' PXY d   1       1.130   5.298  -5.973  0.00  0.00     0.077 C 
ATOM      3  C1  PXY d   1       2.346   4.392  -5.975  0.00  0.00    -0.082 A 
ATOM      4  C2  PXY d   1       3.557   4.923  -5.961  0.00  0.00     0.003 A 
ATOM      5  C3  PXY d   1       4.667   4.118  -5.995  0.00  0.00     0.003 A 
ATOM      6  C4  PXY d   1       4.536   2.756  -5.989  0.00  0.00    -0.082 A 
ATOM      7  C5  PXY d   1       3.303   2.206  -5.993  0.00  0.00     0.003 A 
ATOM      8  C6  PXY d   1       2.189   3.040  -6.000  0.00  0.00     0.003 A 
ENDROOT
TORSDOF 0
ENDMDL
