MODEL 1
REMARK minimizedAffinity -1.39951384
REMARK minimizedRMSD -1
REMARK  0 active torsions:
REMARK  status: ('A' for Active; 'I' for Inactive)
ROOT
ATOM      1  C4' PXY d   1       0.715   3.345  -5.928  0.00  0.00     0.077 C 
ATOM      2  C1' PXY d   1       5.860   5.978  -6.000  0.00  0.00     0.077 C 
ATOM      3  C1  PXY d   1       4.516   5.277  -5.987  0.00  0.00    -0.082 A 
ATOM      4  C2  PXY d   1       3.405   5.994  -5.954  0.00  0.00     0.003 A 
ATOM      5  C3  PXY d   1       2.182   5.376  -5.909  0.00  0.00     0.003 A 
ATOM      6  C4  PXY d   1       2.094   4.010  -5.952  0.00  0.00    -0.082 A 
ATOM      7  C5  PXY d   1       3.223   3.272  -5.996  0.00  0.00     0.003 A 
ATOM      8  C6  PXY d   1       4.456   3.918  -5.999  0.00  0.00     0.003 A 
ENDROOT
TORSDOF 0
ENDMDL
