MODEL 1
REMARK minimizedAffinity 14.1092539
REMARK minimizedRMSD -1
REMARK  0 active torsions:
REMARK  status: ('A' for Active; 'I' for Inactive)
ROOT
ATOM      1  C4' PXY d   1       0.469  -2.822   0.536  0.00  0.00     0.077 C 
ATOM      2  C1' PXY d   1      -2.741  -2.244  -4.237  0.00  0.00     0.077 C 
ATOM      3  C1  PXY d   1      -1.900  -2.382  -2.983  0.00  0.00    -0.082 A 
ATOM      4  C2  PXY d   1      -1.110  -3.434  -2.838  0.00  0.00     0.003 A 
ATOM      5  C3  PXY d   1      -0.367  -3.591  -1.697  0.00  0.00     0.003 A 
ATOM      6  C4  PXY d   1      -0.391  -2.636  -0.717  0.00  0.00    -0.082 A 
ATOM      7  C5  PXY d   1      -1.186  -1.554  -0.862  0.00  0.00     0.003 A 
ATOM      8  C6  PXY d   1      -1.964  -1.434  -2.010  0.00  0.00     0.003 A 
ENDROOT
TORSDOF 0
ENDMDL
