MODEL 1
REMARK minimizedAffinity 6.8359437
REMARK minimizedRMSD -1
REMARK  0 active torsions:
REMARK  status: ('A' for Active; 'I' for Inactive)
ROOT
ATOM      1  C4' PXY d   1       0.061   2.300   2.959  0.00  0.00     0.077 C 
ATOM      2  C1' PXY d   1      -3.366   5.381  -0.531  0.00  0.00     0.077 C 
ATOM      3  C1  PXY d   1      -2.475   4.576   0.394  0.00  0.00    -0.082 A 
ATOM      4  C2  PXY d   1      -1.214   4.357   0.061  0.00  0.00     0.003 A 
ATOM      5  C3  PXY d   1      -0.403   3.604   0.870  0.00  0.00     0.003 A 
ATOM      6  C4  PXY d   1      -0.873   3.115   2.060  0.00  0.00    -0.082 A 
ATOM      7  C5  PXY d   1      -2.156   3.343   2.412  0.00  0.00     0.003 A 
ATOM      8  C6  PXY d   1      -2.974   4.075   1.557  0.00  0.00     0.003 A 
ENDROOT
TORSDOF 0
ENDMDL
