MODEL 1
REMARK minimizedAffinity 3.1366632
REMARK minimizedRMSD -1
REMARK  0 active torsions:
REMARK  status: ('A' for Active; 'I' for Inactive)
ROOT
ATOM      1  C4' PXY d   1      -1.009   2.546   2.803  0.00  0.00     0.077 C 
ATOM      2  C1' PXY d   1       4.167   0.343   1.474  0.00  0.00     0.077 C 
ATOM      3  C1  PXY d   1       2.815   0.932   1.821  0.00  0.00    -0.082 A 
ATOM      4  C2  PXY d   1       1.942   0.210   2.505  0.00  0.00     0.003 A 
ATOM      5  C3  PXY d   1       0.703   0.716   2.800  0.00  0.00     0.003 A 
ATOM      6  C4  PXY d   1       0.372   1.994   2.438  0.00  0.00    -0.082 A 
ATOM      7  C5  PXY d   1       1.261   2.742   1.749  0.00  0.00     0.003 A 
ATOM      8  C6  PXY d   1       2.498   2.195   1.424  0.00  0.00     0.003 A 
ENDROOT
TORSDOF 0
ENDMDL
