MODEL 1
REMARK minimizedAffinity -2.32728124
REMARK minimizedRMSD -1
REMARK  0 active torsions:
REMARK  status: ('A' for Active; 'I' for Inactive)
ROOT
ATOM      1  C4' PXY d   1       3.309   5.872  -5.700  0.00  0.00     0.077 C 
ATOM      2  C1' PXY d   1       6.000   0.757  -5.773  0.00  0.00     0.077 C 
ATOM      3  C1  PXY d   1       5.285   2.094  -5.762  0.00  0.00    -0.082 A 
ATOM      4  C2  PXY d   1       5.968   3.199  -5.511  0.00  0.00     0.003 A 
ATOM      5  C3  PXY d   1       5.331   4.412  -5.466  0.00  0.00     0.003 A 
ATOM      6  C4  PXY d   1       3.991   4.502  -5.732  0.00  0.00    -0.082 A 
ATOM      7  C5  PXY d   1       3.289   3.380  -5.999  0.00  0.00     0.003 A 
ATOM      8  C6  PXY d   1       3.946   2.153  -6.000  0.00  0.00     0.003 A 
ENDROOT
TORSDOF 0
ENDMDL
