MODEL 1
REMARK minimizedAffinity 4.64208078
REMARK minimizedRMSD -1
REMARK  0 active torsions:
REMARK  status: ('A' for Active; 'I' for Inactive)
ROOT
ATOM      1  C4' PXY d   1       1.061  -1.664   0.477  0.00  0.00     0.077 C 
ATOM      2  C1' PXY d   1       3.864   3.378   0.841  0.00  0.00     0.077 C 
ATOM      3  C1  PXY d   1       3.140   2.050   0.748  0.00  0.00    -0.082 A 
ATOM      4  C2  PXY d   1       2.005   1.969   0.073  0.00  0.00     0.003 A 
ATOM      5  C3  PXY d   1       1.320   0.783   0.005  0.00  0.00     0.003 A 
ATOM      6  C4  PXY d   1       1.831  -0.345   0.590  0.00  0.00    -0.082 A 
ATOM      7  C5  PXY d   1       2.994  -0.274   1.271  0.00  0.00     0.003 A 
ATOM      8  C6  PXY d   1       3.652   0.949   1.363  0.00  0.00     0.003 A 
ENDROOT
TORSDOF 0
ENDMDL
