MODEL 1
REMARK minimizedAffinity 3.68576026
REMARK minimizedRMSD -1
REMARK  0 active torsions:
REMARK  status: ('A' for Active; 'I' for Inactive)
ROOT
ATOM      1  C4' PXY d   1       6.000  -0.879   2.615  0.00  0.00     0.077 C 
ATOM      2  C1' PXY d   1       0.632   1.253   2.849  0.00  0.00     0.077 C 
ATOM      3  C1  PXY d   1       2.041   0.696   2.801  0.00  0.00    -0.082 A 
ATOM      4  C2  PXY d   1       2.697   0.676   1.652  0.00  0.00     0.003 A 
ATOM      5  C3  PXY d   1       3.960   0.147   1.583  0.00  0.00     0.003 A 
ATOM      6  C4  PXY d   1       4.578  -0.317   2.713  0.00  0.00    -0.082 A 
ATOM      7  C5  PXY d   1       3.920  -0.291   3.891  0.00  0.00     0.003 A 
ATOM      8  C6  PXY d   1       2.623   0.212   3.931  0.00  0.00     0.003 A 
ENDROOT
TORSDOF 0
ENDMDL
