MODEL 1
REMARK minimizedAffinity -0.118816547
REMARK minimizedRMSD -1
REMARK  0 active torsions:
REMARK  status: ('A' for Active; 'I' for Inactive)
ROOT
ATOM      1  C4' PXY d   1      -1.838  -1.247   0.528  0.00  0.00     0.077 C 
ATOM      2  C1' PXY d   1       3.633   0.141   1.774  0.00  0.00     0.077 C 
ATOM      3  C1  PXY d   1       2.203  -0.231   1.438  0.00  0.00    -0.082 A 
ATOM      4  C2  PXY d   1       1.222   0.605   1.738  0.00  0.00     0.003 A 
ATOM      5  C3  PXY d   1      -0.081   0.270   1.470  0.00  0.00     0.003 A 
ATOM      6  C4  PXY d   1      -0.378  -0.909   0.840  0.00  0.00    -0.082 A 
ATOM      7  C5  PXY d   1       0.619  -1.762   0.521  0.00  0.00     0.003 A 
ATOM      8  C6  PXY d   1       1.930  -1.422   0.839  0.00  0.00     0.003 A 
ENDROOT
TORSDOF 0
ENDMDL
