MODEL 1
REMARK minimizedAffinity 8.91156864
REMARK minimizedRMSD -1
REMARK  0 active torsions:
REMARK  status: ('A' for Active; 'I' for Inactive)
ROOT
ATOM      1  C4' PXY d   1       0.005   6.000  -2.663  0.00  0.00     0.077 C 
ATOM      2  C1' PXY d   1      -0.535   2.383   1.814  0.00  0.00     0.077 C 
ATOM      3  C1  PXY d   1      -0.404   3.338   0.644  0.00  0.00    -0.082 A 
ATOM      4  C2  PXY d   1       0.205   2.940  -0.461  0.00  0.00     0.003 A 
ATOM      5  C3  PXY d   1       0.361   3.801  -1.516  0.00  0.00     0.003 A 
ATOM      6  C4  PXY d   1      -0.159   5.066  -1.461  0.00  0.00    -0.082 A 
ATOM      7  C5  PXY d   1      -0.791   5.477  -0.341  0.00  0.00     0.003 A 
ATOM      8  C6  PXY d   1      -0.902   4.601   0.735  0.00  0.00     0.003 A 
ENDROOT
TORSDOF 0
ENDMDL
