MODEL 1
REMARK minimizedAffinity 4.30910683
REMARK minimizedRMSD -1
REMARK  0 active torsions:
REMARK  status: ('A' for Active; 'I' for Inactive)
ROOT
ATOM      1  C4' PXY d   1      -6.000  -3.681   6.000  0.00  0.00     0.077 C 
ATOM      2  C1' PXY d   1      -3.539  -0.081   2.204  0.00  0.00     0.077 C 
ATOM      3  C1  PXY d   1      -4.192  -1.015   3.205  0.00  0.00    -0.082 A 
ATOM      4  C2  PXY d   1      -3.580  -2.138   3.547  0.00  0.00     0.003 A 
ATOM      5  C3  PXY d   1      -4.170  -3.009   4.426  0.00  0.00     0.003 A 
ATOM      6  C4  PXY d   1      -5.374  -2.704   5.001  0.00  0.00    -0.082 A 
ATOM      7  C5  PXY d   1      -6.000  -1.555   4.665  0.00  0.00     0.003 A 
ATOM      8  C6  PXY d   1      -5.403  -0.704   3.740  0.00  0.00     0.003 A 
ENDROOT
TORSDOF 0
ENDMDL
