MODEL 1
REMARK minimizedAffinity 6.63898754
REMARK minimizedRMSD -1
REMARK  0 active torsions:
REMARK  status: ('A' for Active; 'I' for Inactive)
ROOT
ATOM      1  C4' PXY d   1      -2.241  -0.135   1.126  0.00  0.00     0.077 C 
ATOM      2  C1' PXY d   1       0.915   4.341  -0.722  0.00  0.00     0.077 C 
ATOM      3  C1  PXY d   1       0.094   3.167  -0.226  0.00  0.00    -0.082 A 
ATOM      4  C2  PXY d   1      -0.499   2.368  -1.099  0.00  0.00     0.003 A 
ATOM      5  C3  PXY d   1      -1.271   1.321  -0.667  0.00  0.00     0.003 A 
ATOM      6  C4  PXY d   1      -1.395   1.056   0.670  0.00  0.00    -0.082 A 
ATOM      7  C5  PXY d   1      -0.785   1.860   1.567  0.00  0.00     0.003 A 
ATOM      8  C6  PXY d   1      -0.039   2.943   1.109  0.00  0.00     0.003 A 
ENDROOT
TORSDOF 0
ENDMDL
