MODEL 1
REMARK minimizedAffinity 10.3281536
REMARK minimizedRMSD -1
REMARK  0 active torsions:
REMARK  status: ('A' for Active; 'I' for Inactive)
ROOT
ATOM      1  C4' PXY d   1       0.271  -4.999  -1.152  0.00  0.00     0.077 C 
ATOM      2  C1' PXY d   1       6.000  -5.095  -0.386  0.00  0.00     0.077 C 
ATOM      3  C1  PXY d   1       4.496  -5.063  -0.576  0.00  0.00    -0.082 A 
ATOM      4  C2  PXY d   1       3.908  -5.999  -1.303  0.00  0.00     0.003 A 
ATOM      5  C3  PXY d   1       2.553  -5.967  -1.511  0.00  0.00     0.003 A 
ATOM      6  C4  PXY d   1       1.785  -4.997  -0.925  0.00  0.00    -0.082 A 
ATOM      7  C5  PXY d   1       2.376  -4.044  -0.174  0.00  0.00     0.003 A 
ATOM      8  C6  PXY d   1       3.758  -4.071  -0.008  0.00  0.00     0.003 A 
ENDROOT
TORSDOF 0
ENDMDL
