MODEL 1
REMARK minimizedAffinity 10.367938
REMARK minimizedRMSD -1
REMARK  0 active torsions:
REMARK  status: ('A' for Active; 'I' for Inactive)
ROOT
ATOM      1  C4' PXY d   1      -4.055   4.671  -3.091  0.00  0.00     0.077 C 
ATOM      2  C1' PXY d   1       0.813   3.570  -0.174  0.00  0.00     0.077 C 
ATOM      3  C1  PXY d   1      -0.466   3.870  -0.932  0.00  0.00    -0.082 A 
ATOM      4  C2  PXY d   1      -1.112   2.887  -1.540  0.00  0.00     0.003 A 
ATOM      5  C3  PXY d   1      -2.252   3.146  -2.256  0.00  0.00     0.003 A 
ATOM      6  C4  PXY d   1      -2.766   4.414  -2.307  0.00  0.00    -0.082 A 
ATOM      7  C5  PXY d   1      -2.119   5.419  -1.681  0.00  0.00     0.003 A 
ATOM      8  C6  PXY d   1      -0.940   5.143  -0.993  0.00  0.00     0.003 A 
ENDROOT
TORSDOF 0
ENDMDL
