MODEL 1
REMARK minimizedAffinity 6.0829978
REMARK minimizedRMSD -1
REMARK  0 active torsions:
REMARK  status: ('A' for Active; 'I' for Inactive)
ROOT
ATOM      1  C4' PXY d   1      -3.365   4.099  -2.664  0.00  0.00     0.077 C 
ATOM      2  C1' PXY d   1       2.128   4.850  -1.027  0.00  0.00     0.077 C 
ATOM      3  C1  PXY d   1       0.685   4.666  -1.456  0.00  0.00    -0.082 A 
ATOM      4  C2  PXY d   1       0.074   3.516  -1.221  0.00  0.00     0.003 A 
ATOM      5  C3  PXY d   1      -1.220   3.322  -1.631  0.00  0.00     0.003 A 
ATOM      6  C4  PXY d   1      -1.913   4.333  -2.240  0.00  0.00    -0.082 A 
ATOM      7  C5  PXY d   1      -1.300   5.513  -2.474  0.00  0.00     0.003 A 
ATOM      8  C6  PXY d   1       0.027   5.676  -2.088  0.00  0.00     0.003 A 
ENDROOT
TORSDOF 0
ENDMDL
