MODEL 1
REMARK minimizedAffinity 7.69488573
REMARK minimizedRMSD -1
REMARK  0 active torsions:
REMARK  status: ('A' for Active; 'I' for Inactive)
ROOT
ATOM      1  C4' PXY d   1       4.161  -4.478   1.065  0.00  0.00     0.077 C 
ATOM      2  C1' PXY d   1       5.484  -5.951  -4.366  0.00  0.00     0.077 C 
ATOM      3  C1  PXY d   1       5.150  -5.563  -2.939  0.00  0.00    -0.082 A 
ATOM      4  C2  PXY d   1       4.024  -5.991  -2.392  0.00  0.00     0.003 A 
ATOM      5  C3  PXY d   1       3.691  -5.623  -1.113  0.00  0.00     0.003 A 
ATOM      6  C4  PXY d   1       4.544  -4.853  -0.370  0.00  0.00    -0.082 A 
ATOM      7  C5  PXY d   1       5.700  -4.421  -0.918  0.00  0.00     0.003 A 
ATOM      8  C6  PXY d   1       6.000  -4.771  -2.231  0.00  0.00     0.003 A 
ENDROOT
TORSDOF 0
ENDMDL
