MODEL 1
REMARK minimizedAffinity 7.73778152
REMARK minimizedRMSD -1
REMARK  0 active torsions:
REMARK  status: ('A' for Active; 'I' for Inactive)
ROOT
ATOM      1  C4' PXY d   1      -2.611   5.988   2.061  0.00  0.00     0.077 C 
ATOM      2  C1' PXY d   1       1.117   3.383  -1.506  0.00  0.00     0.077 C 
ATOM      3  C1  PXY d   1       0.132   4.055  -0.570  0.00  0.00    -0.082 A 
ATOM      4  C2  PXY d   1       0.027   5.374  -0.569  0.00  0.00     0.003 A 
ATOM      5  C3  PXY d   1      -0.835   6.000   0.294  0.00  0.00     0.003 A 
ATOM      6  C4  PXY d   1      -1.637   5.266   1.126  0.00  0.00    -0.082 A 
ATOM      7  C5  PXY d   1      -1.543   3.919   1.123  0.00  0.00     0.003 A 
ATOM      8  C6  PXY d   1      -0.632   3.305   0.269  0.00  0.00     0.003 A 
ENDROOT
TORSDOF 0
ENDMDL
