MODEL 1
REMARK minimizedAffinity 9.04208946
REMARK minimizedRMSD -1
REMARK  0 active torsions:
REMARK  status: ('A' for Active; 'I' for Inactive)
ROOT
ATOM      1  C4' PXY d   1      -3.914   1.177  -2.207  0.00  0.00     0.077 C 
ATOM      2  C1' PXY d   1       0.501   4.541  -0.595  0.00  0.00     0.077 C 
ATOM      3  C1  PXY d   1      -0.664   3.669  -1.020  0.00  0.00    -0.082 A 
ATOM      4  C2  PXY d   1      -0.773   2.442  -0.539  0.00  0.00     0.003 A 
ATOM      5  C3  PXY d   1      -1.802   1.629  -0.938  0.00  0.00     0.003 A 
ATOM      6  C4  PXY d   1      -2.760   2.096  -1.798  0.00  0.00    -0.082 A 
ATOM      7  C5  PXY d   1      -2.662   3.351  -2.285  0.00  0.00     0.003 A 
ATOM      8  C6  PXY d   1      -1.586   4.146  -1.900  0.00  0.00     0.003 A 
ENDROOT
TORSDOF 0
ENDMDL
