MODEL 1
REMARK minimizedAffinity 4.40483856
REMARK minimizedRMSD -1
REMARK  0 active torsions:
REMARK  status: ('A' for Active; 'I' for Inactive)
ROOT
ATOM      1  C4' PXY d   1      -3.005   5.999   1.896  0.00  0.00     0.077 C 
ATOM      2  C1' PXY d   1      -0.167   5.978  -3.139  0.00  0.00     0.077 C 
ATOM      3  C1  PXY d   1      -0.922   5.989  -1.825  0.00  0.00    -0.082 A 
ATOM      4  C2  PXY d   1      -0.250   5.999  -0.685  0.00  0.00     0.003 A 
ATOM      5  C3  PXY d   1      -0.916   5.977   0.513  0.00  0.00     0.003 A 
ATOM      6  C4  PXY d   1      -2.285   5.998   0.545  0.00  0.00    -0.082 A 
ATOM      7  C5  PXY d   1      -2.978   5.998  -0.614  0.00  0.00     0.003 A 
ATOM      8  C6  PXY d   1      -2.282   5.979  -1.819  0.00  0.00     0.003 A 
ENDROOT
TORSDOF 0
ENDMDL
