MODEL 1
REMARK minimizedAffinity 17.1470966
REMARK minimizedRMSD -1
REMARK  0 active torsions:
REMARK  status: ('A' for Active; 'I' for Inactive)
ROOT
ATOM      1  C4' PXY d   1       0.118  -4.977  -3.554  0.00  0.00     0.077 C 
ATOM      2  C1' PXY d   1       2.374  -3.721   1.618  0.00  0.00     0.077 C 
ATOM      3  C1  PXY d   1       1.792  -4.059   0.259  0.00  0.00    -0.082 A 
ATOM      4  C2  PXY d   1       0.957  -3.214  -0.323  0.00  0.00     0.003 A 
ATOM      5  C3  PXY d   1       0.397  -3.517  -1.537  0.00  0.00     0.003 A 
ATOM      6  C4  PXY d   1       0.737  -4.673  -2.187  0.00  0.00    -0.082 A 
ATOM      7  C5  PXY d   1       1.597  -5.536  -1.605  0.00  0.00     0.003 A 
ATOM      8  C6  PXY d   1       2.123  -5.228  -0.353  0.00  0.00     0.003 A 
ENDROOT
TORSDOF 0
ENDMDL
