MODEL 1
REMARK minimizedAffinity 8.94694424
REMARK minimizedRMSD -1
REMARK  0 active torsions:
REMARK  status: ('A' for Active; 'I' for Inactive)
ROOT
ATOM      1  C4' PXY d   1      -1.017   5.741  -3.403  0.00  0.00     0.077 C 
ATOM      2  C1' PXY d   1       0.359   2.818   1.391  0.00  0.00     0.077 C 
ATOM      3  C1  PXY d   1      -0.012   3.591   0.140  0.00  0.00    -0.082 A 
ATOM      4  C2  PXY d   1       0.325   3.113  -1.047  0.00  0.00     0.003 A 
ATOM      5  C3  PXY d   1       0.025   3.815  -2.187  0.00  0.00     0.003 A 
ATOM      6  C4  PXY d   1      -0.672   4.991  -2.113  0.00  0.00    -0.082 A 
ATOM      7  C5  PXY d   1      -1.028   5.479  -0.906  0.00  0.00     0.003 A 
ATOM      8  C6  PXY d   1      -0.679   4.772   0.241  0.00  0.00     0.003 A 
ENDROOT
TORSDOF 0
ENDMDL
