MODEL 1
REMARK minimizedAffinity 6.38399649
REMARK minimizedRMSD -1
REMARK  0 active torsions:
REMARK  status: ('A' for Active; 'I' for Inactive)
ROOT
ATOM      1  C   UNL d   1       0.228   0.029  -2.191  0.00  0.00     0.077 C 
ATOM      2  C1  UNL d   1       0.109   1.250  -1.328  0.00  0.00    -0.074 A 
ATOM      3  C2  UNL d   1       0.446   2.514  -1.822  0.00  0.00    -0.005 A 
ATOM      4  C3  UNL d   1       0.321   3.642  -1.011  0.00  0.00     0.006 A 
ATOM      5  C4  UNL d   1      -0.142   3.517   0.300  0.00  0.00    -0.005 A 
ATOM      6  C5  UNL d   1      -0.484   2.261   0.811  0.00  0.00    -0.074 A 
ATOM      7  C6  UNL d   1      -0.993   2.111   2.214  0.00  0.00     0.077 C 
ATOM      8  C7  UNL d   1      -0.363   1.134  -0.013  0.00  0.00    -0.001 A 
ENDROOT
TORSDOF 0
ENDMDL
