MODEL 1
REMARK minimizedAffinity 3.76626396
REMARK minimizedRMSD -1
REMARK  0 active torsions:
REMARK  status: ('A' for Active; 'I' for Inactive)
ROOT
ATOM      1  C   UNL d   1      -3.254   1.179   2.579  0.00  0.00     0.077 C 
ATOM      2  C1  UNL d   1      -2.044   2.016   2.288  0.00  0.00    -0.074 A 
ATOM      3  C2  UNL d   1      -1.069   2.235   3.268  0.00  0.00    -0.005 A 
ATOM      4  C3  UNL d   1       0.056   3.007   2.980  0.00  0.00     0.006 A 
ATOM      5  C4  UNL d   1       0.218   3.568   1.712  0.00  0.00    -0.005 A 
ATOM      6  C5  UNL d   1      -0.746   3.359   0.720  0.00  0.00    -0.074 A 
ATOM      7  C6  UNL d   1      -0.582   3.946  -0.651  0.00  0.00     0.077 C 
ATOM      8  C7  UNL d   1      -1.870   2.575   1.015  0.00  0.00    -0.001 A 
ENDROOT
TORSDOF 0
ENDMDL
