MODEL 1
REMARK minimizedAffinity 1.03465784
REMARK minimizedRMSD -1
REMARK  0 active torsions:
REMARK  status: ('A' for Active; 'I' for Inactive)
ROOT
ATOM      1  C   UNL d   1       1.051   1.510  -0.815  0.00  0.00     0.077 C 
ATOM      2  C1  UNL d   1      -0.112   2.064  -0.047  0.00  0.00    -0.074 A 
ATOM      3  C2  UNL d   1      -0.737   3.250  -0.446  0.00  0.00    -0.005 A 
ATOM      4  C3  UNL d   1      -1.825   3.747   0.272  0.00  0.00     0.006 A 
ATOM      5  C4  UNL d   1      -2.298   3.065   1.394  0.00  0.00    -0.005 A 
ATOM      6  C5  UNL d   1      -1.686   1.877   1.807  0.00  0.00    -0.074 A 
ATOM      7  C6  UNL d   1      -2.188   1.126   3.004  0.00  0.00     0.077 C 
ATOM      8  C7  UNL d   1      -0.598   1.380   1.076  0.00  0.00    -0.001 A 
ENDROOT
TORSDOF 0
ENDMDL
