MODEL 1
REMARK minimizedAffinity 5.32679605
REMARK minimizedRMSD -1
REMARK  0 active torsions:
REMARK  status: ('A' for Active; 'I' for Inactive)
ROOT
ATOM      1  C   UNL d   1       0.896   1.390  -1.766  0.00  0.00     0.077 C 
ATOM      2  C1  UNL d   1       0.087   1.899  -0.610  0.00  0.00    -0.074 A 
ATOM      3  C2  UNL d   1      -0.193   3.262  -0.474  0.00  0.00    -0.005 A 
ATOM      4  C3  UNL d   1      -0.955   3.720   0.601  0.00  0.00     0.006 A 
ATOM      5  C4  UNL d   1      -1.444   2.820   1.549  0.00  0.00    -0.005 A 
ATOM      6  C5  UNL d   1      -1.175   1.453   1.428  0.00  0.00    -0.074 A 
ATOM      7  C6  UNL d   1      -1.702   0.471   2.433  0.00  0.00     0.077 C 
ATOM      8  C7  UNL d   1      -0.415   1.000   0.342  0.00  0.00    -0.001 A 
ENDROOT
TORSDOF 0
ENDMDL
