MODEL 1
REMARK minimizedAffinity 2.99862981
REMARK minimizedRMSD -1
REMARK  0 active torsions:
REMARK  status: ('A' for Active; 'I' for Inactive)
ROOT
ATOM      1  C   UNL d   1       1.204   0.763  -1.345  0.00  0.00     0.077 C 
ATOM      2  C1  UNL d   1       0.206   1.570  -0.570  0.00  0.00    -0.074 A 
ATOM      3  C2  UNL d   1      -0.080   2.892  -0.925  0.00  0.00    -0.005 A 
ATOM      4  C3  UNL d   1      -1.018   3.628  -0.200  0.00  0.00     0.006 A 
ATOM      5  C4  UNL d   1      -1.678   3.050   0.885  0.00  0.00    -0.005 A 
ATOM      6  C5  UNL d   1      -1.405   1.729   1.255  0.00  0.00    -0.074 A 
ATOM      7  C6  UNL d   1      -2.113   1.090   2.412  0.00  0.00     0.077 C 
ATOM      8  C7  UNL d   1      -0.467   0.994   0.517  0.00  0.00    -0.001 A 
ENDROOT
TORSDOF 0
ENDMDL
