MODEL 1
REMARK minimizedAffinity 2.32357502
REMARK minimizedRMSD -1
REMARK  0 active torsions:
REMARK  status: ('A' for Active; 'I' for Inactive)
ROOT
ATOM      1  C   UNL d   1      -5.999  -3.802   3.113  0.00  0.00     0.077 C 
ATOM      2  C1  UNL d   1      -4.791  -3.427   3.919  0.00  0.00    -0.074 A 
ATOM      3  C2  UNL d   1      -4.910  -3.052   5.261  0.00  0.00    -0.005 A 
ATOM      4  C3  UNL d   1      -3.776  -2.715   6.000  0.00  0.00     0.006 A 
ATOM      5  C4  UNL d   1      -2.514  -2.749   5.406  0.00  0.00    -0.005 A 
ATOM      6  C5  UNL d   1      -2.376  -3.122   4.065  0.00  0.00    -0.074 A 
ATOM      7  C6  UNL d   1      -1.025  -3.173   3.414  0.00  0.00     0.077 C 
ATOM      8  C7  UNL d   1      -3.519  -3.466   3.331  0.00  0.00    -0.001 A 
ENDROOT
TORSDOF 0
ENDMDL
