MODEL 1
REMARK minimizedAffinity 1.96781373
REMARK minimizedRMSD -1
REMARK  0 active torsions:
REMARK  status: ('A' for Active; 'I' for Inactive)
ROOT
ATOM      1  C   UNL d   1      -1.604   1.814   1.829  0.00  0.00     0.077 C 
ATOM      2  C1  UNL d   1      -1.021   0.464   2.120  0.00  0.00    -0.074 A 
ATOM      3  C2  UNL d   1      -1.763  -0.509   2.798  0.00  0.00    -0.005 A 
ATOM      4  C3  UNL d   1      -1.210  -1.764   3.053  0.00  0.00     0.006 A 
ATOM      5  C4  UNL d   1       0.088  -2.058   2.635  0.00  0.00    -0.005 A 
ATOM      6  C5  UNL d   1       0.844  -1.099   1.955  0.00  0.00    -0.074 A 
ATOM      7  C6  UNL d   1       2.237  -1.403   1.489  0.00  0.00     0.077 C 
ATOM      8  C7  UNL d   1       0.280   0.157   1.696  0.00  0.00    -0.001 A 
ENDROOT
TORSDOF 0
ENDMDL
