MODEL 1
REMARK minimizedAffinity 5.03595209
REMARK minimizedRMSD -1
REMARK  0 active torsions:
REMARK  status: ('A' for Active; 'I' for Inactive)
ROOT
ATOM      1  C   UNL d   1       0.369  -0.453  -1.125  0.00  0.00     0.077 C 
ATOM      2  C1  UNL d   1      -0.126   0.828  -0.523  0.00  0.00    -0.074 A 
ATOM      3  C2  UNL d   1      -0.942   0.820   0.613  0.00  0.00    -0.005 A 
ATOM      4  C3  UNL d   1      -1.386   2.020   1.168  0.00  0.00     0.006 A 
ATOM      5  C4  UNL d   1      -1.020   3.238   0.594  0.00  0.00    -0.005 A 
ATOM      6  C5  UNL d   1      -0.204   3.266  -0.541  0.00  0.00    -0.074 A 
ATOM      7  C6  UNL d   1       0.208   4.566  -1.165  0.00  0.00     0.077 C 
ATOM      8  C7  UNL d   1       0.245   2.056  -1.089  0.00  0.00    -0.001 A 
ENDROOT
TORSDOF 0
ENDMDL
