MODEL 1
REMARK minimizedAffinity 8.46374607
REMARK minimizedRMSD -1
REMARK  0 active torsions:
REMARK  status: ('A' for Active; 'I' for Inactive)
ROOT
ATOM      1  C   UNL d   1      -3.784  -0.712  -1.872  0.00  0.00     0.077 C 
ATOM      2  C1  UNL d   1      -2.309  -0.437  -1.881  0.00  0.00    -0.074 A 
ATOM      3  C2  UNL d   1      -1.424  -1.284  -2.555  0.00  0.00    -0.005 A 
ATOM      4  C3  UNL d   1      -0.056  -1.010  -2.563  0.00  0.00     0.006 A 
ATOM      5  C4  UNL d   1       0.439   0.112  -1.898  0.00  0.00    -0.005 A 
ATOM      6  C5  UNL d   1      -0.431   0.971  -1.219  0.00  0.00    -0.074 A 
ATOM      7  C6  UNL d   1       0.084   2.187  -0.507  0.00  0.00     0.077 C 
ATOM      8  C7  UNL d   1      -1.805   0.693  -1.222  0.00  0.00    -0.001 A 
ENDROOT
TORSDOF 0
ENDMDL
