MODEL 1
REMARK minimizedAffinity 5.81786394
REMARK minimizedRMSD -1
REMARK  0 active torsions:
REMARK  status: ('A' for Active; 'I' for Inactive)
ROOT
ATOM      1  C   UNL d   1       0.307  -1.815  -2.954  0.00  0.00     0.077 C 
ATOM      2  C1  UNL d   1      -0.395  -0.491  -2.893  0.00  0.00    -0.074 A 
ATOM      3  C2  UNL d   1      -1.632  -0.304  -3.518  0.00  0.00    -0.005 A 
ATOM      4  C3  UNL d   1      -2.278   0.931  -3.445  0.00  0.00     0.006 A 
ATOM      5  C4  UNL d   1      -1.693   1.989  -2.748  0.00  0.00    -0.005 A 
ATOM      6  C5  UNL d   1      -0.457   1.820  -2.116  0.00  0.00    -0.074 A 
ATOM      7  C6  UNL d   1       0.180   2.945  -1.354  0.00  0.00     0.077 C 
ATOM      8  C7  UNL d   1       0.182   0.575  -2.188  0.00  0.00    -0.001 A 
ENDROOT
TORSDOF 0
ENDMDL
