MODEL 1
REMARK minimizedAffinity 12.1422224
REMARK minimizedRMSD -1
REMARK  0 active torsions:
REMARK  status: ('A' for Active; 'I' for Inactive)
ROOT
ATOM      1  C   UNL d   1       0.664   1.867  -1.438  0.00  0.00     0.077 C 
ATOM      2  C1  UNL d   1      -0.424   1.103  -2.133  0.00  0.00    -0.074 A 
ATOM      3  C2  UNL d   1      -0.329  -0.280  -2.315  0.00  0.00    -0.005 A 
ATOM      4  C3  UNL d   1      -1.353  -0.978  -2.954  0.00  0.00     0.006 A 
ATOM      5  C4  UNL d   1      -2.483  -0.300  -3.416  0.00  0.00    -0.005 A 
ATOM      6  C5  UNL d   1      -2.596   1.083  -3.242  0.00  0.00    -0.074 A 
ATOM      7  C6  UNL d   1      -3.808   1.824  -3.724  0.00  0.00     0.077 C 
ATOM      8  C7  UNL d   1      -1.566   1.776  -2.593  0.00  0.00    -0.001 A 
ENDROOT
TORSDOF 0
ENDMDL
