MODEL 1
REMARK minimizedAffinity 2.48750043
REMARK minimizedRMSD -1
REMARK  0 active torsions:
REMARK  status: ('A' for Active; 'I' for Inactive)
ROOT
ATOM      1  C   UNL d   1      -1.130  -1.344  -3.173  0.00  0.00     0.077 C 
ATOM      2  C1  UNL d   1      -0.936   0.113  -2.871  0.00  0.00    -0.074 A 
ATOM      3  C2  UNL d   1       0.096   0.541  -2.030  0.00  0.00    -0.005 A 
ATOM      4  C3  UNL d   1       0.270   1.899  -1.766  0.00  0.00     0.006 A 
ATOM      5  C4  UNL d   1      -0.585   2.842  -2.338  0.00  0.00    -0.005 A 
ATOM      6  C5  UNL d   1      -1.623   2.432  -3.182  0.00  0.00    -0.074 A 
ATOM      7  C6  UNL d   1      -2.545   3.432  -3.813  0.00  0.00     0.077 C 
ATOM      8  C7  UNL d   1      -1.786   1.066  -3.448  0.00  0.00    -0.001 A 
ENDROOT
TORSDOF 0
ENDMDL
