MODEL 1
REMARK minimizedAffinity 4.54398584
REMARK minimizedRMSD -1
REMARK  0 active torsions:
REMARK  status: ('A' for Active; 'I' for Inactive)
ROOT
ATOM      1  C   UNL d   1      -1.586   1.402   2.140  0.00  0.00     0.077 C 
ATOM      2  C1  UNL d   1      -1.089   2.305   1.050  0.00  0.00    -0.074 A 
ATOM      3  C2  UNL d   1      -1.229   3.693   1.147  0.00  0.00    -0.005 A 
ATOM      4  C3  UNL d   1      -0.754   4.520   0.130  0.00  0.00     0.006 A 
ATOM      5  C4  UNL d   1      -0.134   3.969  -0.993  0.00  0.00    -0.005 A 
ATOM      6  C5  UNL d   1       0.016   2.583  -1.106  0.00  0.00    -0.074 A 
ATOM      7  C6  UNL d   1       0.688   1.975  -2.301  0.00  0.00     0.077 C 
ATOM      8  C7  UNL d   1      -0.458   1.759  -0.077  0.00  0.00    -0.001 A 
ENDROOT
TORSDOF 0
ENDMDL
