MODEL 1
REMARK minimizedAffinity 4.49773836
REMARK minimizedRMSD -1
REMARK  0 active torsions:
REMARK  status: ('A' for Active; 'I' for Inactive)
ROOT
ATOM      1  C   UNL d   1      -0.015   5.533  -1.795  0.00  0.00     0.077 C 
ATOM      2  C1  UNL d   1      -0.006   4.058  -1.525  0.00  0.00    -0.074 A 
ATOM      3  C2  UNL d   1       0.416   3.151  -2.503  0.00  0.00    -0.005 A 
ATOM      4  C3  UNL d   1       0.427   1.782  -2.234  0.00  0.00     0.006 A 
ATOM      5  C4  UNL d   1       0.018   1.307  -0.987  0.00  0.00    -0.005 A 
ATOM      6  C5  UNL d   1      -0.407   2.199   0.002  0.00  0.00    -0.074 A 
ATOM      7  C6  UNL d   1      -0.841   1.707   1.351  0.00  0.00     0.077 C 
ATOM      8  C7  UNL d   1      -0.409   3.574  -0.273  0.00  0.00    -0.001 A 
ENDROOT
TORSDOF 0
ENDMDL
