MODEL 1
REMARK minimizedAffinity 6.6412034
REMARK minimizedRMSD -1
REMARK  0 active torsions:
REMARK  status: ('A' for Active; 'I' for Inactive)
ROOT
ATOM      1  C   UNL d   1      -1.687   1.596   2.193  0.00  0.00     0.077 C 
ATOM      2  C1  UNL d   1      -1.182   1.713   0.785  0.00  0.00    -0.074 A 
ATOM      3  C2  UNL d   1      -0.272   2.713   0.428  0.00  0.00    -0.005 A 
ATOM      4  C3  UNL d   1       0.195   2.803  -0.883  0.00  0.00     0.006 A 
ATOM      5  C4  UNL d   1      -0.241   1.896  -1.848  0.00  0.00    -0.005 A 
ATOM      6  C5  UNL d   1      -1.150   0.888  -1.510  0.00  0.00    -0.074 A 
ATOM      7  C6  UNL d   1      -1.622  -0.102  -2.533  0.00  0.00     0.077 C 
ATOM      8  C7  UNL d   1      -1.610   0.800  -0.189  0.00  0.00    -0.001 A 
ENDROOT
TORSDOF 0
ENDMDL
