MODEL 1
REMARK minimizedAffinity 7.53756237
REMARK minimizedRMSD -1
REMARK  0 active torsions:
REMARK  status: ('A' for Active; 'I' for Inactive)
ROOT
ATOM      1  C   UNL d   1      -2.603   1.904   1.908  0.00  0.00     0.077 C 
ATOM      2  C1  UNL d   1      -1.229   1.671   2.463  0.00  0.00    -0.074 A 
ATOM      3  C2  UNL d   1      -0.812   2.303   3.639  0.00  0.00    -0.005 A 
ATOM      4  C3  UNL d   1       0.465   2.070   4.148  0.00  0.00     0.006 A 
ATOM      5  C4  UNL d   1       1.337   1.204   3.488  0.00  0.00    -0.005 A 
ATOM      6  C5  UNL d   1       0.938   0.562   2.311  0.00  0.00    -0.074 A 
ATOM      7  C6  UNL d   1       1.859  -0.379   1.594  0.00  0.00     0.077 C 
ATOM      8  C7  UNL d   1      -0.350   0.797   1.810  0.00  0.00    -0.001 A 
ENDROOT
TORSDOF 0
ENDMDL
