MODEL 1
REMARK minimizedAffinity 2.42487597
REMARK minimizedRMSD -1
REMARK  0 active torsions:
REMARK  status: ('A' for Active; 'I' for Inactive)
ROOT
ATOM      1  C   UNL d   1      -0.157   4.390  -1.230  0.00  0.00     0.077 C 
ATOM      2  C1  UNL d   1      -0.244   3.263  -0.245  0.00  0.00    -0.074 A 
ATOM      3  C2  UNL d   1      -0.203   1.931  -0.670  0.00  0.00    -0.005 A 
ATOM      4  C3  UNL d   1      -0.275   0.893   0.259  0.00  0.00     0.006 A 
ATOM      5  C4  UNL d   1      -0.390   1.176   1.621  0.00  0.00    -0.005 A 
ATOM      6  C5  UNL d   1      -0.432   2.502   2.065  0.00  0.00    -0.074 A 
ATOM      7  C6  UNL d   1      -0.544   2.823   3.526  0.00  0.00     0.077 C 
ATOM      8  C7  UNL d   1      -0.351   3.539   1.126  0.00  0.00    -0.001 A 
ENDROOT
TORSDOF 0
ENDMDL
