MODEL 1
REMARK minimizedAffinity 4.02895451
REMARK minimizedRMSD -1
REMARK  0 active torsions:
REMARK  status: ('A' for Active; 'I' for Inactive)
ROOT
ATOM      1  C   UNL d   1       0.841   1.199  -2.829  0.00  0.00     0.077 C 
ATOM      2  C1  UNL d   1       0.393   1.735  -1.502  0.00  0.00    -0.074 A 
ATOM      3  C2  UNL d   1      -0.075   0.878  -0.501  0.00  0.00    -0.005 A 
ATOM      4  C3  UNL d   1      -0.480   1.390   0.731  0.00  0.00     0.006 A 
ATOM      5  C4  UNL d   1      -0.421   2.763   0.975  0.00  0.00    -0.005 A 
ATOM      6  C5  UNL d   1       0.045   3.636  -0.013  0.00  0.00    -0.074 A 
ATOM      7  C6  UNL d   1       0.124   5.113   0.236  0.00  0.00     0.077 C 
ATOM      8  C7  UNL d   1       0.456   3.112  -1.247  0.00  0.00    -0.001 A 
ENDROOT
TORSDOF 0
ENDMDL
