MODEL 1
REMARK minimizedAffinity 11.1660471
REMARK minimizedRMSD -1
REMARK  1 active torsions:
REMARK  status: ('A' for Active; 'I' for Inactive)
REMARK    1  A    between atoms: C1_2  and  C2_3 
ROOT
ATOM      1  C2  UNL d   1      -4.768   0.576  -1.835  0.00  0.00    -0.073 A 
ATOM      2  C3  UNL d   1      -4.253   0.900  -3.095  0.00  0.00    -0.002 A 
ATOM      3  C4  UNL d   1      -3.112   1.697  -3.206  0.00  0.00     0.004 A 
ATOM      4  C5  UNL d   1      -2.472   2.170  -2.061  0.00  0.00    -0.004 A 
ATOM      5  C6  UNL d   1      -2.965   1.847  -0.793  0.00  0.00    -0.075 A 
ATOM      6  C7  UNL d   1      -2.289   2.350   0.449  0.00  0.00     0.076 C 
ATOM      7  C8  UNL d   1      -4.112   1.049  -0.689  0.00  0.00     0.001 A 
ENDROOT
BRANCH   1   8
ATOM      8  C1  UNL d   1      -5.995  -0.289  -1.709  0.00  0.00     0.053 C 
ATOM      9  C   UNL d   1      -5.649  -1.770  -1.676  0.00  0.00     0.018 C 
ENDBRANCH   1   8
TORSDOF 1
ENDMDL
