MODEL 1
REMARK minimizedAffinity 12.984623
REMARK minimizedRMSD -1
REMARK  1 active torsions:
REMARK  status: ('A' for Active; 'I' for Inactive)
REMARK    1  A    between atoms: C1_2  and  C2_3 
ROOT
ATOM      1  C2  UNL d   1      -3.044   1.656  -1.396  0.00  0.00    -0.073 A 
ATOM      2  C3  UNL d   1      -3.481   2.581  -0.441  0.00  0.00    -0.002 A 
ATOM      3  C4  UNL d   1      -3.101   2.447   0.895  0.00  0.00     0.004 A 
ATOM      4  C5  UNL d   1      -2.276   1.394   1.288  0.00  0.00    -0.004 A 
ATOM      5  C6  UNL d   1      -1.820   0.466   0.347  0.00  0.00    -0.075 A 
ATOM      6  C7  UNL d   1      -0.934  -0.675   0.754  0.00  0.00     0.076 C 
ATOM      7  C8  UNL d   1      -2.208   0.605  -0.993  0.00  0.00     0.001 A 
ENDROOT
BRANCH   1   8
ATOM      8  C1  UNL d   1      -3.446   1.800  -2.841  0.00  0.00     0.053 C 
ATOM      9  C   UNL d   1      -3.683   0.453  -3.504  0.00  0.00     0.018 C 
ENDBRANCH   1   8
TORSDOF 1
ENDMDL
