MODEL 1
REMARK minimizedAffinity 14.1284628
REMARK minimizedRMSD -1
REMARK  1 active torsions:
REMARK  status: ('A' for Active; 'I' for Inactive)
REMARK    1  A    between atoms: C1_2  and  C2_3 
ROOT
ATOM      1  C2  UNL d   1       5.143  -0.413  -5.132  0.00  0.00    -0.073 A 
ATOM      2  C3  UNL d   1       4.549   0.736  -5.666  0.00  0.00    -0.002 A 
ATOM      3  C4  UNL d   1       3.763   1.562  -4.861  0.00  0.00     0.004 A 
ATOM      4  C5  UNL d   1       3.567   1.251  -3.516  0.00  0.00    -0.004 A 
ATOM      5  C6  UNL d   1       4.161   0.113  -2.961  0.00  0.00    -0.075 A 
ATOM      6  C7  UNL d   1       3.959  -0.236  -1.516  0.00  0.00     0.076 C 
ATOM      7  C8  UNL d   1       4.948  -0.712  -3.776  0.00  0.00     0.001 A 
ENDROOT
BRANCH   1   8
ATOM      8  C1  UNL d   1       5.998  -1.305  -5.995  0.00  0.00     0.053 C 
ATOM      9  C   UNL d   1       5.560  -2.759  -5.923  0.00  0.00     0.018 C 
ENDBRANCH   1   8
TORSDOF 1
ENDMDL
