MODEL 1
REMARK minimizedAffinity 15.1830702
REMARK minimizedRMSD -1
REMARK  1 active torsions:
REMARK  status: ('A' for Active; 'I' for Inactive)
REMARK    1  A    between atoms: C1_2  and  C2_3 
ROOT
ATOM      1  C2  UNL d   1      -5.014  -2.331  -4.344  0.00  0.00    -0.073 A 
ATOM      2  C3  UNL d   1      -3.867  -2.169  -5.129  0.00  0.00    -0.002 A 
ATOM      3  C4  UNL d   1      -3.408  -3.215  -5.930  0.00  0.00     0.004 A 
ATOM      4  C5  UNL d   1      -4.094  -4.429  -5.961  0.00  0.00    -0.004 A 
ATOM      5  C6  UNL d   1      -5.250  -4.606  -5.193  0.00  0.00    -0.075 A 
ATOM      6  C7  UNL d   1      -5.998  -5.906  -5.213  0.00  0.00     0.076 C 
ATOM      7  C8  UNL d   1      -5.703  -3.551  -4.388  0.00  0.00     0.001 A 
ENDROOT
BRANCH   1   8
ATOM      8  C1  UNL d   1      -5.517  -1.202  -3.482  0.00  0.00     0.053 C 
ATOM      9  C   UNL d   1      -5.985  -1.689  -2.120  0.00  0.00     0.018 C 
ENDBRANCH   1   8
TORSDOF 1
ENDMDL
