MODEL 1
REMARK minimizedAffinity -0.0170627981
REMARK minimizedRMSD -1
REMARK  1 active torsions:
REMARK  status: ('A' for Active; 'I' for Inactive)
REMARK    1  A    between atoms: C1_2  and  C2_3 
ROOT
ATOM      1  C2  UNL d   1       4.124  -0.949  -3.986  0.00  0.00    -0.073 A 
ATOM      2  C3  UNL d   1       5.167  -1.728  -4.500  0.00  0.00    -0.002 A 
ATOM      3  C4  UNL d   1       5.998  -1.222  -5.500  0.00  0.00     0.004 A 
ATOM      4  C5  UNL d   1       5.800   0.069  -5.991  0.00  0.00    -0.004 A 
ATOM      5  C6  UNL d   1       4.771   0.867  -5.481  0.00  0.00    -0.075 A 
ATOM      6  C7  UNL d   1       4.543   2.256  -6.000  0.00  0.00     0.076 C 
ATOM      7  C8  UNL d   1       3.939   0.350  -4.479  0.00  0.00     0.001 A 
ENDROOT
BRANCH   1   8
ATOM      8  C1  UNL d   1       3.228  -1.490  -2.902  0.00  0.00     0.053 C 
ATOM      9  C   UNL d   1       2.620  -2.831  -3.280  0.00  0.00     0.018 C 
ENDBRANCH   1   8
TORSDOF 1
ENDMDL
