MODEL 1
REMARK minimizedAffinity 8.05824375
REMARK minimizedRMSD -1
REMARK  1 active torsions:
REMARK  status: ('A' for Active; 'I' for Inactive)
REMARK    1  A    between atoms: C1_2  and  C2_3 
ROOT
ATOM      1  C2  UNL d   1      -4.962  -2.479  -3.889  0.00  0.00    -0.073 A 
ATOM      2  C3  UNL d   1      -4.067  -2.116  -4.902  0.00  0.00    -0.002 A 
ATOM      3  C4  UNL d   1      -3.793  -2.996  -5.949  0.00  0.00     0.004 A 
ATOM      4  C5  UNL d   1      -4.416  -4.243  -6.000  0.00  0.00    -0.004 A 
ATOM      5  C6  UNL d   1      -5.323  -4.620  -5.004  0.00  0.00    -0.075 A 
ATOM      6  C7  UNL d   1      -6.000  -5.958  -5.043  0.00  0.00     0.076 C 
ATOM      7  C8  UNL d   1      -5.590  -3.731  -3.954  0.00  0.00     0.001 A 
ENDROOT
BRANCH   1   8
ATOM      8  C1  UNL d   1      -5.266  -1.530  -2.759  0.00  0.00     0.053 C 
ATOM      9  C   UNL d   1      -4.454  -0.248  -2.858  0.00  0.00     0.018 C 
ENDBRANCH   1   8
TORSDOF 1
ENDMDL
