MODEL 1
REMARK minimizedAffinity 1.63986588
REMARK minimizedRMSD -1
REMARK  1 active torsions:
REMARK  status: ('A' for Active; 'I' for Inactive)
REMARK    1  A    between atoms: C1_2  and  C2_3 
ROOT
ATOM      1  C2  UNL d   1       4.449  -1.789  -3.587  0.00  0.00    -0.073 A 
ATOM      2  C3  UNL d   1       5.429  -2.568  -4.213  0.00  0.00    -0.002 A 
ATOM      3  C4  UNL d   1       6.000  -2.150  -5.416  0.00  0.00     0.004 A 
ATOM      4  C5  UNL d   1       5.604  -0.947  -6.000  0.00  0.00    -0.004 A 
ATOM      5  C6  UNL d   1       4.635  -0.149  -5.383  0.00  0.00    -0.075 A 
ATOM      6  C7  UNL d   1       4.197   1.147  -6.000  0.00  0.00     0.076 C 
ATOM      7  C8  UNL d   1       4.064  -0.577  -4.177  0.00  0.00     0.001 A 
ENDROOT
BRANCH   1   8
ATOM      8  C1  UNL d   1       3.834  -2.234  -2.285  0.00  0.00     0.053 C 
ATOM      9  C   UNL d   1       2.577  -3.061  -2.502  0.00  0.00     0.018 C 
ENDBRANCH   1   8
TORSDOF 1
ENDMDL
