MODEL 1
REMARK minimizedAffinity 18.1665306
REMARK minimizedRMSD -1
REMARK  1 active torsions:
REMARK  status: ('A' for Active; 'I' for Inactive)
REMARK    1  A    between atoms: C1_2  and  C2_3 
ROOT
ATOM      1  C2  UNL d   1       3.379  -5.282   5.196  0.00  0.00    -0.073 A 
ATOM      2  C3  UNL d   1       4.052  -4.347   5.990  0.00  0.00    -0.002 A 
ATOM      3  C4  UNL d   1       5.352  -3.955   5.668  0.00  0.00     0.004 A 
ATOM      4  C5  UNL d   1       5.989  -4.488   4.548  0.00  0.00    -0.004 A 
ATOM      5  C6  UNL d   1       5.328  -5.415   3.735  0.00  0.00    -0.075 A 
ATOM      6  C7  UNL d   1       6.000  -5.999   2.527  0.00  0.00     0.076 C 
ATOM      7  C8  UNL d   1       4.023  -5.805   4.066  0.00  0.00     0.001 A 
ENDROOT
BRANCH   1   8
ATOM      8  C1  UNL d   1       1.972  -5.703   5.536  0.00  0.00     0.053 C 
ATOM      9  C   UNL d   1       1.042  -5.605   4.337  0.00  0.00     0.018 C 
ENDBRANCH   1   8
TORSDOF 1
ENDMDL
