MODEL 1
REMARK minimizedAffinity 8.18804359
REMARK minimizedRMSD -1
REMARK  1 active torsions:
REMARK  status: ('A' for Active; 'I' for Inactive)
REMARK    1  A    between atoms: C1_2  and  C2_3 
ROOT
ATOM      1  C2  UNL d   1      -4.514   2.284  -2.316  0.00  0.00    -0.073 A 
ATOM      2  C3  UNL d   1      -5.738   2.892  -2.015  0.00  0.00    -0.002 A 
ATOM      3  C4  UNL d   1      -5.977   3.403  -0.739  0.00  0.00     0.004 A 
ATOM      4  C5  UNL d   1      -4.993   3.318   0.247  0.00  0.00    -0.004 A 
ATOM      5  C6  UNL d   1      -3.759   2.725  -0.038  0.00  0.00    -0.075 A 
ATOM      6  C7  UNL d   1      -2.691   2.624   1.012  0.00  0.00     0.076 C 
ATOM      7  C8  UNL d   1      -3.528   2.211  -1.321  0.00  0.00     0.001 A 
ENDROOT
BRANCH   1   8
ATOM      8  C1  UNL d   1      -4.250   1.736  -3.694  0.00  0.00     0.053 C 
ATOM      9  C   UNL d   1      -4.973   2.529  -4.771  0.00  0.00     0.018 C 
ENDBRANCH   1   8
TORSDOF 1
ENDMDL
