MODEL 1
REMARK minimizedAffinity 9.8408308
REMARK minimizedRMSD -1
REMARK  0 active torsions:
REMARK  status: ('A' for Active; 'I' for Inactive)
ROOT
ATOM      1  C   UNL d   1       0.435   2.039  -0.332  0.00  0.00     0.124 A 
ATOM      2  C1  UNL d   1       0.839   0.747  -0.639  0.00  0.00     0.062 A 
ATOM      3  C2  UNL d   1       1.152  -0.149   0.379  0.00  0.00     0.162 A 
ATOM      4  C3  UNL d   1       1.063   0.244   1.715  0.00  0.00    -0.034 A 
ATOM      5  C4  UNL d   1       0.657   1.546   2.016  0.00  0.00     0.162 A 
ATOM      6  C5  UNL d   1       0.345   2.437   0.994  0.00  0.00     0.062 A 
ATOM      7  F   UNL d   1      -0.045   3.685   1.293  0.00  0.00    -0.097 F 
ATOM      8  F1  UNL d   1       0.560   1.956   3.289  0.00  0.00    -0.096 F 
ATOM      9  I   UNL d   1       1.531  -1.092   3.240  0.00  0.00    -0.060 I 
ATOM     10  F2  UNL d   1       1.539  -1.391   0.054  0.00  0.00    -0.096 F 
ATOM     11  F3  UNL d   1       0.928   0.360  -1.919  0.00  0.00    -0.097 F 
ATOM     12  F4  UNL d   1       0.135   2.899  -1.313  0.00  0.00    -0.092 F 
ENDROOT
TORSDOF 0
ENDMDL
