MODEL 1
REMARK minimizedAffinity 1.97196198
REMARK minimizedRMSD -1
REMARK  0 active torsions:
REMARK  status: ('A' for Active; 'I' for Inactive)
ROOT
ATOM      1  C   UNL d   1       0.953   0.438   1.545  0.00  0.00     0.124 A 
ATOM      2  C1  UNL d   1       1.044   0.219   0.178  0.00  0.00     0.062 A 
ATOM      3  C2  UNL d   1       0.864   1.273  -0.713  0.00  0.00     0.162 A 
ATOM      4  C3  UNL d   1       0.593   2.557  -0.239  0.00  0.00    -0.034 A 
ATOM      5  C4  UNL d   1       0.503   2.769   1.137  0.00  0.00     0.162 A 
ATOM      6  C5  UNL d   1       0.683   1.712   2.024  0.00  0.00     0.062 A 
ATOM      7  F   UNL d   1       0.595   1.925   3.345  0.00  0.00    -0.097 F 
ATOM      8  F1  UNL d   1       0.244   3.990   1.627  0.00  0.00    -0.096 F 
ATOM      9  I   UNL d   1       0.324   4.135  -1.568  0.00  0.00    -0.060 I 
ATOM     10  F2  UNL d   1       0.957   1.032  -2.030  0.00  0.00    -0.096 F 
ATOM     11  F3  UNL d   1       1.304  -1.012  -0.287  0.00  0.00    -0.097 F 
ATOM     12  F4  UNL d   1       1.125  -0.579   2.400  0.00  0.00    -0.092 F 
ENDROOT
TORSDOF 0
ENDMDL
