MODEL 1
REMARK minimizedAffinity 2.65497422
REMARK minimizedRMSD -1
REMARK  0 active torsions:
REMARK  status: ('A' for Active; 'I' for Inactive)
ROOT
ATOM      1  C   UNL d   1       0.714   0.598   1.847  0.00  0.00     0.124 A 
ATOM      2  C1  UNL d   1       0.547   0.274   0.508  0.00  0.00     0.062 A 
ATOM      3  C2  UNL d   1       0.406   1.280  -0.443  0.00  0.00     0.162 A 
ATOM      4  C3  UNL d   1       0.433   2.621  -0.059  0.00  0.00    -0.034 A 
ATOM      5  C4  UNL d   1       0.601   2.939   1.290  0.00  0.00     0.162 A 
ATOM      6  C5  UNL d   1       0.741   1.929   2.237  0.00  0.00     0.062 A 
ATOM      7  F   UNL d   1       0.902   2.244   3.530  0.00  0.00    -0.097 F 
ATOM      8  F1  UNL d   1       0.632   4.217   1.694  0.00  0.00    -0.096 F 
ATOM      9  I   UNL d   1       0.223   4.129  -1.478  0.00  0.00    -0.060 I 
ATOM     10  F2  UNL d   1       0.246   0.938  -1.730  0.00  0.00    -0.096 F 
ATOM     11  F3  UNL d   1       0.519  -1.012   0.129  0.00  0.00    -0.097 F 
ATOM     12  F4  UNL d   1       0.848  -0.373   2.760  0.00  0.00    -0.092 F 
ENDROOT
TORSDOF 0
ENDMDL
