MODEL 1
REMARK minimizedAffinity 5.25012207
REMARK minimizedRMSD -1
REMARK  0 active torsions:
REMARK  status: ('A' for Active; 'I' for Inactive)
ROOT
ATOM      1  C   UNL d   1       0.602   4.695  -1.864  0.00  0.00     0.124 A 
ATOM      2  C1  UNL d   1      -0.111   3.524  -2.084  0.00  0.00     0.062 A 
ATOM      3  C2  UNL d   1      -0.137   2.527  -1.114  0.00  0.00     0.162 A 
ATOM      4  C3  UNL d   1       0.552   2.696   0.088  0.00  0.00    -0.034 A 
ATOM      5  C4  UNL d   1       1.267   3.876   0.302  0.00  0.00     0.162 A 
ATOM      6  C5  UNL d   1       1.290   4.869  -0.672  0.00  0.00     0.062 A 
ATOM      7  F   UNL d   1       1.979   5.999  -0.457  0.00  0.00    -0.097 F 
ATOM      8  F1  UNL d   1       1.940   4.071   1.445  0.00  0.00    -0.096 F 
ATOM      9  I   UNL d   1       0.515   1.208   1.542  0.00  0.00    -0.060 I 
ATOM     10  F2  UNL d   1      -0.834   1.406  -1.354  0.00  0.00    -0.096 F 
ATOM     11  F3  UNL d   1      -0.776   3.353  -3.236  0.00  0.00    -0.097 F 
ATOM     12  F4  UNL d   1       0.626   5.652  -2.800  0.00  0.00    -0.092 F 
ENDROOT
TORSDOF 0
ENDMDL
