MODEL 1
REMARK minimizedAffinity -4.40985203
REMARK minimizedRMSD -1
REMARK  0 active torsions:
REMARK  status: ('A' for Active; 'I' for Inactive)
ROOT
ATOM      1  C   UNL d   1      -1.015   3.632  -2.471  0.00  0.00     0.124 A 
ATOM      2  C1  UNL d   1      -1.116   2.284  -2.157  0.00  0.00     0.062 A 
ATOM      3  C2  UNL d   1      -0.847   1.845  -0.864  0.00  0.00     0.162 A 
ATOM      4  C3  UNL d   1      -0.476   2.755   0.126  0.00  0.00    -0.034 A 
ATOM      5  C4  UNL d   1      -0.376   4.109  -0.198  0.00  0.00     0.162 A 
ATOM      6  C5  UNL d   1      -0.645   4.543  -1.492  0.00  0.00     0.062 A 
ATOM      7  F   UNL d   1      -0.547   5.846  -1.794  0.00  0.00    -0.097 F 
ATOM      8  F1  UNL d   1      -0.022   5.011   0.729  0.00  0.00    -0.096 F 
ATOM      9  I   UNL d   1      -0.074   2.102   2.060  0.00  0.00    -0.060 I 
ATOM     10  F2  UNL d   1      -0.953   0.536  -0.588  0.00  0.00    -0.096 F 
ATOM     11  F3  UNL d   1      -1.472   1.402  -3.102  0.00  0.00    -0.097 F 
ATOM     12  F4  UNL d   1      -1.273   4.052  -3.717  0.00  0.00    -0.092 F 
ENDROOT
TORSDOF 0
ENDMDL
