MODEL 1
REMARK minimizedAffinity -0.447901696
REMARK minimizedRMSD -1
REMARK  0 active torsions:
REMARK  status: ('A' for Active; 'I' for Inactive)
ROOT
ATOM      1  C   UNL d   1      -1.653   4.027  -3.101  0.00  0.00     0.124 A 
ATOM      2  C1  UNL d   1      -0.559   4.498  -2.389  0.00  0.00     0.062 A 
ATOM      3  C2  UNL d   1      -0.025   3.745  -1.347  0.00  0.00     0.162 A 
ATOM      4  C3  UNL d   1      -0.585   2.512  -1.011  0.00  0.00    -0.034 A 
ATOM      5  C4  UNL d   1      -1.686   2.045  -1.732  0.00  0.00     0.162 A 
ATOM      6  C5  UNL d   1      -2.215   2.801  -2.772  0.00  0.00     0.062 A 
ATOM      7  F   UNL d   1      -3.272   2.345  -3.460  0.00  0.00    -0.097 F 
ATOM      8  F1  UNL d   1      -2.248   0.864  -1.436  0.00  0.00    -0.096 F 
ATOM      9  I   UNL d   1       0.210   1.383   0.546  0.00  0.00    -0.060 I 
ATOM     10  F2  UNL d   1       1.032   4.224  -0.675  0.00  0.00    -0.096 F 
ATOM     11  F3  UNL d   1      -0.014   5.682  -2.704  0.00  0.00    -0.097 F 
ATOM     12  F4  UNL d   1      -2.164   4.754  -4.103  0.00  0.00    -0.092 F 
ENDROOT
TORSDOF 0
ENDMDL
