MODEL 1
REMARK minimizedAffinity 16.1826534
REMARK minimizedRMSD -1
REMARK  0 active torsions:
REMARK  status: ('A' for Active; 'I' for Inactive)
ROOT
ATOM      1  C   UNL d   1       0.983   3.005   1.883  0.00  0.00     0.124 A 
ATOM      2  C1  UNL d   1       0.849   3.565   0.620  0.00  0.00     0.062 A 
ATOM      3  C2  UNL d   1       0.168   2.878  -0.381  0.00  0.00     0.162 A 
ATOM      4  C3  UNL d   1      -0.385   1.624  -0.124  0.00  0.00    -0.034 A 
ATOM      5  C4  UNL d   1      -0.246   1.067   1.149  0.00  0.00     0.162 A 
ATOM      6  C5  UNL d   1       0.435   1.757   2.146  0.00  0.00     0.062 A 
ATOM      7  F   UNL d   1       0.563   1.215   3.366  0.00  0.00    -0.097 F 
ATOM      8  F1  UNL d   1      -0.766  -0.136   1.431  0.00  0.00    -0.096 F 
ATOM      9  I   UNL d   1      -1.404   0.595  -1.618  0.00  0.00    -0.060 I 
ATOM     10  F2  UNL d   1       0.055   3.443  -1.593  0.00  0.00    -0.096 F 
ATOM     11  F3  UNL d   1       1.378   4.770   0.363  0.00  0.00    -0.097 F 
ATOM     12  F4  UNL d   1       1.639   3.667   2.844  0.00  0.00    -0.092 F 
ENDROOT
TORSDOF 0
ENDMDL
