MODEL 1
REMARK minimizedAffinity 9.04821491
REMARK minimizedRMSD -1
REMARK  1 active torsions:
REMARK  status: ('A' for Active; 'I' for Inactive)
REMARK    1  A    between atoms: C1_2  and  C2_3 
ROOT
ATOM      1  C2  UNL d   1       2.425   0.005  -5.833  0.00  0.00    -0.081 A 
ATOM      2  C3  UNL d   1       1.793  -1.234  -5.998  0.00  0.00     0.006 A 
ATOM      3  C4  UNL d   1       0.403  -1.338  -5.904  0.00  0.00     0.002 A 
ATOM      4  C5  UNL d   1      -0.378  -0.205  -5.651  0.00  0.00    -0.080 A 
ATOM      5  C6  UNL d   1      -1.873  -0.298  -5.578  0.00  0.00     0.076 C 
ATOM      6  C7  UNL d   1       0.254   1.029  -5.469  0.00  0.00     0.002 A 
ATOM      7  C8  UNL d   1       1.644   1.134  -5.562  0.00  0.00     0.006 A 
ENDROOT
BRANCH   1   8
ATOM      8  C1  UNL d   1       3.917   0.132  -5.998  0.00  0.00     0.054 C 
ATOM      9  C   UNL d   1       4.639  -0.051  -4.671  0.00  0.00     0.018 C 
ENDBRANCH   1   8
TORSDOF 1
ENDMDL
