MODEL 1
REMARK minimizedAffinity 10.8149853
REMARK minimizedRMSD -1
REMARK  1 active torsions:
REMARK  status: ('A' for Active; 'I' for Inactive)
REMARK    1  A    between atoms: C1_2  and  C2_3 
ROOT
ATOM      1  C2  UNL d   1       3.016  -0.624  -5.095  0.00  0.00    -0.081 A 
ATOM      2  C3  UNL d   1       2.524  -1.475  -4.098  0.00  0.00     0.006 A 
ATOM      3  C4  UNL d   1       1.158  -1.754  -4.015  0.00  0.00     0.002 A 
ATOM      4  C5  UNL d   1       0.263  -1.193  -4.932  0.00  0.00    -0.080 A 
ATOM      5  C6  UNL d   1      -1.203  -1.508  -4.873  0.00  0.00     0.076 C 
ATOM      6  C7  UNL d   1       0.752  -0.328  -5.917  0.00  0.00     0.002 A 
ATOM      7  C8  UNL d   1       2.118  -0.049  -6.000  0.00  0.00     0.006 A 
ENDROOT
BRANCH   1   8
ATOM      8  C1  UNL d   1       4.497  -0.373  -5.226  0.00  0.00     0.054 C 
ATOM      9  C   UNL d   1       5.181  -1.491  -5.999  0.00  0.00     0.018 C 
ENDBRANCH   1   8
TORSDOF 1
ENDMDL
