MODEL 1
REMARK minimizedAffinity 5.81949902
REMARK minimizedRMSD -1
REMARK  1 active torsions:
REMARK  status: ('A' for Active; 'I' for Inactive)
REMARK    1  A    between atoms: C1_2  and  C2_3 
ROOT
ATOM      1  C2  UNL d   1       2.725  -0.861  -4.750  0.00  0.00    -0.081 A 
ATOM      2  C3  UNL d   1       2.059  -0.314  -5.853  0.00  0.00     0.006 A 
ATOM      3  C4  UNL d   1       0.665  -0.359  -5.933  0.00  0.00     0.002 A 
ATOM      4  C5  UNL d   1      -0.086  -0.943  -4.907  0.00  0.00    -0.080 A 
ATOM      5  C6  UNL d   1      -1.584  -0.971  -4.965  0.00  0.00     0.076 C 
ATOM      6  C7  UNL d   1       0.581  -1.505  -3.813  0.00  0.00     0.002 A 
ATOM      7  C8  UNL d   1       1.974  -1.462  -3.734  0.00  0.00     0.006 A 
ENDROOT
BRANCH   1   8
ATOM      8  C1  UNL d   1       4.224  -0.756  -4.631  0.00  0.00     0.054 C 
ATOM      9  C   UNL d   1       4.890  -0.758  -6.000  0.00  0.00     0.018 C 
ENDBRANCH   1   8
TORSDOF 1
ENDMDL
