MODEL 1
REMARK minimizedAffinity -0.502015352
REMARK minimizedRMSD -1
REMARK  1 active torsions:
REMARK  status: ('A' for Active; 'I' for Inactive)
REMARK    1  A    between atoms: C1_2  and  C2_3 
ROOT
ATOM      1  C2  UNL d   1       2.808  -0.769  -4.774  0.00  0.00    -0.081 A 
ATOM      2  C3  UNL d   1       2.164  -0.295  -5.923  0.00  0.00     0.006 A 
ATOM      3  C4  UNL d   1       0.769  -0.284  -6.000  0.00  0.00     0.002 A 
ATOM      4  C5  UNL d   1      -0.005  -0.740  -4.927  0.00  0.00    -0.080 A 
ATOM      5  C6  UNL d   1      -1.503  -0.706  -4.985  0.00  0.00     0.076 C 
ATOM      6  C7  UNL d   1       0.639  -1.230  -3.786  0.00  0.00     0.002 A 
ATOM      7  C8  UNL d   1       2.033  -1.242  -3.709  0.00  0.00     0.006 A 
ENDROOT
BRANCH   1   8
ATOM      8  C1  UNL d   1       4.310  -0.722  -4.663  0.00  0.00     0.054 C 
ATOM      9  C   UNL d   1       4.954  -0.382  -5.999  0.00  0.00     0.018 C 
ENDBRANCH   1   8
TORSDOF 1
ENDMDL
