MODEL 1
REMARK minimizedAffinity 5.48374176
REMARK minimizedRMSD -1
REMARK  1 active torsions:
REMARK  status: ('A' for Active; 'I' for Inactive)
REMARK    1  A    between atoms: C1_2  and  C2_3 
ROOT
ATOM      1  C2  UNL d   1       2.363  -0.732  -4.763  0.00  0.00    -0.081 A 
ATOM      2  C3  UNL d   1       1.681  -0.352  -5.925  0.00  0.00     0.006 A 
ATOM      3  C4  UNL d   1       0.290  -0.464  -5.999  0.00  0.00     0.002 A 
ATOM      4  C5  UNL d   1      -0.442  -0.950  -4.910  0.00  0.00    -0.080 A 
ATOM      5  C6  UNL d   1      -1.937  -1.047  -4.965  0.00  0.00     0.076 C 
ATOM      6  C7  UNL d   1       0.241  -1.346  -3.755  0.00  0.00     0.002 A 
ATOM      7  C8  UNL d   1       1.632  -1.235  -3.681  0.00  0.00     0.006 A 
ENDROOT
BRANCH   1   8
ATOM      8  C1  UNL d   1       3.855  -0.551  -4.657  0.00  0.00     0.054 C 
ATOM      9  C   UNL d   1       4.537  -0.773  -6.000  0.00  0.00     0.018 C 
ENDBRANCH   1   8
TORSDOF 1
ENDMDL
