MODEL 1
REMARK minimizedAffinity 17.0237484
REMARK minimizedRMSD -1
REMARK  1 active torsions:
REMARK  status: ('A' for Active; 'I' for Inactive)
REMARK    1  A    between atoms: C1_2  and  C2_3 
ROOT
ATOM      1  C2  UNL d   1       3.808  -4.697  -1.541  0.00  0.00    -0.076 A 
ATOM      2  C3  UNL d   1       4.466  -3.565  -1.031  0.00  0.00     0.004 A 
ATOM      3  C4  UNL d   1       3.756  -2.547  -0.396  0.00  0.00    -0.003 A 
ATOM      4  C5  UNL d   1       2.375  -2.646  -0.260  0.00  0.00     0.000 A 
ATOM      5  C6  UNL d   1       1.708  -3.771  -0.745  0.00  0.00     0.000 A 
ATOM      6  C7  UNL d   1       2.411  -4.813  -1.373  0.00  0.00    -0.073 A 
ATOM      7  C8  UNL d   1       1.640  -6.000  -1.883  0.00  0.00     0.078 C 
ENDROOT
BRANCH   1   8
ATOM      8  C1  UNL d   1       4.627  -5.756  -2.245  0.00  0.00     0.053 C 
ATOM      9  C   UNL d   1       5.997  -5.247  -2.665  0.00  0.00     0.018 C 
ENDBRANCH   1   8
TORSDOF 1
ENDMDL
