MODEL 1
REMARK minimizedAffinity 10.7739525
REMARK minimizedRMSD -1
REMARK  1 active torsions:
REMARK  status: ('A' for Active; 'I' for Inactive)
REMARK    1  A    between atoms: C1_2  and  C2_3 
ROOT
ATOM      1  C2  UNL d   1       2.673   1.383   5.113  0.00  0.00    -0.076 A 
ATOM      2  C3  UNL d   1       2.064   0.477   5.999  0.00  0.00     0.004 A 
ATOM      3  C4  UNL d   1       1.060  -0.387   5.565  0.00  0.00    -0.003 A 
ATOM      4  C5  UNL d   1       0.649  -0.359   4.237  0.00  0.00     0.000 A 
ATOM      5  C6  UNL d   1       1.254   0.520   3.340  0.00  0.00     0.000 A 
ATOM      6  C7  UNL d   1       2.279   1.386   3.758  0.00  0.00    -0.073 A 
ATOM      7  C8  UNL d   1       2.893   2.319   2.750  0.00  0.00     0.078 C 
ENDROOT
BRANCH   1   8
ATOM      8  C1  UNL d   1       3.738   2.314   5.648  0.00  0.00     0.053 C 
ATOM      9  C   UNL d   1       3.270   3.760   5.707  0.00  0.00     0.018 C 
ENDBRANCH   1   8
TORSDOF 1
ENDMDL
