MODEL 1
REMARK minimizedAffinity 15.1569242
REMARK minimizedRMSD -1
REMARK  1 active torsions:
REMARK  status: ('A' for Active; 'I' for Inactive)
REMARK    1  A    between atoms: C1_2  and  C2_3 
ROOT
ATOM      1  C2  UNL d   1       2.913  -1.023  -0.824  0.00  0.00    -0.076 A 
ATOM      2  C3  UNL d   1       1.700  -0.471  -1.271  0.00  0.00     0.004 A 
ATOM      3  C4  UNL d   1       0.702  -1.278  -1.814  0.00  0.00    -0.003 A 
ATOM      4  C5  UNL d   1       0.900  -2.651  -1.918  0.00  0.00     0.000 A 
ATOM      5  C6  UNL d   1       2.090  -3.218  -1.463  0.00  0.00     0.000 A 
ATOM      6  C7  UNL d   1       3.100  -2.420  -0.898  0.00  0.00    -0.073 A 
ATOM      7  C8  UNL d   1       4.365  -3.084  -0.428  0.00  0.00     0.078 C 
ENDROOT
BRANCH   1   8
ATOM      8  C1  UNL d   1       3.970  -0.095  -0.269  0.00  0.00     0.053 C 
ATOM      9  C   UNL d   1       3.711   1.361  -0.623  0.00  0.00     0.018 C 
ENDBRANCH   1   8
TORSDOF 1
ENDMDL
