MODEL 1
REMARK minimizedAffinity 9.84176826
REMARK minimizedRMSD -1
REMARK  1 active torsions:
REMARK  status: ('A' for Active; 'I' for Inactive)
REMARK    1  A    between atoms: C1_2  and  C2_3 
ROOT
ATOM      1  C2  UNL d   1      -2.150   2.540   3.087  0.00  0.00    -0.076 A 
ATOM      2  C3  UNL d   1      -2.636   1.222   3.026  0.00  0.00     0.004 A 
ATOM      3  C4  UNL d   1      -3.728   0.824   3.795  0.00  0.00    -0.003 A 
ATOM      4  C5  UNL d   1      -4.352   1.737   4.638  0.00  0.00     0.000 A 
ATOM      5  C6  UNL d   1      -3.894   3.053   4.698  0.00  0.00     0.000 A 
ATOM      6  C7  UNL d   1      -2.805   3.475   3.917  0.00  0.00    -0.073 A 
ATOM      7  C8  UNL d   1      -2.349   4.904   4.025  0.00  0.00     0.078 C 
ENDROOT
BRANCH   1   8
ATOM      8  C1  UNL d   1      -0.945   2.907   2.250  0.00  0.00     0.053 C 
ATOM      9  C   UNL d   1       0.014   1.741   2.067  0.00  0.00     0.018 C 
ENDBRANCH   1   8
TORSDOF 1
ENDMDL
