MODEL 1
REMARK minimizedAffinity 14.4232655
REMARK minimizedRMSD -1
REMARK  1 active torsions:
REMARK  status: ('A' for Active; 'I' for Inactive)
REMARK    1  A    between atoms: C1_2  and  C2_3 
ROOT
ATOM      1  C2  UNL d   1       2.154   1.003  -1.599  0.00  0.00    -0.076 A 
ATOM      2  C3  UNL d   1       3.331   1.637  -1.164  0.00  0.00     0.004 A 
ATOM      3  C4  UNL d   1       4.229   0.983  -0.323  0.00  0.00    -0.003 A 
ATOM      4  C5  UNL d   1       3.966  -0.316   0.097  0.00  0.00     0.000 A 
ATOM      5  C6  UNL d   1       2.813  -0.967  -0.339  0.00  0.00     0.000 A 
ATOM      6  C7  UNL d   1       1.904  -0.328  -1.200  0.00  0.00    -0.073 A 
ATOM      7  C8  UNL d   1       0.673  -1.075  -1.634  0.00  0.00     0.078 C 
ENDROOT
BRANCH   1   8
ATOM      8  C1  UNL d   1       1.203   1.771  -2.488  0.00  0.00     0.053 C 
ATOM      9  C   UNL d   1       1.251   3.270  -2.235  0.00  0.00     0.018 C 
ENDBRANCH   1   8
TORSDOF 1
ENDMDL
