MODEL 1
REMARK minimizedAffinity 2.94358397
REMARK minimizedRMSD -1
REMARK  1 active torsions:
REMARK  status: ('A' for Active; 'I' for Inactive)
REMARK    1  A    between atoms: C1_2  and  C2_3 
ROOT
ATOM      1  C2  UNL d   1       2.411   1.939   4.086  0.00  0.00    -0.076 A 
ATOM      2  C3  UNL d   1       2.984   2.824   3.156  0.00  0.00     0.004 A 
ATOM      3  C4  UNL d   1       2.891   2.583   1.786  0.00  0.00    -0.003 A 
ATOM      4  C5  UNL d   1       2.223   1.453   1.324  0.00  0.00     0.000 A 
ATOM      5  C6  UNL d   1       1.634   0.575   2.233  0.00  0.00     0.000 A 
ATOM      6  C7  UNL d   1       1.705   0.811   3.616  0.00  0.00    -0.073 A 
ATOM      7  C8  UNL d   1       1.057  -0.173   4.551  0.00  0.00     0.078 C 
ENDROOT
BRANCH   1   8
ATOM      8  C1  UNL d   1       2.567   2.238   5.560  0.00  0.00     0.053 C 
ATOM      9  C   UNL d   1       2.648   3.729   5.847  0.00  0.00     0.018 C 
ENDBRANCH   1   8
TORSDOF 1
ENDMDL
