MODEL 1
REMARK minimizedAffinity 16.2593975
REMARK minimizedRMSD -1
REMARK  1 active torsions:
REMARK  status: ('A' for Active; 'I' for Inactive)
REMARK    1  A    between atoms: C1_2  and  C2_3 
ROOT
ATOM      1  C2  UNL d   1      -1.387  -3.732  -1.987  0.00  0.00    -0.076 A 
ATOM      2  C3  UNL d   1      -2.514  -3.403  -2.760  0.00  0.00     0.004 A 
ATOM      3  C4  UNL d   1      -2.855  -2.073  -3.001  0.00  0.00    -0.003 A 
ATOM      4  C5  UNL d   1      -2.074  -1.051  -2.475  0.00  0.00     0.000 A 
ATOM      5  C6  UNL d   1      -0.942  -1.359  -1.720  0.00  0.00     0.000 A 
ATOM      6  C7  UNL d   1      -0.575  -2.694  -1.481  0.00  0.00    -0.073 A 
ATOM      7  C8  UNL d   1       0.652  -2.969  -0.656  0.00  0.00     0.078 C 
ENDROOT
BRANCH   1   8
ATOM      8  C1  UNL d   1      -1.081  -5.191  -1.736  0.00  0.00     0.053 C 
ATOM      9  C   UNL d   1      -2.115  -5.857  -0.841  0.00  0.00     0.018 C 
ENDBRANCH   1   8
TORSDOF 1
ENDMDL
