MODEL 1
REMARK minimizedAffinity 5.0554862
REMARK minimizedRMSD -1
REMARK  1 active torsions:
REMARK  status: ('A' for Active; 'I' for Inactive)
REMARK    1  A    between atoms: C1_2  and  C2_3 
ROOT
ATOM      1  C2  UNL d   1      -0.258  -2.329  -2.111  0.00  0.00    -0.076 A 
ATOM      2  C3  UNL d   1      -0.876  -1.075  -2.263  0.00  0.00     0.004 A 
ATOM      3  C4  UNL d   1      -2.212  -0.976  -2.646  0.00  0.00    -0.003 A 
ATOM      4  C5  UNL d   1      -2.953  -2.129  -2.883  0.00  0.00     0.000 A 
ATOM      5  C6  UNL d   1      -2.361  -3.381  -2.720  0.00  0.00     0.000 A 
ATOM      6  C7  UNL d   1      -1.020  -3.499  -2.318  0.00  0.00    -0.073 A 
ATOM      7  C8  UNL d   1      -0.431  -4.874  -2.164  0.00  0.00     0.078 C 
ENDROOT
BRANCH   1   8
ATOM      8  C1  UNL d   1       1.202  -2.374  -1.720  0.00  0.00     0.053 C 
ATOM      9  C   UNL d   1       2.038  -1.350  -2.471  0.00  0.00     0.018 C 
ENDBRANCH   1   8
TORSDOF 1
ENDMDL
