MODEL 1
REMARK minimizedAffinity 16.7602711
REMARK minimizedRMSD -1
REMARK  1 active torsions:
REMARK  status: ('A' for Active; 'I' for Inactive)
REMARK    1  A    between atoms: C1_2  and  C2_3 
ROOT
ATOM      1  C2  UNL d   1       1.911   0.301   0.101  0.00  0.00    -0.076 A 
ATOM      2  C3  UNL d   1       2.962   0.773  -0.704  0.00  0.00     0.004 A 
ATOM      3  C4  UNL d   1       3.649   1.940  -0.375  0.00  0.00    -0.003 A 
ATOM      4  C5  UNL d   1       3.298   2.653   0.765  0.00  0.00     0.000 A 
ATOM      5  C6  UNL d   1       2.269   2.190   1.585  0.00  0.00     0.000 A 
ATOM      6  C7  UNL d   1       1.576   1.007   1.276  0.00  0.00    -0.073 A 
ATOM      7  C8  UNL d   1       0.472   0.557   2.193  0.00  0.00     0.078 C 
ENDROOT
BRANCH   1   8
ATOM      8  C1  UNL d   1       1.183  -0.955  -0.321  0.00  0.00     0.053 C 
ATOM      9  C   UNL d   1       1.500  -1.360  -1.753  0.00  0.00     0.018 C 
ENDBRANCH   1   8
TORSDOF 1
ENDMDL
