MODEL 1
REMARK minimizedAffinity 9.58197498
REMARK minimizedRMSD -1
REMARK  0 active torsions:
REMARK  status: ('A' for Active; 'I' for Inactive)
ROOT
ATOM      1  C2' OXE d   1       5.716  -1.829   2.543  0.00  0.00     0.078 C 
ATOM      2  C1' OXE d   1       3.153  -2.971   2.467  0.00  0.00     0.078 C 
ATOM      3  C1  OXE d   1       3.961  -3.139   3.729  0.00  0.00    -0.078 A 
ATOM      4  C2  OXE d   1       5.232  -2.617   3.741  0.00  0.00    -0.078 A 
ATOM      5  C3  OXE d   1       5.999  -2.696   4.899  0.00  0.00     0.003 A 
ATOM      6  C4  OXE d   1       5.548  -3.435   5.999  0.00  0.00    -0.002 A 
ATOM      7  C5  OXE d   1       4.272  -4.009   5.994  0.00  0.00    -0.002 A 
ATOM      8  C6  OXE d   1       3.451  -3.834   4.885  0.00  0.00     0.003 A 
ENDROOT
TORSDOF 0
ENDMDL
