MODEL 1
REMARK minimizedAffinity 1.96649575
REMARK minimizedRMSD -1
REMARK  0 active torsions:
REMARK  status: ('A' for Active; 'I' for Inactive)
ROOT
ATOM      1  C2' OXE d   1      -1.333   1.010   0.531  0.00  0.00     0.078 C 
ATOM      2  C1' OXE d   1      -0.524  -0.678  -1.561  0.00  0.00     0.078 C 
ATOM      3  C1  OXE d   1      -1.328  -1.285  -0.438  0.00  0.00    -0.078 A 
ATOM      4  C2  OXE d   1      -1.680  -0.462   0.604  0.00  0.00    -0.078 A 
ATOM      5  C3  OXE d   1      -2.468  -0.958   1.639  0.00  0.00     0.003 A 
ATOM      6  C4  OXE d   1      -2.776  -2.322   1.704  0.00  0.00    -0.002 A 
ATOM      7  C5  OXE d   1      -2.394  -3.186   0.672  0.00  0.00    -0.002 A 
ATOM      8  C6  OXE d   1      -1.708  -2.676  -0.425  0.00  0.00     0.003 A 
ENDROOT
TORSDOF 0
ENDMDL
