MODEL 1
REMARK minimizedAffinity -5.6562047
REMARK minimizedRMSD -1
REMARK  0 active torsions:
REMARK  status: ('A' for Active; 'I' for Inactive)
ROOT
ATOM      1  C2' OXE d   1      -0.314   1.222  -0.412  0.00  0.00     0.078 C 
ATOM      2  C1' OXE d   1       0.717  -0.574  -2.307  0.00  0.00     0.078 C 
ATOM      3  C1  OXE d   1       0.270  -1.132  -0.979  0.00  0.00    -0.078 A 
ATOM      4  C2  OXE d   1      -0.190  -0.240  -0.040  0.00  0.00    -0.078 A 
ATOM      5  C3  OXE d   1      -0.666  -0.708   1.181  0.00  0.00     0.003 A 
ATOM      6  C4  OXE d   1      -0.537  -2.061   1.520  0.00  0.00    -0.002 A 
ATOM      7  C5  OXE d   1      -0.035  -2.980   0.593  0.00  0.00    -0.002 A 
ATOM      8  C6  OXE d   1       0.332  -2.540  -0.673  0.00  0.00     0.003 A 
ENDROOT
TORSDOF 0
ENDMDL
