MODEL 1
REMARK minimizedAffinity -5.14767313
REMARK minimizedRMSD -1
REMARK  0 active torsions:
REMARK  status: ('A' for Active; 'I' for Inactive)
ROOT
ATOM      1  C2' OXE d   1      -1.987  -0.178   1.814  0.00  0.00     0.078 C 
ATOM      2  C1' OXE d   1       0.237   1.111   0.686  0.00  0.00     0.078 C 
ATOM      3  C1  OXE d   1       0.062  -0.361   0.409  0.00  0.00    -0.078 A 
ATOM      4  C2  OXE d   1      -1.003  -0.994   1.003  0.00  0.00    -0.078 A 
ATOM      5  C3  OXE d   1      -1.242  -2.339   0.736  0.00  0.00     0.003 A 
ATOM      6  C4  OXE d   1      -0.321  -3.088  -0.007  0.00  0.00    -0.002 A 
ATOM      7  C5  OXE d   1       0.792  -2.472  -0.588  0.00  0.00    -0.002 A 
ATOM      8  C6  OXE d   1       0.975  -1.103  -0.425  0.00  0.00     0.003 A 
ENDROOT
TORSDOF 0
ENDMDL
