MODEL 1
REMARK minimizedAffinity -6.22035837
REMARK minimizedRMSD -1
REMARK  0 active torsions:
REMARK  status: ('A' for Active; 'I' for Inactive)
ROOT
ATOM      1  C2' OXE d   1      -0.653   0.671   0.314  0.00  0.00     0.078 C 
ATOM      2  C1' OXE d   1      -1.127  -0.634   2.754  0.00  0.00     0.078 C 
ATOM      3  C1  OXE d   1      -0.649  -1.467   1.591  0.00  0.00    -0.078 A 
ATOM      4  C2  OXE d   1      -0.464  -0.829   0.389  0.00  0.00    -0.078 A 
ATOM      5  C3  OXE d   1       0.028  -1.540  -0.702  0.00  0.00     0.003 A 
ATOM      6  C4  OXE d   1       0.190  -2.929  -0.627  0.00  0.00    -0.002 A 
ATOM      7  C5  OXE d   1      -0.030  -3.606   0.577  0.00  0.00    -0.002 A 
ATOM      8  C6  OXE d   1      -0.408  -2.885   1.705  0.00  0.00     0.003 A 
ENDROOT
TORSDOF 0
ENDMDL
