MODEL 1
REMARK minimizedAffinity -4.82685518
REMARK minimizedRMSD -1
REMARK  0 active torsions:
REMARK  status: ('A' for Active; 'I' for Inactive)
ROOT
ATOM      1  C2' OXE d   1      -0.098  -3.511  -0.148  0.00  0.00     0.078 C 
ATOM      2  C1' OXE d   1      -2.299  -2.605   1.342  0.00  0.00     0.078 C 
ATOM      3  C1  OXE d   1      -1.374  -1.570   0.752  0.00  0.00    -0.078 A 
ATOM      4  C2  OXE d   1      -0.274  -2.023   0.064  0.00  0.00    -0.078 A 
ATOM      5  C3  OXE d   1       0.581  -1.110  -0.547  0.00  0.00     0.003 A 
ATOM      6  C4  OXE d   1       0.417   0.265  -0.337  0.00  0.00    -0.002 A 
ATOM      7  C5  OXE d   1      -0.674   0.746   0.394  0.00  0.00    -0.002 A 
ATOM      8  C6  OXE d   1      -1.601  -0.154   0.908  0.00  0.00     0.003 A 
ENDROOT
TORSDOF 0
ENDMDL
