MODEL 1
REMARK minimizedAffinity -6.09778261
REMARK minimizedRMSD -1
REMARK  0 active torsions:
REMARK  status: ('A' for Active; 'I' for Inactive)
ROOT
ATOM      1  C2' OXE d   1      -2.225  -0.013   1.963  0.00  0.00     0.078 C 
ATOM      2  C1' OXE d   1      -0.335   0.957   0.128  0.00  0.00     0.078 C 
ATOM      3  C1  OXE d   1      -0.457  -0.537   0.288  0.00  0.00    -0.078 A 
ATOM      4  C2  OXE d   1      -1.352  -1.002   1.222  0.00  0.00    -0.078 A 
ATOM      5  C3  OXE d   1      -1.543  -2.373   1.370  0.00  0.00     0.003 A 
ATOM      6  C4  OXE d   1      -0.724  -3.281   0.688  0.00  0.00    -0.002 A 
ATOM      7  C5  OXE d   1       0.221  -2.828  -0.238  0.00  0.00    -0.002 A 
ATOM      8  C6  OXE d   1       0.337  -1.463  -0.481  0.00  0.00     0.003 A 
ENDROOT
TORSDOF 0
ENDMDL
