MODEL 1
REMARK minimizedAffinity -3.05822802
REMARK minimizedRMSD -1
REMARK  0 active torsions:
REMARK  status: ('A' for Active; 'I' for Inactive)
ROOT
ATOM      1  C2' OXE d   1      -1.419  -1.142   1.927  0.00  0.00     0.078 C 
ATOM      2  C1' OXE d   1       0.377  -2.973   0.787  0.00  0.00     0.078 C 
ATOM      3  C1  OXE d   1       0.253  -1.615   0.143  0.00  0.00    -0.078 A 
ATOM      4  C2  OXE d   1      -0.662  -0.742   0.679  0.00  0.00    -0.078 A 
ATOM      5  C3  OXE d   1      -0.776   0.544   0.157  0.00  0.00     0.003 A 
ATOM      6  C4  OXE d   1      -0.079   0.902  -1.003  0.00  0.00    -0.002 A 
ATOM      7  C5  OXE d   1       0.829   0.014  -1.589  0.00  0.00    -0.002 A 
ATOM      8  C6  OXE d   1       1.038  -1.231  -1.005  0.00  0.00     0.003 A 
ENDROOT
TORSDOF 0
ENDMDL
