MODEL 1
REMARK minimizedAffinity -2.68296146
REMARK minimizedRMSD -1
REMARK  0 active torsions:
REMARK  status: ('A' for Active; 'I' for Inactive)
ROOT
ATOM      1  C2' OXE d   1      -2.397  -0.129   1.267  0.00  0.00     0.078 C 
ATOM      2  C1' OXE d   1       0.016   0.898   0.266  0.00  0.00     0.078 C 
ATOM      3  C1  OXE d   1      -0.115  -0.600   0.384  0.00  0.00    -0.078 A 
ATOM      4  C2  OXE d   1      -1.282  -1.092   0.919  0.00  0.00    -0.078 A 
ATOM      5  C3  OXE d   1      -1.477  -2.468   1.000  0.00  0.00     0.003 A 
ATOM      6  C4  OXE d   1      -0.437  -3.351   0.685  0.00  0.00    -0.002 A 
ATOM      7  C5  OXE d   1       0.774  -2.869   0.176  0.00  0.00    -0.002 A 
ATOM      8  C6  OXE d   1       0.935  -1.502  -0.020  0.00  0.00     0.003 A 
ENDROOT
TORSDOF 0
ENDMDL
