MODEL 1
REMARK minimizedAffinity -4.93280029
REMARK minimizedRMSD -1
REMARK  0 active torsions:
REMARK  status: ('A' for Active; 'I' for Inactive)
ROOT
ATOM      1  C2' OXE d   1      -2.432   0.030   1.125  0.00  0.00     0.078 C 
ATOM      2  C1' OXE d   1       0.035   1.121   0.348  0.00  0.00     0.078 C 
ATOM      3  C1  OXE d   1      -0.057  -0.378   0.492  0.00  0.00    -0.078 A 
ATOM      4  C2  OXE d   1      -1.255  -0.899   0.918  0.00  0.00    -0.078 A 
ATOM      5  C3  OXE d   1      -1.411  -2.279   1.015  0.00  0.00     0.003 A 
ATOM      6  C4  OXE d   1      -0.314  -3.131   0.831  0.00  0.00    -0.002 A 
ATOM      7  C5  OXE d   1       0.925  -2.617   0.436  0.00  0.00    -0.002 A 
ATOM      8  C6  OXE d   1       1.059  -1.250   0.221  0.00  0.00     0.003 A 
ENDROOT
TORSDOF 0
ENDMDL
