MODEL 1
REMARK minimizedAffinity -4.22934628
REMARK minimizedRMSD -1
REMARK  0 active torsions:
REMARK  status: ('A' for Active; 'I' for Inactive)
ROOT
ATOM      1  C2' OXE d   1      -0.049   0.696  -0.077  0.00  0.00     0.078 C 
ATOM      2  C1' OXE d   1       0.171  -1.058  -2.258  0.00  0.00     0.078 C 
ATOM      3  C1  OXE d   1      -0.368  -1.611  -0.962  0.00  0.00    -0.078 A 
ATOM      4  C2  OXE d   1      -0.428  -0.757   0.113  0.00  0.00    -0.078 A 
ATOM      5  C3  OXE d   1      -0.969  -1.201   1.316  0.00  0.00     0.003 A 
ATOM      6  C4  OXE d   1      -1.308  -2.548   1.487  0.00  0.00    -0.002 A 
ATOM      7  C5  OXE d   1      -1.217  -3.444   0.416  0.00  0.00    -0.002 A 
ATOM      8  C6  OXE d   1      -0.791  -2.983  -0.824  0.00  0.00     0.003 A 
ENDROOT
TORSDOF 0
ENDMDL
