MODEL 1
REMARK minimizedAffinity -4.24145794
REMARK minimizedRMSD -1
REMARK  0 active torsions:
REMARK  status: ('A' for Active; 'I' for Inactive)
ROOT
ATOM      1  C2' OXE d   1      -1.981  -0.174   0.798  0.00  0.00     0.078 C 
ATOM      2  C1' OXE d   1       0.369   1.102  -0.055  0.00  0.00     0.078 C 
ATOM      3  C1  OXE d   1       0.428  -0.384   0.201  0.00  0.00    -0.078 A 
ATOM      4  C2  OXE d   1      -0.715  -0.991   0.663  0.00  0.00    -0.078 A 
ATOM      5  C3  OXE d   1      -0.731  -2.369   0.862  0.00  0.00     0.003 A 
ATOM      6  C4  OXE d   1       0.448  -3.116   0.744  0.00  0.00    -0.002 A 
ATOM      7  C5  OXE d   1       1.632  -2.509   0.313  0.00  0.00    -0.002 A 
ATOM      8  C6  OXE d   1       1.629  -1.155  -0.003  0.00  0.00     0.003 A 
ENDROOT
TORSDOF 0
ENDMDL
