MODEL 1
REMARK minimizedAffinity -6.17387772
REMARK minimizedRMSD -1
REMARK  0 active torsions:
REMARK  status: ('A' for Active; 'I' for Inactive)
ROOT
ATOM      1  C2' OXE d   1      -0.231   1.036  -0.379  0.00  0.00     0.078 C 
ATOM      2  C1' OXE d   1       0.683  -0.878  -2.218  0.00  0.00     0.078 C 
ATOM      3  C1  OXE d   1       0.127  -1.372  -0.906  0.00  0.00    -0.078 A 
ATOM      4  C2  OXE d   1      -0.275  -0.427   0.007  0.00  0.00    -0.078 A 
ATOM      5  C3  OXE d   1      -0.847  -0.830   1.210  0.00  0.00     0.003 A 
ATOM      6  C4  OXE d   1      -0.874  -2.185   1.563  0.00  0.00    -0.002 A 
ATOM      7  C5  OXE d   1      -0.433  -3.162   0.664  0.00  0.00    -0.002 A 
ATOM      8  C6  OXE d   1       0.030  -2.776  -0.589  0.00  0.00     0.003 A 
ENDROOT
TORSDOF 0
ENDMDL
