MODEL 1
REMARK minimizedAffinity -5.86625814
REMARK minimizedRMSD -1
REMARK  0 active torsions:
REMARK  status: ('A' for Active; 'I' for Inactive)
ROOT
ATOM      1  C2' OXE d   1       0.070   0.836  -0.345  0.00  0.00     0.078 C 
ATOM      2  C1' OXE d   1      -0.978  -0.987   1.514  0.00  0.00     0.078 C 
ATOM      3  C1  OXE d   1      -0.401  -1.540   0.236  0.00  0.00    -0.078 A 
ATOM      4  C2  OXE d   1       0.067  -0.638  -0.689  0.00  0.00    -0.078 A 
ATOM      5  C3  OXE d   1       0.660  -1.097  -1.862  0.00  0.00     0.003 A 
ATOM      6  C4  OXE d   1       0.645  -2.462  -2.176  0.00  0.00    -0.002 A 
ATOM      7  C5  OXE d   1       0.136  -3.394  -1.266  0.00  0.00    -0.002 A 
ATOM      8  C6  OXE d   1      -0.350  -2.955  -0.040  0.00  0.00     0.003 A 
ENDROOT
TORSDOF 0
ENDMDL
