MODEL 1
REMARK minimizedAffinity -4.10275698
REMARK minimizedRMSD -1
REMARK  0 active torsions:
REMARK  status: ('A' for Active; 'I' for Inactive)
ROOT
ATOM      1  C2' OXE d   1       2.780   2.498  -0.660  0.00  0.00     0.078 C 
ATOM      2  C1' OXE d   1       0.044   1.911  -0.887  0.00  0.00     0.078 C 
ATOM      3  C1  OXE d   1       0.509   2.628   0.356  0.00  0.00    -0.078 A 
ATOM      4  C2  OXE d   1       1.856   2.869   0.480  0.00  0.00    -0.078 A 
ATOM      5  C3  OXE d   1       2.331   3.576   1.581  0.00  0.00     0.003 A 
ATOM      6  C4  OXE d   1       1.472   3.908   2.635  0.00  0.00    -0.002 A 
ATOM      7  C5  OXE d   1       0.103   3.636   2.547  0.00  0.00    -0.002 A 
ATOM      8  C6  OXE d   1      -0.401   3.036   1.398  0.00  0.00     0.003 A 
ENDROOT
TORSDOF 0
ENDMDL
