MODEL 1
REMARK minimizedAffinity -5.51077223
REMARK minimizedRMSD -1
REMARK  0 active torsions:
REMARK  status: ('A' for Active; 'I' for Inactive)
ROOT
ATOM      1  C2' OXE d   1      -0.068   0.578  -1.005  0.00  0.00     0.078 C 
ATOM      2  C1' OXE d   1       0.454  -1.554  -2.755  0.00  0.00     0.078 C 
ATOM      3  C1  OXE d   1       0.131  -1.885  -1.320  0.00  0.00    -0.078 A 
ATOM      4  C2  OXE d   1      -0.077  -0.834  -0.460  0.00  0.00    -0.078 A 
ATOM      5  C3  OXE d   1      -0.432  -1.085   0.863  0.00  0.00     0.003 A 
ATOM      6  C4  OXE d   1      -0.428  -2.393   1.362  0.00  0.00    -0.002 A 
ATOM      7  C5  OXE d   1      -0.179  -3.476   0.512  0.00  0.00    -0.002 A 
ATOM      8  C6  OXE d   1       0.060  -3.242  -0.838  0.00  0.00     0.003 A 
ENDROOT
TORSDOF 0
ENDMDL
