MODEL 1
REMARK minimizedAffinity -6.14493036
REMARK minimizedRMSD -1
REMARK  0 active torsions:
REMARK  status: ('A' for Active; 'I' for Inactive)
ROOT
ATOM      1  C   UNL d   1      -3.567   2.416  -2.733  0.00  0.00    -0.002 A 
ATOM      2  C1  UNL d   1      -4.572   2.480  -3.687  0.00  0.00     0.010 A 
ATOM      3  C2  UNL d   1      -4.879   1.366  -4.472  0.00  0.00     0.041 A 
ATOM      4  C3  UNL d   1      -4.151   0.175  -4.278  0.00  0.00    -0.075 A 
ATOM      5  S   UNL d   1      -4.353  -1.314  -5.122  0.00  0.00     0.015 SA
ATOM      6  C4  UNL d   1      -3.109  -2.071  -4.236  0.00  0.00     0.022 A 
ATOM      7  C5  UNL d   1      -2.543  -1.222  -3.314  0.00  0.00     0.026 A 
ATOM      8  C6  UNL d   1      -3.135   0.086  -3.323  0.00  0.00    -0.082 A 
ATOM      9  C7  UNL d   1      -2.847   1.233  -2.544  0.00  0.00     0.045 A 
ENDROOT
TORSDOF 0
ENDMDL
