MODEL 1
REMARK minimizedAffinity 6.55963373
REMARK minimizedRMSD -1
REMARK  0 active torsions:
REMARK  status: ('A' for Active; 'I' for Inactive)
ROOT
ATOM      1  C   UNL d   1       1.218  -2.145   1.061  0.00  0.00    -0.002 A 
ATOM      2  C1  UNL d   1       0.757  -1.636   2.267  0.00  0.00     0.010 A 
ATOM      3  C2  UNL d   1       1.064  -0.330   2.651  0.00  0.00     0.041 A 
ATOM      4  C3  UNL d   1       1.850   0.466   1.794  0.00  0.00    -0.075 A 
ATOM      5  S   UNL d   1       2.351   2.094   2.056  0.00  0.00     0.015 SA
ATOM      6  C4  UNL d   1       3.189   2.154   0.573  0.00  0.00     0.022 A 
ATOM      7  C5  UNL d   1       3.099   0.969  -0.118  0.00  0.00     0.026 A 
ATOM      8  C6  UNL d   1       2.325  -0.023   0.574  0.00  0.00    -0.082 A 
ATOM      9  C7  UNL d   1       1.997  -1.352   0.213  0.00  0.00     0.045 A 
ENDROOT
TORSDOF 0
ENDMDL
