MODEL 1
REMARK minimizedAffinity 6.41606236
REMARK minimizedRMSD -1
REMARK  0 active torsions:
REMARK  status: ('A' for Active; 'I' for Inactive)
ROOT
ATOM      1  C   UNL d   1      -3.051   0.028  -1.638  0.00  0.00    -0.002 A 
ATOM      2  C1  UNL d   1      -3.402  -1.192  -2.199  0.00  0.00     0.010 A 
ATOM      3  C2  UNL d   1      -3.772  -1.276  -3.543  0.00  0.00     0.041 A 
ATOM      4  C3  UNL d   1      -3.782  -0.102  -4.322  0.00  0.00    -0.075 A 
ATOM      5  S   UNL d   1      -4.199   0.036  -5.989  0.00  0.00     0.015 SA
ATOM      6  C4  UNL d   1      -3.921   1.717  -5.996  0.00  0.00     0.022 A 
ATOM      7  C5  UNL d   1      -3.519   2.179  -4.765  0.00  0.00     0.026 A 
ATOM      8  C6  UNL d   1      -3.431   1.138  -3.780  0.00  0.00    -0.082 A 
ATOM      9  C7  UNL d   1      -3.062   1.191  -2.414  0.00  0.00     0.045 A 
ENDROOT
TORSDOF 0
ENDMDL
