MODEL 1
REMARK minimizedAffinity 8.19454956
REMARK minimizedRMSD -1
REMARK  0 active torsions:
REMARK  status: ('A' for Active; 'I' for Inactive)
ROOT
ATOM      1  C   UNL d   1      -1.853  -1.448  -3.880  0.00  0.00    -0.002 A 
ATOM      2  C1  UNL d   1      -1.877  -1.518  -5.266  0.00  0.00     0.010 A 
ATOM      3  C2  UNL d   1      -2.788  -0.755  -6.000  0.00  0.00     0.041 A 
ATOM      4  C3  UNL d   1      -3.682   0.089  -5.310  0.00  0.00    -0.075 A 
ATOM      5  S   UNL d   1      -4.883   1.115  -6.000  0.00  0.00     0.015 SA
ATOM      6  C4  UNL d   1      -5.392   1.671  -4.471  0.00  0.00     0.022 A 
ATOM      7  C5  UNL d   1      -4.674   1.097  -3.449  0.00  0.00     0.026 A 
ATOM      8  C6  UNL d   1      -3.676   0.176  -3.915  0.00  0.00    -0.082 A 
ATOM      9  C7  UNL d   1      -2.741  -0.610  -3.200  0.00  0.00     0.045 A 
ENDROOT
TORSDOF 0
ENDMDL
