MODEL 1
REMARK minimizedAffinity 7.69218922
REMARK minimizedRMSD -1
REMARK  0 active torsions:
REMARK  status: ('A' for Active; 'I' for Inactive)
ROOT
ATOM      1  C   UNL d   1      -5.514   1.332  -5.585  0.00  0.00    -0.002 A 
ATOM      2  C1  UNL d   1      -4.172   1.442  -5.919  0.00  0.00     0.010 A 
ATOM      3  C2  UNL d   1      -3.214   0.649  -5.284  0.00  0.00     0.041 A 
ATOM      4  C3  UNL d   1      -3.633  -0.268  -4.300  0.00  0.00    -0.075 A 
ATOM      5  S   UNL d   1      -2.638  -1.344  -3.391  0.00  0.00     0.015 SA
ATOM      6  C4  UNL d   1      -3.972  -1.976  -2.539  0.00  0.00     0.022 A 
ATOM      7  C5  UNL d   1      -5.155  -1.391  -2.925  0.00  0.00     0.026 A 
ATOM      8  C6  UNL d   1      -4.979  -0.398  -3.947  0.00  0.00    -0.082 A 
ATOM      9  C7  UNL d   1      -5.926   0.422  -4.608  0.00  0.00     0.045 A 
ENDROOT
TORSDOF 0
ENDMDL
