MODEL 1
REMARK minimizedAffinity 14.0773563
REMARK minimizedRMSD -1
REMARK  0 active torsions:
REMARK  status: ('A' for Active; 'I' for Inactive)
ROOT
ATOM      1  C   UNL d   1      -0.430  -1.269   2.869  0.00  0.00    -0.002 A 
ATOM      2  C1  UNL d   1      -1.475  -0.365   2.996  0.00  0.00     0.010 A 
ATOM      3  C2  UNL d   1      -1.936   0.348   1.887  0.00  0.00     0.041 A 
ATOM      4  C3  UNL d   1      -1.324   0.133   0.636  0.00  0.00    -0.075 A 
ATOM      5  S   UNL d   1      -1.721   0.891  -0.860  0.00  0.00     0.015 SA
ATOM      6  C4  UNL d   1      -0.514   0.033  -1.702  0.00  0.00     0.022 A 
ATOM      7  C5  UNL d   1       0.185  -0.816  -0.877  0.00  0.00     0.026 A 
ATOM      8  C6  UNL d   1      -0.270  -0.773   0.484  0.00  0.00    -0.082 A 
ATOM      9  C7  UNL d   1       0.175  -1.479   1.627  0.00  0.00     0.045 A 
ENDROOT
TORSDOF 0
ENDMDL
