MODEL 1
REMARK minimizedAffinity 14.1109648
REMARK minimizedRMSD -1
REMARK  1 active torsions:
REMARK  status: ('A' for Active; 'I' for Inactive)
REMARK    1  A    between atoms: C1_2  and  C2_3 
ROOT
ATOM      1  C2  UNL d   1       0.177   3.295   0.278  0.00  0.00    -0.076 A 
ATOM      2  C3  UNL d   1       1.577   3.275   0.147  0.00  0.00     0.004 A 
ATOM      3  C4  UNL d   1       2.265   2.075  -0.019  0.00  0.00    -0.003 A 
ATOM      4  C5  UNL d   1       1.565   0.874  -0.057  0.00  0.00     0.000 A 
ATOM      5  C6  UNL d   1       0.175   0.876   0.054  0.00  0.00     0.000 A 
ATOM      6  C7  UNL d   1      -0.536   2.079   0.206  0.00  0.00    -0.073 A 
ATOM      7  C8  UNL d   1      -2.034   2.022   0.327  0.00  0.00     0.078 C 
ENDROOT
BRANCH   1   8
ATOM      8  C1  UNL d   1      -0.513   4.625   0.483  0.00  0.00     0.053 C 
ATOM      9  C   UNL d   1      -0.778   4.923   1.950  0.00  0.00     0.018 C 
ENDBRANCH   1   8
TORSDOF 1
ENDMDL
