MODEL 1
REMARK minimizedAffinity 8.97303963
REMARK minimizedRMSD -1
REMARK  1 active torsions:
REMARK  status: ('A' for Active; 'I' for Inactive)
REMARK    1  A    between atoms: C1_2  and  C2_3 
ROOT
ATOM      1  C2  UNL d   1       2.064   1.449   1.383  0.00  0.00    -0.076 A 
ATOM      2  C3  UNL d   1       2.635   2.534   2.071  0.00  0.00     0.004 A 
ATOM      3  C4  UNL d   1       3.013   2.418   3.407  0.00  0.00    -0.003 A 
ATOM      4  C5  UNL d   1       2.828   1.214   4.078  0.00  0.00     0.000 A 
ATOM      5  C6  UNL d   1       2.280   0.122   3.406  0.00  0.00     0.000 A 
ATOM      6  C7  UNL d   1       1.908   0.217   2.054  0.00  0.00    -0.073 A 
ATOM      7  C8  UNL d   1       1.316  -0.991   1.382  0.00  0.00     0.078 C 
ENDROOT
BRANCH   1   8
ATOM      8  C1  UNL d   1       1.648   1.642  -0.057  0.00  0.00     0.053 C 
ATOM      9  C   UNL d   1       0.285   2.305  -0.186  0.00  0.00     0.018 C 
ENDBRANCH   1   8
TORSDOF 1
ENDMDL
