MODEL 1
REMARK minimizedAffinity 7.21601391
REMARK minimizedRMSD -1
REMARK  1 active torsions:
REMARK  status: ('A' for Active; 'I' for Inactive)
REMARK    1  A    between atoms: C1_2  and  C2_3 
ROOT
ATOM      1  C2  UNL d   1       2.151   1.286   1.531  0.00  0.00    -0.076 A 
ATOM      2  C3  UNL d   1       2.708   2.470   2.045  0.00  0.00     0.004 A 
ATOM      3  C4  UNL d   1       2.960   2.612   3.408  0.00  0.00    -0.003 A 
ATOM      4  C5  UNL d   1       2.659   1.572   4.281  0.00  0.00     0.000 A 
ATOM      5  C6  UNL d   1       2.122   0.383   3.786  0.00  0.00     0.000 A 
ATOM      6  C7  UNL d   1       1.878   0.218   2.412  0.00  0.00    -0.073 A 
ATOM      7  C8  UNL d   1       1.292  -1.083   1.935  0.00  0.00     0.078 C 
ENDROOT
BRANCH   1   8
ATOM      8  C1  UNL d   1       1.874   1.199   0.047  0.00  0.00     0.053 C 
ATOM      9  C   UNL d   1       0.844   2.218  -0.414  0.00  0.00     0.018 C 
ENDBRANCH   1   8
TORSDOF 1
ENDMDL
