MODEL 1
REMARK minimizedAffinity 4.17744637
REMARK minimizedRMSD -1
REMARK  1 active torsions:
REMARK  status: ('A' for Active; 'I' for Inactive)
REMARK    1  A    between atoms: C1_2  and  C2_3 
ROOT
ATOM      1  C2  UNL d   1      -1.196   0.302  -1.148  0.00  0.00    -0.076 A 
ATOM      2  C3  UNL d   1      -2.027   1.360  -1.556  0.00  0.00     0.004 A 
ATOM      3  C4  UNL d   1      -2.641   1.348  -2.807  0.00  0.00    -0.003 A 
ATOM      4  C5  UNL d   1      -2.435   0.277  -3.670  0.00  0.00     0.000 A 
ATOM      5  C6  UNL d   1      -1.629  -0.790  -3.274  0.00  0.00     0.000 A 
ATOM      6  C7  UNL d   1      -1.015  -0.801  -2.010  0.00  0.00    -0.073 A 
ATOM      7  C8  UNL d   1      -0.151  -1.974  -1.638  0.00  0.00     0.078 C 
ENDROOT
BRANCH   1   8
ATOM      8  C1  UNL d   1      -0.535   0.382   0.210  0.00  0.00     0.053 C 
ATOM      9  C   UNL d   1       0.501   1.493   0.288  0.00  0.00     0.018 C 
ENDBRANCH   1   8
TORSDOF 1
ENDMDL
