MODEL 1
REMARK minimizedAffinity -5.18080711
REMARK minimizedRMSD -1
REMARK  1 active torsions:
REMARK  status: ('A' for Active; 'I' for Inactive)
REMARK    1  A    between atoms: N_2  and  C1_3 
ROOT
ATOM      1  C1  UNL d   1       0.288   0.317   0.015  0.00  0.00     0.143 A 
ATOM      2  C2  UNL d   1       1.235   1.079  -0.677  0.00  0.00    -0.057 A 
ATOM      3  C3  UNL d   1       1.143   2.475  -0.734  0.00  0.00     0.033 A 
ATOM      4  C4  UNL d   1       0.082   3.134  -0.121  0.00  0.00    -0.042 A 
ATOM      5  C5  UNL d   1      -0.884   2.395   0.552  0.00  0.00     0.033 A 
ATOM      6  C6  UNL d   1      -0.783   1.001   0.611  0.00  0.00    -0.057 A 
ENDROOT
BRANCH   1   7
ATOM      7  N   UNL d   1       0.270  -1.080   0.025  0.00  0.00    -0.732 N 
ATOM      8  C   UNL d   1      -0.446  -1.815  -0.995  0.00  0.00     0.284 C 
ATOM      9  H3  UNL d   1       1.175  -1.478   0.267  0.00  0.00     0.395 HD
ENDBRANCH   1   7
TORSDOF 1
ENDMDL
