MODEL 1
REMARK minimizedAffinity -4.90897703
REMARK minimizedRMSD -1
REMARK  1 active torsions:
REMARK  status: ('A' for Active; 'I' for Inactive)
REMARK    1  A    between atoms: N_2  and  C1_3 
ROOT
ATOM      1  C1  UNL d   1       0.698   0.750  -0.074  0.00  0.00     0.143 A 
ATOM      2  C2  UNL d   1      -0.432   1.574  -0.072  0.00  0.00    -0.057 A 
ATOM      3  C3  UNL d   1      -0.321   2.958   0.106  0.00  0.00     0.033 A 
ATOM      4  C4  UNL d   1       0.924   3.541   0.314  0.00  0.00    -0.042 A 
ATOM      5  C5  UNL d   1       2.059   2.739   0.340  0.00  0.00     0.033 A 
ATOM      6  C6  UNL d   1       1.943   1.358   0.156  0.00  0.00    -0.057 A 
ENDROOT
BRANCH   1   7
ATOM      7  N   UNL d   1       0.645  -0.644  -0.147  0.00  0.00    -0.732 N 
ATOM      8  C   UNL d   1      -0.581  -1.316  -0.520  0.00  0.00     0.284 C 
ATOM      9  H3  UNL d   1       1.482  -1.044  -0.564  0.00  0.00     0.395 HD
ENDBRANCH   1   7
TORSDOF 1
ENDMDL
