MODEL 1
REMARK minimizedAffinity -5.69920444
REMARK minimizedRMSD -1
REMARK  1 active torsions:
REMARK  status: ('A' for Active; 'I' for Inactive)
REMARK    1  A    between atoms: N_2  and  C1_3 
ROOT
ATOM      1  C1  UNL d   1      -0.187   0.193   0.217  0.00  0.00     0.143 A 
ATOM      2  C2  UNL d   1      -1.076   1.052   0.871  0.00  0.00    -0.057 A 
ATOM      3  C3  UNL d   1      -0.905   2.441   0.831  0.00  0.00     0.033 A 
ATOM      4  C4  UNL d   1       0.178   2.996   0.157  0.00  0.00    -0.042 A 
ATOM      5  C5  UNL d   1       1.088   2.160  -0.479  0.00  0.00     0.033 A 
ATOM      6  C6  UNL d   1       0.909   0.773  -0.441  0.00  0.00    -0.057 A 
ENDROOT
BRANCH   1   7
ATOM      7  N   UNL d   1      -0.247  -1.200   0.303  0.00  0.00    -0.732 N 
ATOM      8  C   UNL d   1      -0.139  -2.017  -0.887  0.00  0.00     0.284 C 
ATOM      9  H3  UNL d   1       0.266  -1.563   1.103  0.00  0.00     0.395 HD
ENDBRANCH   1   7
TORSDOF 1
ENDMDL
