MODEL 1
REMARK minimizedAffinity -1.65561974
REMARK minimizedRMSD -1
REMARK  1 active torsions:
REMARK  status: ('A' for Active; 'I' for Inactive)
REMARK    1  A    between atoms: N_2  and  C1_3 
ROOT
ATOM      1  C1  UNL d   1       0.285   2.088   0.167  0.00  0.00     0.143 A 
ATOM      2  C2  UNL d   1       0.926   3.160   0.797  0.00  0.00    -0.057 A 
ATOM      3  C3  UNL d   1       2.297   3.123   1.077  0.00  0.00     0.033 A 
ATOM      4  C4  UNL d   1       3.049   1.997   0.756  0.00  0.00    -0.042 A 
ATOM      5  C5  UNL d   1       2.427   0.910   0.151  0.00  0.00     0.033 A 
ATOM      6  C6  UNL d   1       1.059   0.956  -0.132  0.00  0.00    -0.057 A 
ENDROOT
BRANCH   1   7
ATOM      7  N   UNL d   1      -1.094   2.025  -0.049  0.00  0.00    -0.732 N 
ATOM      8  C   UNL d   1      -1.852   0.864   0.364  0.00  0.00     0.284 C 
ATOM      9  H3  UNL d   1      -1.557   2.911   0.136  0.00  0.00     0.395 HD
ENDBRANCH   1   7
TORSDOF 1
ENDMDL
