MODEL 1
REMARK minimizedAffinity -5.07086515
REMARK minimizedRMSD -1
REMARK  1 active torsions:
REMARK  status: ('A' for Active; 'I' for Inactive)
REMARK    1  A    between atoms: N_2  and  C1_3 
ROOT
ATOM      1  C1  UNL d   1       1.353   1.042   0.313  0.00  0.00     0.143 A 
ATOM      2  C2  UNL d   1       0.188   0.269   0.368  0.00  0.00    -0.057 A 
ATOM      3  C3  UNL d   1      -1.077   0.849   0.209  0.00  0.00     0.033 A 
ATOM      4  C4  UNL d   1      -1.200   2.222   0.018  0.00  0.00    -0.042 A 
ATOM      5  C5  UNL d   1      -0.057   3.013  -0.015  0.00  0.00     0.033 A 
ATOM      6  C6  UNL d   1       1.203   2.427   0.138  0.00  0.00    -0.057 A 
ENDROOT
BRANCH   1   7
ATOM      7  N   UNL d   1       2.632   0.539   0.562  0.00  0.00    -0.732 N 
ATOM      8  C   UNL d   1       3.803   1.360   0.340  0.00  0.00     0.284 C 
ATOM      9  H3  UNL d   1       2.671  -0.019   1.412  0.00  0.00     0.395 HD
ENDBRANCH   1   7
TORSDOF 1
ENDMDL
