MODEL 1
REMARK minimizedAffinity -1.72361124
REMARK minimizedRMSD -1
REMARK  1 active torsions:
REMARK  status: ('A' for Active; 'I' for Inactive)
REMARK    1  A    between atoms: N_2  and  C1_3 
ROOT
ATOM      1  C1  UNL d   1      -0.546  -0.234   0.349  0.00  0.00     0.143 A 
ATOM      2  C2  UNL d   1      -1.548   0.604   0.848  0.00  0.00    -0.057 A 
ATOM      3  C3  UNL d   1      -1.431   1.998   0.778  0.00  0.00     0.033 A 
ATOM      4  C4  UNL d   1      -0.292   2.579   0.231  0.00  0.00    -0.042 A 
ATOM      5  C5  UNL d   1       0.728   1.766  -0.250  0.00  0.00     0.033 A 
ATOM      6  C6  UNL d   1       0.602   0.375  -0.182  0.00  0.00    -0.057 A 
ENDROOT
BRANCH   1   7
ATOM      7  N   UNL d   1      -0.559  -1.625   0.478  0.00  0.00    -0.732 N 
ATOM      8  C   UNL d   1      -1.230  -2.451  -0.503  0.00  0.00     0.284 C 
ATOM      9  H3  UNL d   1       0.336  -1.995   0.790  0.00  0.00     0.395 HD
ENDBRANCH   1   7
TORSDOF 1
ENDMDL
