MODEL 1
REMARK minimizedAffinity -5.52038336
REMARK minimizedRMSD -1
REMARK  1 active torsions:
REMARK  status: ('A' for Active; 'I' for Inactive)
REMARK    1  A    between atoms: N_2  and  C1_3 
ROOT
ATOM      1  C1  UNL d   1       0.419   1.136   0.396  0.00  0.00     0.143 A 
ATOM      2  C2  UNL d   1       0.373   2.533   0.358  0.00  0.00    -0.057 A 
ATOM      3  C3  UNL d   1       1.536   3.302   0.485  0.00  0.00     0.033 A 
ATOM      4  C4  UNL d   1       2.767   2.684   0.681  0.00  0.00    -0.042 A 
ATOM      5  C5  UNL d   1       2.833   1.297   0.747  0.00  0.00     0.033 A 
ATOM      6  C6  UNL d   1       1.669   0.535   0.613  0.00  0.00    -0.057 A 
ENDROOT
BRANCH   1   7
ATOM      7  N   UNL d   1      -0.715   0.319   0.374  0.00  0.00    -0.732 N 
ATOM      8  C   UNL d   1      -2.035   0.886   0.548  0.00  0.00     0.284 C 
ATOM      9  H3  UNL d   1      -0.662  -0.399  -0.344  0.00  0.00     0.395 HD
ENDBRANCH   1   7
TORSDOF 1
ENDMDL
