MODEL 1
REMARK minimizedAffinity -2.11164069
REMARK minimizedRMSD -1
REMARK  1 active torsions:
REMARK  status: ('A' for Active; 'I' for Inactive)
REMARK    1  A    between atoms: N_2  and  C1_3 
ROOT
ATOM      1  C1  UNL d   1      -0.283  -2.136  -0.659  0.00  0.00     0.143 A 
ATOM      2  C2  UNL d   1      -1.389  -2.993  -0.653  0.00  0.00    -0.057 A 
ATOM      3  C3  UNL d   1      -1.634  -3.870  -1.716  0.00  0.00     0.033 A 
ATOM      4  C4  UNL d   1      -0.791  -3.886  -2.822  0.00  0.00    -0.042 A 
ATOM      5  C5  UNL d   1       0.300  -3.025  -2.861  0.00  0.00     0.033 A 
ATOM      6  C6  UNL d   1       0.544  -2.156  -1.794  0.00  0.00    -0.057 A 
ENDROOT
BRANCH   1   7
ATOM      7  N   UNL d   1      -0.040  -1.171   0.322  0.00  0.00    -0.732 N 
ATOM      8  C   UNL d   1      -0.530   0.181   0.163  0.00  0.00     0.284 C 
ATOM      9  H3  UNL d   1      -0.140  -1.542   1.264  0.00  0.00     0.395 HD
ENDBRANCH   1   7
TORSDOF 1
ENDMDL
