MODEL 1
REMARK minimizedAffinity -4.09498978
REMARK minimizedRMSD -1
REMARK  1 active torsions:
REMARK  status: ('A' for Active; 'I' for Inactive)
REMARK    1  A    between atoms: N_2  and  C1_3 
ROOT
ATOM      1  C1  UNL d   1       0.333   0.826   0.010  0.00  0.00     0.143 A 
ATOM      2  C2  UNL d   1       1.672   0.952   0.396  0.00  0.00    -0.057 A 
ATOM      3  C3  UNL d   1       2.195   2.183   0.810  0.00  0.00     0.033 A 
ATOM      4  C4  UNL d   1       1.394   3.319   0.817  0.00  0.00    -0.042 A 
ATOM      5  C5  UNL d   1       0.067   3.223   0.414  0.00  0.00     0.033 A 
ATOM      6  C6  UNL d   1      -0.452   1.989   0.008  0.00  0.00    -0.057 A 
ENDROOT
BRANCH   1   7
ATOM      7  N   UNL d   1      -0.221  -0.349  -0.505  0.00  0.00    -0.732 N 
ATOM      8  C   UNL d   1       0.163  -1.639   0.026  0.00  0.00     0.284 C 
ATOM      9  H3  UNL d   1      -1.216  -0.257  -0.698  0.00  0.00     0.395 HD
ENDBRANCH   1   7
TORSDOF 1
ENDMDL
