MODEL 1
REMARK minimizedAffinity -1.50804222
REMARK minimizedRMSD -1
REMARK  1 active torsions:
REMARK  status: ('A' for Active; 'I' for Inactive)
REMARK    1  A    between atoms: N_2  and  C1_3 
ROOT
ATOM      1  C1  UNL d   1      -0.274  -1.038  -0.170  0.00  0.00     0.143 A 
ATOM      2  C2  UNL d   1       0.998  -0.699   0.304  0.00  0.00    -0.057 A 
ATOM      3  C3  UNL d   1       1.290   0.600   0.736  0.00  0.00     0.033 A 
ATOM      4  C4  UNL d   1       0.318   1.594   0.675  0.00  0.00    -0.042 A 
ATOM      5  C5  UNL d   1      -0.945   1.286   0.185  0.00  0.00     0.033 A 
ATOM      6  C6  UNL d   1      -1.232  -0.015  -0.239  0.00  0.00    -0.057 A 
ENDROOT
BRANCH   1   7
ATOM      7  N   UNL d   1      -0.597  -2.287  -0.706  0.00  0.00    -0.732 N 
ATOM      8  C   UNL d   1      -0.121  -2.672  -2.017  0.00  0.00     0.284 C 
ATOM      9  H3  UNL d   1      -0.553  -3.030  -0.013  0.00  0.00     0.395 HD
ENDBRANCH   1   7
TORSDOF 1
ENDMDL
