MODEL 1
REMARK minimizedAffinity -3.88019323
REMARK minimizedRMSD -1
REMARK  1 active torsions:
REMARK  status: ('A' for Active; 'I' for Inactive)
REMARK    1  A    between atoms: N_2  and  C1_3 
ROOT
ATOM      1  C1  UNL d   1       0.062   0.491   0.158  0.00  0.00     0.143 A 
ATOM      2  C2  UNL d   1      -1.048   1.342   0.191  0.00  0.00    -0.057 A 
ATOM      3  C3  UNL d   1      -0.920   2.712  -0.064  0.00  0.00     0.033 A 
ATOM      4  C4  UNL d   1       0.329   3.263  -0.329  0.00  0.00    -0.042 A 
ATOM      5  C5  UNL d   1       1.450   2.440  -0.343  0.00  0.00     0.033 A 
ATOM      6  C6  UNL d   1       1.315   1.071  -0.093  0.00  0.00    -0.057 A 
ENDROOT
BRANCH   1   7
ATOM      7  N   UNL d   1       0.015  -0.863   0.500  0.00  0.00    -0.732 N 
ATOM      8  C   UNL d   1      -0.367  -1.858  -0.479  0.00  0.00     0.284 C 
ATOM      9  H3  UNL d   1       0.793  -1.141   1.093  0.00  0.00     0.395 HD
ENDBRANCH   1   7
TORSDOF 1
ENDMDL
