MODEL 1
REMARK minimizedAffinity -2.59670639
REMARK minimizedRMSD -1
REMARK  1 active torsions:
REMARK  status: ('A' for Active; 'I' for Inactive)
REMARK    1  A    between atoms: N_2  and  C1_3 
ROOT
ATOM      1  C1  UNL d   1      -0.216  -1.689  -0.378  0.00  0.00     0.143 A 
ATOM      2  C2  UNL d   1      -1.252  -2.597  -0.134  0.00  0.00    -0.057 A 
ATOM      3  C3  UNL d   1      -1.438  -3.721  -0.947  0.00  0.00     0.033 A 
ATOM      4  C4  UNL d   1      -0.607  -3.942  -2.040  0.00  0.00    -0.042 A 
ATOM      5  C5  UNL d   1       0.414  -3.039  -2.317  0.00  0.00     0.033 A 
ATOM      6  C6  UNL d   1       0.599  -1.922  -1.497  0.00  0.00    -0.057 A 
ENDROOT
BRANCH   1   7
ATOM      7  N   UNL d   1      -0.040  -0.500   0.335  0.00  0.00    -0.732 N 
ATOM      8  C   UNL d   1      -1.126   0.446   0.471  0.00  0.00     0.284 C 
ATOM      9  H3  UNL d   1       0.504  -0.634   1.184  0.00  0.00     0.395 HD
ENDBRANCH   1   7
TORSDOF 1
ENDMDL
