MODEL 1
REMARK minimizedAffinity 5.40388155
REMARK minimizedRMSD -1
REMARK  0 active torsions:
REMARK  status: ('A' for Active; 'I' for Inactive)
ROOT
ATOM      1  C1  BNZ d   1      -1.039   3.812   0.817  0.00  0.00     0.000 A 
ATOM      2  C2  BNZ d   1      -2.143   3.018   0.980  0.00  0.00     0.000 A 
ATOM      3  C3  BNZ d   1      -2.231   1.805   0.355  0.00  0.00     0.000 A 
ATOM      4  C4  BNZ d   1      -1.234   1.407  -0.462  0.00  0.00     0.000 A 
ATOM      5  C5  BNZ d   1      -0.119   2.200  -0.643  0.00  0.00     0.000 A 
ATOM      6  C6  BNZ d   1      -0.017   3.403   0.018  0.00  0.00     0.000 A 
ENDROOT
TORSDOF 0
ENDMDL
