MODEL 1
REMARK minimizedAffinity -1.10227287
REMARK minimizedRMSD -1
REMARK  0 active torsions:
REMARK  status: ('A' for Active; 'I' for Inactive)
ROOT
ATOM      1  C1  BNZ d   1       0.762  -0.759   4.314  0.00  0.00     0.000 A 
ATOM      2  C2  BNZ d   1       1.172  -0.622   3.015  0.00  0.00     0.000 A 
ATOM      3  C3  BNZ d   1       1.913  -1.597   2.408  0.00  0.00     0.000 A 
ATOM      4  C4  BNZ d   1       2.278  -2.688   3.113  0.00  0.00     0.000 A 
ATOM      5  C5  BNZ d   1       1.880  -2.836   4.427  0.00  0.00     0.000 A 
ATOM      6  C6  BNZ d   1       1.101  -1.871   5.022  0.00  0.00     0.000 A 
ENDROOT
TORSDOF 0
ENDMDL
