MODEL 1
REMARK minimizedAffinity 0.316781163
REMARK minimizedRMSD -1
REMARK  0 active torsions:
REMARK  status: ('A' for Active; 'I' for Inactive)
ROOT
ATOM      1  C1  BNZ d   1      -5.657   3.944  -4.554  0.00  0.00     0.000 A 
ATOM      2  C2  BNZ d   1      -5.195   3.297  -5.669  0.00  0.00     0.000 A 
ATOM      3  C3  BNZ d   1      -4.822   1.983  -5.611  0.00  0.00     0.000 A 
ATOM      4  C4  BNZ d   1      -4.872   1.331  -4.432  0.00  0.00     0.000 A 
ATOM      5  C5  BNZ d   1      -5.326   1.972  -3.297  0.00  0.00     0.000 A 
ATOM      6  C6  BNZ d   1      -5.738   3.283  -3.367  0.00  0.00     0.000 A 
ENDROOT
TORSDOF 0
ENDMDL
