MODEL 1
REMARK minimizedAffinity 2.27888322
REMARK minimizedRMSD -1
REMARK  0 active torsions:
REMARK  status: ('A' for Active; 'I' for Inactive)
ROOT
ATOM      1  C1  BNZ d   1       1.207  -1.842   4.447  0.00  0.00     0.000 A 
ATOM      2  C2  BNZ d   1       0.803  -0.768   3.699  0.00  0.00     0.000 A 
ATOM      3  C3  BNZ d   1       1.011  -0.738   2.348  0.00  0.00     0.000 A 
ATOM      4  C4  BNZ d   1       1.658  -1.761   1.754  0.00  0.00     0.000 A 
ATOM      5  C5  BNZ d   1       2.080  -2.846   2.496  0.00  0.00     0.000 A 
ATOM      6  C6  BNZ d   1       1.835  -2.891   3.849  0.00  0.00     0.000 A 
ENDROOT
TORSDOF 0
ENDMDL
