MODEL 1
REMARK minimizedAffinity 1.39958978
REMARK minimizedRMSD -1
REMARK  0 active torsions:
REMARK  status: ('A' for Active; 'I' for Inactive)
ROOT
ATOM      1  C1  BNZ d   1       2.194  -2.214   2.088  0.00  0.00     0.000 A 
ATOM      2  C2  BNZ d   1       1.532  -1.035   2.304  0.00  0.00     0.000 A 
ATOM      3  C3  BNZ d   1       1.197  -0.641   3.569  0.00  0.00     0.000 A 
ATOM      4  C4  BNZ d   1       1.489  -1.445   4.612  0.00  0.00     0.000 A 
ATOM      5  C5  BNZ d   1       2.148  -2.642   4.410  0.00  0.00     0.000 A 
ATOM      6  C6  BNZ d   1       2.518  -3.016   3.138  0.00  0.00     0.000 A 
ENDROOT
TORSDOF 0
ENDMDL
