MODEL 1
REMARK minimizedAffinity 6.35887289
REMARK minimizedRMSD -1
REMARK  0 active torsions:
REMARK  status: ('A' for Active; 'I' for Inactive)
ROOT
ATOM      1  C1  BNZ d   1      -2.629   0.342   0.477  0.00  0.00     0.000 A 
ATOM      2  C2  BNZ d   1      -3.025   1.587   0.067  0.00  0.00     0.000 A 
ATOM      3  C3  BNZ d   1      -2.104   2.551  -0.234  0.00  0.00     0.000 A 
ATOM      4  C4  BNZ d   1      -0.791   2.282  -0.087  0.00  0.00     0.000 A 
ATOM      5  C5  BNZ d   1      -0.375   1.035   0.334  0.00  0.00     0.000 A 
ATOM      6  C6  BNZ d   1      -1.304   0.055   0.599  0.00  0.00     0.000 A 
ENDROOT
TORSDOF 0
ENDMDL
