MODEL 1
REMARK minimizedAffinity 11.4556656
REMARK minimizedRMSD -1
REMARK  0 active torsions:
REMARK  status: ('A' for Active; 'I' for Inactive)
ROOT
ATOM      1  C1  BNZ d   1       0.842   0.169   2.619  0.00  0.00     0.000 A 
ATOM      2  C2  BNZ d   1       1.383  -0.330   1.464  0.00  0.00     0.000 A 
ATOM      3  C3  BNZ d   1       1.938  -1.579   1.434  0.00  0.00     0.000 A 
ATOM      4  C4  BNZ d   1       1.986  -2.310   2.565  0.00  0.00     0.000 A 
ATOM      5  C5  BNZ d   1       1.453  -1.817   3.740  0.00  0.00     0.000 A 
ATOM      6  C6  BNZ d   1       0.861  -0.575   3.757  0.00  0.00     0.000 A 
ENDROOT
TORSDOF 0
ENDMDL
