MODEL 1
REMARK minimizedAffinity 7.89577103
REMARK minimizedRMSD -1
REMARK  0 active torsions:
REMARK  status: ('A' for Active; 'I' for Inactive)
ROOT
ATOM      1  C1  BNZ d   1      -5.719   3.646  -2.901  0.00  0.00     0.000 A 
ATOM      2  C2  BNZ d   1      -5.733   3.667  -4.270  0.00  0.00     0.000 A 
ATOM      3  C3  BNZ d   1      -5.851   4.847  -4.950  0.00  0.00     0.000 A 
ATOM      4  C4  BNZ d   1      -5.995   5.998  -4.262  0.00  0.00     0.000 A 
ATOM      5  C5  BNZ d   1      -5.992   5.991  -2.881  0.00  0.00     0.000 A 
ATOM      6  C6  BNZ d   1      -5.834   4.806  -2.200  0.00  0.00     0.000 A 
ENDROOT
TORSDOF 0
ENDMDL
