MODEL 1
REMARK minimizedAffinity 11.2417755
REMARK minimizedRMSD -1
REMARK  0 active torsions:
REMARK  status: ('A' for Active; 'I' for Inactive)
ROOT
ATOM      1  C1  BNZ d   1      -5.641   3.767  -4.204  0.00  0.00     0.000 A 
ATOM      2  C2  BNZ d   1      -5.744   3.344  -2.905  0.00  0.00     0.000 A 
ATOM      3  C3  BNZ d   1      -5.943   4.238  -1.891  0.00  0.00     0.000 A 
ATOM      4  C4  BNZ d   1      -5.999   5.556  -2.171  0.00  0.00     0.000 A 
ATOM      5  C5  BNZ d   1      -5.888   5.999  -3.473  0.00  0.00     0.000 A 
ATOM      6  C6  BNZ d   1      -5.727   5.093  -4.496  0.00  0.00     0.000 A 
ENDROOT
TORSDOF 0
ENDMDL
