MODEL 1
REMARK minimizedAffinity -4.4482255
REMARK minimizedRMSD -1
REMARK  1 active torsions:
REMARK  status: ('A' for Active; 'I' for Inactive)
REMARK    1  A    between atoms: N_2  and  C1_3 
ROOT
ATOM      1  C1  UNL d   1      -0.550   0.409   0.877  0.00  0.00     0.143 A 
ATOM      2  C2  UNL d   1      -1.661  -0.339   1.283  0.00  0.00    -0.057 A 
ATOM      3  C3  UNL d   1      -2.392   0.008   2.426  0.00  0.00     0.033 A 
ATOM      4  C4  UNL d   1      -2.005   1.095   3.202  0.00  0.00    -0.042 A 
ATOM      5  C5  UNL d   1      -0.889   1.838   2.832  0.00  0.00     0.033 A 
ATOM      6  C6  UNL d   1      -0.168   1.490   1.686  0.00  0.00    -0.057 A 
ENDROOT
BRANCH   1   7
ATOM      7  N   UNL d   1       0.276   0.057  -0.193  0.00  0.00    -0.732 N 
ATOM      8  C   UNL d   1       1.006  -1.193  -0.181  0.00  0.00     0.284 C 
ATOM      9  H3  UNL d   1      -0.136   0.289  -1.094  0.00  0.00     0.395 HD
ENDBRANCH   1   7
TORSDOF 1
ENDMDL
