MODEL 1
REMARK minimizedAffinity -2.67286682
REMARK minimizedRMSD -1
REMARK  1 active torsions:
REMARK  status: ('A' for Active; 'I' for Inactive)
REMARK    1  A    between atoms: N_2  and  C1_3 
ROOT
ATOM      1  C1  UNL d   1      -0.257  -0.170   0.273  0.00  0.00     0.143 A 
ATOM      2  C2  UNL d   1       0.221  -1.479   0.390  0.00  0.00    -0.057 A 
ATOM      3  C3  UNL d   1       1.231  -1.961  -0.452  0.00  0.00     0.033 A 
ATOM      4  C4  UNL d   1       1.762  -1.148  -1.448  0.00  0.00    -0.042 A 
ATOM      5  C5  UNL d   1       1.284   0.149  -1.598  0.00  0.00     0.033 A 
ATOM      6  C6  UNL d   1       0.280   0.627  -0.750  0.00  0.00    -0.057 A 
ENDROOT
BRANCH   1   7
ATOM      7  N   UNL d   1      -1.328   0.336   1.015  0.00  0.00    -0.732 N 
ATOM      8  C   UNL d   1      -1.278   0.358   2.461  0.00  0.00     0.284 C 
ATOM      9  H3  UNL d   1      -1.725   1.176   0.600  0.00  0.00     0.395 HD
ENDBRANCH   1   7
TORSDOF 1
ENDMDL
