MODEL 1
REMARK minimizedAffinity -4.64545822
REMARK minimizedRMSD -1
REMARK  1 active torsions:
REMARK  status: ('A' for Active; 'I' for Inactive)
REMARK    1  A    between atoms: N_2  and  C1_3 
ROOT
ATOM      1  C1  UNL d   1      -0.377  -0.055  -0.041  0.00  0.00     0.143 A 
ATOM      2  C2  UNL d   1       0.461   0.739  -0.831  0.00  0.00    -0.057 A 
ATOM      3  C3  UNL d   1       1.632   0.219  -1.396  0.00  0.00     0.033 A 
ATOM      4  C4  UNL d   1       2.001  -1.100  -1.157  0.00  0.00    -0.042 A 
ATOM      5  C5  UNL d   1       1.196  -1.901  -0.354  0.00  0.00     0.033 A 
ATOM      6  C6  UNL d   1       0.024  -1.378   0.202  0.00  0.00    -0.057 A 
ENDROOT
BRANCH   1   7
ATOM      7  N   UNL d   1      -1.502   0.430   0.630  0.00  0.00    -0.732 N 
ATOM      8  C   UNL d   1      -1.413   0.849   2.012  0.00  0.00     0.284 C 
ATOM      9  H3  UNL d   1      -2.069   1.042   0.046  0.00  0.00     0.395 HD
ENDBRANCH   1   7
TORSDOF 1
ENDMDL
