MODEL 1
REMARK minimizedAffinity -3.49928355
REMARK minimizedRMSD -1
REMARK  1 active torsions:
REMARK  status: ('A' for Active; 'I' for Inactive)
REMARK    1  A    between atoms: N_2  and  C1_3 
ROOT
ATOM      1  C1  UNL d   1      -0.973  -0.097   0.764  0.00  0.00     0.143 A 
ATOM      2  C2  UNL d   1      -0.580   0.913  -0.121  0.00  0.00    -0.057 A 
ATOM      3  C3  UNL d   1       0.564   0.776  -0.917  0.00  0.00     0.033 A 
ATOM      4  C4  UNL d   1       1.354  -0.365  -0.819  0.00  0.00    -0.042 A 
ATOM      5  C5  UNL d   1       0.996  -1.371   0.072  0.00  0.00     0.033 A 
ATOM      6  C6  UNL d   1      -0.152  -1.231   0.859  0.00  0.00    -0.057 A 
ENDROOT
BRANCH   1   7
ATOM      7  N   UNL d   1      -2.045   0.022   1.652  0.00  0.00    -0.732 N 
ATOM      8  C   UNL d   1      -1.843   0.553   2.983  0.00  0.00     0.284 C 
ATOM      9  H3  UNL d   1      -2.892   0.353   1.197  0.00  0.00     0.395 HD
ENDBRANCH   1   7
TORSDOF 1
ENDMDL
