MODEL 1
REMARK minimizedAffinity -4.55590057
REMARK minimizedRMSD -1
REMARK  1 active torsions:
REMARK  status: ('A' for Active; 'I' for Inactive)
REMARK    1  A    between atoms: N_2  and  C1_3 
ROOT
ATOM      1  C1  UNL d   1       0.720  -0.403  -0.525  0.00  0.00     0.143 A 
ATOM      2  C2  UNL d   1       0.768   0.633  -1.465  0.00  0.00    -0.057 A 
ATOM      3  C3  UNL d   1       1.648   0.586  -2.553  0.00  0.00     0.033 A 
ATOM      4  C4  UNL d   1       2.519  -0.488  -2.705  0.00  0.00    -0.042 A 
ATOM      5  C5  UNL d   1       2.506  -1.516  -1.770  0.00  0.00     0.033 A 
ATOM      6  C6  UNL d   1       1.621  -1.467  -0.689  0.00  0.00    -0.057 A 
ENDROOT
BRANCH   1   7
ATOM      7  N   UNL d   1      -0.063  -0.368   0.631  0.00  0.00    -0.732 N 
ATOM      8  C   UNL d   1      -1.384   0.223   0.610  0.00  0.00     0.284 C 
ATOM      9  H3  UNL d   1      -0.002  -1.231   1.168  0.00  0.00     0.395 HD
ENDBRANCH   1   7
TORSDOF 1
ENDMDL
