MODEL 1
REMARK minimizedAffinity -0.993939817
REMARK minimizedRMSD -1
REMARK  1 active torsions:
REMARK  status: ('A' for Active; 'I' for Inactive)
REMARK    1  A    between atoms: N_2  and  C1_3 
ROOT
ATOM      1  C1  UNL d   1      -1.142   0.740   1.622  0.00  0.00     0.143 A 
ATOM      2  C2  UNL d   1      -0.065  -0.117   1.873  0.00  0.00    -0.057 A 
ATOM      3  C3  UNL d   1       0.402  -1.002   0.894  0.00  0.00     0.033 A 
ATOM      4  C4  UNL d   1      -0.221  -1.067  -0.348  0.00  0.00    -0.042 A 
ATOM      5  C5  UNL d   1      -1.309  -0.242  -0.611  0.00  0.00     0.033 A 
ATOM      6  C6  UNL d   1      -1.766   0.645   0.368  0.00  0.00    -0.057 A 
ENDROOT
BRANCH   1   7
ATOM      7  N   UNL d   1      -1.714   1.573   2.587  0.00  0.00    -0.732 N 
ATOM      8  C   UNL d   1      -1.406   1.397   3.989  0.00  0.00     0.284 C 
ATOM      9  H3  UNL d   1      -1.752   2.545   2.288  0.00  0.00     0.395 HD
ENDBRANCH   1   7
TORSDOF 1
ENDMDL
