MODEL 1
REMARK minimizedAffinity -3.64348793
REMARK minimizedRMSD -1
REMARK  1 active torsions:
REMARK  status: ('A' for Active; 'I' for Inactive)
REMARK    1  A    between atoms: N_2  and  C1_3 
ROOT
ATOM      1  C1  UNL d   1      -0.779   0.018   1.544  0.00  0.00     0.143 A 
ATOM      2  C2  UNL d   1      -0.452   0.168   2.896  0.00  0.00    -0.057 A 
ATOM      3  C3  UNL d   1      -1.206   0.994   3.738  0.00  0.00     0.033 A 
ATOM      4  C4  UNL d   1      -2.286   1.711   3.234  0.00  0.00    -0.042 A 
ATOM      5  C5  UNL d   1      -2.615   1.596   1.888  0.00  0.00     0.033 A 
ATOM      6  C6  UNL d   1      -1.862   0.764   1.054  0.00  0.00    -0.057 A 
ENDROOT
BRANCH   1   7
ATOM      7  N   UNL d   1      -0.010  -0.712   0.634  0.00  0.00    -0.732 N 
ATOM      8  C   UNL d   1       0.336  -0.151  -0.654  0.00  0.00     0.284 C 
ATOM      9  H3  UNL d   1       0.749  -1.218   1.085  0.00  0.00     0.395 HD
ENDBRANCH   1   7
TORSDOF 1
ENDMDL
