MODEL 1
REMARK minimizedAffinity -1.00153315
REMARK minimizedRMSD -1
REMARK  1 active torsions:
REMARK  status: ('A' for Active; 'I' for Inactive)
REMARK    1  A    between atoms: N_2  and  C1_3 
ROOT
ATOM      1  C1  UNL d   1       1.291   0.286  -2.334  0.00  0.00     0.143 A 
ATOM      2  C2  UNL d   1       0.431   0.392  -1.236  0.00  0.00    -0.057 A 
ATOM      3  C3  UNL d   1       0.423  -0.576  -0.225  0.00  0.00     0.033 A 
ATOM      4  C4  UNL d   1       1.257  -1.686  -0.309  0.00  0.00    -0.042 A 
ATOM      5  C5  UNL d   1       2.102  -1.825  -1.405  0.00  0.00     0.033 A 
ATOM      6  C6  UNL d   1       2.110  -0.851  -2.408  0.00  0.00    -0.057 A 
ENDROOT
BRANCH   1   7
ATOM      7  N   UNL d   1       1.276   1.165  -3.421  0.00  0.00    -0.732 N 
ATOM      8  C   UNL d   1       1.547   0.686  -4.759  0.00  0.00     0.284 C 
ATOM      9  H3  UNL d   1       0.516   1.838  -3.366  0.00  0.00     0.395 HD
ENDBRANCH   1   7
TORSDOF 1
ENDMDL
