MODEL 1
REMARK minimizedAffinity -2.69245195
REMARK minimizedRMSD -1
REMARK  1 active torsions:
REMARK  status: ('A' for Active; 'I' for Inactive)
REMARK    1  A    between atoms: N_2  and  C1_3 
ROOT
ATOM      1  C1  UNL d   1      -1.581   0.237   1.038  0.00  0.00     0.143 A 
ATOM      2  C2  UNL d   1      -2.572  -0.444   1.754  0.00  0.00    -0.057 A 
ATOM      3  C3  UNL d   1      -3.017   0.020   2.998  0.00  0.00     0.033 A 
ATOM      4  C4  UNL d   1      -2.456   1.161   3.563  0.00  0.00    -0.042 A 
ATOM      5  C5  UNL d   1      -1.453   1.839   2.881  0.00  0.00     0.033 A 
ATOM      6  C6  UNL d   1      -1.017   1.375   1.636  0.00  0.00    -0.057 A 
ENDROOT
BRANCH   1   7
ATOM      7  N   UNL d   1      -1.028  -0.229  -0.157  0.00  0.00    -0.732 N 
ATOM      8  C   UNL d   1      -0.199  -1.415  -0.173  0.00  0.00     0.284 C 
ATOM      9  H3  UNL d   1      -1.678  -0.165  -0.937  0.00  0.00     0.395 HD
ENDBRANCH   1   7
TORSDOF 1
ENDMDL
