MODEL 1
REMARK minimizedAffinity -4.42944145
REMARK minimizedRMSD -1
REMARK  1 active torsions:
REMARK  status: ('A' for Active; 'I' for Inactive)
REMARK    1  A    between atoms: N_2  and  C1_3 
ROOT
ATOM      1  C1  UNL d   1       1.080  -0.001  -1.253  0.00  0.00     0.143 A 
ATOM      2  C2  UNL d   1      -0.080   0.315  -0.538  0.00  0.00    -0.057 A 
ATOM      3  C3  UNL d   1      -0.620  -0.573   0.400  0.00  0.00     0.033 A 
ATOM      4  C4  UNL d   1      -0.023  -1.810   0.619  0.00  0.00    -0.042 A 
ATOM      5  C5  UNL d   1       1.117  -2.156  -0.099  0.00  0.00     0.033 A 
ATOM      6  C6  UNL d   1       1.655  -1.262  -1.029  0.00  0.00    -0.057 A 
ENDROOT
BRANCH   1   7
ATOM      7  N   UNL d   1       1.609   0.798  -2.270  0.00  0.00    -0.732 N 
ATOM      8  C   UNL d   1       0.942   2.019  -2.670  0.00  0.00     0.284 C 
ATOM      9  H3  UNL d   1       2.622   0.877  -2.215  0.00  0.00     0.395 HD
ENDBRANCH   1   7
TORSDOF 1
ENDMDL
