MODEL 1
REMARK minimizedAffinity 0.75690943
REMARK minimizedRMSD -1
REMARK  1 active torsions:
REMARK  status: ('A' for Active; 'I' for Inactive)
REMARK    1  A    between atoms: N_2  and  C1_3 
ROOT
ATOM      1  C1  UNL d   1      -1.643   0.559   1.662  0.00  0.00     0.143 A 
ATOM      2  C2  UNL d   1      -2.144  -0.497   2.431  0.00  0.00    -0.057 A 
ATOM      3  C3  UNL d   1      -2.266  -0.388   3.821  0.00  0.00     0.033 A 
ATOM      4  C4  UNL d   1      -1.860   0.771   4.473  0.00  0.00    -0.042 A 
ATOM      5  C5  UNL d   1      -1.335   1.824   3.732  0.00  0.00     0.033 A 
ATOM      6  C6  UNL d   1      -1.222   1.712   2.342  0.00  0.00    -0.057 A 
ENDROOT
BRANCH   1   7
ATOM      7  N   UNL d   1      -1.405   0.476   0.288  0.00  0.00    -0.732 N 
ATOM      8  C   UNL d   1      -0.127   0.021  -0.213  0.00  0.00     0.284 C 
ATOM      9  H3  UNL d   1      -2.206   0.112  -0.224  0.00  0.00     0.395 HD
ENDBRANCH   1   7
TORSDOF 1
ENDMDL
