MODEL 1
REMARK minimizedAffinity 10.4774475
REMARK minimizedRMSD -1
REMARK  0 active torsions:
REMARK  status: ('A' for Active; 'I' for Inactive)
ROOT
ATOM      1  C   UNL d   1       1.527  -0.644   1.456  0.00  0.00    -0.002 A 
ATOM      2  C1  UNL d   1       1.776  -0.803   2.812  0.00  0.00     0.010 A 
ATOM      3  C2  UNL d   1       2.970  -1.377   3.253  0.00  0.00     0.041 A 
ATOM      4  C3  UNL d   1       3.920  -1.791   2.299  0.00  0.00    -0.075 A 
ATOM      5  S   UNL d   1       5.453  -2.518   2.606  0.00  0.00     0.015 SA
ATOM      6  C4  UNL d   1       5.815  -2.634   0.945  0.00  0.00     0.022 A 
ATOM      7  C5  UNL d   1       4.802  -2.135   0.160  0.00  0.00     0.026 A 
ATOM      8  C6  UNL d   1       3.693  -1.640   0.928  0.00  0.00    -0.082 A 
ATOM      9  C7  UNL d   1       2.473  -1.056   0.513  0.00  0.00     0.045 A 
ENDROOT
TORSDOF 0
ENDMDL
