MODEL 1
REMARK minimizedAffinity 0.658974886
REMARK minimizedRMSD -1
REMARK  0 active torsions:
REMARK  status: ('A' for Active; 'I' for Inactive)
ROOT
ATOM      1  C   UNL d   1      -1.006   3.004   0.314  0.00  0.00    -0.002 A 
ATOM      2  C1  UNL d   1      -1.679   2.109   1.134  0.00  0.00     0.010 A 
ATOM      3  C2  UNL d   1      -2.842   2.494   1.802  0.00  0.00     0.041 A 
ATOM      4  C3  UNL d   1      -3.325   3.806   1.629  0.00  0.00    -0.075 A 
ATOM      5  S   UNL d   1      -4.731   4.499   2.347  0.00  0.00     0.015 SA
ATOM      6  C4  UNL d   1      -4.473   5.999   1.581  0.00  0.00     0.022 A 
ATOM      7  C5  UNL d   1      -3.346   5.990   0.794  0.00  0.00     0.026 A 
ATOM      8  C6  UNL d   1      -2.666   4.725   0.808  0.00  0.00    -0.082 A 
ATOM      9  C7  UNL d   1      -1.488   4.305   0.145  0.00  0.00     0.045 A 
ENDROOT
TORSDOF 0
ENDMDL
