MODEL 1
REMARK minimizedAffinity -1.5478586
REMARK minimizedRMSD -1
REMARK  0 active torsions:
REMARK  status: ('A' for Active; 'I' for Inactive)
ROOT
ATOM      1  C   UNL d   1      -1.155   2.963   0.726  0.00  0.00    -0.002 A 
ATOM      2  C1  UNL d   1      -2.055   2.012   1.186  0.00  0.00     0.010 A 
ATOM      3  C2  UNL d   1      -3.354   2.378   1.544  0.00  0.00     0.041 A 
ATOM      4  C3  UNL d   1      -3.737   3.729   1.429  0.00  0.00    -0.075 A 
ATOM      5  S   UNL d   1      -5.276   4.408   1.808  0.00  0.00     0.015 SA
ATOM      6  C4  UNL d   1      -4.775   5.977   1.368  0.00  0.00     0.022 A 
ATOM      7  C5  UNL d   1      -3.469   6.000   0.940  0.00  0.00     0.026 A 
ATOM      8  C6  UNL d   1      -2.849   4.705   0.968  0.00  0.00    -0.082 A 
ATOM      9  C7  UNL d   1      -1.539   4.302   0.613  0.00  0.00     0.045 A 
ENDROOT
TORSDOF 0
ENDMDL
