MODEL 1
REMARK minimizedAffinity 20.6870346
REMARK minimizedRMSD -1
REMARK  0 active torsions:
REMARK  status: ('A' for Active; 'I' for Inactive)
ROOT
ATOM      1  C   UNL d   1       0.268   5.849  -2.593  0.00  0.00    -0.002 A 
ATOM      2  C1  UNL d   1       1.375   5.141  -2.147  0.00  0.00     0.010 A 
ATOM      3  C2  UNL d   1       1.220   3.916  -1.496  0.00  0.00     0.041 A 
ATOM      4  C3  UNL d   1      -0.079   3.409  -1.299  0.00  0.00    -0.075 A 
ATOM      5  S   UNL d   1      -0.511   1.929  -0.528  0.00  0.00     0.015 SA
ATOM      6  C4  UNL d   1      -2.176   2.201  -0.772  0.00  0.00     0.022 A 
ATOM      7  C5  UNL d   1      -2.414   3.387  -1.425  0.00  0.00     0.026 A 
ATOM      8  C6  UNL d   1      -1.210   4.103  -1.740  0.00  0.00    -0.082 A 
ATOM      9  C7  UNL d   1      -1.019   5.343  -2.396  0.00  0.00     0.045 A 
ENDROOT
TORSDOF 0
ENDMDL
