MODEL 1
REMARK minimizedAffinity -2.95780182
REMARK minimizedRMSD -1
REMARK  2 active torsions:
REMARK  status: ('A' for Active; 'I' for Inactive)
REMARK    1  A    between atoms: C1_2  and  C2_3 
REMARK    2  A    between atoms: C2_3  and  C3_4 
ROOT
ATOM      1  C3  UNL d   1       1.745   5.805   5.168  0.00  0.00    -0.075 A 
ATOM      2  C4  UNL d   1       0.632   5.992   6.000  0.00  0.00     0.002 A 
ATOM      3  C5  UNL d   1      -0.659   5.784   5.513  0.00  0.00     0.002 A 
ATOM      4  C6  UNL d   1      -0.854   5.397   4.189  0.00  0.00    -0.004 A 
ATOM      5  C7  UNL d   1       0.244   5.225   3.349  0.00  0.00     0.002 A 
ATOM      6  C8  UNL d   1       1.537   5.428   3.834  0.00  0.00     0.002 A 
ENDROOT
BRANCH   1   7
ATOM      7  C2  UNL d   1       3.146   6.000   5.697  0.00  0.00     0.056 C 
BRANCH   7   8
ATOM      8  C1  UNL d   1       4.230   5.314   4.858  0.00  0.00     0.007 C 
ATOM      9  C   UNL d   1       5.436   4.876   5.678  0.00  0.00     0.009 C 
ENDBRANCH   7   8
ENDBRANCH   1   7
TORSDOF 2
ENDMDL
