MODEL 1
REMARK minimizedAffinity 1.82860184
REMARK minimizedRMSD -1
REMARK  2 active torsions:
REMARK  status: ('A' for Active; 'I' for Inactive)
REMARK    1  A    between atoms: C1_2  and  C2_3 
REMARK    2  A    between atoms: C2_3  and  C3_4 
ROOT
ATOM      1  C3  UNL d   1      -0.767   5.460   4.786  0.00  0.00    -0.075 A 
ATOM      2  C4  UNL d   1      -1.304   4.507   3.908  0.00  0.00     0.002 A 
ATOM      3  C5  UNL d   1      -2.639   4.117   4.016  0.00  0.00     0.002 A 
ATOM      4  C6  UNL d   1      -3.451   4.666   5.006  0.00  0.00    -0.004 A 
ATOM      5  C7  UNL d   1      -2.924   5.602   5.894  0.00  0.00     0.002 A 
ATOM      6  C8  UNL d   1      -1.589   5.997   5.786  0.00  0.00     0.002 A 
ENDROOT
BRANCH   1   7
ATOM      7  C2  UNL d   1       0.669   5.908   4.657  0.00  0.00     0.056 C 
BRANCH   7   8
ATOM      8  C1  UNL d   1       1.417   5.999   5.991  0.00  0.00     0.007 C 
ATOM      9  C   UNL d   1       2.931   6.000   5.832  0.00  0.00     0.009 C 
ENDBRANCH   7   8
ENDBRANCH   1   7
TORSDOF 2
ENDMDL
