MODEL 1
REMARK minimizedAffinity 6.56561995
REMARK minimizedRMSD -1
REMARK  2 active torsions:
REMARK  status: ('A' for Active; 'I' for Inactive)
REMARK    1  A    between atoms: C1_2  and  C2_3 
REMARK    2  A    between atoms: C2_3  and  C3_4 
ROOT
ATOM      1  C3  UNL d   1       1.581  -2.536   1.814  0.00  0.00    -0.075 A 
ATOM      2  C4  UNL d   1       1.830  -1.876   0.603  0.00  0.00     0.002 A 
ATOM      3  C5  UNL d   1       1.797  -0.482   0.535  0.00  0.00     0.002 A 
ATOM      4  C6  UNL d   1       1.505   0.266   1.673  0.00  0.00    -0.004 A 
ATOM      5  C7  UNL d   1       1.239  -0.380   2.879  0.00  0.00     0.002 A 
ATOM      6  C8  UNL d   1       1.276  -1.773   2.950  0.00  0.00     0.002 A 
ENDROOT
BRANCH   1   7
ATOM      7  C2  UNL d   1       1.644  -4.042   1.901  0.00  0.00     0.056 C 
BRANCH   7   8
ATOM      8  C1  UNL d   1       0.478  -4.673   2.669  0.00  0.00     0.007 C 
ATOM      9  C   UNL d   1       0.838  -6.000   3.323  0.00  0.00     0.009 C 
ENDBRANCH   7   8
ENDBRANCH   1   7
TORSDOF 2
ENDMDL
