MODEL 1
REMARK minimizedAffinity -2.63706112
REMARK minimizedRMSD -1
REMARK  2 active torsions:
REMARK  status: ('A' for Active; 'I' for Inactive)
REMARK    1  A    between atoms: C1_2  and  C2_3 
REMARK    2  A    between atoms: C2_3  and  C3_4 
ROOT
ATOM      1  C3  UNL d   1       0.918   5.581   5.189  0.00  0.00    -0.075 A 
ATOM      2  C4  UNL d   1       0.552   5.905   3.874  0.00  0.00     0.002 A 
ATOM      3  C5  UNL d   1      -0.709   5.564   3.385  0.00  0.00     0.002 A 
ATOM      4  C6  UNL d   1      -1.614   4.886   4.197  0.00  0.00    -0.004 A 
ATOM      5  C7  UNL d   1      -1.256   4.543   5.500  0.00  0.00     0.002 A 
ATOM      6  C8  UNL d   1       0.003   4.888   5.993  0.00  0.00     0.002 A 
ENDROOT
BRANCH   1   7
ATOM      7  C2  UNL d   1       2.270   5.974   5.734  0.00  0.00     0.056 C 
BRANCH   7   8
ATOM      8  C1  UNL d   1       3.384   6.000   4.682  0.00  0.00     0.007 C 
ATOM      9  C   UNL d   1       4.781   5.984   5.286  0.00  0.00     0.009 C 
ENDBRANCH   7   8
ENDBRANCH   1   7
TORSDOF 2
ENDMDL
