MODEL 1
REMARK minimizedAffinity -0.81843996
REMARK minimizedRMSD -1
REMARK  2 active torsions:
REMARK  status: ('A' for Active; 'I' for Inactive)
REMARK    1  A    between atoms: C1_2  and  C2_3 
REMARK    2  A    between atoms: C2_3  and  C3_4 
ROOT
ATOM      1  C3  UNL d   1       0.636   5.429   5.194  0.00  0.00    -0.075 A 
ATOM      2  C4  UNL d   1      -0.331   4.811   6.000  0.00  0.00     0.002 A 
ATOM      3  C5  UNL d   1      -1.480   4.260   5.430  0.00  0.00     0.002 A 
ATOM      4  C6  UNL d   1      -1.681   4.330   4.054  0.00  0.00    -0.004 A 
ATOM      5  C7  UNL d   1      -0.734   4.956   3.246  0.00  0.00     0.002 A 
ATOM      6  C8  UNL d   1       0.419   5.503   3.812  0.00  0.00     0.002 A 
ENDROOT
BRANCH   1   7
ATOM      7  C2  UNL d   1       1.896   6.000   5.801  0.00  0.00     0.056 C 
BRANCH   7   8
ATOM      8  C1  UNL d   1       3.155   5.174   5.518  0.00  0.00     0.007 C 
ATOM      9  C   UNL d   1       4.435   5.998   5.556  0.00  0.00     0.009 C 
ENDBRANCH   7   8
ENDBRANCH   1   7
TORSDOF 2
ENDMDL
