MODEL 1
REMARK minimizedAffinity -2.70967507
REMARK minimizedRMSD -1
REMARK  2 active torsions:
REMARK  status: ('A' for Active; 'I' for Inactive)
REMARK    1  A    between atoms: C1_2  and  C2_3 
REMARK    2  A    between atoms: C2_3  and  C3_4 
ROOT
ATOM      1  C3  UNL d   1      -1.963   4.534   5.082  0.00  0.00    -0.075 A 
ATOM      2  C4  UNL d   1      -1.872   3.478   6.000  0.00  0.00     0.002 A 
ATOM      3  C5  UNL d   1      -2.751   2.397   5.925  0.00  0.00     0.002 A 
ATOM      4  C6  UNL d   1      -3.736   2.363   4.941  0.00  0.00    -0.004 A 
ATOM      5  C7  UNL d   1      -3.846   3.415   4.034  0.00  0.00     0.002 A 
ATOM      6  C8  UNL d   1      -2.965   4.496   4.104  0.00  0.00     0.002 A 
ENDROOT
BRANCH   1   7
ATOM      7  C2  UNL d   1      -0.996   5.692   5.139  0.00  0.00     0.056 C 
BRANCH   7   8
ATOM      8  C1  UNL d   1       0.196   5.558   4.186  0.00  0.00     0.007 C 
ATOM      9  C   UNL d   1       1.531   5.885   4.843  0.00  0.00     0.009 C 
ENDBRANCH   7   8
ENDBRANCH   1   7
TORSDOF 2
ENDMDL
