MODEL 1
REMARK minimizedAffinity 6.19755697
REMARK minimizedRMSD -1
REMARK  2 active torsions:
REMARK  status: ('A' for Active; 'I' for Inactive)
REMARK    1  A    between atoms: C1_2  and  C2_3 
REMARK    2  A    between atoms: C2_3  and  C3_4 
ROOT
ATOM      1  C3  UNL d   1       1.693  -2.846   1.354  0.00  0.00    -0.075 A 
ATOM      2  C4  UNL d   1       0.713  -3.725   1.836  0.00  0.00     0.002 A 
ATOM      3  C5  UNL d   1      -0.490  -3.235   2.345  0.00  0.00     0.002 A 
ATOM      4  C6  UNL d   1      -0.724  -1.862   2.388  0.00  0.00    -0.004 A 
ATOM      5  C7  UNL d   1       0.249  -0.979   1.927  0.00  0.00     0.002 A 
ATOM      6  C8  UNL d   1       1.452  -1.467   1.414  0.00  0.00     0.002 A 
ENDROOT
BRANCH   1   7
ATOM      7  C2  UNL d   1       2.985  -3.371   0.775  0.00  0.00     0.056 C 
BRANCH   7   8
ATOM      8  C1  UNL d   1       4.125  -3.481   1.793  0.00  0.00     0.007 C 
ATOM      9  C   UNL d   1       4.763  -4.864   1.833  0.00  0.00     0.009 C 
ENDBRANCH   7   8
ENDBRANCH   1   7
TORSDOF 2
ENDMDL
