MODEL 1
REMARK minimizedAffinity -0.878615499
REMARK minimizedRMSD -1
REMARK  2 active torsions:
REMARK  status: ('A' for Active; 'I' for Inactive)
REMARK    1  A    between atoms: C1_2  and  C2_3 
REMARK    2  A    between atoms: C2_3  and  C3_4 
ROOT
ATOM      1  C3  UNL d   1      -0.264   5.472   4.791  0.00  0.00    -0.075 A 
ATOM      2  C4  UNL d   1      -0.773   4.505   3.913  0.00  0.00     0.002 A 
ATOM      3  C5  UNL d   1      -2.101   4.087   4.012  0.00  0.00     0.002 A 
ATOM      4  C6  UNL d   1      -2.931   4.621   4.995  0.00  0.00    -0.004 A 
ATOM      5  C7  UNL d   1      -2.431   5.570   5.884  0.00  0.00     0.002 A 
ATOM      6  C8  UNL d   1      -1.104   5.994   5.784  0.00  0.00     0.002 A 
ENDROOT
BRANCH   1   7
ATOM      7  C2  UNL d   1       1.163   5.951   4.670  0.00  0.00     0.056 C 
BRANCH   7   8
ATOM      8  C1  UNL d   1       1.927   5.976   5.998  0.00  0.00     0.007 C 
ATOM      9  C   UNL d   1       3.440   5.990   5.820  0.00  0.00     0.009 C 
ENDBRANCH   7   8
ENDBRANCH   1   7
TORSDOF 2
ENDMDL
