MODEL 1
REMARK minimizedAffinity 5.53207874
REMARK minimizedRMSD -1
REMARK  2 active torsions:
REMARK  status: ('A' for Active; 'I' for Inactive)
REMARK    1  A    between atoms: C1_2  and  C2_3 
REMARK    2  A    between atoms: C2_3  and  C3_4 
ROOT
ATOM      1  C3  UNL d   1      -3.364   3.442   5.989  0.00  0.00    -0.075 A 
ATOM      2  C4  UNL d   1      -4.169   4.590   5.998  0.00  0.00     0.002 A 
ATOM      3  C5  UNL d   1      -3.592   5.861   5.993  0.00  0.00     0.002 A 
ATOM      4  C6  UNL d   1      -2.206   5.999   5.990  0.00  0.00    -0.004 A 
ATOM      5  C7  UNL d   1      -1.396   4.866   5.998  0.00  0.00     0.002 A 
ATOM      6  C8  UNL d   1      -1.971   3.594   5.998  0.00  0.00     0.002 A 
ENDROOT
BRANCH   1   7
ATOM      7  C2  UNL d   1      -3.982   2.065   5.964  0.00  0.00     0.056 C 
BRANCH   7   8
ATOM      8  C1  UNL d   1      -4.066   1.444   4.566  0.00  0.00     0.007 C 
ATOM      9  C   UNL d   1      -5.488   1.092   4.150  0.00  0.00     0.009 C 
ENDBRANCH   7   8
ENDBRANCH   1   7
TORSDOF 2
ENDMDL
