MODEL 1
REMARK minimizedAffinity 3.06386495
REMARK minimizedRMSD -1
REMARK  1 active torsions:
REMARK  status: ('A' for Active; 'I' for Inactive)
REMARK    1  A    between atoms: C1_2  and  C2_3 
ROOT
ATOM      1  C2  UNL d   1      -4.384   2.706  -4.615  0.00  0.00    -0.073 A 
ATOM      2  C3  UNL d   1      -4.578   2.047  -5.835  0.00  0.00    -0.002 A 
ATOM      3  C4  UNL d   1      -4.307   0.683  -5.950  0.00  0.00     0.004 A 
ATOM      4  C5  UNL d   1      -3.847  -0.037  -4.847  0.00  0.00    -0.004 A 
ATOM      5  C6  UNL d   1      -3.658   0.601  -3.617  0.00  0.00    -0.075 A 
ATOM      6  C7  UNL d   1      -3.162  -0.159  -2.422  0.00  0.00     0.076 C 
ATOM      7  C8  UNL d   1      -3.930   1.972  -3.510  0.00  0.00     0.001 A 
ENDROOT
BRANCH   1   8
ATOM      8  C1  UNL d   1      -4.680   4.178  -4.485  0.00  0.00     0.053 C 
ATOM      9  C   UNL d   1      -6.000   4.432  -3.773  0.00  0.00     0.018 C 
ENDBRANCH   1   8
TORSDOF 1
ENDMDL
