MODEL 1
REMARK minimizedAffinity 4.14008427
REMARK minimizedRMSD -1
REMARK  1 active torsions:
REMARK  status: ('A' for Active; 'I' for Inactive)
REMARK    1  A    between atoms: C1_2  and  C2_3 
ROOT
ATOM      1  C2  UNL d   1       1.941  -0.228   0.993  0.00  0.00    -0.073 A 
ATOM      2  C3  UNL d   1       1.750   0.002  -0.375  0.00  0.00    -0.002 A 
ATOM      3  C4  UNL d   1       0.747   0.869  -0.810  0.00  0.00     0.004 A 
ATOM      4  C5  UNL d   1      -0.069   1.519   0.115  0.00  0.00    -0.004 A 
ATOM      5  C6  UNL d   1       0.114   1.312   1.486  0.00  0.00    -0.075 A 
ATOM      6  C7  UNL d   1      -0.757   2.003   2.494  0.00  0.00     0.076 C 
ATOM      7  C8  UNL d   1       1.122   0.438   1.915  0.00  0.00     0.001 A 
ENDROOT
BRANCH   1   8
ATOM      8  C1  UNL d   1       3.027  -1.158   1.468  0.00  0.00     0.053 C 
ATOM      9  C   UNL d   1       3.851  -0.546   2.590  0.00  0.00     0.018 C 
ENDBRANCH   1   8
TORSDOF 1
ENDMDL
