MODEL 1
REMARK minimizedAffinity 7.45459223
REMARK minimizedRMSD -1
REMARK  0 active torsions:
REMARK  status: ('A' for Active; 'I' for Inactive)
ROOT
ATOM      1  C   UNL d   1       2.611  -0.546  -0.761  0.00  0.00     0.078 C 
ATOM      2  C1  UNL d   1       3.785   0.368  -0.568  0.00  0.00    -0.077 A 
ATOM      3  C2  UNL d   1       3.796   1.654  -1.123  0.00  0.00    -0.001 A 
ATOM      4  C3  UNL d   1       4.899   2.490  -0.944  0.00  0.00     0.003 A 
ATOM      5  C4  UNL d   1       6.000   2.050  -0.212  0.00  0.00    -0.005 A 
ATOM      6  C5  UNL d   1       5.999   0.771   0.342  0.00  0.00     0.003 A 
ATOM      7  C6  UNL d   1       4.896  -0.067   0.164  0.00  0.00    -0.001 A 
ENDROOT
TORSDOF 0
ENDMDL
