MODEL 1
REMARK minimizedAffinity 2.44719768
REMARK minimizedRMSD -1
REMARK  0 active torsions:
REMARK  status: ('A' for Active; 'I' for Inactive)
ROOT
ATOM      1  C   UNL d   1       1.374   0.567  -0.179  0.00  0.00     0.078 C 
ATOM      2  C1  UNL d   1       0.587   1.115   0.973  0.00  0.00    -0.077 A 
ATOM      3  C2  UNL d   1      -0.313   2.173   0.794  0.00  0.00    -0.001 A 
ATOM      4  C3  UNL d   1      -1.032   2.679   1.877  0.00  0.00     0.003 A 
ATOM      5  C4  UNL d   1      -0.858   2.135   3.148  0.00  0.00    -0.005 A 
ATOM      6  C5  UNL d   1       0.036   1.084   3.337  0.00  0.00     0.003 A 
ATOM      7  C6  UNL d   1       0.756   0.576   2.254  0.00  0.00    -0.001 A 
ENDROOT
TORSDOF 0
ENDMDL
