MODEL 1
REMARK minimizedAffinity 5.65793753
REMARK minimizedRMSD -1
REMARK  0 active torsions:
REMARK  status: ('A' for Active; 'I' for Inactive)
ROOT
ATOM      1  C   UNL d   1       1.403   1.081   4.422  0.00  0.00     0.078 C 
ATOM      2  C1  UNL d   1       0.380   1.645   3.482  0.00  0.00    -0.077 A 
ATOM      3  C2  UNL d   1      -0.390   0.806   2.667  0.00  0.00    -0.001 A 
ATOM      4  C3  UNL d   1      -1.332   1.345   1.789  0.00  0.00     0.003 A 
ATOM      5  C4  UNL d   1      -1.512   2.725   1.717  0.00  0.00    -0.005 A 
ATOM      6  C5  UNL d   1      -0.749   3.568   2.523  0.00  0.00     0.003 A 
ATOM      7  C6  UNL d   1       0.194   3.030   3.401  0.00  0.00    -0.001 A 
ENDROOT
TORSDOF 0
ENDMDL
