MODEL 1
REMARK minimizedAffinity 9.57935905
REMARK minimizedRMSD -1
REMARK  0 active torsions:
REMARK  status: ('A' for Active; 'I' for Inactive)
ROOT
ATOM      1  C   UNL d   1      -6.000   3.048  -3.389  0.00  0.00     0.078 C 
ATOM      2  C1  UNL d   1      -5.359   1.853  -2.749  0.00  0.00    -0.077 A 
ATOM      3  C2  UNL d   1      -6.000   1.156  -1.718  0.00  0.00    -0.001 A 
ATOM      4  C3  UNL d   1      -5.387   0.052  -1.124  0.00  0.00     0.003 A 
ATOM      5  C4  UNL d   1      -4.129  -0.365  -1.554  0.00  0.00    -0.005 A 
ATOM      6  C5  UNL d   1      -3.482   0.323  -2.578  0.00  0.00     0.003 A 
ATOM      7  C6  UNL d   1      -4.093   1.428  -3.173  0.00  0.00    -0.001 A 
ENDROOT
TORSDOF 0
ENDMDL
