MODEL 1
REMARK minimizedAffinity 4.49681187
REMARK minimizedRMSD -1
REMARK  0 active torsions:
REMARK  status: ('A' for Active; 'I' for Inactive)
ROOT
ATOM      1  C   UNL d   1       3.005  -2.016   0.003  0.00  0.00     0.078 C 
ATOM      2  C1  UNL d   1       3.950  -0.877  -0.234  0.00  0.00    -0.077 A 
ATOM      3  C2  UNL d   1       5.133  -0.756   0.505  0.00  0.00    -0.001 A 
ATOM      4  C3  UNL d   1       6.000   0.315   0.281  0.00  0.00     0.003 A 
ATOM      5  C4  UNL d   1       5.692   1.274  -0.683  0.00  0.00    -0.005 A 
ATOM      6  C5  UNL d   1       4.516   1.163  -1.422  0.00  0.00     0.003 A 
ATOM      7  C6  UNL d   1       3.649   0.092  -1.199  0.00  0.00    -0.001 A 
ENDROOT
TORSDOF 0
ENDMDL
