MODEL 1
REMARK minimizedAffinity 2.07065582
REMARK minimizedRMSD -1
REMARK  0 active torsions:
REMARK  status: ('A' for Active; 'I' for Inactive)
ROOT
ATOM      1  C   UNL d   1       5.698   1.944  -0.479  0.00  0.00     0.078 C 
ATOM      2  C1  UNL d   1       4.826   0.873  -1.065  0.00  0.00    -0.077 A 
ATOM      3  C2  UNL d   1       3.901   0.183  -0.272  0.00  0.00    -0.001 A 
ATOM      4  C3  UNL d   1       3.103  -0.818  -0.829  0.00  0.00     0.003 A 
ATOM      5  C4  UNL d   1       3.223  -1.139  -2.179  0.00  0.00    -0.005 A 
ATOM      6  C5  UNL d   1       4.143  -0.459  -2.975  0.00  0.00     0.003 A 
ATOM      7  C6  UNL d   1       4.942   0.542  -2.421  0.00  0.00    -0.001 A 
ENDROOT
TORSDOF 0
ENDMDL
