MODEL 1
REMARK minimizedAffinity 3.21106386
REMARK minimizedRMSD -1
REMARK  0 active torsions:
REMARK  status: ('A' for Active; 'I' for Inactive)
ROOT
ATOM      1  C   UNL d   1      -5.731   3.331  -3.340  0.00  0.00     0.078 C 
ATOM      2  C1  UNL d   1      -4.946   2.221  -2.707  0.00  0.00    -0.077 A 
ATOM      3  C2  UNL d   1      -5.480   1.472  -1.651  0.00  0.00    -0.001 A 
ATOM      4  C3  UNL d   1      -4.734   0.448  -1.065  0.00  0.00     0.003 A 
ATOM      5  C4  UNL d   1      -3.450   0.165  -1.526  0.00  0.00    -0.005 A 
ATOM      6  C5  UNL d   1      -2.910   0.907  -2.575  0.00  0.00     0.003 A 
ATOM      7  C6  UNL d   1      -3.654   1.931  -3.162  0.00  0.00    -0.001 A 
ENDROOT
TORSDOF 0
ENDMDL
