MODEL 1
REMARK minimizedAffinity 3.9087317
REMARK minimizedRMSD -1
REMARK  0 active torsions:
REMARK  status: ('A' for Active; 'I' for Inactive)
ROOT
ATOM      1  C   UNL d   1       4.984   1.130  -0.953  0.00  0.00     0.078 C 
ATOM      2  C1  UNL d   1       3.820   0.185  -0.941  0.00  0.00    -0.077 A 
ATOM      3  C2  UNL d   1       2.507   0.660  -0.838  0.00  0.00    -0.001 A 
ATOM      4  C3  UNL d   1       1.434  -0.232  -0.819  0.00  0.00     0.003 A 
ATOM      5  C4  UNL d   1       1.662  -1.604  -0.902  0.00  0.00    -0.005 A 
ATOM      6  C5  UNL d   1       2.966  -2.086  -1.002  0.00  0.00     0.003 A 
ATOM      7  C6  UNL d   1       4.041  -1.196  -1.022  0.00  0.00    -0.001 A 
ENDROOT
TORSDOF 0
ENDMDL
