MODEL 1
REMARK minimizedAffinity 6.54449272
REMARK minimizedRMSD -1
REMARK  0 active torsions:
REMARK  status: ('A' for Active; 'I' for Inactive)
ROOT
ATOM      1  C   UNL d   1      -0.364   1.053  -1.794  0.00  0.00    -0.002 A 
ATOM      2  C1  UNL d   1       0.470  -0.008  -1.468  0.00  0.00     0.010 A 
ATOM      3  C2  UNL d   1       0.813  -0.259  -0.138  0.00  0.00     0.041 A 
ATOM      4  C3  UNL d   1       0.296   0.581   0.869  0.00  0.00    -0.075 A 
ATOM      5  S   UNL d   1       0.579   0.464   2.566  0.00  0.00     0.015 SA
ATOM      6  C4  UNL d   1      -0.402   1.818   2.898  0.00  0.00     0.022 A 
ATOM      7  C5  UNL d   1      -0.939   2.358   1.754  0.00  0.00     0.026 A 
ATOM      8  C6  UNL d   1      -0.546   1.654   0.566  0.00  0.00    -0.082 A 
ATOM      9  C7  UNL d   1      -0.874   1.883  -0.792  0.00  0.00     0.045 A 
ENDROOT
TORSDOF 0
ENDMDL
