MODEL 1
REMARK minimizedAffinity 6.10908651
REMARK minimizedRMSD -1
REMARK  0 active torsions:
REMARK  status: ('A' for Active; 'I' for Inactive)
ROOT
ATOM      1  C4' PXY d   1      -3.355   0.225  -4.995  0.00  0.00     0.077 C 
ATOM      2  C1' PXY d   1      -3.705   0.720   0.753  0.00  0.00     0.077 C 
ATOM      3  C1  PXY d   1      -3.601   0.591  -0.754  0.00  0.00    -0.082 A 
ATOM      4  C2  PXY d   1      -4.646   0.886  -1.509  0.00  0.00     0.003 A 
ATOM      5  C3  PXY d   1      -4.579   0.744  -2.872  0.00  0.00     0.003 A 
ATOM      6  C4  PXY d   1      -3.413   0.349  -3.470  0.00  0.00    -0.082 A 
ATOM      7  C5  PXY d   1      -2.338   0.057  -2.707  0.00  0.00     0.003 A 
ATOM      8  C6  PXY d   1      -2.440   0.167  -1.323  0.00  0.00     0.003 A 
ENDROOT
TORSDOF 0
ENDMDL
