MODEL 1
REMARK minimizedAffinity 9.81316471
REMARK minimizedRMSD -1
REMARK  0 active torsions:
REMARK  status: ('A' for Active; 'I' for Inactive)
ROOT
ATOM      1  C4' PXY d   1       1.849  -2.993   0.194  0.00  0.00     0.077 C 
ATOM      2  C1' PXY d   1       3.612   2.363  -1.079  0.00  0.00     0.077 C 
ATOM      3  C1  PXY d   1       3.137   0.961  -0.749  0.00  0.00    -0.082 A 
ATOM      4  C2  PXY d   1       3.812   0.231   0.124  0.00  0.00     0.003 A 
ATOM      5  C3  PXY d   1       3.416  -1.050   0.410  0.00  0.00     0.003 A 
ATOM      6  C4  PXY d   1       2.286  -1.570  -0.163  0.00  0.00    -0.082 A 
ATOM      7  C5  PXY d   1       1.586  -0.827  -1.046  0.00  0.00     0.003 A 
ATOM      8  C6  PXY d   1       2.029   0.456  -1.355  0.00  0.00     0.003 A 
ENDROOT
TORSDOF 0
ENDMDL
