MODEL 1
REMARK minimizedAffinity 12.6113367
REMARK minimizedRMSD -1
REMARK  0 active torsions:
REMARK  status: ('A' for Active; 'I' for Inactive)
ROOT
ATOM      1  C4' PXY d   1       5.784  -1.116   1.954  0.00  0.00     0.077 C 
ATOM      2  C1' PXY d   1       1.270   0.739  -1.144  0.00  0.00     0.077 C 
ATOM      3  C1  PXY d   1       2.446   0.247  -0.323  0.00  0.00    -0.082 A 
ATOM      4  C2  PXY d   1       3.587   0.916  -0.348  0.00  0.00     0.003 A 
ATOM      5  C3  PXY d   1       4.670   0.467   0.363  0.00  0.00     0.003 A 
ATOM      6  C4  PXY d   1       4.568  -0.650   1.149  0.00  0.00    -0.082 A 
ATOM      7  C5  PXY d   1       3.404  -1.332   1.188  0.00  0.00     0.003 A 
ATOM      8  C6  PXY d   1       2.329  -0.883   0.427  0.00  0.00     0.003 A 
ENDROOT
TORSDOF 0
ENDMDL
