MODEL 1
REMARK minimizedAffinity 15.8735456
REMARK minimizedRMSD -1
REMARK  0 active torsions:
REMARK  status: ('A' for Active; 'I' for Inactive)
ROOT
ATOM      1  C4' PXY d   1       1.169   0.760  -1.063  0.00  0.00     0.077 C 
ATOM      2  C1' PXY d   1       5.992  -0.331   1.931  0.00  0.00     0.077 C 
ATOM      3  C1  PXY d   1       4.724  -0.058   1.146  0.00  0.00    -0.082 A 
ATOM      4  C2  PXY d   1       4.657   1.005   0.361  0.00  0.00     0.003 A 
ATOM      5  C3  PXY d   1       3.506   1.285  -0.331  0.00  0.00     0.003 A 
ATOM      6  C4  PXY d   1       2.432   0.439  -0.260  0.00  0.00    -0.082 A 
ATOM      7  C5  PXY d   1       2.496  -0.653   0.531  0.00  0.00     0.003 A 
ATOM      8  C6  PXY d   1       3.658  -0.897   1.257  0.00  0.00     0.003 A 
ENDROOT
TORSDOF 0
ENDMDL
