MODEL 1
REMARK minimizedAffinity 10.8217649
REMARK minimizedRMSD -1
REMARK  0 active torsions:
REMARK  status: ('A' for Active; 'I' for Inactive)
ROOT
ATOM      1  C4' PXY d   1       4.995   2.386  -2.069  0.00  0.00     0.077 C 
ATOM      2  C1' PXY d   1       1.573  -0.767   1.361  0.00  0.00     0.077 C 
ATOM      3  C1  PXY d   1       2.466   0.054   0.451  0.00  0.00    -0.082 A 
ATOM      4  C2  PXY d   1       3.566   0.605   0.937  0.00  0.00     0.003 A 
ATOM      5  C3  PXY d   1       4.368   1.377   0.136  0.00  0.00     0.003 A 
ATOM      6  C4  PXY d   1       4.069   1.542  -1.190  0.00  0.00    -0.082 A 
ATOM      7  C5  PXY d   1       2.954   0.974  -1.696  0.00  0.00     0.003 A 
ATOM      8  C6  PXY d   1       2.131   0.228  -0.856  0.00  0.00     0.003 A 
ENDROOT
TORSDOF 0
ENDMDL
