MODEL 1
REMARK minimizedAffinity 17.902422
REMARK minimizedRMSD -1
REMARK  0 active torsions:
REMARK  status: ('A' for Active; 'I' for Inactive)
ROOT
ATOM      1  C4' PXY d   1       5.420   2.971   3.587  0.00  0.00     0.077 C 
ATOM      2  C1' PXY d   1       0.180   5.372   3.146  0.00  0.00     0.077 C 
ATOM      3  C1  PXY d   1       1.560   4.753   3.257  0.00  0.00    -0.082 A 
ATOM      4  C2  PXY d   1       1.689   3.436   3.249  0.00  0.00     0.003 A 
ATOM      5  C3  PXY d   1       2.926   2.860   3.381  0.00  0.00     0.003 A 
ATOM      6  C4  PXY d   1       4.048   3.640   3.468  0.00  0.00    -0.082 A 
ATOM      7  C5  PXY d   1       3.925   4.984   3.466  0.00  0.00     0.003 A 
ATOM      8  C6  PXY d   1       2.657   5.549   3.373  0.00  0.00     0.003 A 
ENDROOT
TORSDOF 0
ENDMDL
