MODEL 1
REMARK minimizedAffinity 11.5679722
REMARK minimizedRMSD -1
REMARK  0 active torsions:
REMARK  status: ('A' for Active; 'I' for Inactive)
ROOT
ATOM      1  C4' PXY d   1      -4.025   2.725   1.359  0.00  0.00     0.077 C 
ATOM      2  C1' PXY d   1      -5.571   6.000   5.864  0.00  0.00     0.077 C 
ATOM      3  C1  PXY d   1      -5.157   5.150   4.679  0.00  0.00    -0.082 A 
ATOM      4  C2  PXY d   1      -5.999   4.254   4.190  0.00  0.00     0.003 A 
ATOM      5  C3  PXY d   1      -5.629   3.455   3.139  0.00  0.00     0.003 A 
ATOM      6  C4  PXY d   1      -4.404   3.612   2.548  0.00  0.00    -0.082 A 
ATOM      7  C5  PXY d   1      -3.543   4.531   3.034  0.00  0.00     0.003 A 
ATOM      8  C6  PXY d   1      -3.922   5.304   4.128  0.00  0.00     0.003 A 
ENDROOT
TORSDOF 0
ENDMDL
