MODEL 1
REMARK minimizedAffinity 7.52027321
REMARK minimizedRMSD -1
REMARK  0 active torsions:
REMARK  status: ('A' for Active; 'I' for Inactive)
ROOT
ATOM      1  C4' PXY d   1      -3.995   2.909   1.444  0.00  0.00     0.077 C 
ATOM      2  C1' PXY d   1      -5.756   6.000   6.000  0.00  0.00     0.077 C 
ATOM      3  C1  PXY d   1      -5.287   5.200   4.801  0.00  0.00    -0.082 A 
ATOM      4  C2  PXY d   1      -6.000   4.165   4.386  0.00  0.00     0.003 A 
ATOM      5  C3  PXY d   1      -5.574   3.411   3.323  0.00  0.00     0.003 A 
ATOM      6  C4  PXY d   1      -4.434   3.751   2.644  0.00  0.00    -0.082 A 
ATOM      7  C5  PXY d   1      -3.707   4.812   3.055  0.00  0.00     0.003 A 
ATOM      8  C6  PXY d   1      -4.135   5.540   4.161  0.00  0.00     0.003 A 
ENDROOT
TORSDOF 0
ENDMDL
