MODEL 1
REMARK minimizedAffinity 6.56710052
REMARK minimizedRMSD -1
REMARK  1 active torsions:
REMARK  status: ('A' for Active; 'I' for Inactive)
REMARK    1  A    between atoms: N_2  and  C1_3 
ROOT
ATOM      1  C1  UNL d   1       2.034  -0.251   2.854  0.00  0.00     0.143 A 
ATOM      2  C2  UNL d   1       3.063  -0.976   2.244  0.00  0.00    -0.057 A 
ATOM      3  C3  UNL d   1       3.591  -2.128   2.839  0.00  0.00     0.033 A 
ATOM      4  C4  UNL d   1       3.117  -2.561   4.073  0.00  0.00    -0.042 A 
ATOM      5  C5  UNL d   1       2.111  -1.842   4.709  0.00  0.00     0.033 A 
ATOM      6  C6  UNL d   1       1.584  -0.696   4.107  0.00  0.00    -0.057 A 
ENDROOT
BRANCH   1   7
ATOM      7  N   UNL d   1       1.535   0.957   2.361  0.00  0.00    -0.732 N 
ATOM      8  C   UNL d   1       2.393   2.117   2.247  0.00  0.00     0.284 C 
ATOM      9  H3  UNL d   1       0.908   0.825   1.571  0.00  0.00     0.395 HD
ENDBRANCH   1   7
TORSDOF 1
ENDMDL
