MODEL 1
REMARK minimizedAffinity 6.64352083
REMARK minimizedRMSD -1
REMARK  1 active torsions:
REMARK  status: ('A' for Active; 'I' for Inactive)
REMARK    1  A    between atoms: N_2  and  C1_3 
ROOT
ATOM      1  C1  UNL d   1       2.933  -2.445   3.550  0.00  0.00     0.143 A 
ATOM      2  C2  UNL d   1       4.282  -2.102   3.411  0.00  0.00    -0.057 A 
ATOM      3  C3  UNL d   1       5.285  -3.078   3.433  0.00  0.00     0.033 A 
ATOM      4  C4  UNL d   1       4.958  -4.417   3.622  0.00  0.00    -0.042 A 
ATOM      5  C5  UNL d   1       3.625  -4.778   3.787  0.00  0.00     0.033 A 
ATOM      6  C6  UNL d   1       2.627  -3.799   3.758  0.00  0.00    -0.057 A 
ENDROOT
BRANCH   1   7
ATOM      7  N   UNL d   1       1.897  -1.511   3.636  0.00  0.00    -0.732 N 
ATOM      8  C   UNL d   1       1.652  -0.581   2.555  0.00  0.00     0.284 C 
ATOM      9  H3  UNL d   1       1.053  -1.904   4.046  0.00  0.00     0.395 HD
ENDBRANCH   1   7
TORSDOF 1
ENDMDL
