MODEL 1
REMARK minimizedAffinity 4.39346933
REMARK minimizedRMSD -1
REMARK  1 active torsions:
REMARK  status: ('A' for Active; 'I' for Inactive)
REMARK    1  A    between atoms: N_2  and  C1_3 
ROOT
ATOM      1  C1  UNL d   1       1.883  -1.333   3.989  0.00  0.00     0.143 A 
ATOM      2  C2  UNL d   1       1.940  -0.189   4.792  0.00  0.00    -0.057 A 
ATOM      3  C3  UNL d   1       2.279   1.059   4.256  0.00  0.00     0.033 A 
ATOM      4  C4  UNL d   1       2.597   1.179   2.907  0.00  0.00    -0.042 A 
ATOM      5  C5  UNL d   1       2.570   0.051   2.094  0.00  0.00     0.033 A 
ATOM      6  C6  UNL d   1       2.224  -1.191   2.635  0.00  0.00    -0.057 A 
ENDROOT
BRANCH   1   7
ATOM      7  N   UNL d   1       1.648  -2.619   4.482  0.00  0.00    -0.732 N 
ATOM      8  C   UNL d   1       2.483  -3.728   4.075  0.00  0.00     0.284 C 
ATOM      9  H3  UNL d   1       1.411  -2.618   5.472  0.00  0.00     0.395 HD
ENDBRANCH   1   7
TORSDOF 1
ENDMDL
