MODEL 1
REMARK minimizedAffinity 6.4604702
REMARK minimizedRMSD -1
REMARK  1 active torsions:
REMARK  status: ('A' for Active; 'I' for Inactive)
REMARK    1  A    between atoms: N_2  and  C1_3 
ROOT
ATOM      1  C1  UNL d   1      -4.104  -2.094  -4.488  0.00  0.00     0.143 A 
ATOM      2  C2  UNL d   1      -4.127  -2.747  -5.725  0.00  0.00    -0.057 A 
ATOM      3  C3  UNL d   1      -5.064  -3.750  -6.000  0.00  0.00     0.033 A 
ATOM      4  C4  UNL d   1      -5.980  -4.139  -5.028  0.00  0.00    -0.042 A 
ATOM      5  C5  UNL d   1      -5.959  -3.522  -3.782  0.00  0.00     0.033 A 
ATOM      6  C6  UNL d   1      -5.025  -2.516  -3.517  0.00  0.00    -0.057 A 
ENDROOT
BRANCH   1   7
ATOM      7  N   UNL d   1      -3.134  -1.159  -4.120  0.00  0.00    -0.732 N 
ATOM      8  C   UNL d   1      -3.496   0.021  -3.364  0.00  0.00     0.284 C 
ATOM      9  H3  UNL d   1      -2.267  -1.597  -3.817  0.00  0.00     0.395 HD
ENDBRANCH   1   7
TORSDOF 1
ENDMDL
