MODEL 1
REMARK minimizedAffinity 0.54229176
REMARK minimizedRMSD -1
REMARK  1 active torsions:
REMARK  status: ('A' for Active; 'I' for Inactive)
REMARK    1  A    between atoms: N_2  and  C1_3 
ROOT
ATOM      1  C1  UNL d   1       3.663  -1.527   3.161  0.00  0.00     0.143 A 
ATOM      2  C2  UNL d   1       2.778  -1.110   4.161  0.00  0.00    -0.057 A 
ATOM      3  C3  UNL d   1       1.959   0.012   3.984  0.00  0.00     0.033 A 
ATOM      4  C4  UNL d   1       2.033   0.756   2.812  0.00  0.00    -0.042 A 
ATOM      5  C5  UNL d   1       2.923   0.375   1.815  0.00  0.00     0.033 A 
ATOM      6  C6  UNL d   1       3.733  -0.750   1.994  0.00  0.00    -0.057 A 
ENDROOT
BRANCH   1   7
ATOM      7  N   UNL d   1       4.573  -2.576   3.315  0.00  0.00    -0.732 N 
ATOM      8  C   UNL d   1       5.998  -2.331   3.245  0.00  0.00     0.284 C 
ATOM      9  H3  UNL d   1       4.298  -3.224   4.050  0.00  0.00     0.395 HD
ENDBRANCH   1   7
TORSDOF 1
ENDMDL
