MODEL 1
REMARK minimizedAffinity -6.00457287
REMARK minimizedRMSD -1
REMARK  1 active torsions:
REMARK  status: ('A' for Active; 'I' for Inactive)
REMARK    1  A    between atoms: C1_2  and  C2_3 
ROOT
ATOM      1  C2  UNL d   1      -0.783   0.318   0.204  0.00  0.00    -0.076 A 
ATOM      2  C3  UNL d   1      -2.151   0.099   0.446  0.00  0.00     0.004 A 
ATOM      3  C4  UNL d   1      -2.611  -0.220   1.722  0.00  0.00    -0.003 A 
ATOM      4  C5  UNL d   1      -1.712  -0.326   2.777  0.00  0.00     0.000 A 
ATOM      5  C6  UNL d   1      -0.354  -0.094   2.559  0.00  0.00     0.000 A 
ATOM      6  C7  UNL d   1       0.125   0.245   1.282  0.00  0.00    -0.073 A 
ATOM      7  C8  UNL d   1       1.600   0.478   1.102  0.00  0.00     0.078 C 
ENDROOT
BRANCH   1   8
ATOM      8  C1  UNL d   1      -0.339   0.635  -1.206  0.00  0.00     0.053 C 
ATOM      9  C   UNL d   1       0.311  -0.556  -1.894  0.00  0.00     0.018 C 
ENDBRANCH   1   8
TORSDOF 1
ENDMDL
