MODEL 1
REMARK minimizedAffinity -4.67759752
REMARK minimizedRMSD -1
REMARK  1 active torsions:
REMARK  status: ('A' for Active; 'I' for Inactive)
REMARK    1  A    between atoms: C1_2  and  C2_3 
ROOT
ATOM      1  C2  UNL d   1       0.845  -0.202  -1.581  0.00  0.00    -0.076 A 
ATOM      2  C3  UNL d   1       1.718  -0.777  -0.641  0.00  0.00     0.004 A 
ATOM      3  C4  UNL d   1       1.349  -0.903   0.697  0.00  0.00    -0.003 A 
ATOM      4  C5  UNL d   1       0.100  -0.457   1.117  0.00  0.00     0.000 A 
ATOM      5  C6  UNL d   1      -0.785   0.099   0.194  0.00  0.00     0.000 A 
ATOM      6  C7  UNL d   1      -0.435   0.219  -1.162  0.00  0.00    -0.073 A 
ATOM      7  C8  UNL d   1      -1.426   0.832  -2.112  0.00  0.00     0.078 C 
ENDROOT
BRANCH   1   8
ATOM      8  C1  UNL d   1       1.311  -0.067  -3.014  0.00  0.00     0.053 C 
ATOM      9  C   UNL d   1       1.160  -1.360  -3.800  0.00  0.00     0.018 C 
ENDBRANCH   1   8
TORSDOF 1
ENDMDL
