MODEL 1
REMARK minimizedAffinity -2.68019414
REMARK minimizedRMSD -1
REMARK  1 active torsions:
REMARK  status: ('A' for Active; 'I' for Inactive)
REMARK    1  A    between atoms: C1_2  and  C2_3 
ROOT
ATOM      1  C2  UNL d   1      -1.293  -0.148   1.327  0.00  0.00    -0.076 A 
ATOM      2  C3  UNL d   1      -1.099  -0.546   2.661  0.00  0.00     0.004 A 
ATOM      3  C4  UNL d   1       0.154  -0.955   3.113  0.00  0.00    -0.003 A 
ATOM      4  C5  UNL d   1       1.235  -0.972   2.238  0.00  0.00     0.000 A 
ATOM      5  C6  UNL d   1       1.065  -0.563   0.916  0.00  0.00     0.000 A 
ATOM      6  C7  UNL d   1      -0.188  -0.133   0.448  0.00  0.00    -0.073 A 
ATOM      7  C8  UNL d   1      -0.316   0.291  -0.989  0.00  0.00     0.078 C 
ENDROOT
BRANCH   1   8
ATOM      8  C1  UNL d   1      -2.680   0.259   0.886  0.00  0.00     0.053 C 
ATOM      9  C   UNL d   1      -3.571   0.653   2.055  0.00  0.00     0.018 C 
ENDBRANCH   1   8
TORSDOF 1
ENDMDL
