MODEL 1
REMARK minimizedAffinity -1.50604951
REMARK minimizedRMSD -1
REMARK  1 active torsions:
REMARK  status: ('A' for Active; 'I' for Inactive)
REMARK    1  A    between atoms: C1_2  and  C2_3 
ROOT
ATOM      1  C2  UNL d   1      -0.043   0.236  -0.378  0.00  0.00    -0.076 A 
ATOM      2  C3  UNL d   1       1.256   0.120   0.146  0.00  0.00     0.004 A 
ATOM      3  C4  UNL d   1       1.468  -0.005   1.517  0.00  0.00    -0.003 A 
ATOM      4  C5  UNL d   1       0.384  -0.016   2.388  0.00  0.00     0.000 A 
ATOM      5  C6  UNL d   1      -0.912   0.081   1.885  0.00  0.00     0.000 A 
ATOM      6  C7  UNL d   1      -1.145   0.191   0.503  0.00  0.00    -0.073 A 
ATOM      7  C8  UNL d   1      -2.563   0.298   0.016  0.00  0.00     0.078 C 
ENDROOT
BRANCH   1   8
ATOM      8  C1  UNL d   1      -0.210   0.397  -1.872  0.00  0.00     0.053 C 
ATOM      9  C   UNL d   1       0.953  -0.192  -2.655  0.00  0.00     0.018 C 
ENDBRANCH   1   8
TORSDOF 1
ENDMDL
