MODEL 1
REMARK minimizedAffinity -3.47572541
REMARK minimizedRMSD -1
REMARK  1 active torsions:
REMARK  status: ('A' for Active; 'I' for Inactive)
REMARK    1  A    between atoms: C1_2  and  C2_3 
ROOT
ATOM      1  C2  UNL d   1       0.999  -0.640  -1.570  0.00  0.00    -0.076 A 
ATOM      2  C3  UNL d   1       1.871  -1.368  -0.742  0.00  0.00     0.004 A 
ATOM      3  C4  UNL d   1       1.730  -1.346   0.644  0.00  0.00    -0.003 A 
ATOM      4  C5  UNL d   1       0.714  -0.597   1.226  0.00  0.00     0.000 A 
ATOM      5  C6  UNL d   1      -0.171   0.118   0.420  0.00  0.00     0.000 A 
ATOM      6  C7  UNL d   1      -0.053   0.094  -0.981  0.00  0.00    -0.073 A 
ATOM      7  C8  UNL d   1      -1.032   0.888  -1.802  0.00  0.00     0.078 C 
ENDROOT
BRANCH   1   8
ATOM      8  C1  UNL d   1       1.218  -0.679  -3.065  0.00  0.00     0.053 C 
ATOM      9  C   UNL d   1       0.226  -1.588  -3.775  0.00  0.00     0.018 C 
ENDBRANCH   1   8
TORSDOF 1
ENDMDL
