MODEL 1
REMARK minimizedAffinity -1.61484337
REMARK minimizedRMSD -1
REMARK  1 active torsions:
REMARK  status: ('A' for Active; 'I' for Inactive)
REMARK    1  A    between atoms: C1_2  and  C2_3 
ROOT
ATOM      1  C2  UNL d   1      -0.600   0.085   0.760  0.00  0.00    -0.076 A 
ATOM      2  C3  UNL d   1       0.431   0.089   1.715  0.00  0.00     0.004 A 
ATOM      3  C4  UNL d   1       0.149   0.203   3.076  0.00  0.00    -0.003 A 
ATOM      4  C5  UNL d   1      -1.170   0.313   3.503  0.00  0.00     0.000 A 
ATOM      5  C6  UNL d   1      -2.207   0.293   2.571  0.00  0.00     0.000 A 
ATOM      6  C7  UNL d   1      -1.940   0.163   1.197  0.00  0.00    -0.073 A 
ATOM      7  C8  UNL d   1      -3.096   0.153   0.235  0.00  0.00     0.078 C 
ENDROOT
BRANCH   1   8
ATOM      8  C1  UNL d   1      -0.232  -0.014  -0.703  0.00  0.00     0.053 C 
ATOM      9  C   UNL d   1       0.442  -1.333  -1.046  0.00  0.00     0.018 C 
ENDBRANCH   1   8
TORSDOF 1
ENDMDL
