MODEL 1
REMARK minimizedAffinity -3.1714263
REMARK minimizedRMSD -1
REMARK  1 active torsions:
REMARK  status: ('A' for Active; 'I' for Inactive)
REMARK    1  A    between atoms: C1_2  and  C2_3 
ROOT
ATOM      1  C2  UNL d   1       0.723  -0.731  -2.515  0.00  0.00    -0.076 A 
ATOM      2  C3  UNL d   1       0.237  -2.040  -2.356  0.00  0.00     0.004 A 
ATOM      3  C4  UNL d   1       0.713  -3.084  -3.148  0.00  0.00    -0.003 A 
ATOM      4  C5  UNL d   1       1.685  -2.835  -4.111  0.00  0.00     0.000 A 
ATOM      5  C6  UNL d   1       2.191  -1.545  -4.270  0.00  0.00     0.000 A 
ATOM      6  C7  UNL d   1       1.733  -0.485  -3.469  0.00  0.00    -0.073 A 
ATOM      7  C8  UNL d   1       2.310   0.887  -3.688  0.00  0.00     0.078 C 
ENDROOT
BRANCH   1   8
ATOM      8  C1  UNL d   1       0.149   0.365  -1.646  0.00  0.00     0.053 C 
ATOM      9  C   UNL d   1       0.219   0.031  -0.164  0.00  0.00     0.018 C 
ENDBRANCH   1   8
TORSDOF 1
ENDMDL
