MODEL 1
REMARK minimizedAffinity -2.15365052
REMARK minimizedRMSD -1
REMARK  1 active torsions:
REMARK  status: ('A' for Active; 'I' for Inactive)
REMARK    1  A    between atoms: C1_2  and  C2_3 
ROOT
ATOM      1  C2  UNL d   1       0.601   0.087  -1.069  0.00  0.00    -0.076 A 
ATOM      2  C3  UNL d   1       1.570  -0.352  -0.150  0.00  0.00     0.004 A 
ATOM      3  C4  UNL d   1       1.291  -0.411   1.214  0.00  0.00    -0.003 A 
ATOM      4  C5  UNL d   1       0.037  -0.033   1.681  0.00  0.00     0.000 A 
ATOM      5  C6  UNL d   1      -0.942   0.388   0.782  0.00  0.00     0.000 A 
ATOM      6  C7  UNL d   1      -0.682   0.438  -0.598  0.00  0.00    -0.073 A 
ATOM      7  C8  UNL d   1      -1.773   0.906  -1.522  0.00  0.00     0.078 C 
ENDROOT
BRANCH   1   8
ATOM      8  C1  UNL d   1       0.971   0.156  -2.534  0.00  0.00     0.053 C 
ATOM      9  C   UNL d   1       0.700  -1.150  -3.265  0.00  0.00     0.018 C 
ENDBRANCH   1   8
TORSDOF 1
ENDMDL
