MODEL 1
REMARK minimizedAffinity -0.836146533
REMARK minimizedRMSD -1
REMARK  1 active torsions:
REMARK  status: ('A' for Active; 'I' for Inactive)
REMARK    1  A    between atoms: C1_2  and  C2_3 
ROOT
ATOM      1  C2  UNL d   1       0.313  -0.476  -2.480  0.00  0.00    -0.076 A 
ATOM      2  C3  UNL d   1       1.336   0.292  -3.064  0.00  0.00     0.004 A 
ATOM      3  C4  UNL d   1       2.181  -0.254  -4.028  0.00  0.00    -0.003 A 
ATOM      4  C5  UNL d   1       2.018  -1.577  -4.424  0.00  0.00     0.000 A 
ATOM      5  C6  UNL d   1       0.998  -2.349  -3.868  0.00  0.00     0.000 A 
ATOM      6  C7  UNL d   1       0.127  -1.808  -2.907  0.00  0.00    -0.073 A 
ATOM      7  C8  UNL d   1      -0.952  -2.687  -2.336  0.00  0.00     0.078 C 
ENDROOT
BRANCH   1   8
ATOM      8  C1  UNL d   1      -0.555   0.162  -1.420  0.00  0.00     0.053 C 
ATOM      9  C   UNL d   1       0.213   0.470  -0.144  0.00  0.00     0.018 C 
ENDBRANCH   1   8
TORSDOF 1
ENDMDL
