MODEL 1
REMARK minimizedAffinity -3.20902658
REMARK minimizedRMSD -1
REMARK  1 active torsions:
REMARK  status: ('A' for Active; 'I' for Inactive)
REMARK    1  A    between atoms: C1_2  and  C2_3 
ROOT
ATOM      1  C2  UNL d   1       1.864  -0.187  -3.283  0.00  0.00    -0.076 A 
ATOM      2  C3  UNL d   1       2.618   0.996  -3.382  0.00  0.00     0.004 A 
ATOM      3  C4  UNL d   1       3.882   0.994  -3.967  0.00  0.00    -0.003 A 
ATOM      4  C5  UNL d   1       4.414  -0.191  -4.465  0.00  0.00     0.000 A 
ATOM      5  C6  UNL d   1       3.673  -1.370  -4.392  0.00  0.00     0.000 A 
ATOM      6  C7  UNL d   1       2.389  -1.382  -3.819  0.00  0.00    -0.073 A 
ATOM      7  C8  UNL d   1       1.637  -2.683  -3.761  0.00  0.00     0.078 C 
ENDROOT
BRANCH   1   8
ATOM      8  C1  UNL d   1       0.510  -0.128  -2.613  0.00  0.00     0.053 C 
ATOM      9  C   UNL d   1       0.607  -0.190  -1.096  0.00  0.00     0.018 C 
ENDBRANCH   1   8
TORSDOF 1
ENDMDL
