MODEL 1
REMARK minimizedAffinity -3.25313711
REMARK minimizedRMSD -1
REMARK  1 active torsions:
REMARK  status: ('A' for Active; 'I' for Inactive)
REMARK    1  A    between atoms: C1_2  and  C2_3 
ROOT
ATOM      1  C2  UNL d   1       0.606  -0.766  -1.692  0.00  0.00    -0.076 A 
ATOM      2  C3  UNL d   1       0.970  -1.675  -0.683  0.00  0.00     0.004 A 
ATOM      3  C4  UNL d   1       0.893  -1.321   0.662  0.00  0.00    -0.003 A 
ATOM      4  C5  UNL d   1       0.451  -0.053   1.021  0.00  0.00     0.000 A 
ATOM      5  C6  UNL d   1       0.069   0.855   0.034  0.00  0.00     0.000 A 
ATOM      6  C7  UNL d   1       0.125   0.509  -1.327  0.00  0.00    -0.073 A 
ATOM      7  C8  UNL d   1      -0.293   1.530  -2.349  0.00  0.00     0.078 C 
ENDROOT
BRANCH   1   8
ATOM      8  C1  UNL d   1       0.736  -1.197  -3.136  0.00  0.00     0.053 C 
ATOM      9  C   UNL d   1       2.057  -1.896  -3.419  0.00  0.00     0.018 C 
ENDBRANCH   1   8
TORSDOF 1
ENDMDL
