MODEL 1
REMARK minimizedAffinity -4.40521526
REMARK minimizedRMSD -1
REMARK  1 active torsions:
REMARK  status: ('A' for Active; 'I' for Inactive)
REMARK    1  A    between atoms: C1_2  and  C2_3 
ROOT
ATOM      1  C2  UNL d   1      -0.111   0.097   0.165  0.00  0.00    -0.076 A 
ATOM      2  C3  UNL d   1       0.976   0.095   1.057  0.00  0.00     0.004 A 
ATOM      3  C4  UNL d   1       0.776  -0.017   2.431  0.00  0.00    -0.003 A 
ATOM      4  C5  UNL d   1      -0.515  -0.130   2.937  0.00  0.00     0.000 A 
ATOM      5  C6  UNL d   1      -1.604  -0.148   2.066  0.00  0.00     0.000 A 
ATOM      6  C7  UNL d   1      -1.418  -0.052   0.676  0.00  0.00    -0.073 A 
ATOM      7  C8  UNL d   1      -2.629  -0.070  -0.216  0.00  0.00     0.078 C 
ENDROOT
BRANCH   1   8
ATOM      8  C1  UNL d   1       0.165   0.250  -1.314  0.00  0.00     0.053 C 
ATOM      9  C   UNL d   1       0.535  -1.068  -1.976  0.00  0.00     0.018 C 
ENDBRANCH   1   8
TORSDOF 1
ENDMDL
