MODEL 1
REMARK minimizedAffinity -0.0539225675
REMARK minimizedRMSD -1
REMARK  1 active torsions:
REMARK  status: ('A' for Active; 'I' for Inactive)
REMARK    1  A    between atoms: C1_2  and  C2_3 
ROOT
ATOM      1  C2  UNL d   1       4.479   4.138   4.385  0.00  0.00    -0.081 A 
ATOM      2  C3  UNL d   1       4.434   3.157   3.386  0.00  0.00     0.006 A 
ATOM      3  C4  UNL d   1       3.288   2.378   3.211  0.00  0.00     0.002 A 
ATOM      4  C5  UNL d   1       2.166   2.571   4.024  0.00  0.00    -0.080 A 
ATOM      5  C6  UNL d   1       0.919   1.762   3.826  0.00  0.00     0.076 C 
ATOM      6  C7  UNL d   1       2.218   3.539   5.033  0.00  0.00     0.002 A 
ATOM      7  C8  UNL d   1       3.363   4.318   5.209  0.00  0.00     0.006 A 
ENDROOT
BRANCH   1   8
ATOM      8  C1  UNL d   1       5.689   5.024   4.534  0.00  0.00     0.054 C 
ATOM      9  C   UNL d   1       6.000   5.293   6.000  0.00  0.00     0.018 C 
ENDBRANCH   1   8
TORSDOF 1
ENDMDL
