MODEL 1
REMARK minimizedAffinity 0.0438302383
REMARK minimizedRMSD -1
REMARK  1 active torsions:
REMARK  status: ('A' for Active; 'I' for Inactive)
REMARK    1  A    between atoms: C1_2  and  C2_3 
ROOT
ATOM      1  C2  UNL d   1       0.605   1.409   0.735  0.00  0.00    -0.081 A 
ATOM      2  C3  UNL d   1       0.309   2.550  -0.020  0.00  0.00     0.006 A 
ATOM      3  C4  UNL d   1       0.373   3.819   0.559  0.00  0.00     0.002 A 
ATOM      4  C5  UNL d   1       0.741   3.969   1.901  0.00  0.00    -0.080 A 
ATOM      5  C6  UNL d   1       0.842   5.328   2.527  0.00  0.00     0.076 C 
ATOM      6  C7  UNL d   1       1.020   2.828   2.660  0.00  0.00     0.002 A 
ATOM      7  C8  UNL d   1       0.956   1.559   2.081  0.00  0.00     0.006 A 
ENDROOT
BRANCH   1   8
ATOM      8  C1  UNL d   1       0.601   0.043   0.096  0.00  0.00     0.054 C 
ATOM      9  C   UNL d   1       1.925  -0.248  -0.595  0.00  0.00     0.018 C 
ENDBRANCH   1   8
TORSDOF 1
ENDMDL
