MODEL 1
REMARK minimizedAffinity -2.92803574
REMARK minimizedRMSD -1
REMARK  0 active torsions:
REMARK  status: ('A' for Active; 'I' for Inactive)
ROOT
ATOM      1  C2' OXE d   1       2.198  -1.776  -0.163  0.00  0.00     0.078 C 
ATOM      2  C1' OXE d   1       2.900   0.942  -0.205  0.00  0.00     0.078 C 
ATOM      3  C1  OXE d   1       1.439   0.591  -0.339  0.00  0.00    -0.078 A 
ATOM      4  C2  OXE d   1       1.110  -0.743  -0.364  0.00  0.00    -0.078 A 
ATOM      5  C3  OXE d   1      -0.228  -1.122  -0.430  0.00  0.00     0.003 A 
ATOM      6  C4  OXE d   1      -1.228  -0.161  -0.626  0.00  0.00    -0.002 A 
ATOM      7  C5  OXE d   1      -0.909   1.201  -0.643  0.00  0.00    -0.002 A 
ATOM      8  C6  OXE d   1       0.411   1.595  -0.458  0.00  0.00     0.003 A 
ENDROOT
TORSDOF 0
ENDMDL
