MODEL 1
REMARK minimizedAffinity -2.61259723
REMARK minimizedRMSD -1
REMARK  0 active torsions:
REMARK  status: ('A' for Active; 'I' for Inactive)
ROOT
ATOM      1  C2' OXE d   1       3.646  -0.645  -0.174  0.00  0.00     0.078 C 
ATOM      2  C1' OXE d   1       2.778   2.014   0.056  0.00  0.00     0.078 C 
ATOM      3  C1  OXE d   1       1.727   0.935  -0.009  0.00  0.00    -0.078 A 
ATOM      4  C2  OXE d   1       2.160  -0.360  -0.169  0.00  0.00    -0.078 A 
ATOM      5  C3  OXE d   1       1.235  -1.400  -0.181  0.00  0.00     0.003 A 
ATOM      6  C4  OXE d   1      -0.139  -1.127  -0.186  0.00  0.00    -0.002 A 
ATOM      7  C5  OXE d   1      -0.601   0.188  -0.064  0.00  0.00    -0.002 A 
ATOM      8  C6  OXE d   1       0.316   1.224   0.068  0.00  0.00     0.003 A 
ENDROOT
TORSDOF 0
ENDMDL
