MODEL 1
REMARK minimizedAffinity -3.56816101
REMARK minimizedRMSD -1
REMARK  0 active torsions:
REMARK  status: ('A' for Active; 'I' for Inactive)
ROOT
ATOM      1  C2' OXE d   1       0.335  -1.269   0.389  0.00  0.00     0.078 C 
ATOM      2  C1' OXE d   1      -0.152  -0.086  -2.110  0.00  0.00     0.078 C 
ATOM      3  C1  OXE d   1      -0.983   0.375  -0.939  0.00  0.00    -0.078 A 
ATOM      4  C2  OXE d   1      -0.770  -0.242   0.270  0.00  0.00    -0.078 A 
ATOM      5  C3  OXE d   1      -1.472   0.183   1.394  0.00  0.00     0.003 A 
ATOM      6  C4  OXE d   1      -2.500   1.126   1.274  0.00  0.00    -0.002 A 
ATOM      7  C5  OXE d   1      -2.760   1.739   0.043  0.00  0.00    -0.002 A 
ATOM      8  C6  OXE d   1      -1.984   1.406  -1.061  0.00  0.00     0.003 A 
ENDROOT
TORSDOF 0
ENDMDL
