MODEL 1
REMARK minimizedAffinity -1.04143798
REMARK minimizedRMSD -1
REMARK  0 active torsions:
REMARK  status: ('A' for Active; 'I' for Inactive)
ROOT
ATOM      1  C2' OXE d   1       2.918  -0.813   0.400  0.00  0.00     0.078 C 
ATOM      2  C1' OXE d   1       2.261  -2.064  -2.025  0.00  0.00     0.078 C 
ATOM      3  C1  OXE d   1       1.174  -1.299  -1.311  0.00  0.00    -0.078 A 
ATOM      4  C2  OXE d   1       1.492  -0.729  -0.102  0.00  0.00    -0.078 A 
ATOM      5  C3  OXE d   1       0.543   0.034   0.572  0.00  0.00     0.003 A 
ATOM      6  C4  OXE d   1      -0.776   0.098   0.105  0.00  0.00    -0.002 A 
ATOM      7  C5  OXE d   1      -1.131  -0.509  -1.104  0.00  0.00    -0.002 A 
ATOM      8  C6  OXE d   1      -0.160  -1.173  -1.844  0.00  0.00     0.003 A 
ENDROOT
TORSDOF 0
ENDMDL
