MODEL 1
REMARK minimizedAffinity -2.57181406
REMARK minimizedRMSD -1
REMARK  0 active torsions:
REMARK  status: ('A' for Active; 'I' for Inactive)
ROOT
ATOM      1  C2' OXE d   1      -0.446   0.535  -0.388  0.00  0.00     0.078 C 
ATOM      2  C1' OXE d   1       1.491   2.547  -0.100  0.00  0.00     0.078 C 
ATOM      3  C1  OXE d   1       1.971   1.134  -0.322  0.00  0.00    -0.078 A 
ATOM      4  C2  OXE d   1       1.017   0.149  -0.415  0.00  0.00    -0.078 A 
ATOM      5  C3  OXE d   1       1.404  -1.162  -0.675  0.00  0.00     0.003 A 
ATOM      6  C4  OXE d   1       2.760  -1.512  -0.688  0.00  0.00    -0.002 A 
ATOM      7  C5  OXE d   1       3.748  -0.531  -0.555  0.00  0.00    -0.002 A 
ATOM      8  C6  OXE d   1       3.371   0.800  -0.414  0.00  0.00     0.003 A 
ENDROOT
TORSDOF 0
ENDMDL
