MODEL 1
REMARK minimizedAffinity -0.871508658
REMARK minimizedRMSD -1
REMARK  0 active torsions:
REMARK  status: ('A' for Active; 'I' for Inactive)
ROOT
ATOM      1  C2' OXE d   1      -0.005   1.837  -0.315  0.00  0.00     0.078 C 
ATOM      2  C1' OXE d   1       2.717   1.284   0.096  0.00  0.00     0.078 C 
ATOM      3  C1  OXE d   1       1.795   0.120  -0.169  0.00  0.00    -0.078 A 
ATOM      4  C2  OXE d   1       0.457   0.395  -0.322  0.00  0.00    -0.078 A 
ATOM      5  C3  OXE d   1      -0.428  -0.636  -0.622  0.00  0.00     0.003 A 
ATOM      6  C4  OXE d   1       0.005  -1.967  -0.617  0.00  0.00    -0.002 A 
ATOM      7  C5  OXE d   1       1.357  -2.272  -0.423  0.00  0.00    -0.002 A 
ATOM      8  C6  OXE d   1       2.270  -1.239  -0.241  0.00  0.00     0.003 A 
ENDROOT
TORSDOF 0
ENDMDL
