MODEL 1
REMARK minimizedAffinity -5.41795444
REMARK minimizedRMSD -1
REMARK  0 active torsions:
REMARK  status: ('A' for Active; 'I' for Inactive)
ROOT
ATOM      1  C2' OXE d   1       0.020  -2.366  -0.119  0.00  0.00     0.078 C 
ATOM      2  C1' OXE d   1      -0.931   0.273  -0.230  0.00  0.00     0.078 C 
ATOM      3  C1  OXE d   1       0.562   0.065  -0.171  0.00  0.00    -0.078 A 
ATOM      4  C2  OXE d   1       1.016  -1.228  -0.070  0.00  0.00    -0.078 A 
ATOM      5  C3  OXE d   1       2.385  -1.480  -0.068  0.00  0.00     0.003 A 
ATOM      6  C4  OXE d   1       3.300  -0.421  -0.012  0.00  0.00    -0.002 A 
ATOM      7  C5  OXE d   1       2.857   0.904  -0.074  0.00  0.00    -0.002 A 
ATOM      8  C6  OXE d   1       1.497   1.163  -0.197  0.00  0.00     0.003 A 
ENDROOT
TORSDOF 0
ENDMDL
