MODEL 1
REMARK minimizedAffinity -1.29283667
REMARK minimizedRMSD -1
REMARK  0 active torsions:
REMARK  status: ('A' for Active; 'I' for Inactive)
ROOT
ATOM      1  C2' OXE d   1      -0.260  -2.054  -1.683  0.00  0.00     0.078 C 
ATOM      2  C1' OXE d   1       2.238  -1.769  -0.434  0.00  0.00     0.078 C 
ATOM      3  C1  OXE d   1       1.338  -0.559  -0.492  0.00  0.00    -0.078 A 
ATOM      4  C2  OXE d   1       0.137  -0.696  -1.146  0.00  0.00    -0.078 A 
ATOM      5  C3  OXE d   1      -0.753   0.373  -1.182  0.00  0.00     0.003 A 
ATOM      6  C4  OXE d   1      -0.374   1.629  -0.692  0.00  0.00    -0.002 A 
ATOM      7  C5  OXE d   1       0.861   1.800  -0.058  0.00  0.00    -0.002 A 
ATOM      8  C6  OXE d   1       1.709   0.707   0.088  0.00  0.00     0.003 A 
ENDROOT
TORSDOF 0
ENDMDL
