MODEL 1
REMARK minimizedAffinity -1.93793023
REMARK minimizedRMSD -1
REMARK  0 active torsions:
REMARK  status: ('A' for Active; 'I' for Inactive)
ROOT
ATOM      1  C2' OXE d   1       1.875  -1.987   0.017  0.00  0.00     0.078 C 
ATOM      2  C1' OXE d   1       1.042  -1.100   2.547  0.00  0.00     0.078 C 
ATOM      3  C1  OXE d   1       0.290  -0.595   1.341  0.00  0.00    -0.078 A 
ATOM      4  C2  OXE d   1       0.734  -0.997   0.105  0.00  0.00    -0.078 A 
ATOM      5  C3  OXE d   1       0.042  -0.603  -1.037  0.00  0.00     0.003 A 
ATOM      6  C4  OXE d   1      -1.006   0.321  -0.948  0.00  0.00    -0.002 A 
ATOM      7  C5  OXE d   1      -1.448   0.774   0.299  0.00  0.00    -0.002 A 
ATOM      8  C6  OXE d   1      -0.840   0.294   1.454  0.00  0.00     0.003 A 
ENDROOT
TORSDOF 0
ENDMDL
