MODEL 1
REMARK minimizedAffinity -1.54492962
REMARK minimizedRMSD -1
REMARK  0 active torsions:
REMARK  status: ('A' for Active; 'I' for Inactive)
ROOT
ATOM      1  C2' OXE d   1       2.501  -1.495  -0.037  0.00  0.00     0.078 C 
ATOM      2  C1' OXE d   1       2.391   1.309   0.012  0.00  0.00     0.078 C 
ATOM      3  C1  OXE d   1       1.092   0.557  -0.131  0.00  0.00    -0.078 A 
ATOM      4  C2  OXE d   1       1.159  -0.814  -0.201  0.00  0.00    -0.078 A 
ATOM      5  C3  OXE d   1      -0.014  -1.559  -0.277  0.00  0.00     0.003 A 
ATOM      6  C4  OXE d   1      -1.250  -0.921  -0.439  0.00  0.00    -0.002 A 
ATOM      7  C5  OXE d   1      -1.337   0.475  -0.410  0.00  0.00    -0.002 A 
ATOM      8  C6  OXE d   1      -0.183   1.226  -0.215  0.00  0.00     0.003 A 
ENDROOT
TORSDOF 0
ENDMDL
