MODEL 1
REMARK minimizedAffinity -2.53066087
REMARK minimizedRMSD -1
REMARK  0 active torsions:
REMARK  status: ('A' for Active; 'I' for Inactive)
ROOT
ATOM      1  C2' OXE d   1      -0.003  -1.477  -4.732  0.00  0.00     0.078 C 
ATOM      2  C1' OXE d   1      -0.057  -4.147  -3.866  0.00  0.00     0.078 C 
ATOM      3  C1  OXE d   1      -0.225  -3.067  -2.827  0.00  0.00    -0.078 A 
ATOM      4  C2  OXE d   1      -0.151  -1.762  -3.253  0.00  0.00    -0.078 A 
ATOM      5  C3  OXE d   1      -0.354  -0.728  -2.345  0.00  0.00     0.003 A 
ATOM      6  C4  OXE d   1      -0.479  -1.000  -0.977  0.00  0.00    -0.002 A 
ATOM      7  C5  OXE d   1      -0.518  -2.320  -0.516  0.00  0.00    -0.002 A 
ATOM      8  C6  OXE d   1      -0.435  -3.364  -1.432  0.00  0.00     0.003 A 
ENDROOT
TORSDOF 0
ENDMDL
