MODEL 1
REMARK minimizedAffinity -3.8936348
REMARK minimizedRMSD -1
REMARK  0 active torsions:
REMARK  status: ('A' for Active; 'I' for Inactive)
ROOT
ATOM      1  C2' OXE d   1      -0.390  -1.269  -0.733  0.00  0.00     0.078 C 
ATOM      2  C1' OXE d   1      -1.710  -0.273   1.535  0.00  0.00     0.078 C 
ATOM      3  C1  OXE d   1      -0.857   0.684   0.741  0.00  0.00    -0.078 A 
ATOM      4  C2  OXE d   1      -0.177   0.177  -0.340  0.00  0.00    -0.078 A 
ATOM      5  C3  OXE d   1       0.580   1.028  -1.140  0.00  0.00     0.003 A 
ATOM      6  C4  OXE d   1       0.780   2.362  -0.764  0.00  0.00    -0.002 A 
ATOM      7  C5  OXE d   1       0.129   2.889   0.356  0.00  0.00    -0.002 A 
ATOM      8  C6  OXE d   1      -0.725   2.076   1.094  0.00  0.00     0.003 A 
ENDROOT
TORSDOF 0
ENDMDL
