MODEL 1
REMARK minimizedAffinity -3.43899536
REMARK minimizedRMSD -1
REMARK  0 active torsions:
REMARK  status: ('A' for Active; 'I' for Inactive)
ROOT
ATOM      1  C2' OXE d   1       2.250   1.275  -0.480  0.00  0.00     0.078 C 
ATOM      2  C1' OXE d   1       0.285   3.209   0.049  0.00  0.00     0.078 C 
ATOM      3  C1  OXE d   1      -0.097   1.758   0.201  0.00  0.00    -0.078 A 
ATOM      4  C2  OXE d   1       0.857   0.818  -0.105  0.00  0.00    -0.078 A 
ATOM      5  C3  OXE d   1       0.574  -0.534   0.071  0.00  0.00     0.003 A 
ATOM      6  C4  OXE d   1      -0.720  -0.949   0.408  0.00  0.00    -0.002 A 
ATOM      7  C5  OXE d   1      -1.718  -0.009   0.685  0.00  0.00    -0.002 A 
ATOM      8  C6  OXE d   1      -1.412   1.347   0.628  0.00  0.00     0.003 A 
ENDROOT
TORSDOF 0
ENDMDL
