MODEL 1
REMARK minimizedAffinity -5.65466022
REMARK minimizedRMSD -1
REMARK  0 active torsions:
REMARK  status: ('A' for Active; 'I' for Inactive)
ROOT
ATOM      1  C2' OXE d   1       1.585   3.924   0.098  0.00  0.00     0.078 C 
ATOM      2  C1' OXE d   1       3.166   1.617   0.336  0.00  0.00     0.078 C 
ATOM      3  C1  OXE d   1       1.671   1.439   0.245  0.00  0.00    -0.078 A 
ATOM      4  C2  OXE d   1       0.902   2.576   0.176  0.00  0.00    -0.078 A 
ATOM      5  C3  OXE d   1      -0.478   2.467   0.034  0.00  0.00     0.003 A 
ATOM      6  C4  OXE d   1      -1.103   1.216   0.117  0.00  0.00    -0.002 A 
ATOM      7  C5  OXE d   1      -0.341   0.048   0.227  0.00  0.00    -0.002 A 
ATOM      8  C6  OXE d   1       1.047   0.139   0.250  0.00  0.00     0.003 A 
ENDROOT
TORSDOF 0
ENDMDL
