MODEL 1
REMARK minimizedAffinity -1.19369066
REMARK minimizedRMSD -1
REMARK  0 active torsions:
REMARK  status: ('A' for Active; 'I' for Inactive)
ROOT
ATOM      1  C2' OXE d   1      -0.378  -1.644  -0.748  0.00  0.00     0.078 C 
ATOM      2  C1' OXE d   1       1.739  -0.761   0.870  0.00  0.00     0.078 C 
ATOM      3  C1  OXE d   1       0.563   0.165   0.683  0.00  0.00    -0.078 A 
ATOM      4  C2  OXE d   1      -0.447  -0.256  -0.147  0.00  0.00    -0.078 A 
ATOM      5  C3  OXE d   1      -1.580   0.535  -0.311  0.00  0.00     0.003 A 
ATOM      6  C4  OXE d   1      -1.632   1.821   0.239  0.00  0.00    -0.002 A 
ATOM      7  C5  OXE d   1      -0.596   2.286   1.057  0.00  0.00    -0.002 A 
ATOM      8  C6  OXE d   1       0.487   1.455   1.323  0.00  0.00     0.003 A 
ENDROOT
TORSDOF 0
ENDMDL
