MODEL 1
REMARK minimizedAffinity -3.65176988
REMARK minimizedRMSD -1
REMARK  0 active torsions:
REMARK  status: ('A' for Active; 'I' for Inactive)
ROOT
ATOM      1  C2' OXE d   1       0.263  -1.271   0.773  0.00  0.00     0.078 C 
ATOM      2  C1' OXE d   1       2.579   0.313   0.691  0.00  0.00     0.078 C 
ATOM      3  C1  OXE d   1       1.261   0.976   0.377  0.00  0.00    -0.078 A 
ATOM      4  C2  OXE d   1       0.139   0.183   0.373  0.00  0.00    -0.078 A 
ATOM      5  C3  OXE d   1      -1.109   0.756   0.143  0.00  0.00     0.003 A 
ATOM      6  C4  OXE d   1      -1.213   2.100  -0.236  0.00  0.00    -0.002 A 
ATOM      7  C5  OXE d   1      -0.078   2.916  -0.277  0.00  0.00    -0.002 A 
ATOM      8  C6  OXE d   1       1.159   2.381   0.067  0.00  0.00     0.003 A 
ENDROOT
TORSDOF 0
ENDMDL
