MODEL 1
REMARK minimizedAffinity -2.93631864
REMARK minimizedRMSD -1
REMARK  0 active torsions:
REMARK  status: ('A' for Active; 'I' for Inactive)
ROOT
ATOM      1  C2' OXE d   1      -2.217   0.836   0.661  0.00  0.00     0.078 C 
ATOM      2  C1' OXE d   1      -0.256   2.770   0.115  0.00  0.00     0.078 C 
ATOM      3  C1  OXE d   1       0.174   1.325   0.162  0.00  0.00    -0.078 A 
ATOM      4  C2  OXE d   1      -0.782   0.390   0.476  0.00  0.00    -0.078 A 
ATOM      5  C3  OXE d   1      -0.450  -0.961   0.480  0.00  0.00     0.003 A 
ATOM      6  C4  OXE d   1       0.881  -1.365   0.318  0.00  0.00    -0.002 A 
ATOM      7  C5  OXE d   1       1.878  -0.425   0.036  0.00  0.00    -0.002 A 
ATOM      8  C6  OXE d   1       1.535   0.917  -0.087  0.00  0.00     0.003 A 
ENDROOT
TORSDOF 0
ENDMDL
