MODEL 1
REMARK minimizedAffinity -4.63039064
REMARK minimizedRMSD -1
REMARK  0 active torsions:
REMARK  status: ('A' for Active; 'I' for Inactive)
ROOT
ATOM      1  C2' OXE d   1      -0.099  -0.930   0.209  0.00  0.00     0.078 C 
ATOM      2  C1' OXE d   1      -2.291   0.679   0.906  0.00  0.00     0.078 C 
ATOM      3  C1  OXE d   1      -0.978   1.364   0.620  0.00  0.00    -0.078 A 
ATOM      4  C2  OXE d   1       0.100   0.566   0.325  0.00  0.00    -0.078 A 
ATOM      5  C3  OXE d   1       1.321   1.150  -0.002  0.00  0.00     0.003 A 
ATOM      6  C4  OXE d   1       1.500   2.533   0.118  0.00  0.00    -0.002 A 
ATOM      7  C5  OXE d   1       0.424   3.361   0.456  0.00  0.00    -0.002 A 
ATOM      8  C6  OXE d   1      -0.829   2.798   0.668  0.00  0.00     0.003 A 
ENDROOT
TORSDOF 0
ENDMDL
