MODEL 1
REMARK minimizedAffinity -5.22940207
REMARK minimizedRMSD -1
REMARK  0 active torsions:
REMARK  status: ('A' for Active; 'I' for Inactive)
ROOT
ATOM      1  C2' OXE d   1      -0.039  -1.200   0.351  0.00  0.00     0.078 C 
ATOM      2  C1' OXE d   1      -2.092   0.052   1.800  0.00  0.00     0.078 C 
ATOM      3  C1  OXE d   1      -1.215   0.918   0.930  0.00  0.00    -0.078 A 
ATOM      4  C2  OXE d   1      -0.184   0.304   0.261  0.00  0.00    -0.078 A 
ATOM      5  C3  OXE d   1       0.620   1.048  -0.597  0.00  0.00     0.003 A 
ATOM      6  C4  OXE d   1       0.486   2.440  -0.667  0.00  0.00    -0.002 A 
ATOM      7  C5  OXE d   1      -0.533   3.090   0.037  0.00  0.00    -0.002 A 
ATOM      8  C6  OXE d   1      -1.417   2.341   0.805  0.00  0.00     0.003 A 
ENDROOT
TORSDOF 0
ENDMDL
