MODEL 1
REMARK minimizedAffinity 3.63734937
REMARK minimizedRMSD -1
REMARK  0 active torsions:
REMARK  status: ('A' for Active; 'I' for Inactive)
ROOT
ATOM      1  C2' OXE d   1      -0.842  -3.200  -2.277  0.00  0.00     0.078 C 
ATOM      2  C1' OXE d   1      -0.080  -4.756  -0.069  0.00  0.00     0.078 C 
ATOM      3  C1  OXE d   1      -1.544  -4.715  -0.428  0.00  0.00    -0.078 A 
ATOM      4  C2  OXE d   1      -1.914  -3.914  -1.482  0.00  0.00    -0.078 A 
ATOM      5  C3  OXE d   1      -3.244  -3.882  -1.890  0.00  0.00     0.003 A 
ATOM      6  C4  OXE d   1      -4.231  -4.538  -1.143  0.00  0.00    -0.002 A 
ATOM      7  C5  OXE d   1      -3.880  -5.327  -0.042  0.00  0.00    -0.002 A 
ATOM      8  C6  OXE d   1      -2.539  -5.460   0.301  0.00  0.00     0.003 A 
ENDROOT
TORSDOF 0
ENDMDL
