MODEL 1
REMARK minimizedAffinity -2.79111981
REMARK minimizedRMSD -1
REMARK  0 active torsions:
REMARK  status: ('A' for Active; 'I' for Inactive)
ROOT
ATOM      1  C2' OXE d   1      -1.373  -0.721   1.113  0.00  0.00     0.078 C 
ATOM      2  C1' OXE d   1       1.020  -0.266  -0.283  0.00  0.00     0.078 C 
ATOM      3  C1  OXE d   1       0.148  -1.410  -0.736  0.00  0.00    -0.078 A 
ATOM      4  C2  OXE d   1      -0.999  -1.654  -0.019  0.00  0.00    -0.078 A 
ATOM      5  C3  OXE d   1      -1.866  -2.663  -0.428  0.00  0.00     0.003 A 
ATOM      6  C4  OXE d   1      -1.507  -3.528  -1.469  0.00  0.00    -0.002 A 
ATOM      7  C5  OXE d   1      -0.325  -3.321  -2.188  0.00  0.00    -0.002 A 
ATOM      8  C6  OXE d   1       0.491  -2.243  -1.862  0.00  0.00     0.003 A 
ENDROOT
TORSDOF 0
ENDMDL
