MODEL 1
REMARK minimizedAffinity -3.70635509
REMARK minimizedRMSD -1
REMARK  0 active torsions:
REMARK  status: ('A' for Active; 'I' for Inactive)
ROOT
ATOM      1  C2' OXE d   1      -2.315  -0.056   1.265  0.00  0.00     0.078 C 
ATOM      2  C1' OXE d   1      -0.110  -1.230  -0.016  0.00  0.00     0.078 C 
ATOM      3  C1  OXE d   1      -0.165   0.276   0.051  0.00  0.00    -0.078 A 
ATOM      4  C2  OXE d   1      -1.271   0.842   0.639  0.00  0.00    -0.078 A 
ATOM      5  C3  OXE d   1      -1.346   2.226   0.776  0.00  0.00     0.003 A 
ATOM      6  C4  OXE d   1      -0.380   3.050   0.185  0.00  0.00    -0.002 A 
ATOM      7  C5  OXE d   1       0.734   2.494  -0.453  0.00  0.00    -0.002 A 
ATOM      8  C6  OXE d   1       0.878   1.112  -0.491  0.00  0.00     0.003 A 
ENDROOT
TORSDOF 0
ENDMDL
