MODEL 1
REMARK minimizedAffinity -5.37815189
REMARK minimizedRMSD -1
REMARK  0 active torsions:
REMARK  status: ('A' for Active; 'I' for Inactive)
ROOT
ATOM      1  C2' OXE d   1       0.427  -1.065   0.151  0.00  0.00     0.078 C 
ATOM      2  C1' OXE d   1      -1.784   0.644   0.420  0.00  0.00     0.078 C 
ATOM      3  C1  OXE d   1      -0.410   1.268   0.401  0.00  0.00    -0.078 A 
ATOM      4  C2  OXE d   1       0.668   0.420   0.316  0.00  0.00    -0.078 A 
ATOM      5  C3  OXE d   1       1.954   0.946   0.240  0.00  0.00     0.003 A 
ATOM      6  C4  OXE d   1       2.169   2.320   0.403  0.00  0.00    -0.002 A 
ATOM      7  C5  OXE d   1       1.087   3.197   0.531  0.00  0.00    -0.002 A 
ATOM      8  C6  OXE d   1      -0.208   2.693   0.489  0.00  0.00     0.003 A 
ENDROOT
TORSDOF 0
ENDMDL
