MODEL 1
REMARK minimizedAffinity -3.28090715
REMARK minimizedRMSD -1
REMARK  0 active torsions:
REMARK  status: ('A' for Active; 'I' for Inactive)
ROOT
ATOM      1  C2' OXE d   1       2.897   1.142   0.304  0.00  0.00     0.078 C 
ATOM      2  C1' OXE d   1       0.810   2.613  -0.862  0.00  0.00     0.078 C 
ATOM      3  C1  OXE d   1       1.187   2.935   0.563  0.00  0.00    -0.078 A 
ATOM      4  C2  OXE d   1       2.178   2.178   1.140  0.00  0.00    -0.078 A 
ATOM      5  C3  OXE d   1       2.602   2.469   2.434  0.00  0.00     0.003 A 
ATOM      6  C4  OXE d   1       1.925   3.422   3.204  0.00  0.00    -0.002 A 
ATOM      7  C5  OXE d   1       0.887   4.177   2.648  0.00  0.00    -0.002 A 
ATOM      8  C6  OXE d   1       0.535   3.976   1.318  0.00  0.00     0.003 A 
ENDROOT
TORSDOF 0
ENDMDL
