MODEL 1
REMARK minimizedAffinity -5.59534931
REMARK minimizedRMSD -1
REMARK  0 active torsions:
REMARK  status: ('A' for Active; 'I' for Inactive)
ROOT
ATOM      1  C2' OXE d   1       0.126  -1.112   0.146  0.00  0.00     0.078 C 
ATOM      2  C1' OXE d   1       2.619   0.177   0.176  0.00  0.00     0.078 C 
ATOM      3  C1  OXE d   1       1.382   1.036   0.263  0.00  0.00    -0.078 A 
ATOM      4  C2  OXE d   1       0.166   0.400   0.201  0.00  0.00    -0.078 A 
ATOM      5  C3  OXE d   1      -1.006   1.140   0.332  0.00  0.00     0.003 A 
ATOM      6  C4  OXE d   1      -0.960   2.539   0.371  0.00  0.00    -0.002 A 
ATOM      7  C5  OXE d   1       0.267   3.209   0.396  0.00  0.00    -0.002 A 
ATOM      8  C6  OXE d   1       1.446   2.471   0.385  0.00  0.00     0.003 A 
ENDROOT
TORSDOF 0
ENDMDL
