MODEL 1
REMARK minimizedAffinity -2.4742403
REMARK minimizedRMSD -1
REMARK  0 active torsions:
REMARK  status: ('A' for Active; 'I' for Inactive)
ROOT
ATOM      1  C2' OXE d   1       0.344  -1.825   0.041  0.00  0.00     0.078 C 
ATOM      2  C1' OXE d   1       2.570  -0.176   0.489  0.00  0.00     0.078 C 
ATOM      3  C1  OXE d   1       1.208   0.472   0.465  0.00  0.00    -0.078 A 
ATOM      4  C2  OXE d   1       0.129  -0.335   0.199  0.00  0.00    -0.078 A 
ATOM      5  C3  OXE d   1      -1.155   0.202   0.219  0.00  0.00     0.003 A 
ATOM      6  C4  OXE d   1      -1.344   1.582   0.356  0.00  0.00    -0.002 A 
ATOM      7  C5  OXE d   1      -0.255   2.428   0.589  0.00  0.00    -0.002 A 
ATOM      8  C6  OXE d   1       1.021   1.884   0.689  0.00  0.00     0.003 A 
ENDROOT
TORSDOF 0
ENDMDL
