MODEL 1
REMARK minimizedAffinity -4.76598454
REMARK minimizedRMSD -1
REMARK  0 active torsions:
REMARK  status: ('A' for Active; 'I' for Inactive)
ROOT
ATOM      1  C2' OXE d   1      -0.016  -1.422   0.007  0.00  0.00     0.078 C 
ATOM      2  C1' OXE d   1      -2.341   0.137   0.219  0.00  0.00     0.078 C 
ATOM      3  C1  OXE d   1      -1.011   0.847   0.263  0.00  0.00    -0.078 A 
ATOM      4  C2  OXE d   1       0.122   0.072   0.205  0.00  0.00    -0.078 A 
ATOM      5  C3  OXE d   1       1.374   0.681   0.187  0.00  0.00     0.003 A 
ATOM      6  C4  OXE d   1       1.493   2.062   0.381  0.00  0.00    -0.002 A 
ATOM      7  C5  OXE d   1       0.352   2.866   0.482  0.00  0.00    -0.002 A 
ATOM      8  C6  OXE d   1      -0.905   2.280   0.382  0.00  0.00     0.003 A 
ENDROOT
TORSDOF 0
ENDMDL
