MODEL 1
REMARK minimizedAffinity -4.10099316
REMARK minimizedRMSD -1
REMARK  0 active torsions:
REMARK  status: ('A' for Active; 'I' for Inactive)
ROOT
ATOM      1  C2' OXE d   1       2.469   0.464  -0.400  0.00  0.00     0.078 C 
ATOM      2  C1' OXE d   1       0.102  -0.965   0.087  0.00  0.00     0.078 C 
ATOM      3  C1  OXE d   1       0.031   0.542   0.104  0.00  0.00    -0.078 A 
ATOM      4  C2  OXE d   1       1.203   1.233  -0.089  0.00  0.00    -0.078 A 
ATOM      5  C3  OXE d   1       1.183   2.624  -0.137  0.00  0.00     0.003 A 
ATOM      6  C4  OXE d   1       0.010   3.327   0.162  0.00  0.00    -0.002 A 
ATOM      7  C5  OXE d   1      -1.186   2.643   0.401  0.00  0.00    -0.002 A 
ATOM      8  C6  OXE d   1      -1.202   1.254   0.334  0.00  0.00     0.003 A 
ENDROOT
TORSDOF 0
ENDMDL
