MODEL 1
REMARK minimizedAffinity -4.24673367
REMARK minimizedRMSD -1
REMARK  0 active torsions:
REMARK  status: ('A' for Active; 'I' for Inactive)
ROOT
ATOM      1  C2' OXE d   1       2.558   0.906  -0.890  0.00  0.00     0.078 C 
ATOM      2  C1' OXE d   1       0.355   2.633  -1.100  0.00  0.00     0.078 C 
ATOM      3  C1  OXE d   1       0.156   1.324  -0.377  0.00  0.00    -0.078 A 
ATOM      4  C2  OXE d   1       1.227   0.465  -0.320  0.00  0.00    -0.078 A 
ATOM      5  C3  OXE d   1       1.113  -0.732   0.382  0.00  0.00     0.003 A 
ATOM      6  C4  OXE d   1      -0.124  -1.137   0.898  0.00  0.00    -0.002 A 
ATOM      7  C5  OXE d   1      -1.237  -0.294   0.816  0.00  0.00    -0.002 A 
ATOM      8  C6  OXE d   1      -1.104   0.956   0.220  0.00  0.00     0.003 A 
ENDROOT
TORSDOF 0
ENDMDL
