MODEL 1
REMARK minimizedAffinity 23.9554691
REMARK minimizedRMSD -1
REMARK  0 active torsions:
REMARK  status: ('A' for Active; 'I' for Inactive)
ROOT
ATOM      1  O1  BZF d   1       2.414   1.969   0.868  0.00  0.00    -0.204 OA
ATOM      2  C2  BZF d   1       3.406   2.922   0.736  0.00  0.00     0.174 A 
ATOM      3  C3  BZF d   1       4.091   2.744  -0.412  0.00  0.00    -0.012 A 
ATOM      4  C3A BZF d   1       3.430   1.666  -1.081  0.00  0.00    -0.107 A 
ATOM      5  C4  BZF d   1       3.635   1.036  -2.276  0.00  0.00     0.055 A 
ATOM      6  C5  BZF d   1       2.858  -0.030  -2.602  0.00  0.00    -0.016 A 
ATOM      7  C6  BZF d   1       1.872  -0.496  -1.756  0.00  0.00     0.022 A 
ATOM      8  C7  BZF d   1       1.629   0.099  -0.563  0.00  0.00     0.029 A 
ATOM      9  C7A BZF d   1       2.390   1.197  -0.245  0.00  0.00     0.058 A 
ENDROOT
TORSDOF 0
ENDMDL
