MODEL 1
REMARK minimizedAffinity 11.3589525
REMARK minimizedRMSD -1
REMARK  0 active torsions:
REMARK  status: ('A' for Active; 'I' for Inactive)
ROOT
ATOM      1  O1  BZF d   1      -0.265  -5.338   0.955  0.00  0.00    -0.204 OA
ATOM      2  C2  BZF d   1      -0.359  -5.952   2.189  0.00  0.00     0.174 A 
ATOM      3  C3  BZF d   1      -0.909  -5.120   3.097  0.00  0.00    -0.012 A 
ATOM      4  C3A BZF d   1      -1.260  -3.943   2.364  0.00  0.00    -0.107 A 
ATOM      5  C4  BZF d   1      -1.857  -2.764   2.710  0.00  0.00     0.055 A 
ATOM      6  C5  BZF d   1      -1.989  -1.790   1.772  0.00  0.00    -0.016 A 
ATOM      7  C6  BZF d   1      -1.533  -1.958   0.481  0.00  0.00     0.022 A 
ATOM      8  C7  BZF d   1      -0.939  -3.112   0.089  0.00  0.00     0.029 A 
ATOM      9  C7A BZF d   1      -0.833  -4.110   1.027  0.00  0.00     0.058 A 
ENDROOT
TORSDOF 0
ENDMDL
