MODEL 1
REMARK minimizedAffinity 15.4806461
REMARK minimizedRMSD -1
REMARK  0 active torsions:
REMARK  status: ('A' for Active; 'I' for Inactive)
ROOT
ATOM      1  O1  BZF d   1       3.858   3.375   2.001  0.00  0.00    -0.204 OA
ATOM      2  C2  BZF d   1       4.174   2.033   2.091  0.00  0.00     0.174 A 
ATOM      3  C3  BZF d   1       4.974   1.661   1.072  0.00  0.00    -0.012 A 
ATOM      4  C3A BZF d   1       5.246   2.865   0.348  0.00  0.00    -0.107 A 
ATOM      5  C4  BZF d   1       5.996   3.146  -0.759  0.00  0.00     0.055 A 
ATOM      6  C5  BZF d   1       5.993   4.411  -1.254  0.00  0.00    -0.016 A 
ATOM      7  C6  BZF d   1       5.251   5.417  -0.672  0.00  0.00     0.022 A 
ATOM      8  C7  BZF d   1       4.496   5.188   0.430  0.00  0.00     0.029 A 
ATOM      9  C7A BZF d   1       4.522   3.918   0.953  0.00  0.00     0.058 A 
ENDROOT
TORSDOF 0
ENDMDL
