MODEL 1
REMARK minimizedAffinity 15.7547617
REMARK minimizedRMSD -1
REMARK  0 active torsions:
REMARK  status: ('A' for Active; 'I' for Inactive)
ROOT
ATOM      1  O1  BZF d   1      -0.120  -4.310   0.326  0.00  0.00    -0.204 OA
ATOM      2  C2  BZF d   1      -0.449  -4.965   1.497  0.00  0.00     0.174 A 
ATOM      3  C3  BZF d   1      -1.459  -4.335   2.131  0.00  0.00    -0.012 A 
ATOM      4  C3A BZF d   1      -1.843  -3.268   1.258  0.00  0.00    -0.107 A 
ATOM      5  C4  BZF d   1      -2.802  -2.298   1.327  0.00  0.00     0.055 A 
ATOM      6  C5  BZF d   1      -2.867  -1.364   0.342  0.00  0.00    -0.016 A 
ATOM      7  C6  BZF d   1      -1.988  -1.366  -0.721  0.00  0.00     0.022 A 
ATOM      8  C7  BZF d   1      -1.024  -2.311  -0.835  0.00  0.00     0.029 A 
ATOM      9  C7A BZF d   1      -0.976  -3.276   0.141  0.00  0.00     0.058 A 
ENDROOT
TORSDOF 0
ENDMDL
