MODEL 1
REMARK minimizedAffinity 14.2921705
REMARK minimizedRMSD -1
REMARK  0 active torsions:
REMARK  status: ('A' for Active; 'I' for Inactive)
ROOT
ATOM      1  O1  BZF d   1      -4.328   4.535  -0.856  0.00  0.00    -0.204 OA
ATOM      2  C2  BZF d   1      -5.207   5.426  -1.442  0.00  0.00     0.174 A 
ATOM      3  C3  BZF d   1      -6.000   5.997  -0.512  0.00  0.00    -0.012 A 
ATOM      4  C3A BZF d   1      -5.529   5.497   0.743  0.00  0.00    -0.107 A 
ATOM      5  C4  BZF d   1      -5.904   5.709   2.039  0.00  0.00     0.055 A 
ATOM      6  C5  BZF d   1      -5.288   5.010   3.028  0.00  0.00    -0.016 A 
ATOM      7  C6  BZF d   1      -4.299   4.087   2.757  0.00  0.00     0.022 A 
ATOM      8  C7  BZF d   1      -3.890   3.846   1.488  0.00  0.00     0.029 A 
ATOM      9  C7A BZF d   1      -4.487   4.575   0.489  0.00  0.00     0.058 A 
ENDROOT
TORSDOF 0
ENDMDL
