MODEL 1
REMARK minimizedAffinity 8.91253281
REMARK minimizedRMSD -1
REMARK  0 active torsions:
REMARK  status: ('A' for Active; 'I' for Inactive)
ROOT
ATOM      1  O1  BZF d   1       1.790   0.433  -0.518  0.00  0.00    -0.204 OA
ATOM      2  C2  BZF d   1       1.814   0.621  -1.886  0.00  0.00     0.174 A 
ATOM      3  C3  BZF d   1       2.597   1.670  -2.211  0.00  0.00    -0.012 A 
ATOM      4  C3A BZF d   1       3.166   2.111  -0.975  0.00  0.00    -0.107 A 
ATOM      5  C4  BZF d   1       4.040   3.108  -0.647  0.00  0.00     0.055 A 
ATOM      6  C5  BZF d   1       4.337   3.322   0.662  0.00  0.00    -0.016 A 
ATOM      7  C6  BZF d   1       3.775   2.563   1.668  0.00  0.00     0.022 A 
ATOM      8  C7  BZF d   1       2.906   1.560   1.391  0.00  0.00     0.029 A 
ATOM      9  C7A BZF d   1       2.630   1.320   0.067  0.00  0.00     0.058 A 
ENDROOT
TORSDOF 0
ENDMDL
