MODEL 1
REMARK minimizedAffinity 2.60958433
REMARK minimizedRMSD -1
REMARK  0 active torsions:
REMARK  status: ('A' for Active; 'I' for Inactive)
ROOT
ATOM      1  O1  BZF d   1      -1.142  -4.366   3.123  0.00  0.00    -0.204 OA
ATOM      2  C2  BZF d   1      -1.811  -3.427   3.884  0.00  0.00     0.174 A 
ATOM      3  C3  BZF d   1      -2.105  -2.336   3.148  0.00  0.00    -0.012 A 
ATOM      4  C3A BZF d   1      -1.669  -2.648   1.821  0.00  0.00    -0.107 A 
ATOM      5  C4  BZF d   1      -1.703  -1.968   0.638  0.00  0.00     0.055 A 
ATOM      6  C5  BZF d   1      -1.127  -2.525  -0.460  0.00  0.00    -0.016 A 
ATOM      7  C6  BZF d   1      -0.505  -3.755  -0.409  0.00  0.00     0.022 A 
ATOM      8  C7  BZF d   1      -0.451  -4.470   0.741  0.00  0.00     0.029 A 
ATOM      9  C7A BZF d   1      -1.061  -3.925   1.845  0.00  0.00     0.058 A 
ENDROOT
TORSDOF 0
ENDMDL
