MODEL 1
REMARK minimizedAffinity 7.21811247
REMARK minimizedRMSD -1
REMARK  0 active torsions:
REMARK  status: ('A' for Active; 'I' for Inactive)
ROOT
ATOM      1  O1  BZF d   1      -2.559   3.817  -3.799  0.00  0.00    -0.204 OA
ATOM      2  C2  BZF d   1      -2.527   2.476  -4.126  0.00  0.00     0.174 A 
ATOM      3  C3  BZF d   1      -3.545   2.161  -4.953  0.00  0.00    -0.012 A 
ATOM      4  C3A BZF d   1      -4.204   3.401  -5.228  0.00  0.00    -0.107 A 
ATOM      5  C4  BZF d   1      -5.279   3.742  -5.998  0.00  0.00     0.055 A 
ATOM      6  C5  BZF d   1      -5.712   5.030  -5.993  0.00  0.00    -0.016 A 
ATOM      7  C6  BZF d   1      -5.098   6.000  -5.228  0.00  0.00     0.022 A 
ATOM      8  C7  BZF d   1      -4.026   5.710  -4.452  0.00  0.00     0.029 A 
ATOM      9  C7A BZF d   1      -3.565   4.417  -4.480  0.00  0.00     0.058 A 
ENDROOT
TORSDOF 0
ENDMDL
