MODEL 1
REMARK minimizedAffinity 12.8208122
REMARK minimizedRMSD -1
REMARK  0 active torsions:
REMARK  status: ('A' for Active; 'I' for Inactive)
ROOT
ATOM      1  O1  BZF d   1       3.221   2.704   0.616  0.00  0.00    -0.204 OA
ATOM      2  C2  BZF d   1       4.130   3.685   0.271  0.00  0.00     0.174 A 
ATOM      3  C3  BZF d   1       4.585   3.496  -0.984  0.00  0.00    -0.012 A 
ATOM      4  C3A BZF d   1       3.849   2.376  -1.487  0.00  0.00    -0.107 A 
ATOM      5  C4  BZF d   1       3.842   1.718  -2.683  0.00  0.00     0.055 A 
ATOM      6  C5  BZF d   1       3.058   0.617  -2.826  0.00  0.00    -0.016 A 
ATOM      7  C6  BZF d   1       2.275   0.145  -1.794  0.00  0.00     0.022 A 
ATOM      8  C7  BZF d   1       2.245   0.767  -0.591  0.00  0.00     0.029 A 
ATOM      9  C7A BZF d   1       3.011   1.899  -0.453  0.00  0.00     0.058 A 
ENDROOT
TORSDOF 0
ENDMDL
