MODEL 1
REMARK minimizedAffinity 21.7245579
REMARK minimizedRMSD -1
REMARK  0 active torsions:
REMARK  status: ('A' for Active; 'I' for Inactive)
ROOT
ATOM      1  O1  BZF d   1      -2.575   4.335  -3.604  0.00  0.00    -0.204 OA
ATOM      2  C2  BZF d   1      -2.922   5.628  -3.264  0.00  0.00     0.174 A 
ATOM      3  C3  BZF d   1      -4.063   5.996  -3.882  0.00  0.00    -0.012 A 
ATOM      4  C3A BZF d   1      -4.503   4.830  -4.584  0.00  0.00    -0.107 A 
ATOM      5  C4  BZF d   1      -5.586   4.562  -5.371  0.00  0.00     0.055 A 
ATOM      6  C5  BZF d   1      -5.685   3.344  -5.967  0.00  0.00    -0.016 A 
ATOM      7  C6  BZF d   1      -4.717   2.375  -5.801  0.00  0.00     0.022 A 
ATOM      8  C7  BZF d   1      -3.627   2.593  -5.026  0.00  0.00     0.029 A 
ATOM      9  C7A BZF d   1      -3.542   3.811  -4.396  0.00  0.00     0.058 A 
ENDROOT
TORSDOF 0
ENDMDL
