MODEL 1
REMARK minimizedAffinity 9.67505646
REMARK minimizedRMSD -1
REMARK  0 active torsions:
REMARK  status: ('A' for Active; 'I' for Inactive)
ROOT
ATOM      1  O1  BZF d   1      -3.572  -1.659   5.628  0.00  0.00    -0.204 OA
ATOM      2  C2  BZF d   1      -2.233  -1.371   5.445  0.00  0.00     0.174 A 
ATOM      3  C3  BZF d   1      -2.035  -0.038   5.387  0.00  0.00    -0.012 A 
ATOM      4  C3A BZF d   1      -3.317   0.545   5.637  0.00  0.00    -0.107 A 
ATOM      5  C4  BZF d   1      -3.762   1.833   5.724  0.00  0.00     0.055 A 
ATOM      6  C5  BZF d   1      -5.089   2.062   5.907  0.00  0.00    -0.016 A 
ATOM      7  C6  BZF d   1      -5.999   1.029   6.000  0.00  0.00     0.022 A 
ATOM      8  C7  BZF d   1      -5.604  -0.265   5.924  0.00  0.00     0.029 A 
ATOM      9  C7A BZF d   1      -4.259  -0.501   5.773  0.00  0.00     0.058 A 
ENDROOT
TORSDOF 0
ENDMDL
