MODEL 1
REMARK minimizedAffinity 12.6578732
REMARK minimizedRMSD -1
REMARK  0 active torsions:
REMARK  status: ('A' for Active; 'I' for Inactive)
ROOT
ATOM      1  O1  BZF d   1      -0.301  -5.370  -1.519  0.00  0.00    -0.204 OA
ATOM      2  C2  BZF d   1      -0.150  -5.571  -0.161  0.00  0.00     0.174 A 
ATOM      3  C3  BZF d   1      -0.192  -4.399   0.504  0.00  0.00    -0.012 A 
ATOM      4  C3A BZF d   1      -0.474  -3.411  -0.492  0.00  0.00    -0.107 A 
ATOM      5  C4  BZF d   1      -0.652  -2.058  -0.448  0.00  0.00     0.055 A 
ATOM      6  C5  BZF d   1      -0.840  -1.378  -1.610  0.00  0.00    -0.016 A 
ATOM      7  C6  BZF d   1      -0.851  -2.019  -2.832  0.00  0.00     0.022 A 
ATOM      8  C7  BZF d   1      -0.683  -3.360  -2.925  0.00  0.00     0.029 A 
ATOM      9  C7A BZF d   1      -0.526  -4.054  -1.750  0.00  0.00     0.058 A 
ENDROOT
TORSDOF 0
ENDMDL
