MODEL 1
REMARK minimizedAffinity 14.2270355
REMARK minimizedRMSD -1
REMARK  0 active torsions:
REMARK  status: ('A' for Active; 'I' for Inactive)
ROOT
ATOM      1  O1  BZF d   1      -0.178   3.572  -5.992  0.00  0.00    -0.204 OA
ATOM      2  C2  BZF d   1       0.856   3.186  -5.161  0.00  0.00     0.174 A 
ATOM      3  C3  BZF d   1       0.384   2.509  -4.094  0.00  0.00    -0.012 A 
ATOM      4  C3A BZF d   1      -1.025   2.390  -4.317  0.00  0.00    -0.107 A 
ATOM      5  C4  BZF d   1      -2.040   1.805  -3.615  0.00  0.00     0.055 A 
ATOM      6  C5  BZF d   1      -3.315   1.931  -4.070  0.00  0.00    -0.016 A 
ATOM      7  C6  BZF d   1      -3.610   2.637  -5.217  0.00  0.00     0.022 A 
ATOM      8  C7  BZF d   1      -2.636   3.230  -5.950  0.00  0.00     0.029 A 
ATOM      9  C7A BZF d   1      -1.343   3.077  -5.511  0.00  0.00     0.058 A 
ENDROOT
TORSDOF 0
ENDMDL
