MODEL 1
REMARK minimizedAffinity 16.7338104
REMARK minimizedRMSD -1
REMARK  0 active torsions:
REMARK  status: ('A' for Active; 'I' for Inactive)
ROOT
ATOM      1  O1  BZF d   1       4.623   2.670   2.640  0.00  0.00    -0.204 OA
ATOM      2  C2  BZF d   1       3.948   1.914   3.579  0.00  0.00     0.174 A 
ATOM      3  C3  BZF d   1       2.864   1.327   3.032  0.00  0.00    -0.012 A 
ATOM      4  C3A BZF d   1       2.913   1.666   1.643  0.00  0.00    -0.107 A 
ATOM      5  C4  BZF d   1       2.118   1.365   0.575  0.00  0.00     0.055 A 
ATOM      6  C5  BZF d   1       2.401   1.915  -0.635  0.00  0.00    -0.016 A 
ATOM      7  C6  BZF d   1       3.467   2.773  -0.811  0.00  0.00     0.022 A 
ATOM      8  C7  BZF d   1       4.287   3.098   0.218  0.00  0.00     0.029 A 
ATOM      9  C7A BZF d   1       4.023   2.517   1.435  0.00  0.00     0.058 A 
ENDROOT
TORSDOF 0
ENDMDL
