MODEL 1
REMARK minimizedAffinity 11.247529
REMARK minimizedRMSD -1
REMARK  0 active torsions:
REMARK  status: ('A' for Active; 'I' for Inactive)
ROOT
ATOM      1  O1  BZF d   1      -4.902   4.137   3.112  0.00  0.00    -0.204 OA
ATOM      2  C2  BZF d   1      -5.828   5.092   3.482  0.00  0.00     0.174 A 
ATOM      3  C3  BZF d   1      -5.999   5.999   2.499  0.00  0.00    -0.012 A 
ATOM      4  C3A BZF d   1      -5.194   5.533   1.412  0.00  0.00    -0.107 A 
ATOM      5  C4  BZF d   1      -4.960   5.999   0.150  0.00  0.00     0.055 A 
ATOM      6  C5  BZF d   1      -4.063   5.349  -0.637  0.00  0.00    -0.016 A 
ATOM      7  C6  BZF d   1      -3.379   4.236  -0.194  0.00  0.00     0.022 A 
ATOM      8  C7  BZF d   1      -3.582   3.734   1.049  0.00  0.00     0.029 A 
ATOM      9  C7A BZF d   1      -4.512   4.369   1.835  0.00  0.00     0.058 A 
ENDROOT
TORSDOF 0
ENDMDL
