MODEL 1
REMARK minimizedAffinity 23.0576496
REMARK minimizedRMSD -1
REMARK  0 active torsions:
REMARK  status: ('A' for Active; 'I' for Inactive)
ROOT
ATOM      1  O1  BZF d   1      -3.330  -1.636  -2.643  0.00  0.00    -0.204 OA
ATOM      2  C2  BZF d   1      -2.293  -2.369  -3.186  0.00  0.00     0.174 A 
ATOM      3  C3  BZF d   1      -1.266  -2.463  -2.315  0.00  0.00    -0.012 A 
ATOM      4  C3A BZF d   1      -1.726  -1.822  -1.122  0.00  0.00    -0.107 A 
ATOM      5  C4  BZF d   1      -1.163  -1.607   0.104  0.00  0.00     0.055 A 
ATOM      6  C5  BZF d   1      -1.849  -0.883   1.028  0.00  0.00    -0.016 A 
ATOM      7  C6  BZF d   1      -3.095  -0.356   0.758  0.00  0.00     0.022 A 
ATOM      8  C7  BZF d   1      -3.696  -0.548  -0.442  0.00  0.00     0.029 A 
ATOM      9  C7A BZF d   1      -3.019  -1.306  -1.366  0.00  0.00     0.058 A 
ENDROOT
TORSDOF 0
ENDMDL
