MODEL 1
REMARK minimizedAffinity 6.67828846
REMARK minimizedRMSD -1
REMARK  0 active torsions:
REMARK  status: ('A' for Active; 'I' for Inactive)
ROOT
ATOM      1  O1  BZF d   1      -2.790  -1.149  -0.874  0.00  0.00    -0.204 OA
ATOM      2  C2  BZF d   1      -3.856  -0.404  -0.407  0.00  0.00     0.174 A 
ATOM      3  C3  BZF d   1      -4.063  -0.636   0.905  0.00  0.00    -0.012 A 
ATOM      4  C3A BZF d   1      -3.007  -1.516   1.303  0.00  0.00    -0.107 A 
ATOM      5  C4  BZF d   1      -2.663  -2.092   2.493  0.00  0.00     0.055 A 
ATOM      6  C5  BZF d   1      -1.618  -2.959   2.529  0.00  0.00    -0.016 A 
ATOM      7  C6  BZF d   1      -0.898  -3.277   1.395  0.00  0.00     0.022 A 
ATOM      8  C7  BZF d   1      -1.199  -2.726   0.194  0.00  0.00     0.029 A 
ATOM      9  C7A BZF d   1      -2.234  -1.824   0.160  0.00  0.00     0.058 A 
ENDROOT
TORSDOF 0
ENDMDL
