MODEL 1
REMARK minimizedAffinity 6.61814404
REMARK minimizedRMSD -1
REMARK  0 active torsions:
REMARK  status: ('A' for Active; 'I' for Inactive)
ROOT
ATOM      1  O1  BZF d   1      -0.886   1.374  -4.314  0.00  0.00    -0.204 OA
ATOM      2  C2  BZF d   1      -1.643   2.528  -4.389  0.00  0.00     0.174 A 
ATOM      3  C3  BZF d   1      -2.699   2.462  -3.553  0.00  0.00    -0.012 A 
ATOM      4  C3A BZF d   1      -2.544   1.227  -2.848  0.00  0.00    -0.107 A 
ATOM      5  C4  BZF d   1      -3.269   0.607  -1.870  0.00  0.00     0.055 A 
ATOM      6  C5  BZF d   1      -2.888  -0.627  -1.448  0.00  0.00    -0.016 A 
ATOM      7  C6  BZF d   1      -1.793  -1.272  -1.984  0.00  0.00     0.022 A 
ATOM      8  C7  BZF d   1      -1.040  -0.695  -2.952  0.00  0.00     0.029 A 
ATOM      9  C7A BZF d   1      -1.403   0.566  -3.357  0.00  0.00     0.058 A 
ENDROOT
TORSDOF 0
ENDMDL
