MODEL 1
REMARK minimizedAffinity 20.6547794
REMARK minimizedRMSD -1
REMARK  0 active torsions:
REMARK  status: ('A' for Active; 'I' for Inactive)
ROOT
ATOM      1  C   UNL d   1      -4.505   2.235   5.998  0.00  0.00     0.023 A 
ATOM      2  C1  UNL d   1      -5.021   0.939   5.992  0.00  0.00     0.003 A 
ATOM      3  C2  UNL d   1      -4.823   0.113   4.885  0.00  0.00     0.048 A 
ATOM      4  C3  UNL d   1      -4.106   0.588   3.787  0.00  0.00     0.023 A 
ATOM      5  C4  UNL d   1      -3.587   1.883   3.789  0.00  0.00     0.048 A 
ATOM      6  C5  UNL d   1      -3.789   2.707   4.898  0.00  0.00     0.003 A 
ATOM      7  I   UNL d   1      -3.810  -0.641   2.137  0.00  0.00    -0.146 I 
ENDROOT
TORSDOF 0
ENDMDL
