MODEL 1
REMARK minimizedAffinity 12.3847027
REMARK minimizedRMSD -1
REMARK  0 active torsions:
REMARK  status: ('A' for Active; 'I' for Inactive)
ROOT
ATOM      1  C   UNL d   1      -0.534  -4.129   1.489  0.00  0.00     0.023 A 
ATOM      2  C1  UNL d   1      -1.624  -3.341   1.119  0.00  0.00     0.003 A 
ATOM      3  C2  UNL d   1      -2.914  -3.876   1.138  0.00  0.00     0.048 A 
ATOM      4  C3  UNL d   1      -3.107  -5.201   1.529  0.00  0.00     0.023 A 
ATOM      5  C4  UNL d   1      -2.019  -5.993   1.901  0.00  0.00     0.048 A 
ATOM      6  C5  UNL d   1      -0.732  -5.454   1.880  0.00  0.00     0.003 A 
ATOM      7  I   UNL d   1      -5.025  -6.000   1.559  0.00  0.00    -0.146 I 
ENDROOT
TORSDOF 0
ENDMDL
