MODEL 1
REMARK minimizedAffinity 14.8083887
REMARK minimizedRMSD -1
REMARK  0 active torsions:
REMARK  status: ('A' for Active; 'I' for Inactive)
ROOT
ATOM      1  C   UNL d   1       5.096   0.381  -0.332  0.00  0.00     0.023 A 
ATOM      2  C1  UNL d   1       4.410   1.401  -0.993  0.00  0.00     0.003 A 
ATOM      3  C2  UNL d   1       3.203   1.879  -0.480  0.00  0.00     0.048 A 
ATOM      4  C3  UNL d   1       2.686   1.333   0.695  0.00  0.00     0.023 A 
ATOM      5  C4  UNL d   1       3.369   0.313   1.360  0.00  0.00     0.048 A 
ATOM      6  C5  UNL d   1       4.576  -0.162   0.843  0.00  0.00     0.003 A 
ATOM      7  I   UNL d   1       0.889   2.043   1.461  0.00  0.00    -0.146 I 
ENDROOT
TORSDOF 0
ENDMDL
