MODEL 1
REMARK minimizedAffinity 1.70447159
REMARK minimizedRMSD -1
REMARK  0 active torsions:
REMARK  status: ('A' for Active; 'I' for Inactive)
ROOT
ATOM      1  C   UNL d   1      -5.186   3.218   4.119  0.00  0.00     0.023 A 
ATOM      2  C1  UNL d   1      -5.728   3.094   5.399  0.00  0.00     0.003 A 
ATOM      3  C2  UNL d   1      -5.962   1.829   5.939  0.00  0.00     0.048 A 
ATOM      4  C3  UNL d   1      -5.651   0.691   5.196  0.00  0.00     0.023 A 
ATOM      5  C4  UNL d   1      -5.108   0.810   3.916  0.00  0.00     0.048 A 
ATOM      6  C5  UNL d   1      -4.876   2.078   3.379  0.00  0.00     0.003 A 
ATOM      7  I   UNL d   1      -5.999  -1.195   5.998  0.00  0.00    -0.146 I 
ENDROOT
TORSDOF 0
ENDMDL
