MODEL 1
REMARK minimizedAffinity 7.26748848
REMARK minimizedRMSD -1
REMARK  0 active torsions:
REMARK  status: ('A' for Active; 'I' for Inactive)
ROOT
ATOM      1  C   UNL d   1       0.773   2.725   0.387  0.00  0.00     0.023 A 
ATOM      2  C1  UNL d   1       0.151   2.415  -0.823  0.00  0.00     0.003 A 
ATOM      3  C2  UNL d   1      -1.003   3.099  -1.211  0.00  0.00     0.048 A 
ATOM      4  C3  UNL d   1      -1.529   4.092  -0.385  0.00  0.00     0.023 A 
ATOM      5  C4  UNL d   1      -0.909   4.406   0.826  0.00  0.00     0.048 A 
ATOM      6  C5  UNL d   1       0.244   3.719   1.210  0.00  0.00     0.003 A 
ATOM      7  I   UNL d   1      -3.246   5.112  -0.960  0.00  0.00    -0.146 I 
ENDROOT
TORSDOF 0
ENDMDL
