MODEL 1
REMARK minimizedAffinity 19.0257912
REMARK minimizedRMSD -1
REMARK  0 active torsions:
REMARK  status: ('A' for Active; 'I' for Inactive)
ROOT
ATOM      1  C   UNL d   1      -1.079  -2.322   0.859  0.00  0.00     0.023 A 
ATOM      2  C1  UNL d   1      -2.443  -2.116   0.649  0.00  0.00     0.003 A 
ATOM      3  C2  UNL d   1      -3.346  -3.165   0.834  0.00  0.00     0.048 A 
ATOM      4  C3  UNL d   1      -2.878  -4.418   1.231  0.00  0.00     0.023 A 
ATOM      5  C4  UNL d   1      -1.514  -4.628   1.443  0.00  0.00     0.048 A 
ATOM      6  C5  UNL d   1      -0.616  -3.576   1.256  0.00  0.00     0.003 A 
ATOM      7  I   UNL d   1      -4.219  -5.981   1.509  0.00  0.00    -0.146 I 
ENDROOT
TORSDOF 0
ENDMDL
