MODEL 1
REMARK minimizedAffinity 17.1708908
REMARK minimizedRMSD -1
REMARK  0 active torsions:
REMARK  status: ('A' for Active; 'I' for Inactive)
ROOT
ATOM      1  C   UNL d   1      -3.246   0.781   3.963  0.00  0.00     0.023 A 
ATOM      2  C1  UNL d   1      -2.627   2.024   4.103  0.00  0.00     0.003 A 
ATOM      3  C2  UNL d   1      -3.076   3.117   3.359  0.00  0.00     0.048 A 
ATOM      4  C3  UNL d   1      -4.145   2.961   2.477  0.00  0.00     0.023 A 
ATOM      5  C4  UNL d   1      -4.768   1.720   2.335  0.00  0.00     0.048 A 
ATOM      6  C5  UNL d   1      -4.315   0.630   3.080  0.00  0.00     0.003 A 
ATOM      7  I   UNL d   1      -4.815   4.587   1.369  0.00  0.00    -0.146 I 
ENDROOT
TORSDOF 0
ENDMDL
