MODEL 1
REMARK minimizedAffinity 14.600399
REMARK minimizedRMSD -1
REMARK  0 active torsions:
REMARK  status: ('A' for Active; 'I' for Inactive)
ROOT
ATOM      1  C   UNL d   1      -0.957  -3.797   1.608  0.00  0.00     0.023 A 
ATOM      2  C1  UNL d   1      -2.049  -3.047   1.170  0.00  0.00     0.003 A 
ATOM      3  C2  UNL d   1      -3.320  -3.622   1.125  0.00  0.00     0.048 A 
ATOM      4  C3  UNL d   1      -3.494  -4.948   1.521  0.00  0.00     0.023 A 
ATOM      5  C4  UNL d   1      -2.405  -5.702   1.960  0.00  0.00     0.048 A 
ATOM      6  C5  UNL d   1      -1.135  -5.123   2.002  0.00  0.00     0.003 A 
ATOM      7  I   UNL d   1      -5.386  -5.806   1.456  0.00  0.00    -0.146 I 
ENDROOT
TORSDOF 0
ENDMDL
