MODEL 1
REMARK minimizedAffinity 13.7654724
REMARK minimizedRMSD -1
REMARK  0 active torsions:
REMARK  status: ('A' for Active; 'I' for Inactive)
ROOT
ATOM      1  C   UNL d   1      -6.000  -4.800  -2.516  0.00  0.00     0.023 A 
ATOM      2  C1  UNL d   1      -5.357  -3.656  -2.990  0.00  0.00     0.003 A 
ATOM      3  C2  UNL d   1      -3.985  -3.680  -3.248  0.00  0.00     0.048 A 
ATOM      4  C3  UNL d   1      -3.261  -4.852  -3.030  0.00  0.00     0.023 A 
ATOM      5  C4  UNL d   1      -3.900  -6.000  -2.557  0.00  0.00     0.048 A 
ATOM      6  C5  UNL d   1      -5.272  -5.970  -2.300  0.00  0.00     0.003 A 
ATOM      7  I   UNL d   1      -1.219  -4.892  -3.414  0.00  0.00    -0.146 I 
ENDROOT
TORSDOF 0
ENDMDL
