MODEL 1
REMARK minimizedAffinity 22.6594753
REMARK minimizedRMSD -1
REMARK  0 active torsions:
REMARK  status: ('A' for Active; 'I' for Inactive)
ROOT
ATOM      1  C   UNL d   1      -3.102  -2.609  -3.769  0.00  0.00     0.023 A 
ATOM      2  C1  UNL d   1      -2.563  -3.601  -2.950  0.00  0.00     0.003 A 
ATOM      3  C2  UNL d   1      -3.393  -4.574  -2.391  0.00  0.00     0.048 A 
ATOM      4  C3  UNL d   1      -4.762  -4.551  -2.657  0.00  0.00     0.023 A 
ATOM      5  C4  UNL d   1      -5.306  -3.561  -3.477  0.00  0.00     0.048 A 
ATOM      6  C5  UNL d   1      -4.472  -2.589  -4.032  0.00  0.00     0.003 A 
ATOM      7  I   UNL d   1      -6.000  -6.000  -1.827  0.00  0.00    -0.146 I 
ENDROOT
TORSDOF 0
ENDMDL
