MODEL 1
REMARK minimizedAffinity 14.5489779
REMARK minimizedRMSD -1
REMARK  0 active torsions:
REMARK  status: ('A' for Active; 'I' for Inactive)
ROOT
ATOM      1  C   UNL d   1      -3.287   5.971  -0.412  0.00  0.00     0.023 A 
ATOM      2  C1  UNL d   1      -2.177   5.989   0.433  0.00  0.00     0.003 A 
ATOM      3  C2  UNL d   1      -1.081   5.166   0.165  0.00  0.00     0.048 A 
ATOM      4  C3  UNL d   1      -1.100   4.330  -0.951  0.00  0.00     0.023 A 
ATOM      5  C4  UNL d   1      -2.208   4.310  -1.800  0.00  0.00     0.048 A 
ATOM      6  C5  UNL d   1      -3.302   5.133  -1.527  0.00  0.00     0.003 A 
ATOM      7  I   UNL d   1       0.531   3.106  -1.352  0.00  0.00    -0.146 I 
ENDROOT
TORSDOF 0
ENDMDL
