MODEL 1
REMARK minimizedAffinity 17.264637
REMARK minimizedRMSD -1
REMARK  0 active torsions:
REMARK  status: ('A' for Active; 'I' for Inactive)
ROOT
ATOM      1  C   UNL d   1      -0.867  -4.158   1.957  0.00  0.00     0.023 A 
ATOM      2  C1  UNL d   1      -1.122  -5.500   2.240  0.00  0.00     0.003 A 
ATOM      3  C2  UNL d   1      -2.424  -5.997   2.159  0.00  0.00     0.048 A 
ATOM      4  C3  UNL d   1      -3.467  -5.147   1.795  0.00  0.00     0.023 A 
ATOM      5  C4  UNL d   1      -3.217  -3.803   1.510  0.00  0.00     0.048 A 
ATOM      6  C5  UNL d   1      -1.913  -3.311   1.592  0.00  0.00     0.003 A 
ATOM      7  I   UNL d   1      -5.407  -5.884   1.674  0.00  0.00    -0.146 I 
ENDROOT
TORSDOF 0
ENDMDL
