MODEL 1
REMARK minimizedAffinity 22.9409981
REMARK minimizedRMSD -1
REMARK  0 active torsions:
REMARK  status: ('A' for Active; 'I' for Inactive)
ROOT
ATOM      1  C   UNL d   1      -1.091  -1.184   1.720  0.00  0.00     0.023 A 
ATOM      2  C1  UNL d   1      -1.414  -1.975   0.617  0.00  0.00     0.003 A 
ATOM      3  C2  UNL d   1      -1.550  -3.357   0.763  0.00  0.00     0.048 A 
ATOM      4  C3  UNL d   1      -1.362  -3.942   2.015  0.00  0.00     0.023 A 
ATOM      5  C4  UNL d   1      -1.040  -3.155   3.122  0.00  0.00     0.048 A 
ATOM      6  C5  UNL d   1      -0.904  -1.773   2.971  0.00  0.00     0.003 A 
ATOM      7  I   UNL d   1      -1.565  -5.999   2.235  0.00  0.00    -0.146 I 
ENDROOT
TORSDOF 0
ENDMDL
