MODEL 1
REMARK minimizedAffinity 17.3584003
REMARK minimizedRMSD -1
REMARK  0 active torsions:
REMARK  status: ('A' for Active; 'I' for Inactive)
ROOT
ATOM      1  C   UNL d   1      -1.793  -2.019  -1.742  0.00  0.00     0.023 A 
ATOM      2  C1  UNL d   1      -2.979  -2.065  -1.009  0.00  0.00     0.003 A 
ATOM      3  C2  UNL d   1      -4.167  -2.465  -1.625  0.00  0.00     0.048 A 
ATOM      4  C3  UNL d   1      -4.161  -2.820  -2.973  0.00  0.00     0.023 A 
ATOM      5  C4  UNL d   1      -2.976  -2.776  -3.710  0.00  0.00     0.048 A 
ATOM      6  C5  UNL d   1      -1.792  -2.374  -3.091  0.00  0.00     0.003 A 
ATOM      7  I   UNL d   1      -5.927  -3.416  -3.892  0.00  0.00    -0.146 I 
ENDROOT
TORSDOF 0
ENDMDL
