MODEL 1
REMARK minimizedAffinity 10.5482101
REMARK minimizedRMSD -1
REMARK  0 active torsions:
REMARK  status: ('A' for Active; 'I' for Inactive)
ROOT
ATOM      1  C   UNL d   1      -3.763  -5.199  -1.881  0.00  0.00     0.023 A 
ATOM      2  C1  UNL d   1      -3.099  -4.062  -2.341  0.00  0.00     0.003 A 
ATOM      3  C2  UNL d   1      -3.671  -3.275  -3.342  0.00  0.00     0.048 A 
ATOM      4  C3  UNL d   1      -4.909  -3.630  -3.879  0.00  0.00     0.023 A 
ATOM      5  C4  UNL d   1      -5.577  -4.766  -3.421  0.00  0.00     0.048 A 
ATOM      6  C5  UNL d   1      -5.001  -5.551  -2.421  0.00  0.00     0.003 A 
ATOM      7  I   UNL d   1      -5.762  -2.460  -5.369  0.00  0.00    -0.146 I 
ENDROOT
TORSDOF 0
ENDMDL
