MODEL 1
REMARK minimizedAffinity 34.9813728
REMARK minimizedRMSD -1
REMARK  0 active torsions:
REMARK  status: ('A' for Active; 'I' for Inactive)
ROOT
ATOM      1  C   UNL d   1      -4.537   2.726  -0.374  0.00  0.00     0.124 A 
ATOM      2  C1  UNL d   1      -4.998   4.028  -0.510  0.00  0.00     0.062 A 
ATOM      3  C2  UNL d   1      -5.417   4.742   0.609  0.00  0.00     0.162 A 
ATOM      4  C3  UNL d   1      -5.375   4.156   1.875  0.00  0.00    -0.034 A 
ATOM      5  C4  UNL d   1      -4.911   2.846   2.002  0.00  0.00     0.162 A 
ATOM      6  C5  UNL d   1      -4.494   2.136   0.881  0.00  0.00     0.062 A 
ATOM      7  F   UNL d   1      -4.049   0.878   1.014  0.00  0.00    -0.097 F 
ATOM      8  F1  UNL d   1      -4.857   2.252   3.204  0.00  0.00    -0.096 F 
ATOM      9  I   UNL d   1      -5.999   5.221   3.550  0.00  0.00    -0.060 I 
ATOM     10  F2  UNL d   1      -5.857   5.999   0.449  0.00  0.00    -0.096 F 
ATOM     11  F3  UNL d   1      -5.042   4.600  -1.722  0.00  0.00    -0.097 F 
ATOM     12  F4  UNL d   1      -4.136   2.041  -1.453  0.00  0.00    -0.092 F 
ENDROOT
TORSDOF 0
ENDMDL
