MODEL 1
REMARK minimizedAffinity 24.9094658
REMARK minimizedRMSD -1
REMARK  0 active torsions:
REMARK  status: ('A' for Active; 'I' for Inactive)
ROOT
ATOM      1  C   UNL d   1       2.576  -0.204  -1.584  0.00  0.00     0.124 A 
ATOM      2  C1  UNL d   1       2.217  -1.518  -1.315  0.00  0.00     0.062 A 
ATOM      3  C2  UNL d   1       1.883  -1.901  -0.019  0.00  0.00     0.162 A 
ATOM      4  C3  UNL d   1       1.905  -0.969   1.018  0.00  0.00    -0.034 A 
ATOM      5  C4  UNL d   1       2.267   0.350   0.740  0.00  0.00     0.162 A 
ATOM      6  C5  UNL d   1       2.601   0.728  -0.556  0.00  0.00     0.062 A 
ATOM      7  F   UNL d   1       2.947   1.998  -0.814  0.00  0.00    -0.097 F 
ATOM      8  F1  UNL d   1       2.299   1.272   1.714  0.00  0.00    -0.096 F 
ATOM      9  I   UNL d   1       1.406  -1.538   2.957  0.00  0.00    -0.060 I 
ATOM     10  F2  UNL d   1       1.540  -3.177   0.211  0.00  0.00    -0.096 F 
ATOM     11  F3  UNL d   1       2.194  -2.421  -2.306  0.00  0.00    -0.097 F 
ATOM     12  F4  UNL d   1       2.898   0.162  -2.831  0.00  0.00    -0.092 F 
ENDROOT
TORSDOF 0
ENDMDL
