MODEL 1
REMARK minimizedAffinity 11.5112782
REMARK minimizedRMSD -1
REMARK  0 active torsions:
REMARK  status: ('A' for Active; 'I' for Inactive)
ROOT
ATOM      1  C   UNL d   1       3.299   1.349  -0.969  0.00  0.00     0.124 A 
ATOM      2  C1  UNL d   1       3.459   1.570   0.392  0.00  0.00     0.062 A 
ATOM      3  C2  UNL d   1       4.076   2.733   0.844  0.00  0.00     0.162 A 
ATOM      4  C3  UNL d   1       4.537   3.685  -0.065  0.00  0.00    -0.034 A 
ATOM      5  C4  UNL d   1       4.373   3.455  -1.433  0.00  0.00     0.162 A 
ATOM      6  C5  UNL d   1       3.756   2.291  -1.880  0.00  0.00     0.062 A 
ATOM      7  F   UNL d   1       3.602   2.079  -3.195  0.00  0.00    -0.097 F 
ATOM      8  F1  UNL d   1       4.804   4.349  -2.334  0.00  0.00    -0.096 F 
ATOM      9  I   UNL d   1       5.460   5.424   0.607  0.00  0.00    -0.060 I 
ATOM     10  F2  UNL d   1       4.218   2.920   2.165  0.00  0.00    -0.096 F 
ATOM     11  F3  UNL d   1       3.019   0.661   1.274  0.00  0.00    -0.097 F 
ATOM     12  F4  UNL d   1       2.706   0.229  -1.402  0.00  0.00    -0.092 F 
ENDROOT
TORSDOF 0
ENDMDL
