MODEL 1
REMARK minimizedAffinity 14.6940746
REMARK minimizedRMSD -1
REMARK  0 active torsions:
REMARK  status: ('A' for Active; 'I' for Inactive)
ROOT
ATOM      1  C   UNL d   1       5.124   2.563   0.331  0.00  0.00     0.124 A 
ATOM      2  C1  UNL d   1       5.121   2.214  -1.012  0.00  0.00     0.062 A 
ATOM      3  C2  UNL d   1       4.212   1.273  -1.488  0.00  0.00     0.162 A 
ATOM      4  C3  UNL d   1       3.298   0.676  -0.621  0.00  0.00    -0.034 A 
ATOM      5  C4  UNL d   1       3.307   1.032   0.729  0.00  0.00     0.162 A 
ATOM      6  C5  UNL d   1       4.217   1.972   1.200  0.00  0.00     0.062 A 
ATOM      7  F   UNL d   1       4.219   2.309   2.498  0.00  0.00    -0.097 F 
ATOM      8  F1  UNL d   1       2.442   0.477   1.590  0.00  0.00    -0.096 F 
ATOM      9  I   UNL d   1       1.937  -0.731  -1.329  0.00  0.00    -0.060 I 
ATOM     10  F2  UNL d   1       4.232   0.954  -2.791  0.00  0.00    -0.096 F 
ATOM     11  F3  UNL d   1       5.996   2.782  -1.853  0.00  0.00    -0.097 F 
ATOM     12  F4  UNL d   1       6.000   3.468   0.787  0.00  0.00    -0.092 F 
ENDROOT
TORSDOF 0
ENDMDL
