MODEL 1
REMARK minimizedAffinity 21.3305607
REMARK minimizedRMSD -1
REMARK  0 active torsions:
REMARK  status: ('A' for Active; 'I' for Inactive)
ROOT
ATOM      1  C   UNL d   1       2.475  -0.460  -1.143  0.00  0.00     0.124 A 
ATOM      2  C1  UNL d   1       3.097  -0.073  -2.323  0.00  0.00     0.062 A 
ATOM      3  C2  UNL d   1       3.895   1.067  -2.351  0.00  0.00     0.162 A 
ATOM      4  C3  UNL d   1       4.079   1.827  -1.196  0.00  0.00    -0.034 A 
ATOM      5  C4  UNL d   1       3.449   1.432  -0.015  0.00  0.00     0.162 A 
ATOM      6  C5  UNL d   1       2.652   0.293   0.009  0.00  0.00     0.062 A 
ATOM      7  F   UNL d   1       2.052  -0.080   1.149  0.00  0.00    -0.097 F 
ATOM      8  F1  UNL d   1       3.604   2.140   1.114  0.00  0.00    -0.096 F 
ATOM      9  I   UNL d   1       5.272   3.532  -1.235  0.00  0.00    -0.060 I 
ATOM     10  F2  UNL d   1       4.484   1.417  -3.505  0.00  0.00    -0.096 F 
ATOM     11  F3  UNL d   1       2.926  -0.798  -3.438  0.00  0.00    -0.097 F 
ATOM     12  F4  UNL d   1       1.706  -1.556  -1.119  0.00  0.00    -0.092 F 
ENDROOT
TORSDOF 0
ENDMDL
