MODEL 1
REMARK minimizedAffinity 14.1057348
REMARK minimizedRMSD -1
REMARK  0 active torsions:
REMARK  status: ('A' for Active; 'I' for Inactive)
ROOT
ATOM      1  C   UNL d   1       3.583   2.092  -1.525  0.00  0.00     0.124 A 
ATOM      2  C1  UNL d   1       3.097   0.884  -2.008  0.00  0.00     0.062 A 
ATOM      3  C2  UNL d   1       2.658  -0.097  -1.123  0.00  0.00     0.162 A 
ATOM      4  C3  UNL d   1       2.702   0.125   0.253  0.00  0.00    -0.034 A 
ATOM      5  C4  UNL d   1       3.193   1.342   0.731  0.00  0.00     0.162 A 
ATOM      6  C5  UNL d   1       3.630   2.319  -0.157  0.00  0.00     0.062 A 
ATOM      7  F   UNL d   1       4.099   3.486   0.310  0.00  0.00    -0.097 F 
ATOM      8  F1  UNL d   1       3.249   1.589   2.048  0.00  0.00    -0.096 F 
ATOM      9  I   UNL d   1       2.047  -1.339   1.579  0.00  0.00    -0.060 I 
ATOM     10  F2  UNL d   1       2.194  -1.255  -1.617  0.00  0.00    -0.096 F 
ATOM     11  F3  UNL d   1       3.051   0.661  -3.329  0.00  0.00    -0.097 F 
ATOM     12  F4  UNL d   1       4.005   3.034  -2.379  0.00  0.00    -0.092 F 
ENDROOT
TORSDOF 0
ENDMDL
