MODEL 1
REMARK minimizedAffinity 9.78397942
REMARK minimizedRMSD -1
REMARK  0 active torsions:
REMARK  status: ('A' for Active; 'I' for Inactive)
ROOT
ATOM      1  C   UNL d   1       1.812  -2.661  -0.609  0.00  0.00     0.124 A 
ATOM      2  C1  UNL d   1       2.286  -2.042   0.539  0.00  0.00     0.062 A 
ATOM      3  C2  UNL d   1       2.864  -0.778   0.465  0.00  0.00     0.162 A 
ATOM      4  C3  UNL d   1       2.970  -0.123  -0.761  0.00  0.00    -0.034 A 
ATOM      5  C4  UNL d   1       2.491  -0.752  -1.912  0.00  0.00     0.162 A 
ATOM      6  C5  UNL d   1       1.914  -2.015  -1.834  0.00  0.00     0.062 A 
ATOM      7  F   UNL d   1       1.456  -2.611  -2.944  0.00  0.00    -0.097 F 
ATOM      8  F1  UNL d   1       2.577  -0.150  -3.108  0.00  0.00    -0.096 F 
ATOM      9  I   UNL d   1       3.834   1.767  -0.876  0.00  0.00    -0.060 I 
ATOM     10  F2  UNL d   1       3.315  -0.205   1.591  0.00  0.00    -0.096 F 
ATOM     11  F3  UNL d   1       2.189  -2.664   1.723  0.00  0.00    -0.097 F 
ATOM     12  F4  UNL d   1       1.257  -3.877  -0.536  0.00  0.00    -0.092 F 
ENDROOT
TORSDOF 0
ENDMDL
