MODEL 1
REMARK minimizedAffinity 18.6945934
REMARK minimizedRMSD -1
REMARK  0 active torsions:
REMARK  status: ('A' for Active; 'I' for Inactive)
ROOT
ATOM      1  C   UNL d   1       3.768   1.247  -3.298  0.00  0.00     0.124 A 
ATOM      2  C1  UNL d   1       3.740   2.270  -2.361  0.00  0.00     0.062 A 
ATOM      3  C2  UNL d   1       3.122   2.074  -1.129  0.00  0.00     0.162 A 
ATOM      4  C3  UNL d   1       2.528   0.849  -0.827  0.00  0.00    -0.034 A 
ATOM      5  C4  UNL d   1       2.560  -0.175  -1.775  0.00  0.00     0.162 A 
ATOM      6  C5  UNL d   1       3.179   0.026  -3.005  0.00  0.00     0.062 A 
ATOM      7  F   UNL d   1       3.205  -0.964  -3.909  0.00  0.00    -0.097 F 
ATOM      8  F1  UNL d   1       1.999  -1.366  -1.517  0.00  0.00    -0.096 F 
ATOM      9  I   UNL d   1       1.604   0.551   1.014  0.00  0.00    -0.060 I 
ATOM     10  F2  UNL d   1       3.110   3.080  -0.242  0.00  0.00    -0.096 F 
ATOM     11  F3  UNL d   1       4.308   3.452  -2.642  0.00  0.00    -0.097 F 
ATOM     12  F4  UNL d   1       4.363   1.439  -4.483  0.00  0.00    -0.092 F 
ENDROOT
TORSDOF 0
ENDMDL
