MODEL 1
REMARK minimizedAffinity 29.716135
REMARK minimizedRMSD -1
REMARK  0 active torsions:
REMARK  status: ('A' for Active; 'I' for Inactive)
ROOT
ATOM      1  C   UNL d   1       3.909   2.727  -0.496  0.00  0.00     0.124 A 
ATOM      2  C1  UNL d   1       3.855   2.524  -1.868  0.00  0.00     0.062 A 
ATOM      3  C2  UNL d   1       4.451   3.435  -2.735  0.00  0.00     0.162 A 
ATOM      4  C3  UNL d   1       5.107   4.559  -2.232  0.00  0.00    -0.034 A 
ATOM      5  C4  UNL d   1       5.157   4.757  -0.851  0.00  0.00     0.162 A 
ATOM      6  C5  UNL d   1       4.560   3.843   0.011  0.00  0.00     0.062 A 
ATOM      7  F   UNL d   1       4.613   4.042   1.336  0.00  0.00    -0.097 F 
ATOM      8  F1  UNL d   1       5.779   5.827  -0.334  0.00  0.00    -0.096 F 
ATOM      9  I   UNL d   1       5.999   5.924  -3.525  0.00  0.00    -0.060 I 
ATOM     10  F2  UNL d   1       4.383   3.213  -4.056  0.00  0.00    -0.096 F 
ATOM     11  F3  UNL d   1       3.227   1.446  -2.360  0.00  0.00    -0.097 F 
ATOM     12  F4  UNL d   1       3.335   1.849   0.336  0.00  0.00    -0.092 F 
ENDROOT
TORSDOF 0
ENDMDL
