MODEL 1
REMARK minimizedAffinity 18.7254486
REMARK minimizedRMSD -1
REMARK  0 active torsions:
REMARK  status: ('A' for Active; 'I' for Inactive)
ROOT
ATOM      1  C   UNL d   1       3.320   0.862  -3.427  0.00  0.00     0.124 A 
ATOM      2  C1  UNL d   1       4.416   1.365  -4.114  0.00  0.00     0.062 A 
ATOM      3  C2  UNL d   1       4.940   2.611  -3.781  0.00  0.00     0.162 A 
ATOM      4  C3  UNL d   1       4.370   3.362  -2.753  0.00  0.00    -0.034 A 
ATOM      5  C4  UNL d   1       3.267   2.850  -2.067  0.00  0.00     0.162 A 
ATOM      6  C5  UNL d   1       2.747   1.604  -2.404  0.00  0.00     0.062 A 
ATOM      7  F   UNL d   1       1.688   1.120  -1.739  0.00  0.00    -0.097 F 
ATOM      8  F1  UNL d   1       2.694   3.545  -1.073  0.00  0.00    -0.096 F 
ATOM      9  I   UNL d   1       5.151   5.224  -2.251  0.00  0.00    -0.060 I 
ATOM     10  F2  UNL d   1       6.000   3.072  -4.462  0.00  0.00    -0.096 F 
ATOM     11  F3  UNL d   1       4.971   0.650  -5.104  0.00  0.00    -0.097 F 
ATOM     12  F4  UNL d   1       2.817  -0.336  -3.751  0.00  0.00    -0.092 F 
ENDROOT
TORSDOF 0
ENDMDL
