MODEL 1
REMARK minimizedAffinity 18.3869553
REMARK minimizedRMSD -1
REMARK  0 active torsions:
REMARK  status: ('A' for Active; 'I' for Inactive)
ROOT
ATOM      1  C   UNL d   1       2.984  -0.624  -2.136  0.00  0.00     0.124 A 
ATOM      2  C1  UNL d   1       3.336   0.703  -2.340  0.00  0.00     0.062 A 
ATOM      3  C2  UNL d   1       3.308   1.605  -1.281  0.00  0.00     0.162 A 
ATOM      4  C3  UNL d   1       2.928   1.183  -0.007  0.00  0.00    -0.034 A 
ATOM      5  C4  UNL d   1       2.574  -0.153   0.191  0.00  0.00     0.162 A 
ATOM      6  C5  UNL d   1       2.603  -1.051  -0.871  0.00  0.00     0.062 A 
ATOM      7  F   UNL d   1       2.262  -2.332  -0.672  0.00  0.00    -0.097 F 
ATOM      8  F1  UNL d   1       2.203  -0.592   1.402  0.00  0.00    -0.096 F 
ATOM      9  I   UNL d   1       2.885   2.529   1.580  0.00  0.00    -0.060 I 
ATOM     10  F2  UNL d   1       3.654   2.881  -1.507  0.00  0.00    -0.096 F 
ATOM     11  F3  UNL d   1       3.703   1.117  -3.561  0.00  0.00    -0.097 F 
ATOM     12  F4  UNL d   1       3.010  -1.490  -3.157  0.00  0.00    -0.092 F 
ENDROOT
TORSDOF 0
ENDMDL
