MODEL 1
REMARK minimizedAffinity 23.3996601
REMARK minimizedRMSD -1
REMARK  0 active torsions:
REMARK  status: ('A' for Active; 'I' for Inactive)
ROOT
ATOM      1  C   UNL d   1       1.582  -2.460  -0.581  0.00  0.00     0.124 A 
ATOM      2  C1  UNL d   1       1.868  -1.966  -1.847  0.00  0.00     0.062 A 
ATOM      3  C2  UNL d   1       2.489  -0.729  -1.991  0.00  0.00     0.162 A 
ATOM      4  C3  UNL d   1       2.829   0.023  -0.867  0.00  0.00    -0.034 A 
ATOM      5  C4  UNL d   1       2.537  -0.479   0.402  0.00  0.00     0.162 A 
ATOM      6  C5  UNL d   1       1.917  -1.716   0.541  0.00  0.00     0.062 A 
ATOM      7  F   UNL d   1       1.641  -2.192   1.765  0.00  0.00    -0.097 F 
ATOM      8  F1  UNL d   1       2.851   0.218   1.504  0.00  0.00    -0.096 F 
ATOM      9  I   UNL d   1       3.758   1.874  -1.079  0.00  0.00    -0.060 I 
ATOM     10  F2  UNL d   1       2.754  -0.277  -3.226  0.00  0.00    -0.096 F 
ATOM     11  F3  UNL d   1       1.545  -2.682  -2.933  0.00  0.00    -0.097 F 
ATOM     12  F4  UNL d   1       0.983  -3.650  -0.445  0.00  0.00    -0.092 F 
ENDROOT
TORSDOF 0
ENDMDL
