MODEL 1
REMARK minimizedAffinity 3.95084643
REMARK minimizedRMSD -1
REMARK  0 active torsions:
REMARK  status: ('A' for Active; 'I' for Inactive)
ROOT
ATOM      1  C   UNL d   1      -4.530   2.727  -0.045  0.00  0.00     0.124 A 
ATOM      2  C1  UNL d   1      -4.414   1.347  -0.131  0.00  0.00     0.062 A 
ATOM      3  C2  UNL d   1      -4.833   0.679  -1.278  0.00  0.00     0.162 A 
ATOM      4  C3  UNL d   1      -5.372   1.391  -2.350  0.00  0.00    -0.034 A 
ATOM      5  C4  UNL d   1      -5.486   2.779  -2.256  0.00  0.00     0.162 A 
ATOM      6  C5  UNL d   1      -5.066   3.442  -1.107  0.00  0.00     0.062 A 
ATOM      7  F   UNL d   1      -5.179   4.775  -1.026  0.00  0.00    -0.097 F 
ATOM      8  F1  UNL d   1      -6.000   3.494  -3.267  0.00  0.00    -0.096 F 
ATOM      9  I   UNL d   1      -5.999   0.396  -4.067  0.00  0.00    -0.060 I 
ATOM     10  F2  UNL d   1      -4.708  -0.656  -1.334  0.00  0.00    -0.096 F 
ATOM     11  F3  UNL d   1      -3.897   0.654   0.894  0.00  0.00    -0.097 F 
ATOM     12  F4  UNL d   1      -4.127   3.367   1.060  0.00  0.00    -0.092 F 
ENDROOT
TORSDOF 0
ENDMDL
