MODEL 1
REMARK minimizedAffinity 26.4877167
REMARK minimizedRMSD -1
REMARK  0 active torsions:
REMARK  status: ('A' for Active; 'I' for Inactive)
ROOT
ATOM      1  C   UNL d   1       1.601  -0.737   1.475  0.00  0.00     0.124 A 
ATOM      2  C1  UNL d   1       1.318  -2.031   1.060  0.00  0.00     0.062 A 
ATOM      3  C2  UNL d   1       1.313  -2.346  -0.296  0.00  0.00     0.162 A 
ATOM      4  C3  UNL d   1       1.595  -1.365  -1.247  0.00  0.00    -0.034 A 
ATOM      5  C4  UNL d   1       1.878  -0.066  -0.822  0.00  0.00     0.162 A 
ATOM      6  C5  UNL d   1       1.881   0.244   0.534  0.00  0.00     0.062 A 
ATOM      7  F   UNL d   1       2.155   1.494   0.933  0.00  0.00    -0.097 F 
ATOM      8  F1  UNL d   1       2.153   0.901  -1.710  0.00  0.00    -0.096 F 
ATOM      9  I   UNL d   1       1.590  -1.832  -3.275  0.00  0.00    -0.060 I 
ATOM     10  F2  UNL d   1       1.036  -3.604  -0.668  0.00  0.00    -0.096 F 
ATOM     11  F3  UNL d   1       1.046  -2.980   1.967  0.00  0.00    -0.097 F 
ATOM     12  F4  UNL d   1       1.603  -0.436   2.780  0.00  0.00    -0.092 F 
ENDROOT
TORSDOF 0
ENDMDL
