MODEL 1
REMARK minimizedAffinity 6.20736313
REMARK minimizedRMSD -1
REMARK  1 active torsions:
REMARK  status: ('A' for Active; 'I' for Inactive)
REMARK    1  A    between atoms: C1_2  and  C2_3 
ROOT
ATOM      1  C2  UNL d   1      -0.761   5.265  -2.670  0.00  0.00    -0.081 A 
ATOM      2  C3  UNL d   1       0.385   4.549  -2.303  0.00  0.00     0.006 A 
ATOM      3  C4  UNL d   1       0.412   3.820  -1.111  0.00  0.00     0.002 A 
ATOM      4  C5  UNL d   1      -0.707   3.788  -0.272  0.00  0.00    -0.080 A 
ATOM      5  C6  UNL d   1      -0.701   2.985   0.994  0.00  0.00     0.076 C 
ATOM      6  C7  UNL d   1      -1.845   4.518  -0.631  0.00  0.00     0.002 A 
ATOM      7  C8  UNL d   1      -1.873   5.248  -1.822  0.00  0.00     0.006 A 
ENDROOT
BRANCH   1   8
ATOM      8  C1  UNL d   1      -0.816   5.999  -3.985  0.00  0.00     0.054 C 
ATOM      9  C   UNL d   1       0.539   5.995  -4.679  0.00  0.00     0.018 C 
ENDBRANCH   1   8
TORSDOF 1
ENDMDL
