MODEL 1
REMARK minimizedAffinity 8.01596642
REMARK minimizedRMSD -1
REMARK  1 active torsions:
REMARK  status: ('A' for Active; 'I' for Inactive)
REMARK    1  A    between atoms: C1_2  and  C2_3 
ROOT
ATOM      1  C2  UNL d   1      -0.106   2.562   1.439  0.00  0.00    -0.081 A 
ATOM      2  C3  UNL d   1       1.143   1.950   1.282  0.00  0.00     0.006 A 
ATOM      3  C4  UNL d   1       1.512   0.874   2.093  0.00  0.00     0.002 A 
ATOM      4  C5  UNL d   1       0.636   0.388   3.069  0.00  0.00    -0.080 A 
ATOM      5  C6  UNL d   1       1.008  -0.786   3.926  0.00  0.00     0.076 C 
ATOM      6  C7  UNL d   1      -0.605   1.010   3.238  0.00  0.00     0.002 A 
ATOM      7  C8  UNL d   1      -0.975   2.086   2.428  0.00  0.00     0.006 A 
ENDROOT
BRANCH   1   8
ATOM      8  C1  UNL d   1      -0.533   3.680   0.523  0.00  0.00     0.054 C 
ATOM      9  C   UNL d   1       0.078   3.524  -0.862  0.00  0.00     0.018 C 
ENDBRANCH   1   8
TORSDOF 1
ENDMDL
