MODEL 1
REMARK minimizedAffinity 4.58974028
REMARK minimizedRMSD -1
REMARK  1 active torsions:
REMARK  status: ('A' for Active; 'I' for Inactive)
REMARK    1  A    between atoms: C1_2  and  C2_3 
ROOT
ATOM      1  C2  UNL d   1      -0.055   4.488  -1.722  0.00  0.00    -0.081 A 
ATOM      2  C3  UNL d   1       1.058   5.071  -1.103  0.00  0.00     0.006 A 
ATOM      3  C4  UNL d   1       1.598   4.510   0.057  0.00  0.00     0.002 A 
ATOM      4  C5  UNL d   1       1.039   3.354   0.613  0.00  0.00    -0.080 A 
ATOM      5  C6  UNL d   1       1.627   2.725   1.841  0.00  0.00     0.076 C 
ATOM      6  C7  UNL d   1      -0.083   2.782   0.005  0.00  0.00     0.002 A 
ATOM      7  C8  UNL d   1      -0.624   3.343  -1.155  0.00  0.00     0.006 A 
ENDROOT
BRANCH   1   8
ATOM      8  C1  UNL d   1      -0.599   5.053  -3.009  0.00  0.00     0.054 C 
ATOM      9  C   UNL d   1       0.402   5.990  -3.669  0.00  0.00     0.018 C 
ENDBRANCH   1   8
TORSDOF 1
ENDMDL
