MODEL 1
REMARK minimizedAffinity 4.69887257
REMARK minimizedRMSD -1
REMARK  1 active torsions:
REMARK  status: ('A' for Active; 'I' for Inactive)
REMARK    1  A    between atoms: C1_2  and  C2_3 
ROOT
ATOM      1  C2  UNL d   1       0.216   4.509  -0.697  0.00  0.00    -0.081 A 
ATOM      2  C3  UNL d   1       1.566   4.813  -0.487  0.00  0.00     0.006 A 
ATOM      3  C4  UNL d   1       2.222   4.362   0.662  0.00  0.00     0.002 A 
ATOM      4  C5  UNL d   1       1.542   3.596   1.613  0.00  0.00    -0.080 A 
ATOM      5  C6  UNL d   1       2.242   3.081   2.836  0.00  0.00     0.076 C 
ATOM      6  C7  UNL d   1       0.188   3.307   1.411  0.00  0.00     0.002 A 
ATOM      7  C8  UNL d   1      -0.469   3.758   0.264  0.00  0.00     0.006 A 
ENDROOT
BRANCH   1   8
ATOM      8  C1  UNL d   1      -0.477   4.938  -1.966  0.00  0.00     0.054 C 
ATOM      9  C   UNL d   1      -1.590   5.936  -1.678  0.00  0.00     0.018 C 
ENDBRANCH   1   8
TORSDOF 1
ENDMDL
