MODEL 1
REMARK minimizedAffinity 13.1629906
REMARK minimizedRMSD -1
REMARK  1 active torsions:
REMARK  status: ('A' for Active; 'I' for Inactive)
REMARK    1  A    between atoms: C1_2  and  C2_3 
ROOT
ATOM      1  C2  UNL d   1       3.783  -4.301  -0.585  0.00  0.00    -0.081 A 
ATOM      2  C3  UNL d   1       3.199  -3.150  -0.042  0.00  0.00     0.006 A 
ATOM      3  C4  UNL d   1       1.825  -2.928  -0.167  0.00  0.00     0.002 A 
ATOM      4  C5  UNL d   1       1.013  -3.855  -0.828  0.00  0.00    -0.080 A 
ATOM      5  C6  UNL d   1      -0.467  -3.643  -0.942  0.00  0.00     0.076 C 
ATOM      6  C7  UNL d   1       1.600  -4.996  -1.385  0.00  0.00     0.002 A 
ATOM      7  C8  UNL d   1       2.973  -5.219  -1.262  0.00  0.00     0.006 A 
ENDROOT
BRANCH   1   8
ATOM      8  C1  UNL d   1       5.254  -4.576  -0.397  0.00  0.00     0.054 C 
ATOM      9  C   UNL d   1       5.484  -5.929   0.260  0.00  0.00     0.018 C 
ENDBRANCH   1   8
TORSDOF 1
ENDMDL
