MODEL 1
REMARK minimizedAffinity 15.291688
REMARK minimizedRMSD -1
REMARK  2 active torsions:
REMARK  status: ('A' for Active; 'I' for Inactive)
REMARK    1  A    between atoms: C2'_3  and  C1'_4 
REMARK    2  A    between atoms: C1'_4  and  C1_5 
ROOT
ATOM      1  C1  I4B d   1       5.280   1.181   1.973  0.00  0.00    -0.075 A 
ATOM      2  C2  I4B d   1       4.900   2.480   2.204  0.00  0.00     0.003 A 
ATOM      3  C3  I4B d   1       5.080   3.058   3.484  0.00  0.00     0.002 A 
ATOM      4  C4  I4B d   1       5.594   2.292   4.510  0.00  0.00    -0.004 A 
ATOM      5  C5  I4B d   1       6.000   0.983   4.268  0.00  0.00     0.002 A 
ATOM      6  C6  I4B d   1       5.854   0.427   2.988  0.00  0.00     0.003 A 
ENDROOT
BRANCH   1   7
ATOM      7  C1' I4B d   1       5.045   0.592   0.618  0.00  0.00     0.060 C 
BRANCH   7   8
ATOM      8  C2' I4B d   1       3.807   1.242   0.035  0.00  0.00    -0.013 C 
ATOM      9  C4' I4B d   1       4.083   1.812  -1.332  0.00  0.00     0.013 C 
ATOM     10  C3' I4B d   1       2.723   0.207  -0.019  0.00  0.00     0.013 C 
ENDBRANCH   7   8
ENDBRANCH   1   7
TORSDOF 2
ENDMDL
