MODEL 1
REMARK minimizedAffinity 14.7922497
REMARK minimizedRMSD -1
REMARK  2 active torsions:
REMARK  status: ('A' for Active; 'I' for Inactive)
REMARK    1  A    between atoms: C2'_3  and  C1'_4 
REMARK    2  A    between atoms: C1'_4  and  C1_5 
ROOT
ATOM      1  C1  I4B d   1       3.183   0.724   0.819  0.00  0.00    -0.075 A 
ATOM      2  C2  I4B d   1       2.306   1.439   0.042  0.00  0.00     0.003 A 
ATOM      3  C3  I4B d   1       1.656   0.819  -1.053  0.00  0.00     0.002 A 
ATOM      4  C4  I4B d   1       1.948  -0.493  -1.363  0.00  0.00    -0.004 A 
ATOM      5  C5  I4B d   1       2.821  -1.223  -0.560  0.00  0.00     0.002 A 
ATOM      6  C6  I4B d   1       3.433  -0.614   0.545  0.00  0.00     0.003 A 
ENDROOT
BRANCH   1   7
ATOM      7  C1' I4B d   1       3.877   1.419   1.947  0.00  0.00     0.060 C 
BRANCH   7   8
ATOM      8  C2' I4B d   1       3.259   2.794   2.100  0.00  0.00    -0.013 C 
ATOM      9  C4' I4B d   1       2.822   3.040   3.520  0.00  0.00     0.013 C 
ATOM     10  C3' I4B d   1       4.271   3.809   1.661  0.00  0.00     0.013 C 
ENDBRANCH   7   8
ENDBRANCH   1   7
TORSDOF 2
ENDMDL
