MODEL 1
REMARK minimizedAffinity 9.96901989
REMARK minimizedRMSD -1
REMARK  2 active torsions:
REMARK  status: ('A' for Active; 'I' for Inactive)
REMARK    1  A    between atoms: C2'_3  and  C1'_4 
REMARK    2  A    between atoms: C1'_4  and  C1_5 
ROOT
ATOM      1  C1  I4B d   1       3.303   0.689   0.036  0.00  0.00    -0.075 A 
ATOM      2  C2  I4B d   1       4.303   1.472   0.557  0.00  0.00     0.003 A 
ATOM      3  C3  I4B d   1       5.160   2.200  -0.304  0.00  0.00     0.002 A 
ATOM      4  C4  I4B d   1       5.015   2.077  -1.671  0.00  0.00    -0.004 A 
ATOM      5  C5  I4B d   1       3.986   1.300  -2.197  0.00  0.00     0.002 A 
ATOM      6  C6  I4B d   1       3.117   0.612  -1.338  0.00  0.00     0.003 A 
ENDROOT
BRANCH   1   7
ATOM      7  C1' I4B d   1       2.437  -0.092   0.973  0.00  0.00     0.060 C 
BRANCH   7   8
ATOM      8  C2' I4B d   1       3.017  -1.487   1.091  0.00  0.00    -0.013 C 
ATOM      9  C4' I4B d   1       4.484  -1.441   1.427  0.00  0.00     0.013 C 
ATOM     10  C3' I4B d   1       2.243  -2.222   2.145  0.00  0.00     0.013 C 
ENDBRANCH   7   8
ENDBRANCH   1   7
TORSDOF 2
ENDMDL
