MODEL 1
REMARK minimizedAffinity 3.01651192
REMARK minimizedRMSD -1
REMARK  2 active torsions:
REMARK  status: ('A' for Active; 'I' for Inactive)
REMARK    1  A    between atoms: C2'_3  and  C1'_4 
REMARK    2  A    between atoms: C1'_4  and  C1_5 
ROOT
ATOM      1  C1  I4B d   1       2.764   0.276  -0.264  0.00  0.00    -0.075 A 
ATOM      2  C2  I4B d   1       3.567  -0.038   0.805  0.00  0.00     0.003 A 
ATOM      3  C3  I4B d   1       3.532  -1.338   1.365  0.00  0.00     0.002 A 
ATOM      4  C4  I4B d   1       2.649  -2.271   0.863  0.00  0.00    -0.004 A 
ATOM      5  C5  I4B d   1       1.852  -1.958  -0.235  0.00  0.00     0.002 A 
ATOM      6  C6  I4B d   1       1.918  -0.681  -0.810  0.00  0.00     0.003 A 
ENDROOT
BRANCH   1   7
ATOM      7  C1' I4B d   1       2.803   1.668  -0.810  0.00  0.00     0.060 C 
BRANCH   7   8
ATOM      8  C2' I4B d   1       4.158   1.879  -1.454  0.00  0.00    -0.013 C 
ATOM      9  C4' I4B d   1       4.196   1.303  -2.845  0.00  0.00     0.013 C 
ATOM     10  C3' I4B d   1       4.439   3.352  -1.470  0.00  0.00     0.013 C 
ENDBRANCH   7   8
ENDBRANCH   1   7
TORSDOF 2
ENDMDL
