MODEL 1
REMARK minimizedAffinity 3.26308084
REMARK minimizedRMSD -1
REMARK  2 active torsions:
REMARK  status: ('A' for Active; 'I' for Inactive)
REMARK    1  A    between atoms: C2'_3  and  C1'_4 
REMARK    2  A    between atoms: C1'_4  and  C1_5 
ROOT
ATOM      1  C1  I4B d   1      -5.621   3.500   2.349  0.00  0.00    -0.075 A 
ATOM      2  C2  I4B d   1      -5.595   4.867   2.471  0.00  0.00     0.003 A 
ATOM      3  C3  I4B d   1      -5.760   5.472   3.740  0.00  0.00     0.002 A 
ATOM      4  C4  I4B d   1      -5.996   4.680   4.845  0.00  0.00    -0.004 A 
ATOM      5  C5  I4B d   1      -5.999   3.294   4.723  0.00  0.00     0.002 A 
ATOM      6  C6  I4B d   1      -5.798   2.699   3.469  0.00  0.00     0.003 A 
ENDROOT
BRANCH   1   7
ATOM      7  C1' I4B d   1      -5.477   2.895   0.988  0.00  0.00     0.060 C 
BRANCH   7   8
ATOM      8  C2' I4B d   1      -5.477   1.388   1.145  0.00  0.00    -0.013 C 
ATOM      9  C4' I4B d   1      -5.995   0.711  -0.097  0.00  0.00     0.013 C 
ATOM     10  C3' I4B d   1      -4.075   0.954   1.453  0.00  0.00     0.013 C 
ENDBRANCH   7   8
ENDBRANCH   1   7
TORSDOF 2
ENDMDL
