MODEL 1
REMARK minimizedAffinity 14.8736706
REMARK minimizedRMSD -1
REMARK  3 active torsions:
REMARK  status: ('A' for Active; 'I' for Inactive)
REMARK    1  A    between atoms: C3'_2  and  C2'_3 
REMARK    2  A    between atoms: C2'_3  and  C1'_4 
REMARK    3  A    between atoms: C1'_4  and  C1_5 
ROOT
ATOM      1  C1  N4B d   1       3.153  -5.230  -3.289  0.00  0.00    -0.075 A 
ATOM      2  C2  N4B d   1       4.248  -5.759  -4.007  0.00  0.00     0.002 A 
ATOM      3  C3  N4B d   1       4.133  -6.000  -5.354  0.00  0.00     0.002 A 
ATOM      4  C4  N4B d   1       2.933  -5.737  -5.998  0.00  0.00    -0.004 A 
ATOM      5  C5  N4B d   1       1.889  -5.202  -5.302  0.00  0.00     0.002 A 
ATOM      6  C6  N4B d   1       1.991  -4.952  -3.949  0.00  0.00     0.002 A 
ENDROOT
BRANCH   1   7
ATOM      7  C1' N4B d   1       3.203  -5.030  -1.798  0.00  0.00     0.057 C 
BRANCH   7   8
ATOM      8  C2' N4B d   1       4.219  -5.997  -1.197  0.00  0.00     0.009 C 
BRANCH   8   9
ATOM      9  C3' N4B d   1       5.306  -5.271  -0.424  0.00  0.00     0.004 C 
ATOM     10  C4' N4B d   1       5.807  -4.049  -1.134  0.00  0.00     0.003 C 
ENDBRANCH   8   9
ENDBRANCH   7   8
ENDBRANCH   1   7
TORSDOF 3
ENDMDL
