MODEL 1
REMARK minimizedAffinity 22.1252289
REMARK minimizedRMSD -1
REMARK  3 active torsions:
REMARK  status: ('A' for Active; 'I' for Inactive)
REMARK    1  A    between atoms: C3'_2  and  C2'_3 
REMARK    2  A    between atoms: C2'_3  and  C1'_4 
REMARK    3  A    between atoms: C1'_4  and  C1_5 
ROOT
ATOM      1  C1  N4B d   1       3.364  -5.816  -1.600  0.00  0.00    -0.075 A 
ATOM      2  C2  N4B d   1       3.707  -5.716  -2.966  0.00  0.00     0.002 A 
ATOM      3  C3  N4B d   1       5.007  -5.468  -3.331  0.00  0.00     0.002 A 
ATOM      4  C4  N4B d   1       5.974  -5.299  -2.351  0.00  0.00    -0.004 A 
ATOM      5  C5  N4B d   1       5.639  -5.423  -1.035  0.00  0.00     0.002 A 
ATOM      6  C6  N4B d   1       4.337  -5.675  -0.654  0.00  0.00     0.002 A 
ENDROOT
BRANCH   1   7
ATOM      7  C1' N4B d   1       1.940  -6.000  -1.150  0.00  0.00     0.057 C 
BRANCH   7   8
ATOM      8  C2' N4B d   1       1.273  -4.633  -1.026  0.00  0.00     0.009 C 
BRANCH   8   9
ATOM      9  C3' N4B d   1       1.878  -3.805   0.095  0.00  0.00     0.004 C 
ATOM     10  C4' N4B d   1       2.320  -2.446  -0.360  0.00  0.00     0.003 C 
ENDBRANCH   8   9
ENDBRANCH   7   8
ENDBRANCH   1   7
TORSDOF 3
ENDMDL
