MODEL 1
REMARK minimizedAffinity -0.731098711
REMARK minimizedRMSD -1
REMARK  3 active torsions:
REMARK  status: ('A' for Active; 'I' for Inactive)
REMARK    1  A    between atoms: C3'_2  and  C2'_3 
REMARK    2  A    between atoms: C2'_3  and  C1'_4 
REMARK    3  A    between atoms: C1'_4  and  C1_5 
ROOT
ATOM      1  C1  N4B d   1      -0.444   2.878  -1.314  0.00  0.00    -0.075 A 
ATOM      2  C2  N4B d   1       0.458   2.791  -0.231  0.00  0.00     0.002 A 
ATOM      3  C3  N4B d   1      -0.009   2.854   1.059  0.00  0.00     0.002 A 
ATOM      4  C4  N4B d   1      -1.366   3.023   1.289  0.00  0.00    -0.004 A 
ATOM      5  C5  N4B d   1      -2.234   3.080   0.238  0.00  0.00     0.002 A 
ATOM      6  C6  N4B d   1      -1.779   3.013  -1.063  0.00  0.00     0.002 A 
ENDROOT
BRANCH   1   7
ATOM      7  C1' N4B d   1       0.028   2.899  -2.742  0.00  0.00     0.057 C 
BRANCH   7   8
ATOM      8  C2' N4B d   1       0.007   1.479  -3.298  0.00  0.00     0.009 C 
BRANCH   8   9
ATOM      9  C3' N4B d   1       0.309   0.445  -2.227  0.00  0.00     0.004 C 
ATOM     10  C4' N4B d   1      -0.646  -0.712  -2.251  0.00  0.00     0.003 C 
ENDBRANCH   8   9
ENDBRANCH   7   8
ENDBRANCH   1   7
TORSDOF 3
ENDMDL
