MODEL 1
REMARK minimizedAffinity 5.31868887
REMARK minimizedRMSD -1
REMARK  3 active torsions:
REMARK  status: ('A' for Active; 'I' for Inactive)
REMARK    1  A    between atoms: C3'_2  and  C2'_3 
REMARK    2  A    between atoms: C2'_3  and  C1'_4 
REMARK    3  A    between atoms: C1'_4  and  C1_5 
ROOT
ATOM      1  C1  N4B d   1       1.778   0.067  -0.353  0.00  0.00    -0.075 A 
ATOM      2  C2  N4B d   1       1.727   0.779   0.866  0.00  0.00     0.002 A 
ATOM      3  C3  N4B d   1       0.722   1.688   1.087  0.00  0.00     0.002 A 
ATOM      4  C4  N4B d   1      -0.228   1.914   0.102  0.00  0.00    -0.004 A 
ATOM      5  C5  N4B d   1      -0.186   1.204  -1.061  0.00  0.00     0.002 A 
ATOM      6  C6  N4B d   1       0.816   0.284  -1.296  0.00  0.00     0.002 A 
ENDROOT
BRANCH   1   7
ATOM      7  C1' N4B d   1       2.907  -0.874  -0.675  0.00  0.00     0.057 C 
BRANCH   7   8
ATOM      8  C2' N4B d   1       2.390  -2.309  -0.631  0.00  0.00     0.009 C 
BRANCH   8   9
ATOM      9  C3' N4B d   1       3.515  -3.322  -0.756  0.00  0.00     0.004 C 
ATOM     10  C4' N4B d   1       4.721  -2.768  -1.453  0.00  0.00     0.003 C 
ENDBRANCH   8   9
ENDBRANCH   7   8
ENDBRANCH   1   7
TORSDOF 3
ENDMDL
