MODEL 1
REMARK minimizedAffinity -0.209858194
REMARK minimizedRMSD -1
REMARK  3 active torsions:
REMARK  status: ('A' for Active; 'I' for Inactive)
REMARK    1  A    between atoms: C3'_2  and  C2'_3 
REMARK    2  A    between atoms: C2'_3  and  C1'_4 
REMARK    3  A    between atoms: C1'_4  and  C1_5 
ROOT
ATOM      1  C1  N4B d   1       1.532   4.103   0.696  0.00  0.00    -0.075 A 
ATOM      2  C2  N4B d   1       2.617   3.976   1.592  0.00  0.00     0.002 A 
ATOM      3  C3  N4B d   1       2.595   3.004   2.562  0.00  0.00     0.002 A 
ATOM      4  C4  N4B d   1       1.497   2.164   2.667  0.00  0.00    -0.004 A 
ATOM      5  C5  N4B d   1       0.465   2.276   1.782  0.00  0.00     0.002 A 
ATOM      6  C6  N4B d   1       0.475   3.246   0.799  0.00  0.00     0.002 A 
ENDROOT
BRANCH   1   7
ATOM      7  C1' N4B d   1       1.472   5.205  -0.326  0.00  0.00     0.057 C 
BRANCH   7   8
ATOM      8  C2' N4B d   1       0.507   4.804  -1.438  0.00  0.00     0.009 C 
BRANCH   8   9
ATOM      9  C3' N4B d   1       0.100   5.992  -2.293  0.00  0.00     0.004 C 
ATOM     10  C4' N4B d   1      -1.364   5.998  -2.621  0.00  0.00     0.003 C 
ENDBRANCH   8   9
ENDBRANCH   7   8
ENDBRANCH   1   7
TORSDOF 3
ENDMDL
