MODEL 1
REMARK minimizedAffinity 3.2232523
REMARK minimizedRMSD -1
REMARK  3 active torsions:
REMARK  status: ('A' for Active; 'I' for Inactive)
REMARK    1  A    between atoms: C3'_2  and  C2'_3 
REMARK    2  A    between atoms: C2'_3  and  C1'_4 
REMARK    3  A    between atoms: C1'_4  and  C1_5 
ROOT
ATOM      1  C1  N4B d   1      -5.724  -0.613   3.817  0.00  0.00    -0.075 A 
ATOM      2  C2  N4B d   1      -5.902  -0.485   5.212  0.00  0.00     0.002 A 
ATOM      3  C3  N4B d   1      -6.000  -1.607   5.998  0.00  0.00     0.002 A 
ATOM      4  C4  N4B d   1      -5.943  -2.862   5.412  0.00  0.00    -0.004 A 
ATOM      5  C5  N4B d   1      -5.746  -2.978   4.067  0.00  0.00     0.002 A 
ATOM      6  C6  N4B d   1      -5.641  -1.859   3.265  0.00  0.00     0.002 A 
ENDROOT
BRANCH   1   7
ATOM      7  C1' N4B d   1      -5.698   0.583   2.906  0.00  0.00     0.057 C 
BRANCH   7   8
ATOM      8  C2' N4B d   1      -4.688   0.340   1.789  0.00  0.00     0.009 C 
BRANCH   8   9
ATOM      9  C3' N4B d   1      -5.253   0.695   0.424  0.00  0.00     0.004 C 
ATOM     10  C4' N4B d   1      -4.480   0.078  -0.703  0.00  0.00     0.003 C 
ENDBRANCH   8   9
ENDBRANCH   7   8
ENDBRANCH   1   7
TORSDOF 3
ENDMDL
