MODEL 1
REMARK minimizedAffinity 1.75703084
REMARK minimizedRMSD -1
REMARK  1 active torsions:
REMARK  status: ('A' for Active; 'I' for Inactive)
REMARK    1  A    between atoms: C3_4  and  O_7 
ROOT
ATOM      1  C   UNL d   1      -0.478  -1.744   2.477  0.00  0.00    -0.033 A 
ATOM      2  C1  UNL d   1      -0.276  -0.829   3.512  0.00  0.00     0.039 A 
ATOM      3  C2  UNL d   1      -1.282   0.076   3.854  0.00  0.00    -0.080 A 
ATOM      4  C3  UNL d   1      -2.486   0.055   3.154  0.00  0.00     0.150 A 
ATOM      5  C4  UNL d   1      -2.696  -0.856   2.124  0.00  0.00    -0.007 A 
ATOM      6  C5  UNL d   1      -1.689  -1.758   1.784  0.00  0.00     0.039 A 
ENDROOT
BRANCH   4   7
ATOM      7  O   UNL d   1      -3.496   0.922   3.448  0.00  0.00    -0.526 OA
ATOM      8  H5  UNL d   1      -3.198   1.511   4.161  0.00  0.00     0.418 HD
ENDBRANCH   4   7
TORSDOF 1
ENDMDL
