MODEL 1
REMARK minimizedAffinity 5.41272116
REMARK minimizedRMSD -1
REMARK  1 active torsions:
REMARK  status: ('A' for Active; 'I' for Inactive)
REMARK    1  A    between atoms: C3_4  and  O_7 
ROOT
ATOM      1  C   UNL d   1       1.963  -1.165   1.931  0.00  0.00    -0.033 A 
ATOM      2  C1  UNL d   1       1.828  -1.330   0.551  0.00  0.00     0.039 A 
ATOM      3  C2  UNL d   1       1.810  -2.611  -0.003  0.00  0.00    -0.080 A 
ATOM      4  C3  UNL d   1       1.928  -3.718   0.833  0.00  0.00     0.150 A 
ATOM      5  C4  UNL d   1       2.059  -3.562   2.209  0.00  0.00    -0.007 A 
ATOM      6  C5  UNL d   1       2.077  -2.282   2.760  0.00  0.00     0.039 A 
ENDROOT
BRANCH   4   7
ATOM      7  O   UNL d   1       1.921  -4.988   0.338  0.00  0.00    -0.526 OA
ATOM      8  H5  UNL d   1       1.853  -4.941  -0.630  0.00  0.00     0.418 HD
ENDBRANCH   4   7
TORSDOF 1
ENDMDL
