MODEL 1
REMARK minimizedAffinity 2.22845316
REMARK minimizedRMSD -1
REMARK  1 active torsions:
REMARK  status: ('A' for Active; 'I' for Inactive)
REMARK    1  A    between atoms: C3_4  and  O_7 
ROOT
ATOM      1  C   UNL d   1       0.443  -0.952   1.363  0.00  0.00    -0.033 A 
ATOM      2  C1  UNL d   1       1.367  -1.291   0.373  0.00  0.00     0.039 A 
ATOM      3  C2  UNL d   1       2.145  -2.443   0.506  0.00  0.00    -0.080 A 
ATOM      4  C3  UNL d   1       1.989  -3.246   1.633  0.00  0.00     0.150 A 
ATOM      5  C4  UNL d   1       1.068  -2.916   2.621  0.00  0.00    -0.007 A 
ATOM      6  C5  UNL d   1       0.292  -1.765   2.487  0.00  0.00     0.039 A 
ENDROOT
BRANCH   4   7
ATOM      7  O   UNL d   1       2.729  -4.377   1.809  0.00  0.00    -0.526 OA
ATOM      8  H5  UNL d   1       3.343  -4.463   1.061  0.00  0.00     0.418 HD
ENDBRANCH   4   7
TORSDOF 1
ENDMDL
