MODEL 1
REMARK minimizedAffinity 5.74594736
REMARK minimizedRMSD -1
REMARK  1 active torsions:
REMARK  status: ('A' for Active; 'I' for Inactive)
REMARK    1  A    between atoms: C3_4  and  O_7 
ROOT
ATOM      1  C   UNL d   1       1.831  -1.350   1.527  0.00  0.00    -0.033 A 
ATOM      2  C1  UNL d   1       2.934  -2.012   0.985  0.00  0.00     0.039 A 
ATOM      3  C2  UNL d   1       2.910  -3.398   0.823  0.00  0.00    -0.080 A 
ATOM      4  C3  UNL d   1       1.777  -4.111   1.206  0.00  0.00     0.150 A 
ATOM      5  C4  UNL d   1       0.672  -3.458   1.744  0.00  0.00    -0.007 A 
ATOM      6  C5  UNL d   1       0.699  -2.073   1.905  0.00  0.00     0.039 A 
ENDROOT
BRANCH   4   7
ATOM      7  O   UNL d   1       1.708  -5.466   1.073  0.00  0.00    -0.526 OA
ATOM      8  H5  UNL d   1       2.554  -5.783   0.715  0.00  0.00     0.418 HD
ENDBRANCH   4   7
TORSDOF 1
ENDMDL
