MODEL 1
REMARK minimizedAffinity 8.25183201
REMARK minimizedRMSD -1
REMARK  1 active torsions:
REMARK  status: ('A' for Active; 'I' for Inactive)
REMARK    1  A    between atoms: C3_4  and  O_7 
ROOT
ATOM      1  C   UNL d   1       2.248  -2.981   1.589  0.00  0.00    -0.033 A 
ATOM      2  C1  UNL d   1       3.563  -3.449   1.580  0.00  0.00     0.039 A 
ATOM      3  C2  UNL d   1       4.595  -2.629   1.119  0.00  0.00    -0.080 A 
ATOM      4  C3  UNL d   1       4.299  -1.344   0.671  0.00  0.00     0.150 A 
ATOM      5  C4  UNL d   1       2.991  -0.870   0.680  0.00  0.00    -0.007 A 
ATOM      6  C5  UNL d   1       1.962  -1.691   1.140  0.00  0.00     0.039 A 
ENDROOT
BRANCH   4   7
ATOM      7  O   UNL d   1       5.271  -0.509   0.207  0.00  0.00    -0.526 OA
ATOM      8  H5  UNL d   1       6.120  -0.981   0.233  0.00  0.00     0.418 HD
ENDBRANCH   4   7
TORSDOF 1
ENDMDL
