MODEL 1
REMARK minimizedAffinity -0.90460521
REMARK minimizedRMSD -1
REMARK  1 active torsions:
REMARK  status: ('A' for Active; 'I' for Inactive)
REMARK    1  A    between atoms: C3_4  and  O_7 
ROOT
ATOM      1  C   UNL d   1       0.973  -1.626   3.508  0.00  0.00    -0.033 A 
ATOM      2  C1  UNL d   1       0.991  -0.262   3.806  0.00  0.00     0.039 A 
ATOM      3  C2  UNL d   1      -0.149   0.516   3.597  0.00  0.00    -0.080 A 
ATOM      4  C3  UNL d   1      -1.300  -0.082   3.090  0.00  0.00     0.150 A 
ATOM      5  C4  UNL d   1      -1.327  -1.441   2.795  0.00  0.00    -0.007 A 
ATOM      6  C5  UNL d   1      -0.187  -2.216   3.004  0.00  0.00     0.039 A 
ENDROOT
BRANCH   4   7
ATOM      7  O   UNL d   1      -2.436   0.637   2.865  0.00  0.00    -0.526 OA
ATOM      8  H5  UNL d   1      -2.261   1.567   3.087  0.00  0.00     0.418 HD
ENDBRANCH   4   7
TORSDOF 1
ENDMDL
