MODEL 1
REMARK minimizedAffinity 1.40923893
REMARK minimizedRMSD -1
REMARK  1 active torsions:
REMARK  status: ('A' for Active; 'I' for Inactive)
REMARK    1  A    between atoms: C3_4  and  O_7 
ROOT
ATOM      1  C   UNL d   1       0.756  -2.526   3.199  0.00  0.00    -0.033 A 
ATOM      2  C1  UNL d   1       0.456  -2.373   1.844  0.00  0.00     0.039 A 
ATOM      3  C2  UNL d   1      -0.494  -1.432   1.440  0.00  0.00    -0.080 A 
ATOM      4  C3  UNL d   1      -1.134  -0.652   2.399  0.00  0.00     0.150 A 
ATOM      5  C4  UNL d   1      -0.837  -0.797   3.750  0.00  0.00    -0.007 A 
ATOM      6  C5  UNL d   1       0.111  -1.737   4.152  0.00  0.00     0.039 A 
ENDROOT
BRANCH   4   7
ATOM      7  O   UNL d   1      -2.072   0.275   2.053  0.00  0.00    -0.526 OA
ATOM      8  H5  UNL d   1      -2.194   0.244   1.089  0.00  0.00     0.418 HD
ENDBRANCH   4   7
TORSDOF 1
ENDMDL
