MODEL 1
REMARK minimizedAffinity 6.01653099
REMARK minimizedRMSD -1
REMARK  1 active torsions:
REMARK  status: ('A' for Active; 'I' for Inactive)
REMARK    1  A    between atoms: C3_4  and  O_7 
ROOT
ATOM      1  C   UNL d   1      -0.298  -0.964   0.757  0.00  0.00    -0.033 A 
ATOM      2  C1  UNL d   1      -0.349  -1.564   2.016  0.00  0.00     0.039 A 
ATOM      3  C2  UNL d   1       0.642  -2.469   2.401  0.00  0.00    -0.080 A 
ATOM      4  C3  UNL d   1       1.678  -2.764   1.519  0.00  0.00     0.150 A 
ATOM      5  C4  UNL d   1       1.738  -2.166   0.265  0.00  0.00    -0.007 A 
ATOM      6  C5  UNL d   1       0.747  -1.264  -0.119  0.00  0.00     0.039 A 
ENDROOT
BRANCH   4   7
ATOM      7  O   UNL d   1       2.666  -3.644   1.849  0.00  0.00    -0.526 OA
ATOM      8  H5  UNL d   1       2.478  -4.000   2.733  0.00  0.00     0.418 HD
ENDBRANCH   4   7
TORSDOF 1
ENDMDL
