MODEL 1
REMARK minimizedAffinity -3.16504788
REMARK minimizedRMSD -1
REMARK  1 active torsions:
REMARK  status: ('A' for Active; 'I' for Inactive)
REMARK    1  A    between atoms: C1_2  and  C2_3 
ROOT
ATOM      1  C2  UNL d   1       3.205   3.135  -2.634  0.00  0.00    -0.073 A 
ATOM      2  C3  UNL d   1       2.679   3.319  -3.918  0.00  0.00    -0.002 A 
ATOM      3  C4  UNL d   1       1.608   2.540  -4.360  0.00  0.00     0.004 A 
ATOM      4  C5  UNL d   1       1.049   1.576  -3.522  0.00  0.00    -0.004 A 
ATOM      5  C6  UNL d   1       1.553   1.385  -2.231  0.00  0.00    -0.075 A 
ATOM      6  C7  UNL d   1       0.964   0.350  -1.318  0.00  0.00     0.076 C 
ATOM      7  C8  UNL d   1       2.630   2.169  -1.796  0.00  0.00     0.001 A 
ENDROOT
BRANCH   1   8
ATOM      8  C1  UNL d   1       4.356   3.977  -2.150  0.00  0.00     0.053 C 
ATOM      9  C   UNL d   1       5.582   3.137  -1.828  0.00  0.00     0.018 C 
ENDBRANCH   1   8
TORSDOF 1
ENDMDL
