MODEL 1
REMARK minimizedAffinity 9.42830372
REMARK minimizedRMSD -1
REMARK  1 active torsions:
REMARK  status: ('A' for Active; 'I' for Inactive)
REMARK    1  A    between atoms: C1_2  and  C2_3 
ROOT
ATOM      1  C2  UNL d   1       3.862  -1.029  -5.934  0.00  0.00    -0.073 A 
ATOM      2  C3  UNL d   1       4.643  -2.189  -5.981  0.00  0.00    -0.002 A 
ATOM      3  C4  UNL d   1       4.041  -3.447  -5.942  0.00  0.00     0.004 A 
ATOM      4  C5  UNL d   1       2.653  -3.559  -5.861  0.00  0.00    -0.004 A 
ATOM      5  C6  UNL d   1       1.854  -2.411  -5.825  0.00  0.00    -0.075 A 
ATOM      6  C7  UNL d   1       0.359  -2.514  -5.737  0.00  0.00     0.076 C 
ATOM      7  C8  UNL d   1       2.466  -1.151  -5.863  0.00  0.00     0.001 A 
ENDROOT
BRANCH   1   8
ATOM      8  C1  UNL d   1       4.507   0.331  -5.983  0.00  0.00     0.053 C 
ATOM      9  C   UNL d   1       6.000   0.265  -5.699  0.00  0.00     0.018 C 
ENDBRANCH   1   8
TORSDOF 1
ENDMDL
