MODEL 1
REMARK minimizedAffinity 9.6882391
REMARK minimizedRMSD -1
REMARK  1 active torsions:
REMARK  status: ('A' for Active; 'I' for Inactive)
REMARK    1  A    between atoms: C1_2  and  C2_3 
ROOT
ATOM      1  C2  UNL d   1       0.800  -2.702   0.533  0.00  0.00    -0.073 A 
ATOM      2  C3  UNL d   1       2.018  -3.374   0.689  0.00  0.00    -0.002 A 
ATOM      3  C4  UNL d   1       2.040  -4.701   1.121  0.00  0.00     0.004 A 
ATOM      4  C5  UNL d   1       0.847  -5.371   1.393  0.00  0.00    -0.004 A 
ATOM      5  C6  UNL d   1      -0.380  -4.720   1.232  0.00  0.00    -0.075 A 
ATOM      6  C7  UNL d   1      -1.672  -5.425   1.523  0.00  0.00     0.076 C 
ATOM      7  C8  UNL d   1      -0.394  -3.386   0.801  0.00  0.00     0.001 A 
ENDROOT
BRANCH   1   8
ATOM      8  C1  UNL d   1       0.771  -1.271   0.062  0.00  0.00     0.053 C 
ATOM      9  C   UNL d   1       1.531  -0.346   0.999  0.00  0.00     0.018 C 
ENDBRANCH   1   8
TORSDOF 1
ENDMDL
