MODEL 1
REMARK minimizedAffinity 2.85830235
REMARK minimizedRMSD -1
REMARK  1 active torsions:
REMARK  status: ('A' for Active; 'I' for Inactive)
REMARK    1  A    between atoms: C1_2  and  C2_3 
ROOT
ATOM      1  C2  UNL d   1       5.593   0.197  -4.383  0.00  0.00    -0.073 A 
ATOM      2  C3  UNL d   1       5.978  -0.709  -3.389  0.00  0.00    -0.002 A 
ATOM      3  C4  UNL d   1       5.996  -0.319  -2.049  0.00  0.00     0.004 A 
ATOM      4  C5  UNL d   1       5.623   0.976  -1.689  0.00  0.00    -0.004 A 
ATOM      5  C6  UNL d   1       5.223   1.892  -2.668  0.00  0.00    -0.075 A 
ATOM      6  C7  UNL d   1       4.821   3.289  -2.298  0.00  0.00     0.076 C 
ATOM      7  C8  UNL d   1       5.210   1.494  -4.011  0.00  0.00     0.001 A 
ENDROOT
BRANCH   1   8
ATOM      8  C1  UNL d   1       5.566  -0.221  -5.831  0.00  0.00     0.053 C 
ATOM      9  C   UNL d   1       5.839  -1.707  -6.000  0.00  0.00     0.018 C 
ENDBRANCH   1   8
TORSDOF 1
ENDMDL
