MODEL 1
REMARK minimizedAffinity 2.63511705
REMARK minimizedRMSD -1
REMARK  1 active torsions:
REMARK  status: ('A' for Active; 'I' for Inactive)
REMARK    1  A    between atoms: C1_2  and  C2_3 
ROOT
ATOM      1  C2  UNL d   1       1.092  -0.681  -2.261  0.00  0.00    -0.073 A 
ATOM      2  C3  UNL d   1       0.762  -0.422  -0.926  0.00  0.00    -0.002 A 
ATOM      3  C4  UNL d   1       0.611   0.891  -0.480  0.00  0.00     0.004 A 
ATOM      4  C5  UNL d   1       0.782   1.957  -1.363  0.00  0.00    -0.004 A 
ATOM      5  C6  UNL d   1       1.101   1.718  -2.704  0.00  0.00    -0.075 A 
ATOM      6  C7  UNL d   1       1.290   2.854  -3.666  0.00  0.00     0.076 C 
ATOM      7  C8  UNL d   1       1.253   0.396  -3.144  0.00  0.00     0.001 A 
ENDROOT
BRANCH   1   8
ATOM      8  C1  UNL d   1       1.249  -2.098  -2.750  0.00  0.00     0.053 C 
ATOM      9  C   UNL d   1       1.113  -2.198  -4.261  0.00  0.00     0.018 C 
ENDBRANCH   1   8
TORSDOF 1
ENDMDL
