MODEL 1
REMARK minimizedAffinity 11.8565607
REMARK minimizedRMSD -1
REMARK  1 active torsions:
REMARK  status: ('A' for Active; 'I' for Inactive)
REMARK    1  A    between atoms: C1_2  and  C2_3 
ROOT
ATOM      1  C2  UNL d   1      -2.664  -1.589   3.010  0.00  0.00    -0.073 A 
ATOM      2  C3  UNL d   1      -2.186  -1.003   4.188  0.00  0.00    -0.002 A 
ATOM      3  C4  UNL d   1      -2.942  -1.058   5.360  0.00  0.00     0.004 A 
ATOM      4  C5  UNL d   1      -4.178  -1.703   5.368  0.00  0.00    -0.004 A 
ATOM      5  C6  UNL d   1      -4.668  -2.305   4.204  0.00  0.00    -0.075 A 
ATOM      6  C7  UNL d   1      -5.997  -3.002   4.196  0.00  0.00     0.076 C 
ATOM      7  C8  UNL d   1      -3.904  -2.244   3.031  0.00  0.00     0.001 A 
ENDROOT
BRANCH   1   8
ATOM      8  C1  UNL d   1      -1.849  -1.538   1.744  0.00  0.00     0.053 C 
ATOM      9  C   UNL d   1      -0.830  -2.664   1.677  0.00  0.00     0.018 C 
ENDBRANCH   1   8
TORSDOF 1
ENDMDL
