MODEL 1
REMARK minimizedAffinity 6.0153966
REMARK minimizedRMSD -1
REMARK  1 active torsions:
REMARK  status: ('A' for Active; 'I' for Inactive)
REMARK    1  A    between atoms: C1_2  and  C2_3 
ROOT
ATOM      1  C2  UNL d   1       1.281  -0.779  -2.696  0.00  0.00    -0.073 A 
ATOM      2  C3  UNL d   1       1.024  -1.064  -1.351  0.00  0.00    -0.002 A 
ATOM      3  C4  UNL d   1       0.697  -0.039  -0.462  0.00  0.00     0.004 A 
ATOM      4  C5  UNL d   1       0.616   1.279  -0.911  0.00  0.00    -0.004 A 
ATOM      5  C6  UNL d   1       0.857   1.583  -2.255  0.00  0.00    -0.075 A 
ATOM      6  C7  UNL d   1       0.776   2.996  -2.753  0.00  0.00     0.076 C 
ATOM      7  C8  UNL d   1       1.188   0.548  -3.140  0.00  0.00     0.001 A 
ENDROOT
BRANCH   1   8
ATOM      8  C1  UNL d   1       1.628  -1.884  -3.661  0.00  0.00     0.053 C 
ATOM      9  C   UNL d   1       1.644  -3.246  -2.985  0.00  0.00     0.018 C 
ENDBRANCH   1   8
TORSDOF 1
ENDMDL
