MODEL 1
REMARK minimizedAffinity 1.92139316
REMARK minimizedRMSD -1
REMARK  1 active torsions:
REMARK  status: ('A' for Active; 'I' for Inactive)
REMARK    1  A    between atoms: C1_2  and  C2_3 
ROOT
ATOM      1  C2  UNL d   1       1.006   0.805  -0.900  0.00  0.00    -0.073 A 
ATOM      2  C3  UNL d   1       0.889  -0.202   0.065  0.00  0.00    -0.002 A 
ATOM      3  C4  UNL d   1       0.886  -1.544  -0.314  0.00  0.00     0.004 A 
ATOM      4  C5  UNL d   1       1.007  -1.894  -1.659  0.00  0.00    -0.004 A 
ATOM      5  C6  UNL d   1       1.136  -0.903  -2.637  0.00  0.00    -0.075 A 
ATOM      6  C7  UNL d   1       1.265  -1.262  -4.088  0.00  0.00     0.076 C 
ATOM      7  C8  UNL d   1       1.136   0.444  -2.248  0.00  0.00     0.001 A 
ENDROOT
BRANCH   1   8
ATOM      8  C1  UNL d   1       1.016   2.257  -0.494  0.00  0.00     0.053 C 
ATOM      9  C   UNL d   1       1.584   2.454   0.902  0.00  0.00     0.018 C 
ENDBRANCH   1   8
TORSDOF 1
ENDMDL
