MODEL 1
REMARK minimizedAffinity -1.93100119
REMARK minimizedRMSD -1
REMARK  1 active torsions:
REMARK  status: ('A' for Active; 'I' for Inactive)
REMARK    1  A    between atoms: C1_2  and  C2_3 
ROOT
ATOM      1  C2  UNL d   1       0.926   1.279  -2.103  0.00  0.00    -0.073 A 
ATOM      2  C3  UNL d   1       0.925   1.114  -0.713  0.00  0.00    -0.002 A 
ATOM      3  C4  UNL d   1       1.085  -0.154  -0.154  0.00  0.00     0.004 A 
ATOM      4  C5  UNL d   1       1.254  -1.268  -0.976  0.00  0.00    -0.004 A 
ATOM      5  C6  UNL d   1       1.269  -1.122  -2.367  0.00  0.00    -0.075 A 
ATOM      6  C7  UNL d   1       1.448  -2.310  -3.265  0.00  0.00     0.076 C 
ATOM      7  C8  UNL d   1       1.105   0.155  -2.921  0.00  0.00     0.001 A 
ENDROOT
BRANCH   1   8
ATOM      8  C1  UNL d   1       0.760   2.647  -2.712  0.00  0.00     0.053 C 
ATOM      9  C   UNL d   1       1.914   3.005  -3.634  0.00  0.00     0.018 C 
ENDBRANCH   1   8
TORSDOF 1
ENDMDL
