MODEL 1
REMARK minimizedAffinity -1.76097584
REMARK minimizedRMSD -1
REMARK  1 active torsions:
REMARK  status: ('A' for Active; 'I' for Inactive)
REMARK    1  A    between atoms: C1_2  and  C2_3 
ROOT
ATOM      1  C2  UNL d   1       1.023   0.543  -2.485  0.00  0.00    -0.073 A 
ATOM      2  C3  UNL d   1       1.176  -0.613  -1.711  0.00  0.00    -0.002 A 
ATOM      3  C4  UNL d   1       1.406  -1.846  -2.323  0.00  0.00     0.004 A 
ATOM      4  C5  UNL d   1       1.491  -1.935  -3.712  0.00  0.00    -0.004 A 
ATOM      5  C6  UNL d   1       1.352  -0.789  -4.502  0.00  0.00    -0.075 A 
ATOM      6  C7  UNL d   1       1.439  -0.869  -5.998  0.00  0.00     0.076 C 
ATOM      7  C8  UNL d   1       1.119   0.445  -3.880  0.00  0.00     0.001 A 
ENDROOT
BRANCH   1   8
ATOM      8  C1  UNL d   1       0.781   1.877  -1.828  0.00  0.00     0.053 C 
ATOM      9  C   UNL d   1       1.200   1.878  -0.367  0.00  0.00     0.018 C 
ENDBRANCH   1   8
TORSDOF 1
ENDMDL
