MODEL 1
REMARK minimizedAffinity 4.3429904
REMARK minimizedRMSD -1
REMARK  1 active torsions:
REMARK  status: ('A' for Active; 'I' for Inactive)
REMARK    1  A    between atoms: C1_2  and  C2_3 
ROOT
ATOM      1  C2  UNL d   1       0.715  -1.125  -0.413  0.00  0.00    -0.073 A 
ATOM      2  C3  UNL d   1       1.169  -1.826  -1.536  0.00  0.00    -0.002 A 
ATOM      3  C4  UNL d   1       1.241  -1.195  -2.779  0.00  0.00     0.004 A 
ATOM      4  C5  UNL d   1       0.867   0.142  -2.910  0.00  0.00    -0.004 A 
ATOM      5  C6  UNL d   1       0.422   0.863  -1.797  0.00  0.00    -0.075 A 
ATOM      6  C7  UNL d   1       0.014   2.301  -1.922  0.00  0.00     0.076 C 
ATOM      7  C8  UNL d   1       0.350   0.222  -0.553  0.00  0.00     0.001 A 
ENDROOT
BRANCH   1   8
ATOM      8  C1  UNL d   1       0.642  -1.800   0.933  0.00  0.00     0.053 C 
ATOM      9  C   UNL d   1      -0.662  -2.559   1.119  0.00  0.00     0.018 C 
ENDBRANCH   1   8
TORSDOF 1
ENDMDL
