MODEL 1
REMARK minimizedAffinity 3.1529367
REMARK minimizedRMSD -1
REMARK  1 active torsions:
REMARK  status: ('A' for Active; 'I' for Inactive)
REMARK    1  A    between atoms: C1_2  and  C2_3 
ROOT
ATOM      1  C2  UNL d   1       2.477  -0.226  -3.696  0.00  0.00    -0.073 A 
ATOM      2  C3  UNL d   1       1.762   0.030  -4.871  0.00  0.00    -0.002 A 
ATOM      3  C4  UNL d   1       2.416   0.532  -5.998  0.00  0.00     0.004 A 
ATOM      4  C5  UNL d   1       3.789   0.774  -5.964  0.00  0.00    -0.004 A 
ATOM      5  C6  UNL d   1       4.522   0.513  -4.802  0.00  0.00    -0.075 A 
ATOM      6  C7  UNL d   1       5.999   0.771  -4.748  0.00  0.00     0.076 C 
ATOM      7  C8  UNL d   1       3.859   0.012  -3.674  0.00  0.00     0.001 A 
ENDROOT
BRANCH   1   8
ATOM      8  C1  UNL d   1       1.777  -0.773  -2.479  0.00  0.00     0.053 C 
ATOM      9  C   UNL d   1       1.027  -2.061  -2.783  0.00  0.00     0.018 C 
ENDBRANCH   1   8
TORSDOF 1
ENDMDL
