MODEL 1
REMARK minimizedAffinity -5.67601347
REMARK minimizedRMSD -1
REMARK  1 active torsions:
REMARK  status: ('A' for Active; 'I' for Inactive)
REMARK    1  A    between atoms: C3_4  and  O_7 
ROOT
ATOM      1  C   UNL d   1       1.571   3.410   0.402  0.00  0.00    -0.033 A 
ATOM      2  C1  UNL d   1       0.265   2.958   0.205  0.00  0.00     0.039 A 
ATOM      3  C2  UNL d   1      -0.001   1.588   0.146  0.00  0.00    -0.080 A 
ATOM      4  C3  UNL d   1       1.047   0.683   0.287  0.00  0.00     0.150 A 
ATOM      5  C4  UNL d   1       2.350   1.126   0.487  0.00  0.00    -0.007 A 
ATOM      6  C5  UNL d   1       2.614   2.494   0.545  0.00  0.00     0.039 A 
ENDROOT
BRANCH   4   7
ATOM      7  O   UNL d   1       0.838  -0.663   0.232  0.00  0.00    -0.526 OA
ATOM      8  H5  UNL d   1      -0.105  -0.821   0.060  0.00  0.00     0.418 HD
ENDBRANCH   4   7
TORSDOF 1
ENDMDL
