MODEL 1
REMARK minimizedAffinity -2.85133362
REMARK minimizedRMSD -1
REMARK  1 active torsions:
REMARK  status: ('A' for Active; 'I' for Inactive)
REMARK    1  A    between atoms: C3_4  and  O_7 
ROOT
ATOM      1  C   UNL d   1      -0.371  -0.840   0.764  0.00  0.00    -0.033 A 
ATOM      2  C1  UNL d   1       0.728  -0.274   0.115  0.00  0.00     0.039 A 
ATOM      3  C2  UNL d   1       0.819   1.112  -0.029  0.00  0.00    -0.080 A 
ATOM      4  C3  UNL d   1      -0.194   1.920   0.481  0.00  0.00     0.150 A 
ATOM      5  C4  UNL d   1      -1.290   1.363   1.131  0.00  0.00    -0.007 A 
ATOM      6  C5  UNL d   1      -1.380  -0.021   1.273  0.00  0.00     0.039 A 
ENDROOT
BRANCH   4   7
ATOM      7  O   UNL d   1      -0.152   3.277   0.360  0.00  0.00    -0.526 OA
ATOM      8  H5  UNL d   1       0.648   3.517  -0.136  0.00  0.00     0.418 HD
ENDBRANCH   4   7
TORSDOF 1
ENDMDL
