MODEL 1
REMARK minimizedAffinity -4.96032095
REMARK minimizedRMSD -1
REMARK  1 active torsions:
REMARK  status: ('A' for Active; 'I' for Inactive)
REMARK    1  A    between atoms: C3_4  and  O_7 
ROOT
ATOM      1  C   UNL d   1       0.765   2.773   0.202  0.00  0.00    -0.033 A 
ATOM      2  C1  UNL d   1       2.016   3.122   0.716  0.00  0.00     0.039 A 
ATOM      3  C2  UNL d   1       2.941   2.128   1.041  0.00  0.00    -0.080 A 
ATOM      4  C3  UNL d   1       2.605   0.791   0.845  0.00  0.00     0.150 A 
ATOM      5  C4  UNL d   1       1.363   0.437   0.329  0.00  0.00    -0.007 A 
ATOM      6  C5  UNL d   1       0.439   1.430   0.007  0.00  0.00     0.039 A 
ENDROOT
BRANCH   4   7
ATOM      7  O   UNL d   1       3.473  -0.214   1.152  0.00  0.00    -0.526 OA
ATOM      8  H5  UNL d   1       4.279   0.179   1.525  0.00  0.00     0.418 HD
ENDBRANCH   4   7
TORSDOF 1
ENDMDL
