MODEL 1
REMARK minimizedAffinity -5.73130131
REMARK minimizedRMSD -1
REMARK  1 active torsions:
REMARK  status: ('A' for Active; 'I' for Inactive)
REMARK    1  A    between atoms: C3_4  and  O_7 
ROOT
ATOM      1  C   UNL d   1       2.172   0.344   0.159  0.00  0.00    -0.033 A 
ATOM      2  C1  UNL d   1       0.814   0.398  -0.163  0.00  0.00     0.039 A 
ATOM      3  C2  UNL d   1       0.153   1.627  -0.202  0.00  0.00    -0.080 A 
ATOM      4  C3  UNL d   1       0.859   2.793   0.083  0.00  0.00     0.150 A 
ATOM      5  C4  UNL d   1       2.212   2.746   0.401  0.00  0.00    -0.007 A 
ATOM      6  C5  UNL d   1       2.871   1.518   0.440  0.00  0.00     0.039 A 
ENDROOT
BRANCH   4   7
ATOM      7  O   UNL d   1       0.255   4.015   0.063  0.00  0.00    -0.526 OA
ATOM      8  H5  UNL d   1      -0.686   3.889  -0.144  0.00  0.00     0.418 HD
ENDBRANCH   4   7
TORSDOF 1
ENDMDL
