MODEL 1
REMARK minimizedAffinity -3.6823523
REMARK minimizedRMSD -1
REMARK  1 active torsions:
REMARK  status: ('A' for Active; 'I' for Inactive)
REMARK    1  A    between atoms: C3_4  and  O_7 
ROOT
ATOM      1  C   UNL d   1       1.278   3.440   0.658  0.00  0.00    -0.033 A 
ATOM      2  C1  UNL d   1      -0.031   2.984   0.488  0.00  0.00     0.039 A 
ATOM      3  C2  UNL d   1      -0.270   1.643   0.181  0.00  0.00    -0.080 A 
ATOM      4  C3  UNL d   1       0.805   0.769   0.049  0.00  0.00     0.150 A 
ATOM      5  C4  UNL d   1       2.111   1.216   0.221  0.00  0.00    -0.007 A 
ATOM      6  C5  UNL d   1       2.349   2.555   0.527  0.00  0.00     0.039 A 
ENDROOT
BRANCH   4   7
ATOM      7  O   UNL d   1       0.621  -0.547  -0.254  0.00  0.00    -0.526 OA
ATOM      8  H5  UNL d   1      -0.330  -0.705  -0.372  0.00  0.00     0.418 HD
ENDBRANCH   4   7
TORSDOF 1
ENDMDL
