MODEL 1
REMARK minimizedAffinity -2.8936739
REMARK minimizedRMSD -1
REMARK  1 active torsions:
REMARK  status: ('A' for Active; 'I' for Inactive)
REMARK    1  A    between atoms: C3_4  and  O_7 
ROOT
ATOM      1  C   UNL d   1       0.476   3.301   0.748  0.00  0.00    -0.033 A 
ATOM      2  C1  UNL d   1       1.299   2.634  -0.161  0.00  0.00     0.039 A 
ATOM      3  C2  UNL d   1       1.013   1.318  -0.530  0.00  0.00    -0.080 A 
ATOM      4  C3  UNL d   1      -0.099   0.682   0.015  0.00  0.00     0.150 A 
ATOM      5  C4  UNL d   1      -0.926   1.342   0.919  0.00  0.00    -0.007 A 
ATOM      6  C5  UNL d   1      -0.638   2.655   1.287  0.00  0.00     0.039 A 
ENDROOT
BRANCH   4   7
ATOM      7  O   UNL d   1      -0.416  -0.603  -0.312  0.00  0.00    -0.526 OA
ATOM      8  H5  UNL d   1       0.260  -0.941  -0.923  0.00  0.00     0.418 HD
ENDBRANCH   4   7
TORSDOF 1
ENDMDL
