MODEL 1
REMARK minimizedAffinity -4.97977734
REMARK minimizedRMSD -1
REMARK  1 active torsions:
REMARK  status: ('A' for Active; 'I' for Inactive)
REMARK    1  A    between atoms: C3_4  and  O_7 
ROOT
ATOM      1  C   UNL d   1       0.805  -0.008  -0.153  0.00  0.00    -0.033 A 
ATOM      2  C1  UNL d   1      -0.422   0.213   0.476  0.00  0.00     0.039 A 
ATOM      3  C2  UNL d   1      -0.874   1.516   0.691  0.00  0.00    -0.080 A 
ATOM      4  C3  UNL d   1      -0.092   2.589   0.272  0.00  0.00     0.150 A 
ATOM      5  C4  UNL d   1       1.129   2.376  -0.359  0.00  0.00    -0.007 A 
ATOM      6  C5  UNL d   1       1.580   1.074  -0.572  0.00  0.00     0.039 A 
ENDROOT
BRANCH   4   7
ATOM      7  O   UNL d   1      -0.489   3.879   0.464  0.00  0.00    -0.526 OA
ATOM      8  H5  UNL d   1      -1.338   3.872   0.937  0.00  0.00     0.418 HD
ENDBRANCH   4   7
TORSDOF 1
ENDMDL
