MODEL 1
REMARK minimizedAffinity -5.44373417
REMARK minimizedRMSD -1
REMARK  1 active torsions:
REMARK  status: ('A' for Active; 'I' for Inactive)
REMARK    1  A    between atoms: C3_4  and  O_7 
ROOT
ATOM      1  C   UNL d   1      -0.158   3.393   0.018  0.00  0.00    -0.033 A 
ATOM      2  C1  UNL d   1       1.113   3.767   0.460  0.00  0.00     0.039 A 
ATOM      3  C2  UNL d   1       2.100   2.798   0.653  0.00  0.00    -0.080 A 
ATOM      4  C3  UNL d   1       1.804   1.462   0.401  0.00  0.00     0.150 A 
ATOM      5  C4  UNL d   1       0.541   1.083  -0.043  0.00  0.00    -0.007 A 
ATOM      6  C5  UNL d   1      -0.443   2.051  -0.235  0.00  0.00     0.039 A 
ENDROOT
BRANCH   4   7
ATOM      7  O   UNL d   1       2.733   0.480   0.579  0.00  0.00    -0.526 OA
ATOM      8  H5  UNL d   1       3.549   0.886   0.916  0.00  0.00     0.418 HD
ENDBRANCH   4   7
TORSDOF 1
ENDMDL
