MODEL 1
REMARK minimizedAffinity -1.88693798
REMARK minimizedRMSD -1
REMARK  1 active torsions:
REMARK  status: ('A' for Active; 'I' for Inactive)
REMARK    1  A    between atoms: C3_4  and  O_7 
ROOT
ATOM      1  C   UNL d   1      -1.067  -0.025   0.119  0.00  0.00    -0.033 A 
ATOM      2  C1  UNL d   1      -0.242  -1.151   0.160  0.00  0.00     0.039 A 
ATOM      3  C2  UNL d   1       1.144  -1.001   0.244  0.00  0.00    -0.080 A 
ATOM      4  C3  UNL d   1       1.691   0.279   0.287  0.00  0.00     0.150 A 
ATOM      5  C4  UNL d   1       0.875   1.405   0.249  0.00  0.00    -0.007 A 
ATOM      6  C5  UNL d   1      -0.508   1.253   0.165  0.00  0.00     0.039 A 
ENDROOT
BRANCH   4   7
ATOM      7  O   UNL d   1       3.038   0.475   0.364  0.00  0.00    -0.526 OA
ATOM      8  H5  UNL d   1       3.477  -0.392   0.352  0.00  0.00     0.418 HD
ENDBRANCH   4   7
TORSDOF 1
ENDMDL
