MODEL 1
REMARK minimizedAffinity -3.11492682
REMARK minimizedRMSD -1
REMARK  1 active torsions:
REMARK  status: ('A' for Active; 'I' for Inactive)
REMARK    1  A    between atoms: C3_4  and  O_7 
ROOT
ATOM      1  C   UNL d   1       0.718   3.403   0.249  0.00  0.00    -0.033 A 
ATOM      2  C1  UNL d   1      -0.409   2.679   0.641  0.00  0.00     0.039 A 
ATOM      3  C2  UNL d   1      -0.430   1.289   0.506  0.00  0.00    -0.080 A 
ATOM      4  C3  UNL d   1       0.681   0.637  -0.021  0.00  0.00     0.150 A 
ATOM      5  C4  UNL d   1       1.809   1.352  -0.410  0.00  0.00    -0.007 A 
ATOM      6  C5  UNL d   1       1.828   2.739  -0.275  0.00  0.00     0.039 A 
ENDROOT
BRANCH   4   7
ATOM      7  O   UNL d   1       0.705  -0.717  -0.176  0.00  0.00    -0.526 OA
ATOM      8  H5  UNL d   1      -0.152  -1.075   0.108  0.00  0.00     0.418 HD
ENDBRANCH   4   7
TORSDOF 1
ENDMDL
