MODEL 1
REMARK minimizedAffinity -5.52169418
REMARK minimizedRMSD -1
REMARK  1 active torsions:
REMARK  status: ('A' for Active; 'I' for Inactive)
REMARK    1  A    between atoms: C3_4  and  O_7 
ROOT
ATOM      1  C   UNL d   1      -0.642   2.195   0.051  0.00  0.00    -0.033 A 
ATOM      2  C1  UNL d   1      -0.341   0.839  -0.095  0.00  0.00     0.039 A 
ATOM      3  C2  UNL d   1       0.963   0.386   0.112  0.00  0.00    -0.080 A 
ATOM      4  C3  UNL d   1       1.955   1.297   0.465  0.00  0.00     0.150 A 
ATOM      5  C4  UNL d   1       1.661   2.648   0.616  0.00  0.00    -0.007 A 
ATOM      6  C5  UNL d   1       0.358   3.099   0.408  0.00  0.00     0.039 A 
ENDROOT
BRANCH   4   7
ATOM      7  O   UNL d   1       3.243   0.902   0.673  0.00  0.00    -0.526 OA
ATOM      8  H5  UNL d   1       3.304  -0.053   0.505  0.00  0.00     0.418 HD
ENDBRANCH   4   7
TORSDOF 1
ENDMDL
