MODEL 1
REMARK minimizedAffinity -5.18040466
REMARK minimizedRMSD -1
REMARK  1 active torsions:
REMARK  status: ('A' for Active; 'I' for Inactive)
REMARK    1  A    between atoms: C3_4  and  O_7 
ROOT
ATOM      1  C   UNL d   1       1.954   3.310   0.115  0.00  0.00    -0.033 A 
ATOM      2  C1  UNL d   1       0.669   3.850   0.205  0.00  0.00     0.039 A 
ATOM      3  C2  UNL d   1      -0.447   3.012   0.166  0.00  0.00    -0.080 A 
ATOM      4  C3  UNL d   1      -0.265   1.638   0.039  0.00  0.00     0.150 A 
ATOM      5  C4  UNL d   1       1.012   1.092  -0.047  0.00  0.00    -0.007 A 
ATOM      6  C5  UNL d   1       2.125   1.931  -0.010  0.00  0.00     0.039 A 
ENDROOT
BRANCH   4   7
ATOM      7  O   UNL d   1      -1.324   0.780  -0.008  0.00  0.00    -0.526 OA
ATOM      8  H5  UNL d   1      -2.144   1.301   0.033  0.00  0.00     0.418 HD
ENDBRANCH   4   7
TORSDOF 1
ENDMDL
