MODEL 1
REMARK minimizedAffinity -2.92059231
REMARK minimizedRMSD -1
REMARK  1 active torsions:
REMARK  status: ('A' for Active; 'I' for Inactive)
REMARK    1  A    between atoms: C3_4  and  O_7 
ROOT
ATOM      1  C   UNL d   1      -0.706  -0.185   0.233  0.00  0.00    -0.033 A 
ATOM      2  C1  UNL d   1      -1.565   0.859   0.583  0.00  0.00     0.039 A 
ATOM      3  C2  UNL d   1      -1.132   2.183   0.489  0.00  0.00    -0.080 A 
ATOM      4  C3  UNL d   1       0.160   2.449   0.043  0.00  0.00     0.150 A 
ATOM      5  C4  UNL d   1       1.019   1.414  -0.311  0.00  0.00    -0.007 A 
ATOM      6  C5  UNL d   1       0.585   0.093  -0.215  0.00  0.00     0.039 A 
ENDROOT
BRANCH   4   7
ATOM      7  O   UNL d   1       0.629   3.725  -0.061  0.00  0.00    -0.526 OA
ATOM      8  H5  UNL d   1      -0.065   4.334   0.245  0.00  0.00     0.418 HD
ENDBRANCH   4   7
TORSDOF 1
ENDMDL
