MODEL 1
REMARK minimizedAffinity -3.33783531
REMARK minimizedRMSD -1
REMARK  1 active torsions:
REMARK  status: ('A' for Active; 'I' for Inactive)
REMARK    1  A    between atoms: C3_4  and  O_7 
ROOT
ATOM      1  C   UNL d   1      -0.366  -3.346  -1.779  0.00  0.00    -0.033 A 
ATOM      2  C1  UNL d   1      -0.569  -2.950  -0.456  0.00  0.00     0.039 A 
ATOM      3  C2  UNL d   1      -0.266  -1.646  -0.060  0.00  0.00    -0.080 A 
ATOM      4  C3  UNL d   1       0.239  -0.748  -0.997  0.00  0.00     0.150 A 
ATOM      5  C4  UNL d   1       0.441  -1.134  -2.318  0.00  0.00    -0.007 A 
ATOM      6  C5  UNL d   1       0.138  -2.437  -2.711  0.00  0.00     0.039 A 
ENDROOT
BRANCH   4   7
ATOM      7  O   UNL d   1       0.555   0.534  -0.657  0.00  0.00    -0.526 OA
ATOM      8  H5  UNL d   1       0.391   0.649   0.294  0.00  0.00     0.418 HD
ENDBRANCH   4   7
TORSDOF 1
ENDMDL
