MODEL 1
REMARK minimizedAffinity 5.0668726
REMARK minimizedRMSD -1
REMARK  1 active torsions:
REMARK  status: ('A' for Active; 'I' for Inactive)
REMARK    1  A    between atoms: C1_2  and  C2_3 
ROOT
ATOM      1  C2  UNL d   1       0.535   3.586   1.127  0.00  0.00    -0.077 A 
ATOM      2  C3  UNL d   1       1.713   3.844   1.843  0.00  0.00     0.002 A 
ATOM      3  C4  UNL d   1       1.992   3.144   3.018  0.00  0.00     0.002 A 
ATOM      4  C5  UNL d   1       1.102   2.180   3.485  0.00  0.00    -0.004 A 
ATOM      5  C6  UNL d   1      -0.073   1.917   2.782  0.00  0.00     0.002 A 
ATOM      6  C7  UNL d   1      -0.354   2.616   1.607  0.00  0.00     0.002 A 
ENDROOT
BRANCH   1   7
ATOM      7  C1  UNL d   1       0.255   4.304  -0.167  0.00  0.00     0.055 C 
ATOM      8  C   UNL d   1       0.944   5.661  -0.207  0.00  0.00     0.019 C 
ENDBRANCH   1   7
TORSDOF 1
ENDMDL
