MODEL 1
REMARK minimizedAffinity 13.3909893
REMARK minimizedRMSD -1
REMARK  1 active torsions:
REMARK  status: ('A' for Active; 'I' for Inactive)
REMARK    1  A    between atoms: C1_2  and  C2_3 
ROOT
ATOM      1  C2  UNL d   1      -5.921   2.434  -3.293  0.00  0.00    -0.077 A 
ATOM      2  C3  UNL d   1      -5.848   3.055  -4.548  0.00  0.00     0.002 A 
ATOM      3  C4  UNL d   1      -5.850   2.290  -5.716  0.00  0.00     0.002 A 
ATOM      4  C5  UNL d   1      -5.929   0.901  -5.641  0.00  0.00    -0.004 A 
ATOM      5  C6  UNL d   1      -6.000   0.274  -4.397  0.00  0.00     0.002 A 
ATOM      6  C7  UNL d   1      -5.996   1.037  -3.229  0.00  0.00     0.002 A 
ENDROOT
BRANCH   1   7
ATOM      7  C1  UNL d   1      -5.968   3.260  -2.034  0.00  0.00     0.055 C 
ATOM      8  C   UNL d   1      -5.945   2.379  -0.794  0.00  0.00     0.019 C 
ENDBRANCH   1   7
TORSDOF 1
ENDMDL
