MODEL 1
REMARK minimizedAffinity 11.5647421
REMARK minimizedRMSD -1
REMARK  1 active torsions:
REMARK  status: ('A' for Active; 'I' for Inactive)
REMARK    1  A    between atoms: C1_2  and  C2_3 
ROOT
ATOM      1  C2  UNL d   1      -1.210  -4.060  -3.803  0.00  0.00    -0.077 A 
ATOM      2  C3  UNL d   1      -2.319  -4.918  -3.794  0.00  0.00     0.002 A 
ATOM      3  C4  UNL d   1      -2.570  -5.759  -4.879  0.00  0.00     0.002 A 
ATOM      4  C5  UNL d   1      -1.715  -5.753  -5.980  0.00  0.00    -0.004 A 
ATOM      5  C6  UNL d   1      -0.611  -4.902  -5.999  0.00  0.00     0.002 A 
ATOM      6  C7  UNL d   1      -0.360  -4.060  -4.915  0.00  0.00     0.002 A 
ENDROOT
BRANCH   1   7
ATOM      7  C1  UNL d   1      -0.910  -3.188  -2.612  0.00  0.00     0.055 C 
ATOM      8  C   UNL d   1      -0.104  -3.941  -1.564  0.00  0.00     0.019 C 
ENDBRANCH   1   7
TORSDOF 1
ENDMDL
