MODEL 1
REMARK minimizedAffinity -0.170168132
REMARK minimizedRMSD -1
REMARK  1 active torsions:
REMARK  status: ('A' for Active; 'I' for Inactive)
REMARK    1  A    between atoms: C1_2  and  C2_3 
ROOT
ATOM      1  C2  UNL d   1      -0.395   4.103  -0.560  0.00  0.00    -0.077 A 
ATOM      2  C3  UNL d   1      -0.793   4.108  -1.904  0.00  0.00     0.002 A 
ATOM      3  C4  UNL d   1      -1.716   5.050  -2.364  0.00  0.00     0.002 A 
ATOM      4  C5  UNL d   1      -2.244   5.996  -1.488  0.00  0.00    -0.004 A 
ATOM      5  C6  UNL d   1      -1.855   5.998  -0.149  0.00  0.00     0.002 A 
ATOM      6  C7  UNL d   1      -0.934   5.057   0.313  0.00  0.00     0.002 A 
ENDROOT
BRANCH   1   7
ATOM      7  C1  UNL d   1       0.637   3.120  -0.074  0.00  0.00     0.055 C 
ATOM      8  C   UNL d   1       0.228   2.499   1.254  0.00  0.00     0.019 C 
ENDBRANCH   1   7
TORSDOF 1
ENDMDL
