MODEL 1
REMARK minimizedAffinity -1.73840368
REMARK minimizedRMSD -1
REMARK  1 active torsions:
REMARK  status: ('A' for Active; 'I' for Inactive)
REMARK    1  A    between atoms: C1_2  and  C2_3 
ROOT
ATOM      1  C2  UNL d   1       1.130   3.669   1.228  0.00  0.00    -0.077 A 
ATOM      2  C3  UNL d   1      -0.083   3.401   1.877  0.00  0.00     0.002 A 
ATOM      3  C4  UNL d   1      -0.092   2.944   3.196  0.00  0.00     0.002 A 
ATOM      4  C5  UNL d   1       1.108   2.756   3.879  0.00  0.00    -0.004 A 
ATOM      5  C6  UNL d   1       2.320   3.018   3.241  0.00  0.00     0.002 A 
ATOM      6  C7  UNL d   1       2.331   3.474   1.922  0.00  0.00     0.002 A 
ENDROOT
BRANCH   1   7
ATOM      7  C1  UNL d   1       1.141   4.209  -0.179  0.00  0.00     0.055 C 
ATOM      8  C   UNL d   1       0.120   3.495  -1.053  0.00  0.00     0.019 C 
ENDBRANCH   1   7
TORSDOF 1
ENDMDL
