MODEL 1
REMARK minimizedAffinity -2.92951059
REMARK minimizedRMSD -1
REMARK  0 active torsions:
REMARK  status: ('A' for Active; 'I' for Inactive)
ROOT
ATOM      1  C1  BNZ d   1      -1.106   0.989   0.842  0.00  0.00     0.000 A 
ATOM      2  C2  BNZ d   1      -0.217   0.143   0.236  0.00  0.00     0.000 A 
ATOM      3  C3  BNZ d   1       0.870   0.631  -0.434  0.00  0.00     0.000 A 
ATOM      4  C4  BNZ d   1       1.044   1.965  -0.531  0.00  0.00     0.000 A 
ATOM      5  C5  BNZ d   1       0.152   2.832   0.067  0.00  0.00     0.000 A 
ATOM      6  C6  BNZ d   1      -0.920   2.336   0.773  0.00  0.00     0.000 A 
ENDROOT
TORSDOF 0
ENDMDL
