MODEL 1
REMARK minimizedAffinity -4.41113043
REMARK minimizedRMSD -1
REMARK  0 active torsions:
REMARK  status: ('A' for Active; 'I' for Inactive)
ROOT
ATOM      1  C1  BNZ d   1      -0.683   2.458   1.193  0.00  0.00     0.000 A 
ATOM      2  C2  BNZ d   1      -0.851   1.114   0.986  0.00  0.00     0.000 A 
ATOM      3  C3  BNZ d   1      -0.166   0.467  -0.004  0.00  0.00     0.000 A 
ATOM      4  C4  BNZ d   1       0.654   1.171  -0.811  0.00  0.00     0.000 A 
ATOM      5  C5  BNZ d   1       0.827   2.527  -0.621  0.00  0.00     0.000 A 
ATOM      6  C6  BNZ d   1       0.166   3.168   0.401  0.00  0.00     0.000 A 
ENDROOT
TORSDOF 0
ENDMDL
