MODEL 1
REMARK minimizedAffinity -0.797679424
REMARK minimizedRMSD -1
REMARK  0 active torsions:
REMARK  status: ('A' for Active; 'I' for Inactive)
ROOT
ATOM      1  C1  BNZ d   1       0.918   0.634   0.894  0.00  0.00     0.000 A 
ATOM      2  C2  BNZ d   1       0.866  -0.667   0.471  0.00  0.00     0.000 A 
ATOM      3  C3  BNZ d   1      -0.272  -1.176  -0.091  0.00  0.00     0.000 A 
ATOM      4  C4  BNZ d   1      -1.368  -0.395  -0.191  0.00  0.00     0.000 A 
ATOM      5  C5  BNZ d   1      -1.334   0.916   0.239  0.00  0.00     0.000 A 
ATOM      6  C6  BNZ d   1      -0.175   1.436   0.768  0.00  0.00     0.000 A 
ENDROOT
TORSDOF 0
ENDMDL
