MODEL 1
REMARK minimizedAffinity -4.91340399
REMARK minimizedRMSD -1
REMARK  0 active torsions:
REMARK  status: ('A' for Active; 'I' for Inactive)
ROOT
ATOM      1  C1  BNZ d   1       0.231   2.321   0.025  0.00  0.00     0.000 A 
ATOM      2  C2  BNZ d   1      -0.193   3.168   1.013  0.00  0.00     0.000 A 
ATOM      3  C3  BNZ d   1      -1.192   2.798   1.871  0.00  0.00     0.000 A 
ATOM      4  C4  BNZ d   1      -1.790   1.600   1.714  0.00  0.00     0.000 A 
ATOM      5  C5  BNZ d   1      -1.380   0.739   0.716  0.00  0.00     0.000 A 
ATOM      6  C6  BNZ d   1      -0.348   1.098  -0.121  0.00  0.00     0.000 A 
ENDROOT
TORSDOF 0
ENDMDL
