MODEL 1
REMARK minimizedAffinity -3.95710707
REMARK minimizedRMSD -1
REMARK  0 active torsions:
REMARK  status: ('A' for Active; 'I' for Inactive)
ROOT
ATOM      1  C1  BNZ d   1       0.819   2.187  -0.704  0.00  0.00     0.000 A 
ATOM      2  C2  BNZ d   1       0.508   0.853  -0.705  0.00  0.00     0.000 A 
ATOM      3  C3  BNZ d   1      -0.529   0.376   0.048  0.00  0.00     0.000 A 
ATOM      4  C4  BNZ d   1      -1.226   1.225   0.829  0.00  0.00     0.000 A 
ATOM      5  C5  BNZ d   1      -0.918   2.571   0.848  0.00  0.00     0.000 A 
ATOM      6  C6  BNZ d   1       0.101   3.054   0.059  0.00  0.00     0.000 A 
ENDROOT
TORSDOF 0
ENDMDL
