MODEL 1
REMARK minimizedAffinity -2.76840377
REMARK minimizedRMSD -1
REMARK  0 active torsions:
REMARK  status: ('A' for Active; 'I' for Inactive)
ROOT
ATOM      1  C1  BNZ d   1      -1.749  -2.997  -1.498  0.00  0.00     0.000 A 
ATOM      2  C2  BNZ d   1      -1.351  -2.260  -0.415  0.00  0.00     0.000 A 
ATOM      3  C3  BNZ d   1      -0.169  -1.573  -0.432  0.00  0.00     0.000 A 
ATOM      4  C4  BNZ d   1       0.631  -1.657  -1.515  0.00  0.00     0.000 A 
ATOM      5  C5  BNZ d   1       0.247  -2.404  -2.611  0.00  0.00     0.000 A 
ATOM      6  C6  BNZ d   1      -0.961  -3.063  -2.605  0.00  0.00     0.000 A 
ENDROOT
TORSDOF 0
ENDMDL
