MODEL 1
REMARK minimizedAffinity -3.17911243
REMARK minimizedRMSD -1
REMARK  0 active torsions:
REMARK  status: ('A' for Active; 'I' for Inactive)
ROOT
ATOM      1  C1  BNZ d   1       1.135   1.278  -0.120  0.00  0.00     0.000 A 
ATOM      2  C2  BNZ d   1       1.264  -0.083  -0.047  0.00  0.00     0.000 A 
ATOM      3  C3  BNZ d   1       0.179  -0.877   0.198  0.00  0.00     0.000 A 
ATOM      4  C4  BNZ d   1      -1.025  -0.308   0.409  0.00  0.00     0.000 A 
ATOM      5  C5  BNZ d   1      -1.170   1.064   0.348  0.00  0.00     0.000 A 
ATOM      6  C6  BNZ d   1      -0.083   1.858   0.063  0.00  0.00     0.000 A 
ENDROOT
TORSDOF 0
ENDMDL
