MODEL 1
REMARK minimizedAffinity -0.0239245109
REMARK minimizedRMSD -1
REMARK  0 active torsions:
REMARK  status: ('A' for Active; 'I' for Inactive)
ROOT
ATOM      1  C1  BNZ d   1      -1.036   3.143  -1.057  0.00  0.00     0.000 A 
ATOM      2  C2  BNZ d   1       0.327   3.221  -1.169  0.00  0.00     0.000 A 
ATOM      3  C3  BNZ d   1       1.140   2.658  -0.226  0.00  0.00     0.000 A 
ATOM      4  C4  BNZ d   1       0.592   2.052   0.847  0.00  0.00     0.000 A 
ATOM      5  C5  BNZ d   1      -0.781   1.973   0.979  0.00  0.00     0.000 A 
ATOM      6  C6  BNZ d   1      -1.596   2.507   0.008  0.00  0.00     0.000 A 
ENDROOT
TORSDOF 0
ENDMDL
