MODEL 1
REMARK minimizedAffinity -4.96012068
REMARK minimizedRMSD -1
REMARK  0 active torsions:
REMARK  status: ('A' for Active; 'I' for Inactive)
ROOT
ATOM      1  C1  BNZ d   1       1.928   2.357   0.296  0.00  0.00     0.000 A 
ATOM      2  C2  BNZ d   1       1.674   1.015   0.193  0.00  0.00     0.000 A 
ATOM      3  C3  BNZ d   1       0.391   0.548   0.133  0.00  0.00     0.000 A 
ATOM      4  C4  BNZ d   1      -0.636   1.418   0.217  0.00  0.00     0.000 A 
ATOM      5  C5  BNZ d   1      -0.397   2.773   0.330  0.00  0.00     0.000 A 
ATOM      6  C6  BNZ d   1       0.897   3.243   0.351  0.00  0.00     0.000 A 
ENDROOT
TORSDOF 0
ENDMDL
