MODEL 1
REMARK minimizedAffinity -4.2115016
REMARK minimizedRMSD -1
REMARK  0 active torsions:
REMARK  status: ('A' for Active; 'I' for Inactive)
ROOT
ATOM      1  C1  BNZ d   1      -0.469  -0.286  -0.992  0.00  0.00     0.000 A 
ATOM      2  C2  BNZ d   1      -0.727  -1.466  -1.637  0.00  0.00     0.000 A 
ATOM      3  C3  BNZ d   1      -0.993  -2.606  -0.931  0.00  0.00     0.000 A 
ATOM      4  C4  BNZ d   1      -0.961  -2.574   0.416  0.00  0.00     0.000 A 
ATOM      5  C5  BNZ d   1      -0.693  -1.394   1.081  0.00  0.00     0.000 A 
ATOM      6  C6  BNZ d   1      -0.465  -0.240   0.368  0.00  0.00     0.000 A 
ENDROOT
TORSDOF 0
ENDMDL
