MODEL 1
REMARK minimizedAffinity -4.54228592
REMARK minimizedRMSD -1
REMARK  0 active torsions:
REMARK  status: ('A' for Active; 'I' for Inactive)
ROOT
ATOM      1  C1  BNZ d   1       0.217   0.657   0.128  0.00  0.00     0.000 A 
ATOM      2  C2  BNZ d   1       1.565   0.887   0.059  0.00  0.00     0.000 A 
ATOM      3  C3  BNZ d   1       2.066   2.153   0.175  0.00  0.00     0.000 A 
ATOM      4  C4  BNZ d   1       1.218   3.192   0.320  0.00  0.00     0.000 A 
ATOM      5  C5  BNZ d   1      -0.145   2.977   0.381  0.00  0.00     0.000 A 
ATOM      6  C6  BNZ d   1      -0.643   1.697   0.303  0.00  0.00     0.000 A 
ENDROOT
TORSDOF 0
ENDMDL
