MODEL 1
REMARK minimizedAffinity -2.78428888
REMARK minimizedRMSD -1
REMARK  0 active torsions:
REMARK  status: ('A' for Active; 'I' for Inactive)
ROOT
ATOM      1  C1  BNZ d   1       2.337   0.506   0.466  0.00  0.00     0.000 A 
ATOM      2  C2  BNZ d   1       1.482   1.553   0.251  0.00  0.00     0.000 A 
ATOM      3  C3  BNZ d   1       0.136   1.346   0.139  0.00  0.00     0.000 A 
ATOM      4  C4  BNZ d   1      -0.349   0.089   0.203  0.00  0.00     0.000 A 
ATOM      5  C5  BNZ d   1       0.501  -0.979   0.411  0.00  0.00     0.000 A 
ATOM      6  C6  BNZ d   1       1.852  -0.762   0.562  0.00  0.00     0.000 A 
ENDROOT
TORSDOF 0
ENDMDL
