MODEL 1
REMARK minimizedAffinity -3.86801481
REMARK minimizedRMSD -1
REMARK  0 active torsions:
REMARK  status: ('A' for Active; 'I' for Inactive)
ROOT
ATOM      1  C1  BNZ d   1       0.066  -1.228   2.988  0.00  0.00     0.000 A 
ATOM      2  C2  BNZ d   1       1.416  -1.100   3.178  0.00  0.00     0.000 A 
ATOM      3  C3  BNZ d   1       2.185  -0.402   2.290  0.00  0.00     0.000 A 
ATOM      4  C4  BNZ d   1       1.611   0.133   1.193  0.00  0.00     0.000 A 
ATOM      5  C5  BNZ d   1       0.252   0.005   0.983  0.00  0.00     0.000 A 
ATOM      6  C6  BNZ d   1      -0.525  -0.665   1.899  0.00  0.00     0.000 A 
ENDROOT
TORSDOF 0
ENDMDL
