MODEL 1
REMARK minimizedAffinity -1.78172469
REMARK minimizedRMSD -1
REMARK  0 active torsions:
REMARK  status: ('A' for Active; 'I' for Inactive)
ROOT
ATOM      1  C1  BNZ d   1       1.697  -0.999  -0.994  0.00  0.00     0.000 A 
ATOM      2  C2  BNZ d   1       0.807  -0.455  -1.882  0.00  0.00     0.000 A 
ATOM      3  C3  BNZ d   1      -0.147   0.430  -1.464  0.00  0.00     0.000 A 
ATOM      4  C4  BNZ d   1      -0.237   0.738  -0.154  0.00  0.00     0.000 A 
ATOM      5  C5  BNZ d   1       0.647   0.190   0.755  0.00  0.00     0.000 A 
ATOM      6  C6  BNZ d   1       1.631  -0.669   0.325  0.00  0.00     0.000 A 
ENDROOT
TORSDOF 0
ENDMDL
