MODEL 1
REMARK minimizedAffinity -2.38533425
REMARK minimizedRMSD -1
REMARK  0 active torsions:
REMARK  status: ('A' for Active; 'I' for Inactive)
ROOT
ATOM      1  C1  BNZ d   1       0.500  -0.479  -1.229  0.00  0.00     0.000 A 
ATOM      2  C2  BNZ d   1       1.628  -1.072  -0.727  0.00  0.00     0.000 A 
ATOM      3  C3  BNZ d   1       2.228  -0.592   0.403  0.00  0.00     0.000 A 
ATOM      4  C4  BNZ d   1       1.724   0.504   1.007  0.00  0.00     0.000 A 
ATOM      5  C5  BNZ d   1       0.593   1.119   0.508  0.00  0.00     0.000 A 
ATOM      6  C6  BNZ d   1      -0.031   0.610  -0.608  0.00  0.00     0.000 A 
ENDROOT
TORSDOF 0
ENDMDL
