MODEL 1
REMARK minimizedAffinity -3.23300982
REMARK minimizedRMSD -1
REMARK  0 active torsions:
REMARK  status: ('A' for Active; 'I' for Inactive)
ROOT
ATOM      1  C1  BNZ d   1      -0.401   0.104   0.107  0.00  0.00     0.000 A 
ATOM      2  C2  BNZ d   1       0.910   0.259   0.470  0.00  0.00     0.000 A 
ATOM      3  C3  BNZ d   1       1.330  -0.062   1.731  0.00  0.00     0.000 A 
ATOM      4  C4  BNZ d   1       0.433  -0.499   2.637  0.00  0.00     0.000 A 
ATOM      5  C5  BNZ d   1      -0.894  -0.651   2.290  0.00  0.00     0.000 A 
ATOM      6  C6  BNZ d   1      -1.307  -0.364   1.009  0.00  0.00     0.000 A 
ENDROOT
TORSDOF 0
ENDMDL
