MODEL 1
REMARK minimizedAffinity 0.0451488905
REMARK minimizedRMSD -1
REMARK  0 active torsions:
REMARK  status: ('A' for Active; 'I' for Inactive)
ROOT
ATOM      1  C1  BNZ d   1       2.577  -0.723   0.197  0.00  0.00     0.000 A 
ATOM      2  C2  BNZ d   1       2.006  -0.056   1.247  0.00  0.00     0.000 A 
ATOM      3  C3  BNZ d   1       0.688   0.307   1.212  0.00  0.00     0.000 A 
ATOM      4  C4  BNZ d   1      -0.044   0.039   0.112  0.00  0.00     0.000 A 
ATOM      5  C5  BNZ d   1       0.520  -0.625  -0.959  0.00  0.00     0.000 A 
ATOM      6  C6  BNZ d   1       1.836  -1.023  -0.904  0.00  0.00     0.000 A 
ENDROOT
TORSDOF 0
ENDMDL
