MODEL 1
REMARK minimizedAffinity -2.52938199
REMARK minimizedRMSD -1
REMARK  0 active torsions:
REMARK  status: ('A' for Active; 'I' for Inactive)
ROOT
ATOM      1  C1  BNZ d   1       1.924  -0.839   0.755  0.00  0.00     0.000 A 
ATOM      2  C2  BNZ d   1       1.507  -1.436  -0.405  0.00  0.00     0.000 A 
ATOM      3  C3  BNZ d   1       0.472  -0.914  -1.129  0.00  0.00     0.000 A 
ATOM      4  C4  BNZ d   1      -0.171   0.180  -0.672  0.00  0.00     0.000 A 
ATOM      5  C5  BNZ d   1       0.231   0.789   0.500  0.00  0.00     0.000 A 
ATOM      6  C6  BNZ d   1       1.299   0.283   1.206  0.00  0.00     0.000 A 
ENDROOT
TORSDOF 0
ENDMDL
