MODEL 1
REMARK minimizedAffinity -0.860684872
REMARK minimizedRMSD -1
REMARK  1 active torsions:
REMARK  status: ('A' for Active; 'I' for Inactive)
REMARK    1  A    between atoms: C3_4  and  O_7 
ROOT
ATOM      1  C   UNL d   1      -0.385   0.289  -1.232  0.00  0.00    -0.033 A 
ATOM      2  C1  UNL d   1       0.745   0.392  -0.418  0.00  0.00     0.039 A 
ATOM      3  C2  UNL d   1       0.624   0.258   0.967  0.00  0.00    -0.080 A 
ATOM      4  C3  UNL d   1      -0.630   0.020   1.523  0.00  0.00     0.150 A 
ATOM      5  C4  UNL d   1      -1.759  -0.088   0.717  0.00  0.00    -0.007 A 
ATOM      6  C5  UNL d   1      -1.636   0.048  -0.665  0.00  0.00     0.039 A 
ENDROOT
BRANCH   4   7
ATOM      7  O   UNL d   1      -0.798  -0.113   2.869  0.00  0.00    -0.526 OA
ATOM      8  H5  UNL d   1       0.063   0.013   3.301  0.00  0.00     0.418 HD
ENDBRANCH   4   7
TORSDOF 1
ENDMDL
