MODEL 1
REMARK minimizedAffinity -4.67685747
REMARK minimizedRMSD -1
REMARK  1 active torsions:
REMARK  status: ('A' for Active; 'I' for Inactive)
REMARK    1  A    between atoms: C3_4  and  O_7 
ROOT
ATOM      1  C   UNL d   1      -1.383   0.130   2.963  0.00  0.00    -0.033 A 
ATOM      2  C1  UNL d   1      -0.042   0.406   2.690  0.00  0.00     0.039 A 
ATOM      3  C2  UNL d   1       0.432   0.345   1.378  0.00  0.00    -0.080 A 
ATOM      4  C3  UNL d   1      -0.444   0.008   0.350  0.00  0.00     0.150 A 
ATOM      5  C4  UNL d   1      -1.782  -0.265   0.615  0.00  0.00    -0.007 A 
ATOM      6  C5  UNL d   1      -2.254  -0.204   1.926  0.00  0.00     0.039 A 
ENDROOT
BRANCH   4   7
ATOM      7  O   UNL d   1      -0.027  -0.070  -0.945  0.00  0.00    -0.526 OA
ATOM      8  H5  UNL d   1       0.927   0.116  -0.973  0.00  0.00     0.418 HD
ENDBRANCH   4   7
TORSDOF 1
ENDMDL
