MODEL 1
REMARK minimizedAffinity -4.86734486
REMARK minimizedRMSD -1
REMARK  1 active torsions:
REMARK  status: ('A' for Active; 'I' for Inactive)
REMARK    1  A    between atoms: C3_4  and  O_7 
ROOT
ATOM      1  C   UNL d   1       0.090  -0.284   2.548  0.00  0.00    -0.033 A 
ATOM      2  C1  UNL d   1      -1.206  -0.491   2.072  0.00  0.00     0.039 A 
ATOM      3  C2  UNL d   1      -1.516  -0.210   0.740  0.00  0.00    -0.080 A 
ATOM      4  C3  UNL d   1      -0.523   0.277  -0.105  0.00  0.00     0.150 A 
ATOM      5  C4  UNL d   1       0.772   0.482   0.361  0.00  0.00    -0.007 A 
ATOM      6  C5  UNL d   1       1.079   0.201   1.692  0.00  0.00     0.039 A 
ENDROOT
BRANCH   4   7
ATOM      7  O   UNL d   1      -0.779   0.570  -1.411  0.00  0.00    -0.526 OA
ATOM      8  H5  UNL d   1      -1.721   0.407  -1.585  0.00  0.00     0.418 HD
ENDBRANCH   4   7
TORSDOF 1
ENDMDL
