MODEL 1
REMARK minimizedAffinity -3.39488888
REMARK minimizedRMSD -1
REMARK  1 active torsions:
REMARK  status: ('A' for Active; 'I' for Inactive)
REMARK    1  A    between atoms: C3_4  and  O_7 
ROOT
ATOM      1  C   UNL d   1      -0.354   0.324   2.350  0.00  0.00    -0.033 A 
ATOM      2  C1  UNL d   1       0.923   0.653   1.893  0.00  0.00     0.039 A 
ATOM      3  C2  UNL d   1       1.205   0.630   0.525  0.00  0.00    -0.080 A 
ATOM      4  C3  UNL d   1       0.202   0.278  -0.373  0.00  0.00     0.150 A 
ATOM      5  C4  UNL d   1      -1.074  -0.048   0.075  0.00  0.00    -0.007 A 
ATOM      6  C5  UNL d   1      -1.353  -0.025   1.441  0.00  0.00     0.039 A 
ENDROOT
BRANCH   4   7
ATOM      7  O   UNL d   1       0.431   0.237  -1.716  0.00  0.00    -0.526 OA
ATOM      8  H5  UNL d   1       1.363   0.457  -1.877  0.00  0.00     0.418 HD
ENDBRANCH   4   7
TORSDOF 1
ENDMDL
