MODEL 1
REMARK minimizedAffinity -2.73090529
REMARK minimizedRMSD -1
REMARK  1 active torsions:
REMARK  status: ('A' for Active; 'I' for Inactive)
REMARK    1  A    between atoms: C3_4  and  O_7 
ROOT
ATOM      1  C   UNL d   1       1.393  -1.433  -3.987  0.00  0.00    -0.033 A 
ATOM      2  C1  UNL d   1       0.353  -1.758  -3.113  0.00  0.00     0.039 A 
ATOM      3  C2  UNL d   1       0.134  -0.988  -1.969  0.00  0.00    -0.080 A 
ATOM      4  C3  UNL d   1       0.960   0.103  -1.711  0.00  0.00     0.150 A 
ATOM      5  C4  UNL d   1       1.995   0.435  -2.580  0.00  0.00    -0.007 A 
ATOM      6  C5  UNL d   1       2.213  -0.336  -3.721  0.00  0.00     0.039 A 
ENDROOT
BRANCH   4   7
ATOM      7  O   UNL d   1       0.788   0.881  -0.606  0.00  0.00    -0.526 OA
ATOM      8  H5  UNL d   1       0.054   0.516  -0.083  0.00  0.00     0.418 HD
ENDBRANCH   4   7
TORSDOF 1
ENDMDL
