MODEL 1
REMARK minimizedAffinity -3.00814843
REMARK minimizedRMSD -1
REMARK  1 active torsions:
REMARK  status: ('A' for Active; 'I' for Inactive)
REMARK    1  A    between atoms: C3_4  and  O_7 
ROOT
ATOM      1  C   UNL d   1       0.247   0.054   3.065  0.00  0.00    -0.033 A 
ATOM      2  C1  UNL d   1       1.318   0.077   2.169  0.00  0.00     0.039 A 
ATOM      3  C2  UNL d   1       1.079   0.143   0.795  0.00  0.00    -0.080 A 
ATOM      4  C3  UNL d   1      -0.233   0.186   0.330  0.00  0.00     0.150 A 
ATOM      5  C4  UNL d   1      -1.304   0.167   1.217  0.00  0.00    -0.007 A 
ATOM      6  C5  UNL d   1      -1.064   0.100   2.589  0.00  0.00     0.039 A 
ENDROOT
BRANCH   4   7
ATOM      7  O   UNL d   1      -0.515   0.245  -1.002  0.00  0.00    -0.526 OA
ATOM      8  H5  UNL d   1       0.322   0.223  -1.496  0.00  0.00     0.418 HD
ENDBRANCH   4   7
TORSDOF 1
ENDMDL
