MODEL 1
REMARK minimizedAffinity -2.36017585
REMARK minimizedRMSD -1
REMARK  1 active torsions:
REMARK  status: ('A' for Active; 'I' for Inactive)
REMARK    1  A    between atoms: C3_4  and  O_7 
ROOT
ATOM      1  C   UNL d   1       0.946  -0.987  -3.824  0.00  0.00    -0.033 A 
ATOM      2  C1  UNL d   1      -0.248  -0.876  -3.108  0.00  0.00     0.039 A 
ATOM      3  C2  UNL d   1      -0.283  -0.153  -1.914  0.00  0.00    -0.080 A 
ATOM      4  C3  UNL d   1       0.881   0.453  -1.448  0.00  0.00     0.150 A 
ATOM      5  C4  UNL d   1       2.072   0.350  -2.158  0.00  0.00    -0.007 A 
ATOM      6  C5  UNL d   1       2.105  -0.373  -3.350  0.00  0.00     0.039 A 
ENDROOT
BRANCH   4   7
ATOM      7  O   UNL d   1       0.897   1.165  -0.285  0.00  0.00    -0.526 OA
ATOM      8  H5  UNL d   1       0.010   1.126   0.111  0.00  0.00     0.418 HD
ENDBRANCH   4   7
TORSDOF 1
ENDMDL
