MODEL 1
REMARK minimizedAffinity -3.18156815
REMARK minimizedRMSD -1
REMARK  1 active torsions:
REMARK  status: ('A' for Active; 'I' for Inactive)
REMARK    1  A    between atoms: C3_4  and  O_7 
ROOT
ATOM      1  C   UNL d   1       1.156  -1.316  -3.833  0.00  0.00    -0.033 A 
ATOM      2  C1  UNL d   1      -0.111  -1.779  -3.469  0.00  0.00     0.039 A 
ATOM      3  C2  UNL d   1      -0.726  -1.298  -2.312  0.00  0.00    -0.080 A 
ATOM      4  C3  UNL d   1      -0.067  -0.355  -1.529  0.00  0.00     0.150 A 
ATOM      5  C4  UNL d   1       1.193   0.114  -1.887  0.00  0.00    -0.007 A 
ATOM      6  C5  UNL d   1       1.807  -0.369  -3.042  0.00  0.00     0.039 A 
ENDROOT
BRANCH   4   7
ATOM      7  O   UNL d   1      -0.625   0.141  -0.388  0.00  0.00    -0.526 OA
ATOM      8  H5  UNL d   1      -1.483  -0.294  -0.252  0.00  0.00     0.418 HD
ENDBRANCH   4   7
TORSDOF 1
ENDMDL
