MODEL 1
REMARK minimizedAffinity -2.4504354
REMARK minimizedRMSD -1
REMARK  1 active torsions:
REMARK  status: ('A' for Active; 'I' for Inactive)
REMARK    1  A    between atoms: C3_4  and  O_7 
ROOT
ATOM      1  C   UNL d   1       0.759  -0.881  -3.603  0.00  0.00    -0.033 A 
ATOM      2  C1  UNL d   1      -0.327  -1.348  -2.860  0.00  0.00     0.039 A 
ATOM      3  C2  UNL d   1      -0.512  -0.916  -1.545  0.00  0.00    -0.080 A 
ATOM      4  C3  UNL d   1       0.393  -0.017  -0.987  0.00  0.00     0.150 A 
ATOM      5  C4  UNL d   1       1.475   0.454  -1.723  0.00  0.00    -0.007 A 
ATOM      6  C5  UNL d   1       1.659   0.021  -3.036  0.00  0.00     0.039 A 
ENDROOT
BRANCH   4   7
ATOM      7  O   UNL d   1       0.256   0.429   0.294  0.00  0.00    -0.526 OA
ATOM      8  H5  UNL d   1      -0.519  -0.003   0.689  0.00  0.00     0.418 HD
ENDBRANCH   4   7
TORSDOF 1
ENDMDL
