MODEL 1
REMARK minimizedAffinity -3.79923725
REMARK minimizedRMSD -1
REMARK  1 active torsions:
REMARK  status: ('A' for Active; 'I' for Inactive)
REMARK    1  A    between atoms: C3_4  and  O_7 
ROOT
ATOM      1  C   UNL d   1       1.636   0.009   1.327  0.00  0.00    -0.033 A 
ATOM      2  C1  UNL d   1       0.976  -0.230   2.534  0.00  0.00     0.039 A 
ATOM      3  C2  UNL d   1      -0.419  -0.274   2.572  0.00  0.00    -0.080 A 
ATOM      4  C3  UNL d   1      -1.141  -0.078   1.398  0.00  0.00     0.150 A 
ATOM      5  C4  UNL d   1      -0.491   0.157   0.192  0.00  0.00    -0.007 A 
ATOM      6  C5  UNL d   1       0.902   0.201   0.155  0.00  0.00     0.039 A 
ENDROOT
BRANCH   4   7
ATOM      7  O   UNL d   1      -2.504  -0.106   1.387  0.00  0.00    -0.526 OA
ATOM      8  H5  UNL d   1      -2.817  -0.249   2.296  0.00  0.00     0.418 HD
ENDBRANCH   4   7
TORSDOF 1
ENDMDL
