MODEL 1
REMARK minimizedAffinity -4.45695353
REMARK minimizedRMSD -1
REMARK  1 active torsions:
REMARK  status: ('A' for Active; 'I' for Inactive)
REMARK    1  A    between atoms: C3_4  and  O_7 
ROOT
ATOM      1  C   UNL d   1      -1.527   0.802   2.148  0.00  0.00    -0.033 A 
ATOM      2  C1  UNL d   1      -2.241   0.934   0.956  0.00  0.00     0.039 A 
ATOM      3  C2  UNL d   1      -1.569   0.912  -0.268  0.00  0.00    -0.080 A 
ATOM      4  C3  UNL d   1      -0.186   0.757  -0.285  0.00  0.00     0.150 A 
ATOM      5  C4  UNL d   1       0.531   0.621   0.899  0.00  0.00    -0.007 A 
ATOM      6  C5  UNL d   1      -0.141   0.644   2.120  0.00  0.00     0.039 A 
ENDROOT
BRANCH   4   7
ATOM      7  O   UNL d   1       0.514   0.734  -1.455  0.00  0.00    -0.526 OA
ATOM      8  H5  UNL d   1      -0.109   0.868  -2.189  0.00  0.00     0.418 HD
ENDBRANCH   4   7
TORSDOF 1
ENDMDL
