MODEL 1
REMARK minimizedAffinity -0.61552757
REMARK minimizedRMSD -1
REMARK  1 active torsions:
REMARK  status: ('A' for Active; 'I' for Inactive)
REMARK    1  A    between atoms: C3_4  and  O_7 
ROOT
ATOM      1  C   UNL d   1       1.348  -1.173  -3.915  0.00  0.00    -0.033 A 
ATOM      2  C1  UNL d   1       2.197  -0.366  -3.154  0.00  0.00     0.039 A 
ATOM      3  C2  UNL d   1       1.798   0.074  -1.891  0.00  0.00    -0.080 A 
ATOM      4  C3  UNL d   1       0.550  -0.301  -1.400  0.00  0.00     0.150 A 
ATOM      5  C4  UNL d   1      -0.299  -1.107  -2.150  0.00  0.00    -0.007 A 
ATOM      6  C5  UNL d   1       0.101  -1.544  -3.413  0.00  0.00     0.039 A 
ENDROOT
BRANCH   4   7
ATOM      7  O   UNL d   1       0.115   0.108  -0.174  0.00  0.00    -0.526 OA
ATOM      8  H5  UNL d   1       0.794   0.682   0.218  0.00  0.00     0.418 HD
ENDBRANCH   4   7
TORSDOF 1
ENDMDL
