MODEL 1
REMARK minimizedAffinity -2.01911426
REMARK minimizedRMSD -1
REMARK  1 active torsions:
REMARK  status: ('A' for Active; 'I' for Inactive)
REMARK    1  A    between atoms: C3_4  and  O_7 
ROOT
ATOM      1  C   UNL d   1      -3.122   1.110   2.563  0.00  0.00    -0.033 A 
ATOM      2  C1  UNL d   1      -3.354   2.447   2.893  0.00  0.00     0.039 A 
ATOM      3  C2  UNL d   1      -2.323   3.227   3.419  0.00  0.00    -0.080 A 
ATOM      4  C3  UNL d   1      -1.066   2.660   3.610  0.00  0.00     0.150 A 
ATOM      5  C4  UNL d   1      -0.827   1.330   3.280  0.00  0.00    -0.007 A 
ATOM      6  C5  UNL d   1      -1.858   0.552   2.756  0.00  0.00     0.039 A 
ENDROOT
BRANCH   4   7
ATOM      7  O   UNL d   1      -0.030   3.381   4.125  0.00  0.00    -0.526 OA
ATOM      8  H5  UNL d   1      -0.350   4.274   4.332  0.00  0.00     0.418 HD
ENDBRANCH   4   7
TORSDOF 1
ENDMDL
