MODEL 1
REMARK minimizedAffinity -1.3996321
REMARK minimizedRMSD -1
REMARK  1 active torsions:
REMARK  status: ('A' for Active; 'I' for Inactive)
REMARK    1  A    between atoms: C3_4  and  O_7 
ROOT
ATOM      1  C   UNL d   1       1.136  -1.519  -3.975  0.00  0.00    -0.033 A 
ATOM      2  C1  UNL d   1       1.987  -0.574  -3.399  0.00  0.00     0.039 A 
ATOM      3  C2  UNL d   1       1.590   0.120  -2.254  0.00  0.00    -0.080 A 
ATOM      4  C3  UNL d   1       0.342  -0.141  -1.695  0.00  0.00     0.150 A 
ATOM      5  C4  UNL d   1      -0.509  -1.085  -2.262  0.00  0.00    -0.007 A 
ATOM      6  C5  UNL d   1      -0.111  -1.776  -3.406  0.00  0.00     0.039 A 
ENDROOT
BRANCH   4   7
ATOM      7  O   UNL d   1      -0.091   0.514  -0.581  0.00  0.00    -0.526 OA
ATOM      8  H5  UNL d   1       0.589   1.156  -0.318  0.00  0.00     0.418 HD
ENDBRANCH   4   7
TORSDOF 1
ENDMDL
