MODEL 1
REMARK minimizedAffinity -1.9155494
REMARK minimizedRMSD -1
REMARK  1 active torsions:
REMARK  status: ('A' for Active; 'I' for Inactive)
REMARK    1  A    between atoms: C3_4  and  O_7 
ROOT
ATOM      1  C   UNL d   1      -0.481   0.275   2.380  0.00  0.00    -0.033 A 
ATOM      2  C1  UNL d   1       0.837  -0.152   2.206  0.00  0.00     0.039 A 
ATOM      3  C2  UNL d   1       1.356  -0.314   0.919  0.00  0.00    -0.080 A 
ATOM      4  C3  UNL d   1       0.548  -0.044  -0.182  0.00  0.00     0.150 A 
ATOM      5  C4  UNL d   1      -0.764   0.386  -0.015  0.00  0.00    -0.007 A 
ATOM      6  C5  UNL d   1      -1.281   0.546   1.270  0.00  0.00     0.039 A 
ENDROOT
BRANCH   4   7
ATOM      7  O   UNL d   1       1.008  -0.192  -1.457  0.00  0.00    -0.526 OA
ATOM      8  H5  UNL d   1       1.921  -0.522  -1.418  0.00  0.00     0.418 HD
ENDBRANCH   4   7
TORSDOF 1
ENDMDL
