MODEL 1
REMARK minimizedAffinity -3.38837433
REMARK minimizedRMSD -1
REMARK  1 active torsions:
REMARK  status: ('A' for Active; 'I' for Inactive)
REMARK    1  A    between atoms: C3_4  and  O_7 
ROOT
ATOM      1  C   UNL d   1       0.951  -0.221   1.096  0.00  0.00    -0.033 A 
ATOM      2  C1  UNL d   1       0.678  -0.076   2.457  0.00  0.00     0.039 A 
ATOM      3  C2  UNL d   1      -0.609   0.262   2.880  0.00  0.00    -0.080 A 
ATOM      4  C3  UNL d   1      -1.612   0.450   1.934  0.00  0.00     0.150 A 
ATOM      5  C4  UNL d   1      -1.348   0.303   0.576  0.00  0.00    -0.007 A 
ATOM      6  C5  UNL d   1      -0.062  -0.033   0.155  0.00  0.00     0.039 A 
ENDROOT
BRANCH   4   7
ATOM      7  O   UNL d   1      -2.883   0.785   2.298  0.00  0.00    -0.526 OA
ATOM      8  H5  UNL d   1      -2.910   0.880   3.265  0.00  0.00     0.418 HD
ENDBRANCH   4   7
TORSDOF 1
ENDMDL
