MODEL 1
REMARK minimizedAffinity -1.8950243
REMARK minimizedRMSD -1
REMARK  1 active torsions:
REMARK  status: ('A' for Active; 'I' for Inactive)
REMARK    1  A    between atoms: C1_2  and  C2_3 
ROOT
ATOM      1  C2  UNL d   1      -0.640   1.018   0.359  0.00  0.00    -0.076 A 
ATOM      2  C3  UNL d   1      -0.428  -0.337   0.664  0.00  0.00     0.004 A 
ATOM      3  C4  UNL d   1       0.387  -1.134  -0.138  0.00  0.00    -0.003 A 
ATOM      4  C5  UNL d   1       1.004  -0.588  -1.258  0.00  0.00     0.000 A 
ATOM      5  C6  UNL d   1       0.819   0.760  -1.566  0.00  0.00     0.000 A 
ATOM      6  C7  UNL d   1       0.013   1.581  -0.758  0.00  0.00    -0.073 A 
ATOM      7  C8  UNL d   1      -0.156   3.026  -1.140  0.00  0.00     0.078 C 
ENDROOT
BRANCH   1   8
ATOM      8  C1  UNL d   1      -1.556   1.826   1.250  0.00  0.00     0.053 C 
ATOM      9  C   UNL d   1      -0.968   2.059   2.633  0.00  0.00     0.018 C 
ENDBRANCH   1   8
TORSDOF 1
ENDMDL
