MODEL 1
REMARK minimizedAffinity -5.85766983
REMARK minimizedRMSD -1
REMARK  1 active torsions:
REMARK  status: ('A' for Active; 'I' for Inactive)
REMARK    1  A    between atoms: C1_2  and  C2_3 
ROOT
ATOM      1  C2  UNL d   1      -0.258   0.533  -0.058  0.00  0.00    -0.076 A 
ATOM      2  C3  UNL d   1      -0.558   1.815  -0.552  0.00  0.00     0.004 A 
ATOM      3  C4  UNL d   1      -1.432   2.660   0.129  0.00  0.00    -0.003 A 
ATOM      4  C5  UNL d   1      -2.020   2.238   1.316  0.00  0.00     0.000 A 
ATOM      5  C6  UNL d   1      -1.721   0.977   1.830  0.00  0.00     0.000 A 
ATOM      6  C7  UNL d   1      -0.829   0.118   1.165  0.00  0.00    -0.073 A 
ATOM      7  C8  UNL d   1      -0.547  -1.233   1.761  0.00  0.00     0.078 C 
ENDROOT
BRANCH   1   8
ATOM      8  C1  UNL d   1       0.676  -0.350  -0.854  0.00  0.00     0.053 C 
ATOM      9  C   UNL d   1      -0.065  -1.414  -1.649  0.00  0.00     0.018 C 
ENDBRANCH   1   8
TORSDOF 1
ENDMDL
