MODEL 1
REMARK minimizedAffinity -1.72849452
REMARK minimizedRMSD -1
REMARK  1 active torsions:
REMARK  status: ('A' for Active; 'I' for Inactive)
REMARK    1  A    between atoms: C1_2  and  C2_3 
ROOT
ATOM      1  C2  UNL d   1       1.195  -3.124  -0.884  0.00  0.00    -0.076 A 
ATOM      2  C3  UNL d   1       1.599  -2.329   0.203  0.00  0.00     0.004 A 
ATOM      3  C4  UNL d   1       1.623  -0.939   0.105  0.00  0.00    -0.003 A 
ATOM      4  C5  UNL d   1       1.244  -0.321  -1.081  0.00  0.00     0.000 A 
ATOM      5  C6  UNL d   1       0.824  -1.093  -2.164  0.00  0.00     0.000 A 
ATOM      6  C7  UNL d   1       0.778  -2.495  -2.076  0.00  0.00    -0.073 A 
ATOM      7  C8  UNL d   1       0.323  -3.279  -3.277  0.00  0.00     0.078 C 
ENDROOT
BRANCH   1   8
ATOM      8  C1  UNL d   1       1.215  -4.628  -0.728  0.00  0.00     0.053 C 
ATOM      9  C   UNL d   1       2.001  -5.077   0.495  0.00  0.00     0.018 C 
ENDBRANCH   1   8
TORSDOF 1
ENDMDL
