MODEL 1
REMARK minimizedAffinity 0.115145847
REMARK minimizedRMSD -1
REMARK  1 active torsions:
REMARK  status: ('A' for Active; 'I' for Inactive)
REMARK    1  A    between atoms: C1_2  and  C2_3 
ROOT
ATOM      1  C2  UNL d   1       0.749  -2.219  -1.508  0.00  0.00    -0.076 A 
ATOM      2  C3  UNL d   1      -0.338  -1.775  -2.280  0.00  0.00     0.004 A 
ATOM      3  C4  UNL d   1      -1.091  -2.670  -3.039  0.00  0.00    -0.003 A 
ATOM      4  C5  UNL d   1      -0.770  -4.022  -3.037  0.00  0.00     0.000 A 
ATOM      5  C6  UNL d   1       0.294  -4.483  -2.262  0.00  0.00     0.000 A 
ATOM      6  C7  UNL d   1       1.053  -3.597  -1.479  0.00  0.00    -0.073 A 
ATOM      7  C8  UNL d   1       2.194  -4.147  -0.667  0.00  0.00     0.078 C 
ENDROOT
BRANCH   1   8
ATOM      8  C1  UNL d   1       1.547  -1.199  -0.727  0.00  0.00     0.053 C 
ATOM      9  C   UNL d   1       0.724   0.026  -0.358  0.00  0.00     0.018 C 
ENDBRANCH   1   8
TORSDOF 1
ENDMDL
