MODEL 1
REMARK minimizedAffinity -4.77300215
REMARK minimizedRMSD -1
REMARK  1 active torsions:
REMARK  status: ('A' for Active; 'I' for Inactive)
REMARK    1  A    between atoms: C1_2  and  C2_3 
ROOT
ATOM      1  C2  UNL d   1      -0.057   0.142   0.363  0.00  0.00    -0.076 A 
ATOM      2  C3  UNL d   1      -0.420   1.074  -0.625  0.00  0.00     0.004 A 
ATOM      3  C4  UNL d   1      -1.415   2.021  -0.386  0.00  0.00    -0.003 A 
ATOM      4  C5  UNL d   1      -2.062   2.052   0.844  0.00  0.00     0.000 A 
ATOM      5  C6  UNL d   1      -1.702   1.146   1.841  0.00  0.00     0.000 A 
ATOM      6  C7  UNL d   1      -0.691   0.195   1.623  0.00  0.00    -0.073 A 
ATOM      7  C8  UNL d   1      -0.348  -0.762   2.732  0.00  0.00     0.078 C 
ENDROOT
BRANCH   1   8
ATOM      8  C1  UNL d   1       1.009  -0.880   0.037  0.00  0.00     0.053 C 
ATOM      9  C   UNL d   1       0.606  -1.799  -1.105  0.00  0.00     0.018 C 
ENDBRANCH   1   8
TORSDOF 1
ENDMDL
