MODEL 1
REMARK minimizedAffinity -1.67473423
REMARK minimizedRMSD -1
REMARK  1 active torsions:
REMARK  status: ('A' for Active; 'I' for Inactive)
REMARK    1  A    between atoms: C1_2  and  C2_3 
ROOT
ATOM      1  C2  UNL d   1      -0.236   0.540  -0.347  0.00  0.00    -0.076 A 
ATOM      2  C3  UNL d   1      -0.276   1.821  -0.923  0.00  0.00     0.004 A 
ATOM      3  C4  UNL d   1      -0.746   2.918  -0.202  0.00  0.00    -0.003 A 
ATOM      4  C5  UNL d   1      -1.184   2.750   1.108  0.00  0.00     0.000 A 
ATOM      5  C6  UNL d   1      -1.134   1.489   1.701  0.00  0.00     0.000 A 
ATOM      6  C7  UNL d   1      -0.647   0.376   0.993  0.00  0.00    -0.073 A 
ATOM      7  C8  UNL d   1      -0.622  -0.962   1.680  0.00  0.00     0.078 C 
ENDROOT
BRANCH   1   8
ATOM      8  C1  UNL d   1       0.259  -0.616  -1.187  0.00  0.00     0.053 C 
ATOM      9  C   UNL d   1       1.771  -0.773  -1.129  0.00  0.00     0.018 C 
ENDBRANCH   1   8
TORSDOF 1
ENDMDL
