MODEL 1
REMARK minimizedAffinity -6.42579079
REMARK minimizedRMSD -1
REMARK  1 active torsions:
REMARK  status: ('A' for Active; 'I' for Inactive)
REMARK    1  A    between atoms: C1_2  and  C2_3 
ROOT
ATOM      1  C2  UNL d   1      -0.030   0.737   0.154  0.00  0.00    -0.076 A 
ATOM      2  C3  UNL d   1      -0.593  -0.095   1.138  0.00  0.00     0.004 A 
ATOM      3  C4  UNL d   1      -1.589   0.376   1.991  0.00  0.00    -0.003 A 
ATOM      4  C5  UNL d   1      -2.040   1.686   1.873  0.00  0.00     0.000 A 
ATOM      5  C6  UNL d   1      -1.506   2.520   0.890  0.00  0.00     0.000 A 
ATOM      6  C7  UNL d   1      -0.512   2.056   0.012  0.00  0.00    -0.073 A 
ATOM      7  C8  UNL d   1       0.033   2.999  -1.025  0.00  0.00     0.078 C 
ENDROOT
BRANCH   1   8
ATOM      8  C1  UNL d   1       1.067   0.179  -0.725  0.00  0.00     0.053 C 
ATOM      9  C   UNL d   1       0.822  -1.271  -1.113  0.00  0.00     0.018 C 
ENDBRANCH   1   8
TORSDOF 1
ENDMDL
