MODEL 1
REMARK minimizedAffinity -2.1483109
REMARK minimizedRMSD -1
REMARK  1 active torsions:
REMARK  status: ('A' for Active; 'I' for Inactive)
REMARK    1  A    between atoms: C1_2  and  C2_3 
ROOT
ATOM      1  C2  UNL d   1      -0.975   1.030   0.135  0.00  0.00    -0.076 A 
ATOM      2  C3  UNL d   1      -0.663  -0.142   0.846  0.00  0.00     0.004 A 
ATOM      3  C4  UNL d   1       0.271  -1.052   0.353  0.00  0.00    -0.003 A 
ATOM      4  C5  UNL d   1       0.908  -0.805  -0.857  0.00  0.00     0.000 A 
ATOM      5  C6  UNL d   1       0.624   0.361  -1.567  0.00  0.00     0.000 A 
ATOM      6  C7  UNL d   1      -0.302   1.297  -1.077  0.00  0.00    -0.073 A 
ATOM      7  C8  UNL d   1      -0.575   2.535  -1.886  0.00  0.00     0.078 C 
ENDROOT
BRANCH   1   8
ATOM      8  C1  UNL d   1      -2.015   1.967   0.705  0.00  0.00     0.053 C 
ATOM      9  C   UNL d   1      -1.586   2.578   2.030  0.00  0.00     0.018 C 
ENDBRANCH   1   8
TORSDOF 1
ENDMDL
