MODEL 1
REMARK minimizedAffinity -4.60963154
REMARK minimizedRMSD -1
REMARK  1 active torsions:
REMARK  status: ('A' for Active; 'I' for Inactive)
REMARK    1  A    between atoms: C1_2  and  C2_3 
ROOT
ATOM      1  C2  UNL d   1      -0.295   0.091   0.335  0.00  0.00    -0.076 A 
ATOM      2  C3  UNL d   1      -1.091   0.979  -0.410  0.00  0.00     0.004 A 
ATOM      3  C4  UNL d   1      -2.039   1.788   0.214  0.00  0.00    -0.003 A 
ATOM      4  C5  UNL d   1      -2.206   1.723   1.593  0.00  0.00     0.000 A 
ATOM      5  C6  UNL d   1      -1.412   0.862   2.349  0.00  0.00     0.000 A 
ATOM      6  C7  UNL d   1      -0.441   0.051   1.738  0.00  0.00    -0.073 A 
ATOM      7  C8  UNL d   1       0.383  -0.864   2.602  0.00  0.00     0.078 C 
ENDROOT
BRANCH   1   8
ATOM      8  C1  UNL d   1       0.698  -0.781  -0.399  0.00  0.00     0.053 C 
ATOM      9  C   UNL d   1       1.687   0.028  -1.224  0.00  0.00     0.018 C 
ENDBRANCH   1   8
TORSDOF 1
ENDMDL
