MODEL 1
REMARK minimizedAffinity -3.43829584
REMARK minimizedRMSD -1
REMARK  1 active torsions:
REMARK  status: ('A' for Active; 'I' for Inactive)
REMARK    1  A    between atoms: C1_2  and  C2_3 
ROOT
ATOM      1  C2  UNL d   1       0.315  -0.218   0.366  0.00  0.00    -0.076 A 
ATOM      2  C3  UNL d   1       0.063  -0.858   1.592  0.00  0.00     0.004 A 
ATOM      3  C4  UNL d   1      -0.783  -0.285   2.540  0.00  0.00    -0.003 A 
ATOM      4  C5  UNL d   1      -1.392   0.937   2.277  0.00  0.00     0.000 A 
ATOM      5  C6  UNL d   1      -1.168   1.577   1.058  0.00  0.00     0.000 A 
ATOM      6  C7  UNL d   1      -0.331   1.005   0.085  0.00  0.00    -0.073 A 
ATOM      7  C8  UNL d   1      -0.120   1.742  -1.209  0.00  0.00     0.078 C 
ENDROOT
BRANCH   1   8
ATOM      8  C1  UNL d   1       1.263  -0.874  -0.612  0.00  0.00     0.053 C 
ATOM      9  C   UNL d   1       0.581  -1.935  -1.462  0.00  0.00     0.018 C 
ENDBRANCH   1   8
TORSDOF 1
ENDMDL
