MODEL 1
REMARK minimizedAffinity -4.29925251
REMARK minimizedRMSD -1
REMARK  1 active torsions:
REMARK  status: ('A' for Active; 'I' for Inactive)
REMARK    1  A    between atoms: C1_2  and  C2_3 
ROOT
ATOM      1  C2  UNL d   1      -0.024   0.070  -0.110  0.00  0.00    -0.076 A 
ATOM      2  C3  UNL d   1      -0.947   0.099   0.950  0.00  0.00     0.004 A 
ATOM      3  C4  UNL d   1      -1.531   1.296   1.360  0.00  0.00    -0.003 A 
ATOM      4  C5  UNL d   1      -1.201   2.484   0.718  0.00  0.00     0.000 A 
ATOM      5  C6  UNL d   1      -0.300   2.471  -0.347  0.00  0.00     0.000 A 
ATOM      6  C7  UNL d   1       0.285   1.270  -0.784  0.00  0.00    -0.073 A 
ATOM      7  C8  UNL d   1       1.254   1.316  -1.933  0.00  0.00     0.078 C 
ENDROOT
BRANCH   1   8
ATOM      8  C1  UNL d   1       0.597  -1.255  -0.494  0.00  0.00     0.053 C 
ATOM      9  C   UNL d   1      -0.097  -1.900  -1.683  0.00  0.00     0.018 C 
ENDBRANCH   1   8
TORSDOF 1
ENDMDL
