MODEL 1
REMARK minimizedAffinity -2.18708014
REMARK minimizedRMSD -1
REMARK  0 active torsions:
REMARK  status: ('A' for Active; 'I' for Inactive)
ROOT
ATOM      1  C   UNL d   1       4.555  -5.228  -5.993  0.00  0.00     0.023 A 
ATOM      2  C1  UNL d   1       5.206  -4.462  -5.025  0.00  0.00     0.003 A 
ATOM      3  C2  UNL d   1       4.745  -4.462  -3.707  0.00  0.00     0.048 A 
ATOM      4  C3  UNL d   1       3.634  -5.231  -3.363  0.00  0.00     0.023 A 
ATOM      5  C4  UNL d   1       2.981  -6.000  -4.328  0.00  0.00     0.048 A 
ATOM      6  C5  UNL d   1       3.444  -5.996  -5.645  0.00  0.00     0.003 A 
ATOM      7  I   UNL d   1       2.946  -5.234  -1.402  0.00  0.00    -0.146 I 
ENDROOT
TORSDOF 0
ENDMDL
