MODEL 1
REMARK minimizedAffinity -0.183351129
REMARK minimizedRMSD -1
REMARK  0 active torsions:
REMARK  status: ('A' for Active; 'I' for Inactive)
ROOT
ATOM      1  C   UNL d   1       0.936   3.142   0.108  0.00  0.00     0.023 A 
ATOM      2  C1  UNL d   1       1.946   2.212   0.355  0.00  0.00     0.003 A 
ATOM      3  C2  UNL d   1       1.622   0.931   0.807  0.00  0.00     0.048 A 
ATOM      4  C3  UNL d   1       0.286   0.586   1.009  0.00  0.00     0.023 A 
ATOM      5  C4  UNL d   1      -0.728   1.513   0.762  0.00  0.00     0.048 A 
ATOM      6  C5  UNL d   1      -0.399   2.793   0.311  0.00  0.00     0.003 A 
ATOM      7  I   UNL d   1      -0.199  -1.320   1.681  0.00  0.00    -0.146 I 
ENDROOT
TORSDOF 0
ENDMDL
