MODEL 1
REMARK minimizedAffinity 7.51983261
REMARK minimizedRMSD -1
REMARK  0 active torsions:
REMARK  status: ('A' for Active; 'I' for Inactive)
ROOT
ATOM      1  C   UNL d   1       2.931   2.422   3.173  0.00  0.00     0.023 A 
ATOM      2  C1  UNL d   1       2.730   2.441   1.792  0.00  0.00     0.003 A 
ATOM      3  C2  UNL d   1       2.132   1.350   1.158  0.00  0.00     0.048 A 
ATOM      4  C3  UNL d   1       1.736   0.245   1.910  0.00  0.00     0.023 A 
ATOM      5  C4  UNL d   1       1.935   0.222   3.292  0.00  0.00     0.048 A 
ATOM      6  C5  UNL d   1       2.534   1.314   3.921  0.00  0.00     0.003 A 
ATOM      7  I   UNL d   1       0.845  -1.380   0.968  0.00  0.00    -0.146 I 
ENDROOT
TORSDOF 0
ENDMDL
