MODEL 1
REMARK minimizedAffinity -2.73239231
REMARK minimizedRMSD -1
REMARK  0 active torsions:
REMARK  status: ('A' for Active; 'I' for Inactive)
ROOT
ATOM      1  C   UNL d   1       4.530  -4.393  -4.040  0.00  0.00     0.023 A 
ATOM      2  C1  UNL d   1       4.488  -3.264  -3.222  0.00  0.00     0.003 A 
ATOM      3  C2  UNL d   1       4.277  -2.002  -3.782  0.00  0.00     0.048 A 
ATOM      4  C3  UNL d   1       4.109  -1.877  -5.160  0.00  0.00     0.023 A 
ATOM      5  C4  UNL d   1       4.150  -3.004  -5.983  0.00  0.00     0.048 A 
ATOM      6  C5  UNL d   1       4.362  -4.263  -5.419  0.00  0.00     0.003 A 
ATOM      7  I   UNL d   1       3.796   0.000  -5.996  0.00  0.00    -0.146 I 
ENDROOT
TORSDOF 0
ENDMDL
