MODEL 1
REMARK minimizedAffinity 8.75049591
REMARK minimizedRMSD -1
REMARK  0 active torsions:
REMARK  status: ('A' for Active; 'I' for Inactive)
ROOT
ATOM      1  C   UNL d   1       1.762   2.157   1.139  0.00  0.00     0.023 A 
ATOM      2  C1  UNL d   1       2.379   1.269   2.021  0.00  0.00     0.003 A 
ATOM      3  C2  UNL d   1       1.891  -0.032   2.159  0.00  0.00     0.048 A 
ATOM      4  C3  UNL d   1       0.786  -0.439   1.413  0.00  0.00     0.023 A 
ATOM      5  C4  UNL d   1       0.166   0.446   0.529  0.00  0.00     0.048 A 
ATOM      6  C5  UNL d   1       0.657   1.746   0.394  0.00  0.00     0.003 A 
ATOM      7  I   UNL d   1       0.057  -2.375   1.617  0.00  0.00    -0.146 I 
ENDROOT
TORSDOF 0
ENDMDL
