MODEL 1
REMARK minimizedAffinity -2.81806278
REMARK minimizedRMSD -1
REMARK  0 active torsions:
REMARK  status: ('A' for Active; 'I' for Inactive)
ROOT
ATOM      1  C4' PXY d   1      -0.612   1.278  -0.645  0.00  0.00     0.077 C 
ATOM      2  C1' PXY d   1       1.585  -3.677   1.362  0.00  0.00     0.077 C 
ATOM      3  C1  PXY d   1       1.018  -2.371   0.842  0.00  0.00    -0.082 A 
ATOM      4  C2  PXY d   1      -0.250  -2.310   0.471  0.00  0.00     0.003 A 
ATOM      5  C3  PXY d   1      -0.771  -1.146  -0.031  0.00  0.00     0.003 A 
ATOM      6  C4  PXY d   1       0.000  -0.017  -0.105  0.00  0.00    -0.082 A 
ATOM      7  C5  PXY d   1       1.293  -0.068   0.281  0.00  0.00     0.003 A 
ATOM      8  C6  PXY d   1       1.814  -1.271   0.749  0.00  0.00     0.003 A 
ENDROOT
TORSDOF 0
ENDMDL
