MODEL 1
REMARK minimizedAffinity -5.47260332
REMARK minimizedRMSD -1
REMARK  0 active torsions:
REMARK  status: ('A' for Active; 'I' for Inactive)
ROOT
ATOM      1  C4' PXY d   1      -1.712   1.567  -1.790  0.00  0.00     0.077 C 
ATOM      2  C1' PXY d   1       1.994  -1.663   1.252  0.00  0.00     0.077 C 
ATOM      3  C1  PXY d   1       1.012  -0.825   0.456  0.00  0.00    -0.082 A 
ATOM      4  C2  PXY d   1       1.465   0.040  -0.437  0.00  0.00     0.003 A 
ATOM      5  C3  PXY d   1       0.593   0.828  -1.143  0.00  0.00     0.003 A 
ATOM      6  C4  PXY d   1      -0.759   0.693  -0.970  0.00  0.00    -0.082 A 
ATOM      7  C5  PXY d   1      -1.228  -0.194  -0.068  0.00  0.00     0.003 A 
ATOM      8  C6  PXY d   1      -0.325  -0.956   0.668  0.00  0.00     0.003 A 
ENDROOT
TORSDOF 0
ENDMDL
