MODEL 1
REMARK minimizedAffinity -3.42984533
REMARK minimizedRMSD -1
REMARK  0 active torsions:
REMARK  status: ('A' for Active; 'I' for Inactive)
ROOT
ATOM      1  C4' PXY d   1      -2.090   1.201  -1.537  0.00  0.00     0.077 C 
ATOM      2  C1' PXY d   1       2.646  -0.936   0.998  0.00  0.00     0.077 C 
ATOM      3  C1  PXY d   1       1.406  -0.364   0.339  0.00  0.00    -0.082 A 
ATOM      4  C2  PXY d   1       0.464  -1.182  -0.103  0.00  0.00     0.003 A 
ATOM      5  C3  PXY d   1      -0.649  -0.683  -0.729  0.00  0.00     0.003 A 
ATOM      6  C4  PXY d   1      -0.825   0.669  -0.857  0.00  0.00    -0.082 A 
ATOM      7  C5  PXY d   1       0.126   1.510  -0.399  0.00  0.00     0.003 A 
ATOM      8  C6  PXY d   1       1.268   0.982   0.197  0.00  0.00     0.003 A 
ENDROOT
TORSDOF 0
ENDMDL
