MODEL 1
REMARK minimizedAffinity 2.8637116
REMARK minimizedRMSD -1
REMARK  0 active torsions:
REMARK  status: ('A' for Active; 'I' for Inactive)
ROOT
ATOM      1  C4' PXY d   1      -0.623  -0.546   0.940  0.00  0.00     0.077 C 
ATOM      2  C1' PXY d   1      -1.884   2.903  -3.524  0.00  0.00     0.077 C 
ATOM      3  C1  PXY d   1      -1.541   2.001  -2.355  0.00  0.00    -0.082 A 
ATOM      4  C2  PXY d   1      -2.368   1.025  -2.017  0.00  0.00     0.003 A 
ATOM      5  C3  PXY d   1      -2.088   0.220  -0.943  0.00  0.00     0.003 A 
ATOM      6  C4  PXY d   1      -0.924   0.383  -0.240  0.00  0.00    -0.082 A 
ATOM      7  C5  PXY d   1      -0.071   1.369  -0.585  0.00  0.00     0.003 A 
ATOM      8  C6  PXY d   1      -0.393   2.202  -1.653  0.00  0.00     0.003 A 
ENDROOT
TORSDOF 0
ENDMDL
