MODEL 1
REMARK minimizedAffinity -3.21470046
REMARK minimizedRMSD -1
REMARK  0 active torsions:
REMARK  status: ('A' for Active; 'I' for Inactive)
ROOT
ATOM      1  C4' PXY d   1      -0.825   1.330  -1.127  0.00  0.00     0.077 C 
ATOM      2  C1' PXY d   1       1.753  -3.107   1.534  0.00  0.00     0.077 C 
ATOM      3  C1  PXY d   1       1.088  -1.939   0.833  0.00  0.00    -0.082 A 
ATOM      4  C2  PXY d   1      -0.130  -1.568   1.191  0.00  0.00     0.003 A 
ATOM      5  C3  PXY d   1      -0.758  -0.534   0.546  0.00  0.00     0.003 A 
ATOM      6  C4  PXY d   1      -0.112   0.162  -0.440  0.00  0.00    -0.082 A 
ATOM      7  C5  PXY d   1       1.135  -0.204  -0.804  0.00  0.00     0.003 A 
ATOM      8  C6  PXY d   1       1.740  -1.282  -0.165  0.00  0.00     0.003 A 
ENDROOT
TORSDOF 0
ENDMDL
