MODEL 1
REMARK minimizedAffinity -3.73744965
REMARK minimizedRMSD -1
REMARK  0 active torsions:
REMARK  status: ('A' for Active; 'I' for Inactive)
ROOT
ATOM      1  C4' PXY d   1       3.126  -0.837  -0.809  0.00  0.00     0.077 C 
ATOM      2  C1' PXY d   1      -1.764  -2.190   1.960  0.00  0.00     0.077 C 
ATOM      3  C1  PXY d   1      -0.475  -1.845   1.240  0.00  0.00    -0.082 A 
ATOM      4  C2  PXY d   1      -0.276  -0.609   0.812  0.00  0.00     0.003 A 
ATOM      5  C3  PXY d   1       0.870  -0.288   0.131  0.00  0.00     0.003 A 
ATOM      6  C4  PXY d   1       1.844  -1.228  -0.069  0.00  0.00    -0.082 A 
ATOM      7  C5  PXY d   1       1.653  -2.489   0.374  0.00  0.00     0.003 A 
ATOM      8  C6  PXY d   1       0.465  -2.805   1.027  0.00  0.00     0.003 A 
ENDROOT
TORSDOF 0
ENDMDL
