MODEL 1
REMARK minimizedAffinity -3.02288604
REMARK minimizedRMSD -1
REMARK  0 active torsions:
REMARK  status: ('A' for Active; 'I' for Inactive)
ROOT
ATOM      1  C4' PXY d   1       0.558  -1.187   0.488  0.00  0.00     0.077 C 
ATOM      2  C1' PXY d   1      -2.676   2.190  -2.910  0.00  0.00     0.077 C 
ATOM      3  C1  PXY d   1      -1.823   1.315  -2.014  0.00  0.00    -0.082 A 
ATOM      4  C2  PXY d   1      -1.522   0.084  -2.395  0.00  0.00     0.003 A 
ATOM      5  C3  PXY d   1      -0.779  -0.731  -1.581  0.00  0.00     0.003 A 
ATOM      6  C4  PXY d   1      -0.293  -0.265  -0.389  0.00  0.00    -0.082 A 
ATOM      7  C5  PXY d   1      -0.586   0.994   0.002  0.00  0.00     0.003 A 
ATOM      8  C6  PXY d   1      -1.377   1.792  -0.820  0.00  0.00     0.003 A 
ENDROOT
TORSDOF 0
ENDMDL
