MODEL 1
REMARK minimizedAffinity -3.05102944
REMARK minimizedRMSD -1
REMARK  0 active torsions:
REMARK  status: ('A' for Active; 'I' for Inactive)
ROOT
ATOM      1  C4' PXY d   1       1.312  -3.484   0.641  0.00  0.00     0.077 C 
ATOM      2  C1' PXY d   1      -0.568   1.925  -0.148  0.00  0.00     0.077 C 
ATOM      3  C1  PXY d   1      -0.064   0.509   0.052  0.00  0.00    -0.082 A 
ATOM      4  C2  PXY d   1      -0.929  -0.468   0.270  0.00  0.00     0.003 A 
ATOM      5  C3  PXY d   1      -0.489  -1.749   0.485  0.00  0.00     0.003 A 
ATOM      6  C4  PXY d   1       0.848  -2.041   0.424  0.00  0.00    -0.082 A 
ATOM      7  C5  PXY d   1       1.735  -1.051   0.192  0.00  0.00     0.003 A 
ATOM      8  C6  PXY d   1       1.271   0.249   0.017  0.00  0.00     0.003 A 
ENDROOT
TORSDOF 0
ENDMDL
