MODEL 1
REMARK minimizedAffinity -3.0685792
REMARK minimizedRMSD -1
REMARK  0 active torsions:
REMARK  status: ('A' for Active; 'I' for Inactive)
ROOT
ATOM      1  C4' PXY d   1       2.378  -1.501   1.501  0.00  0.00     0.077 C 
ATOM      2  C1' PXY d   1      -1.811   1.295  -1.336  0.00  0.00     0.077 C 
ATOM      3  C1  PXY d   1      -0.722   0.556  -0.585  0.00  0.00    -0.082 A 
ATOM      4  C2  PXY d   1       0.490   1.082  -0.504  0.00  0.00     0.003 A 
ATOM      5  C3  PXY d   1       1.495   0.411   0.144  0.00  0.00     0.003 A 
ATOM      6  C4  PXY d   1       1.245  -0.785   0.761  0.00  0.00    -0.082 A 
ATOM      7  C5  PXY d   1       0.008  -1.323   0.692  0.00  0.00     0.003 A 
ATOM      8  C6  PXY d   1      -0.988  -0.646  -0.005  0.00  0.00     0.003 A 
ENDROOT
TORSDOF 0
ENDMDL
