MODEL 1
REMARK minimizedAffinity -3.47048473
REMARK minimizedRMSD -1
REMARK  0 active torsions:
REMARK  status: ('A' for Active; 'I' for Inactive)
ROOT
ATOM      1  C4' PXY d   1       1.230  -3.252   1.430  0.00  0.00     0.077 C 
ATOM      2  C1' PXY d   1      -0.701   1.573  -1.103  0.00  0.00     0.077 C 
ATOM      3  C1  PXY d   1      -0.204   0.308  -0.430  0.00  0.00    -0.082 A 
ATOM      4  C2  PXY d   1       1.060  -0.054  -0.571  0.00  0.00     0.003 A 
ATOM      5  C3  PXY d   1       1.518  -1.212   0.004  0.00  0.00     0.003 A 
ATOM      6  C4  PXY d   1       0.687  -1.978   0.776  0.00  0.00    -0.082 A 
ATOM      7  C5  PXY d   1      -0.602  -1.609   0.934  0.00  0.00     0.003 A 
ATOM      8  C6  PXY d   1      -1.058  -0.453   0.307  0.00  0.00     0.003 A 
ENDROOT
TORSDOF 0
ENDMDL
