MODEL 1
REMARK minimizedAffinity -5.38565874
REMARK minimizedRMSD -1
REMARK  0 active torsions:
REMARK  status: ('A' for Active; 'I' for Inactive)
ROOT
ATOM      1  C4' PXY d   1       1.247  -3.059   1.376  0.00  0.00     0.077 C 
ATOM      2  C1' PXY d   1      -1.178   1.678  -0.882  0.00  0.00     0.077 C 
ATOM      3  C1  PXY d   1      -0.547   0.439  -0.278  0.00  0.00    -0.082 A 
ATOM      4  C2  PXY d   1       0.500  -0.115  -0.868  0.00  0.00     0.003 A 
ATOM      5  C3  PXY d   1       1.063  -1.255  -0.353  0.00  0.00     0.003 A 
ATOM      6  C4  PXY d   1       0.584  -1.802   0.807  0.00  0.00    -0.082 A 
ATOM      7  C5  PXY d   1      -0.477  -1.235   1.421  0.00  0.00     0.003 A 
ATOM      8  C6  PXY d   1      -1.060  -0.103   0.859  0.00  0.00     0.003 A 
ENDROOT
TORSDOF 0
ENDMDL
