MODEL 1
REMARK minimizedAffinity -4.61886787
REMARK minimizedRMSD -1
REMARK  0 active torsions:
REMARK  status: ('A' for Active; 'I' for Inactive)
ROOT
ATOM      1  C4' PXY d   1      -1.160   1.988  -0.898  0.00  0.00     0.077 C 
ATOM      2  C1' PXY d   1       1.609  -2.890   0.498  0.00  0.00     0.077 C 
ATOM      3  C1  PXY d   1       0.891  -1.604   0.139  0.00  0.00    -0.082 A 
ATOM      4  C2  PXY d   1      -0.374  -1.647  -0.245  0.00  0.00     0.003 A 
ATOM      5  C3  PXY d   1      -1.029  -0.497  -0.603  0.00  0.00     0.003 A 
ATOM      6  C4  PXY d   1      -0.398   0.715  -0.518  0.00  0.00    -0.082 A 
ATOM      7  C5  PXY d   1       0.889   0.768  -0.117  0.00  0.00     0.003 A 
ATOM      8  C6  PXY d   1       1.549  -0.415   0.204  0.00  0.00     0.003 A 
ENDROOT
TORSDOF 0
ENDMDL
