MODEL 1
REMARK minimizedAffinity -4.05703783
REMARK minimizedRMSD -1
REMARK  0 active torsions:
REMARK  status: ('A' for Active; 'I' for Inactive)
ROOT
ATOM      1  C4' PXY d   1      -0.879   1.529  -0.518  0.00  0.00     0.077 C 
ATOM      2  C1' PXY d   1       1.577  -3.284   1.536  0.00  0.00     0.077 C 
ATOM      3  C1  PXY d   1       0.921  -2.027   0.999  0.00  0.00    -0.082 A 
ATOM      4  C2  PXY d   1       1.609  -1.216   0.212  0.00  0.00     0.003 A 
ATOM      5  C3  PXY d   1       1.042  -0.058  -0.257  0.00  0.00     0.003 A 
ATOM      6  C4  PXY d   1      -0.260   0.244   0.040  0.00  0.00    -0.082 A 
ATOM      7  C5  PXY d   1      -0.972  -0.584   0.833  0.00  0.00     0.003 A 
ATOM      8  C6  PXY d   1      -0.365  -1.733   1.332  0.00  0.00     0.003 A 
ENDROOT
TORSDOF 0
ENDMDL
