MODEL 1
REMARK minimizedAffinity -3.73470426
REMARK minimizedRMSD -1
REMARK  0 active torsions:
REMARK  status: ('A' for Active; 'I' for Inactive)
ROOT
ATOM      1  C4' PXY d   1      -1.369   1.531  -0.712  0.00  0.00     0.077 C 
ATOM      2  C1' PXY d   1       1.793  -3.095   0.708  0.00  0.00     0.077 C 
ATOM      3  C1  PXY d   1       0.973  -1.874   0.341  0.00  0.00    -0.082 A 
ATOM      4  C2  PXY d   1      -0.322  -2.004   0.100  0.00  0.00     0.003 A 
ATOM      5  C3  PXY d   1      -1.072  -0.916  -0.263  0.00  0.00     0.003 A 
ATOM      6  C4  PXY d   1      -0.503   0.328  -0.329  0.00  0.00    -0.082 A 
ATOM      7  C5  PXY d   1       0.815   0.470  -0.074  0.00  0.00     0.003 A 
ATOM      8  C6  PXY d   1       1.568  -0.654   0.253  0.00  0.00     0.003 A 
ENDROOT
TORSDOF 0
ENDMDL
