MODEL 1
REMARK minimizedAffinity -3.7228384
REMARK minimizedRMSD -1
REMARK  0 active torsions:
REMARK  status: ('A' for Active; 'I' for Inactive)
ROOT
ATOM      1  C4' PXY d   1      -1.085   1.621  -0.982  0.00  0.00     0.077 C 
ATOM      2  C1' PXY d   1       1.606  -2.853   1.499  0.00  0.00     0.077 C 
ATOM      3  C1  PXY d   1       0.911  -1.673   0.848  0.00  0.00    -0.082 A 
ATOM      4  C2  PXY d   1      -0.390  -1.505   1.017  0.00  0.00     0.003 A 
ATOM      5  C3  PXY d   1      -1.040  -0.462   0.409  0.00  0.00     0.003 A 
ATOM      6  C4  PXY d   1      -0.341   0.450  -0.336  0.00  0.00    -0.082 A 
ATOM      7  C5  PXY d   1       0.989   0.292  -0.505  0.00  0.00     0.003 A 
ATOM      8  C6  PXY d   1       1.623  -0.797   0.087  0.00  0.00     0.003 A 
ENDROOT
TORSDOF 0
ENDMDL
