MODEL 1
REMARK minimizedAffinity -4.70834732
REMARK minimizedRMSD -1
REMARK  0 active torsions:
REMARK  status: ('A' for Active; 'I' for Inactive)
ROOT
ATOM      1  C4' PXY d   1      -0.789   1.641  -0.473  0.00  0.00     0.077 C 
ATOM      2  C1' PXY d   1       1.764  -3.016   1.809  0.00  0.00     0.077 C 
ATOM      3  C1  PXY d   1       1.106  -1.789   1.209  0.00  0.00    -0.082 A 
ATOM      4  C2  PXY d   1      -0.163  -1.529   1.480  0.00  0.00     0.003 A 
ATOM      5  C3  PXY d   1      -0.783  -0.441   0.921  0.00  0.00     0.003 A 
ATOM      6  C4  PXY d   1      -0.082   0.419   0.118  0.00  0.00    -0.082 A 
ATOM      7  C5  PXY d   1       1.216   0.166  -0.154  0.00  0.00     0.003 A 
ATOM      8  C6  PXY d   1       1.815  -0.966   0.390  0.00  0.00     0.003 A 
ENDROOT
TORSDOF 0
ENDMDL
