MODEL 1
REMARK minimizedAffinity -3.7840457
REMARK minimizedRMSD -1
REMARK  0 active torsions:
REMARK  status: ('A' for Active; 'I' for Inactive)
ROOT
ATOM      1  C4' PXY d   1      -0.744   2.057  -1.216  0.00  0.00     0.077 C 
ATOM      2  C1' PXY d   1       1.531  -2.658   1.235  0.00  0.00     0.077 C 
ATOM      3  C1  PXY d   1       0.923  -1.426   0.594  0.00  0.00    -0.082 A 
ATOM      4  C2  PXY d   1       1.634  -0.719  -0.268  0.00  0.00     0.003 A 
ATOM      5  C3  PXY d   1       1.110   0.416  -0.833  0.00  0.00     0.003 A 
ATOM      6  C4  PXY d   1      -0.173   0.801  -0.552  0.00  0.00    -0.082 A 
ATOM      7  C5  PXY d   1      -0.909   0.078   0.319  0.00  0.00     0.003 A 
ATOM      8  C6  PXY d   1      -0.345  -1.047   0.913  0.00  0.00     0.003 A 
ENDROOT
TORSDOF 0
ENDMDL
