MODEL 1
REMARK minimizedAffinity 3.3742826
REMARK minimizedRMSD -1
REMARK  0 active torsions:
REMARK  status: ('A' for Active; 'I' for Inactive)
ROOT
ATOM      1  C4' PXY d   1      -1.758  -2.237   2.244  0.00  0.00     0.077 C 
ATOM      2  C1' PXY d   1       1.077   2.074  -0.363  0.00  0.00     0.077 C 
ATOM      3  C1  PXY d   1       0.333   0.937   0.309  0.00  0.00    -0.082 A 
ATOM      4  C2  PXY d   1      -0.365   1.172   1.409  0.00  0.00     0.003 A 
ATOM      5  C3  PXY d   1      -1.018   0.149   2.047  0.00  0.00     0.003 A 
ATOM      6  C4  PXY d   1      -0.999  -1.117   1.526  0.00  0.00    -0.082 A 
ATOM      7  C5  PXY d   1      -0.298  -1.362   0.399  0.00  0.00     0.003 A 
ATOM      8  C6  PXY d   1       0.391  -0.319  -0.211  0.00  0.00     0.003 A 
ENDROOT
TORSDOF 0
ENDMDL
