MODEL 1
REMARK minimizedAffinity -3.23823905
REMARK minimizedRMSD -1
REMARK  0 active torsions:
REMARK  status: ('A' for Active; 'I' for Inactive)
ROOT
ATOM      1  C4' PXY d   1      -1.957   1.374  -2.102  0.00  0.00     0.077 C 
ATOM      2  C1' PXY d   1       1.651  -1.764   1.146  0.00  0.00     0.077 C 
ATOM      3  C1  PXY d   1       0.702  -0.933   0.304  0.00  0.00    -0.082 A 
ATOM      4  C2  PXY d   1       0.143  -1.467  -0.769  0.00  0.00     0.003 A 
ATOM      5  C3  PXY d   1      -0.693  -0.720  -1.559  0.00  0.00     0.003 A 
ATOM      6  C4  PXY d   1      -1.000   0.570  -1.218  0.00  0.00    -0.082 A 
ATOM      7  C5  PXY d   1      -0.442   1.118  -0.118  0.00  0.00     0.003 A 
ATOM      8  C6  PXY d   1       0.436   0.356   0.648  0.00  0.00     0.003 A 
ENDROOT
TORSDOF 0
ENDMDL
