MODEL 1
REMARK minimizedAffinity -2.30497313
REMARK minimizedRMSD -1
REMARK  0 active torsions:
REMARK  status: ('A' for Active; 'I' for Inactive)
ROOT
ATOM      1  C4' PXY d   1      -0.739   1.914  -0.878  0.00  0.00     0.077 C 
ATOM      2  C1' PXY d   1       0.991  -3.234   1.101  0.00  0.00     0.077 C 
ATOM      3  C1  PXY d   1       0.550  -1.879   0.583  0.00  0.00    -0.082 A 
ATOM      4  C2  PXY d   1      -0.709  -1.501   0.731  0.00  0.00     0.003 A 
ATOM      5  C3  PXY d   1      -1.133  -0.293   0.240  0.00  0.00     0.003 A 
ATOM      6  C4  PXY d   1      -0.247   0.559  -0.362  0.00  0.00    -0.082 A 
ATOM      7  C5  PXY d   1       1.042   0.185  -0.508  0.00  0.00     0.003 A 
ATOM      8  C6  PXY d   1       1.443  -1.062  -0.039  0.00  0.00     0.003 A 
ENDROOT
TORSDOF 0
ENDMDL
