MODEL 1
REMARK minimizedAffinity 2.31350517
REMARK minimizedRMSD -1
REMARK  1 active torsions:
REMARK  status: ('A' for Active; 'I' for Inactive)
REMARK    1  A    between atoms: C1_2  and  C2_3 
ROOT
ATOM      1  C2  UNL d   1      -2.511   0.929  -3.083  0.00  0.00    -0.081 A 
ATOM      2  C3  UNL d   1      -2.462   1.103  -4.472  0.00  0.00     0.006 A 
ATOM      3  C4  UNL d   1      -3.421   1.882  -5.122  0.00  0.00     0.002 A 
ATOM      4  C5  UNL d   1      -4.441   2.506  -4.395  0.00  0.00    -0.080 A 
ATOM      5  C6  UNL d   1      -5.459   3.370  -5.077  0.00  0.00     0.076 C 
ATOM      6  C7  UNL d   1      -4.500   2.318  -3.010  0.00  0.00     0.002 A 
ATOM      7  C8  UNL d   1      -3.541   1.538  -2.359  0.00  0.00     0.006 A 
ENDROOT
BRANCH   1   8
ATOM      8  C1  UNL d   1      -1.440   0.142  -2.371  0.00  0.00     0.054 C 
ATOM      9  C   UNL d   1      -0.554  -0.605  -3.358  0.00  0.00     0.018 C 
ENDBRANCH   1   8
TORSDOF 1
ENDMDL
