MODEL 1
REMARK minimizedAffinity 10.534194
REMARK minimizedRMSD -1
REMARK  1 active torsions:
REMARK  status: ('A' for Active; 'I' for Inactive)
REMARK    1  A    between atoms: C1_2  and  C2_3 
ROOT
ATOM      1  C2  UNL d   1       1.608   0.239   0.590  0.00  0.00    -0.081 A 
ATOM      2  C3  UNL d   1       1.161   0.641   1.854  0.00  0.00     0.006 A 
ATOM      3  C4  UNL d   1       0.259   1.701   1.982  0.00  0.00     0.002 A 
ATOM      4  C5  UNL d   1      -0.216   2.369   0.849  0.00  0.00    -0.080 A 
ATOM      5  C6  UNL d   1      -1.207   3.489   0.971  0.00  0.00     0.076 C 
ATOM      6  C7  UNL d   1       0.245   1.979  -0.413  0.00  0.00     0.002 A 
ATOM      7  C8  UNL d   1       1.146   0.920  -0.542  0.00  0.00     0.006 A 
ENDROOT
BRANCH   1   8
ATOM      8  C1  UNL d   1       2.530  -0.945   0.444  0.00  0.00     0.054 C 
ATOM      9  C   UNL d   1       2.950  -1.490   1.802  0.00  0.00     0.018 C 
ENDBRANCH   1   8
TORSDOF 1
ENDMDL
