MODEL 1
REMARK minimizedAffinity 11.4300947
REMARK minimizedRMSD -1
REMARK  1 active torsions:
REMARK  status: ('A' for Active; 'I' for Inactive)
REMARK    1  A    between atoms: C1_2  and  C2_3 
ROOT
ATOM      1  C2  UNL d   1       1.413  -0.279  -0.593  0.00  0.00    -0.081 A 
ATOM      2  C3  UNL d   1       0.580   0.389  -1.498  0.00  0.00     0.006 A 
ATOM      3  C4  UNL d   1       0.204   1.715  -1.269  0.00  0.00     0.002 A 
ATOM      4  C5  UNL d   1       0.660   2.396  -0.135  0.00  0.00    -0.080 A 
ATOM      5  C6  UNL d   1       0.289   3.829   0.107  0.00  0.00     0.076 C 
ATOM      6  C7  UNL d   1       1.478   1.723   0.778  0.00  0.00     0.002 A 
ATOM      7  C8  UNL d   1       1.854   0.397   0.550  0.00  0.00     0.006 A 
ENDROOT
BRANCH   1   8
ATOM      8  C1  UNL d   1       1.873  -1.688  -0.870  0.00  0.00     0.054 C 
ATOM      9  C   UNL d   1       2.922  -2.136   0.137  0.00  0.00     0.018 C 
ENDBRANCH   1   8
TORSDOF 1
ENDMDL
