MODEL 1
REMARK minimizedAffinity 2.22677135
REMARK minimizedRMSD -1
REMARK  1 active torsions:
REMARK  status: ('A' for Active; 'I' for Inactive)
REMARK    1  A    between atoms: C1_2  and  C2_3 
ROOT
ATOM      1  C2  UNL d   1       0.131   1.451  -0.529  0.00  0.00    -0.081 A 
ATOM      2  C3  UNL d   1       1.171   0.650  -0.041  0.00  0.00     0.006 A 
ATOM      3  C4  UNL d   1       2.267   1.228   0.603  0.00  0.00     0.002 A 
ATOM      4  C5  UNL d   1       2.339   2.615   0.777  0.00  0.00    -0.080 A 
ATOM      5  C6  UNL d   1       3.496   3.246   1.493  0.00  0.00     0.076 C 
ATOM      6  C7  UNL d   1       1.308   3.416   0.274  0.00  0.00     0.002 A 
ATOM      7  C8  UNL d   1       0.212   2.839  -0.371  0.00  0.00     0.006 A 
ENDROOT
BRANCH   1   8
ATOM      8  C1  UNL d   1      -1.084   0.826  -1.166  0.00  0.00     0.054 C 
ATOM      9  C   UNL d   1      -1.342   1.404  -2.550  0.00  0.00     0.018 C 
ENDBRANCH   1   8
TORSDOF 1
ENDMDL
