MODEL 1
REMARK minimizedAffinity 6.30123854
REMARK minimizedRMSD -1
REMARK  1 active torsions:
REMARK  status: ('A' for Active; 'I' for Inactive)
REMARK    1  A    between atoms: C1_2  and  C2_3 
ROOT
ATOM      1  C2  UNL d   1      -0.254   1.963   0.052  0.00  0.00    -0.081 A 
ATOM      2  C3  UNL d   1       0.913   1.329   0.496  0.00  0.00     0.006 A 
ATOM      3  C4  UNL d   1       0.974   0.775   1.777  0.00  0.00     0.002 A 
ATOM      4  C5  UNL d   1      -0.133   0.838   2.631  0.00  0.00    -0.080 A 
ATOM      5  C6  UNL d   1      -0.091   0.221   3.997  0.00  0.00     0.076 C 
ATOM      6  C7  UNL d   1      -1.292   1.487   2.194  0.00  0.00     0.002 A 
ATOM      7  C8  UNL d   1      -1.353   2.042   0.913  0.00  0.00     0.006 A 
ENDROOT
BRANCH   1   8
ATOM      8  C1  UNL d   1      -0.344   2.505  -1.352  0.00  0.00     0.054 C 
ATOM      9  C   UNL d   1      -1.292   1.674  -2.206  0.00  0.00     0.018 C 
ENDBRANCH   1   8
TORSDOF 1
ENDMDL
