MODEL 1
REMARK minimizedAffinity 6.22985315
REMARK minimizedRMSD -1
REMARK  1 active torsions:
REMARK  status: ('A' for Active; 'I' for Inactive)
REMARK    1  A    between atoms: C1_2  and  C2_3 
ROOT
ATOM      1  C2  UNL d   1       1.426   0.721   0.105  0.00  0.00    -0.081 A 
ATOM      2  C3  UNL d   1       1.912  -0.425  -0.538  0.00  0.00     0.006 A 
ATOM      3  C4  UNL d   1       2.786  -1.291   0.124  0.00  0.00     0.002 A 
ATOM      4  C5  UNL d   1       3.182  -1.031   1.440  0.00  0.00    -0.080 A 
ATOM      5  C6  UNL d   1       4.095  -1.968   2.172  0.00  0.00     0.076 C 
ATOM      6  C7  UNL d   1       2.710   0.123   2.076  0.00  0.00     0.002 A 
ATOM      7  C8  UNL d   1       1.837   0.989   1.415  0.00  0.00     0.006 A 
ENDROOT
BRANCH   1   8
ATOM      8  C1  UNL d   1       0.433   1.622  -0.583  0.00  0.00     0.054 C 
ATOM      9  C   UNL d   1       0.666   3.081  -0.219  0.00  0.00     0.018 C 
ENDBRANCH   1   8
TORSDOF 1
ENDMDL
