MODEL 1
REMARK minimizedAffinity 1.3002646
REMARK minimizedRMSD -1
REMARK  1 active torsions:
REMARK  status: ('A' for Active; 'I' for Inactive)
REMARK    1  A    between atoms: C1_2  and  C2_3 
ROOT
ATOM      1  C2  UNL d   1       2.736  -0.969   0.336  0.00  0.00    -0.081 A 
ATOM      2  C3  UNL d   1       4.028  -0.443   0.210  0.00  0.00     0.006 A 
ATOM      3  C4  UNL d   1       4.226   0.937   0.126  0.00  0.00     0.002 A 
ATOM      4  C5  UNL d   1       3.138   1.814   0.175  0.00  0.00    -0.080 A 
ATOM      5  C6  UNL d   1       3.339   3.299   0.116  0.00  0.00     0.076 C 
ATOM      6  C7  UNL d   1       1.846   1.289   0.283  0.00  0.00     0.002 A 
ATOM      7  C8  UNL d   1       1.647  -0.091   0.366  0.00  0.00     0.006 A 
ENDROOT
BRANCH   1   8
ATOM      8  C1  UNL d   1       2.525  -2.453   0.492  0.00  0.00     0.054 C 
ATOM      9  C   UNL d   1       1.105  -2.852   0.116  0.00  0.00     0.018 C 
ENDBRANCH   1   8
TORSDOF 1
ENDMDL
