MODEL 1
REMARK minimizedAffinity 0.978579581
REMARK minimizedRMSD -1
REMARK  1 active torsions:
REMARK  status: ('A' for Active; 'I' for Inactive)
REMARK    1  A    between atoms: C1_2  and  C2_3 
ROOT
ATOM      1  C2  UNL d   1       2.384  -0.371   0.080  0.00  0.00    -0.081 A 
ATOM      2  C3  UNL d   1       1.546   0.742   0.224  0.00  0.00     0.006 A 
ATOM      3  C4  UNL d   1       2.086   2.027   0.316  0.00  0.00     0.002 A 
ATOM      4  C5  UNL d   1       3.470   2.221   0.258  0.00  0.00    -0.080 A 
ATOM      5  C6  UNL d   1       4.061   3.598   0.326  0.00  0.00     0.076 C 
ATOM      6  C7  UNL d   1       4.308   1.108   0.133  0.00  0.00     0.002 A 
ATOM      7  C8  UNL d   1       3.769  -0.177   0.041  0.00  0.00     0.006 A 
ENDROOT
BRANCH   1   8
ATOM      8  C1  UNL d   1       1.802  -1.752  -0.084  0.00  0.00     0.054 C 
ATOM      9  C   UNL d   1       0.769  -1.787  -1.202  0.00  0.00     0.018 C 
ENDBRANCH   1   8
TORSDOF 1
ENDMDL
