MODEL 1
REMARK minimizedAffinity -5.35025787
REMARK minimizedRMSD -1
REMARK  1 active torsions:
REMARK  status: ('A' for Active; 'I' for Inactive)
REMARK    1  A    between atoms: C1_2  and  C2_3 
ROOT
ATOM      1  C2  UNL d   1      -0.490  -0.126  -0.357  0.00  0.00    -0.081 A 
ATOM      2  C3  UNL d   1       0.117   0.365   0.805  0.00  0.00     0.006 A 
ATOM      3  C4  UNL d   1       1.359  -0.124   1.216  0.00  0.00     0.002 A 
ATOM      4  C5  UNL d   1       2.018  -1.107   0.469  0.00  0.00    -0.080 A 
ATOM      5  C6  UNL d   1       3.365  -1.619   0.882  0.00  0.00     0.076 C 
ATOM      6  C7  UNL d   1       1.403  -1.610  -0.683  0.00  0.00     0.002 A 
ATOM      7  C8  UNL d   1       0.161  -1.121  -1.094  0.00  0.00     0.006 A 
ENDROOT
BRANCH   1   8
ATOM      8  C1  UNL d   1      -1.799   0.447  -0.838  0.00  0.00     0.054 C 
ATOM      9  C   UNL d   1      -2.701   0.823   0.329  0.00  0.00     0.018 C 
ENDBRANCH   1   8
TORSDOF 1
ENDMDL
