MODEL 1
REMARK minimizedAffinity -4.38397837
REMARK minimizedRMSD -1
REMARK  0 active torsions:
REMARK  status: ('A' for Active; 'I' for Inactive)
ROOT
ATOM      1  C4' PXY d   1       1.876  -0.775   2.584  0.00  0.00     0.077 C 
ATOM      2  C1' PXY d   1      -0.871   0.534  -2.331  0.00  0.00     0.077 C 
ATOM      3  C1  PXY d   1      -0.144   0.181  -1.048  0.00  0.00    -0.082 A 
ATOM      4  C2  PXY d   1      -0.670   0.524   0.116  0.00  0.00     0.003 A 
ATOM      5  C3  PXY d   1      -0.011   0.241   1.285  0.00  0.00     0.003 A 
ATOM      6  C4  PXY d   1       1.173  -0.448   1.264  0.00  0.00    -0.082 A 
ATOM      7  C5  PXY d   1       1.710  -0.811   0.080  0.00  0.00     0.003 A 
ATOM      8  C6  PXY d   1       1.046  -0.477  -1.097  0.00  0.00     0.003 A 
ENDROOT
TORSDOF 0
ENDMDL
