MODEL 1
REMARK minimizedAffinity -2.71220636
REMARK minimizedRMSD -1
REMARK  0 active torsions:
REMARK  status: ('A' for Active; 'I' for Inactive)
ROOT
ATOM      1  C4' PXY d   1      -0.149  -1.268   2.911  0.00  0.00     0.077 C 
ATOM      2  C1' PXY d   1      -0.470   1.619  -2.087  0.00  0.00     0.077 C 
ATOM      3  C1  PXY d   1      -0.373   0.861  -0.778  0.00  0.00    -0.082 A 
ATOM      4  C2  PXY d   1      -1.438   0.233  -0.305  0.00  0.00     0.003 A 
ATOM      5  C3  PXY d   1      -1.376  -0.430   0.893  0.00  0.00     0.003 A 
ATOM      6  C4  PXY d   1      -0.199  -0.497   1.589  0.00  0.00    -0.082 A 
ATOM      7  C5  PXY d   1       0.895   0.131   1.107  0.00  0.00     0.003 A 
ATOM      8  C6  PXY d   1       0.801   0.834  -0.090  0.00  0.00     0.003 A 
ENDROOT
TORSDOF 0
ENDMDL
