MODEL 1
REMARK minimizedAffinity -1.63744974
REMARK minimizedRMSD -1
REMARK  0 active torsions:
REMARK  status: ('A' for Active; 'I' for Inactive)
ROOT
ATOM      1  C4' PXY d   1       1.950  -0.407   2.697  0.00  0.00     0.077 C 
ATOM      2  C1' PXY d   1      -0.553  -0.506  -2.513  0.00  0.00     0.077 C 
ATOM      3  C1  PXY d   1       0.094  -0.473  -1.142  0.00  0.00    -0.082 A 
ATOM      4  C2  PXY d   1       1.400  -0.649  -1.031  0.00  0.00     0.003 A 
ATOM      5  C3  PXY d   1       1.997  -0.654   0.204  0.00  0.00     0.003 A 
ATOM      6  C4  PXY d   1       1.256  -0.423   1.332  0.00  0.00    -0.082 A 
ATOM      7  C5  PXY d   1      -0.076  -0.232   1.226  0.00  0.00     0.003 A 
ATOM      8  C6  PXY d   1      -0.669  -0.271  -0.033  0.00  0.00     0.003 A 
ENDROOT
TORSDOF 0
ENDMDL
