MODEL 1
REMARK minimizedAffinity -3.10674572
REMARK minimizedRMSD -1
REMARK  0 active torsions:
REMARK  status: ('A' for Active; 'I' for Inactive)
ROOT
ATOM      1  C4' PXY d   1      -0.039   2.138  -2.285  0.00  0.00     0.077 C 
ATOM      2  C1' PXY d   1       0.039  -1.288   2.371  0.00  0.00     0.077 C 
ATOM      3  C1  PXY d   1       0.020  -0.400   1.142  0.00  0.00    -0.082 A 
ATOM      4  C2  PXY d   1       0.358   0.875   1.251  0.00  0.00     0.003 A 
ATOM      5  C3  PXY d   1       0.316   1.699   0.157  0.00  0.00     0.003 A 
ATOM      6  C4  PXY d   1      -0.025   1.202  -1.073  0.00  0.00    -0.082 A 
ATOM      7  C5  PXY d   1      -0.361  -0.100  -1.194  0.00  0.00     0.003 A 
ATOM      8  C6  PXY d   1      -0.351  -0.911  -0.063  0.00  0.00     0.003 A 
ENDROOT
TORSDOF 0
ENDMDL
