MODEL 1
REMARK minimizedAffinity -4.70296669
REMARK minimizedRMSD -1
REMARK  0 active torsions:
REMARK  status: ('A' for Active; 'I' for Inactive)
ROOT
ATOM      1  C4' PXY d   1      -0.013   1.860  -2.484  0.00  0.00     0.077 C 
ATOM      2  C1' PXY d   1      -0.111  -1.459   2.248  0.00  0.00     0.077 C 
ATOM      3  C1  PXY d   1      -0.092  -0.598   1.001  0.00  0.00    -0.082 A 
ATOM      4  C2  PXY d   1       0.814   0.359   0.881  0.00  0.00     0.003 A 
ATOM      5  C3  PXY d   1       0.826   1.168  -0.227  0.00  0.00     0.003 A 
ATOM      6  C4  PXY d   1      -0.064   0.960  -1.246  0.00  0.00    -0.082 A 
ATOM      7  C5  PXY d   1      -0.985  -0.021  -1.136  0.00  0.00     0.003 A 
ATOM      8  C6  PXY d   1      -1.006  -0.804   0.015  0.00  0.00     0.003 A 
ENDROOT
TORSDOF 0
ENDMDL
