MODEL 1
REMARK minimizedAffinity -3.42667246
REMARK minimizedRMSD -1
REMARK  0 active torsions:
REMARK  status: ('A' for Active; 'I' for Inactive)
ROOT
ATOM      1  C4' PXY d   1      -0.804   0.684  -1.696  0.00  0.00     0.077 C 
ATOM      2  C1' PXY d   1       1.048  -1.068   3.492  0.00  0.00     0.077 C 
ATOM      3  C1  PXY d   1       0.550  -0.614   2.133  0.00  0.00    -0.082 A 
ATOM      4  C2  PXY d   1       1.421  -0.350   1.173  0.00  0.00     0.003 A 
ATOM      5  C3  PXY d   1       0.990   0.092  -0.052  0.00  0.00     0.003 A 
ATOM      6  C4  PXY d   1      -0.348   0.214  -0.312  0.00  0.00    -0.082 A 
ATOM      7  C5  PXY d   1      -1.243  -0.064   0.659  0.00  0.00     0.003 A 
ATOM      8  C6  PXY d   1      -0.784  -0.472   1.908  0.00  0.00     0.003 A 
ENDROOT
TORSDOF 0
ENDMDL
