MODEL 1
REMARK minimizedAffinity -4.94875669
REMARK minimizedRMSD -1
REMARK  0 active torsions:
REMARK  status: ('A' for Active; 'I' for Inactive)
ROOT
ATOM      1  C4' PXY d   1      -1.467   0.708  -1.131  0.00  0.00     0.077 C 
ATOM      2  C1' PXY d   1       2.279  -2.329   2.057  0.00  0.00     0.077 C 
ATOM      3  C1  PXY d   1       1.287  -1.535   1.230  0.00  0.00    -0.082 A 
ATOM      4  C2  PXY d   1       1.488  -1.390  -0.070  0.00  0.00     0.003 A 
ATOM      5  C3  PXY d   1       0.618  -0.648  -0.827  0.00  0.00     0.003 A 
ATOM      6  C4  PXY d   1      -0.497  -0.093  -0.258  0.00  0.00    -0.082 A 
ATOM      7  C5  PXY d   1      -0.714  -0.245   1.066  0.00  0.00     0.003 A 
ATOM      8  C6  PXY d   1       0.203  -0.967   1.824  0.00  0.00     0.003 A 
ENDROOT
TORSDOF 0
ENDMDL
