MODEL 1
REMARK minimizedAffinity -2.77711487
REMARK minimizedRMSD -1
REMARK  0 active torsions:
REMARK  status: ('A' for Active; 'I' for Inactive)
ROOT
ATOM      1  C4' PXY d   1      -2.926  -1.275   0.853  0.00  0.00     0.077 C 
ATOM      2  C1' PXY d   1       2.676   0.130   0.622  0.00  0.00     0.077 C 
ATOM      3  C1  PXY d   1       1.205  -0.231   0.673  0.00  0.00    -0.082 A 
ATOM      4  C2  PXY d   1       0.677  -0.669   1.804  0.00  0.00     0.003 A 
ATOM      5  C3  PXY d   1      -0.645  -1.030   1.859  0.00  0.00     0.003 A 
ATOM      6  C4  PXY d   1      -1.447  -0.890   0.759  0.00  0.00    -0.082 A 
ATOM      7  C5  PXY d   1      -0.919  -0.433  -0.397  0.00  0.00     0.003 A 
ATOM      8  C6  PXY d   1       0.434  -0.111  -0.443  0.00  0.00     0.003 A 
ENDROOT
TORSDOF 0
ENDMDL
