MODEL 1
REMARK minimizedAffinity -3.11949229
REMARK minimizedRMSD -1
REMARK  0 active torsions:
REMARK  status: ('A' for Active; 'I' for Inactive)
ROOT
ATOM      1  C4' PXY d   1       1.717  -1.142   3.278  0.00  0.00     0.077 C 
ATOM      2  C1' PXY d   1      -0.917   0.082  -1.720  0.00  0.00     0.077 C 
ATOM      3  C1  PXY d   1      -0.238  -0.237  -0.403  0.00  0.00    -0.082 A 
ATOM      4  C2  PXY d   1       1.073  -0.092  -0.291  0.00  0.00     0.003 A 
ATOM      5  C3  PXY d   1       1.708  -0.406   0.883  0.00  0.00     0.003 A 
ATOM      6  C4  PXY d   1       0.987  -0.823   1.970  0.00  0.00    -0.082 A 
ATOM      7  C5  PXY d   1      -0.352  -0.963   1.867  0.00  0.00     0.003 A 
ATOM      8  C6  PXY d   1      -0.972  -0.678   0.654  0.00  0.00     0.003 A 
ENDROOT
TORSDOF 0
ENDMDL
