MODEL 1
REMARK minimizedAffinity -5.77895403
REMARK minimizedRMSD -1
REMARK  0 active torsions:
REMARK  status: ('A' for Active; 'I' for Inactive)
ROOT
ATOM      1  C4' PXY d   1      -0.735   0.626  -1.966  0.00  0.00     0.077 C 
ATOM      2  C1' PXY d   1       1.675  -1.112   2.993  0.00  0.00     0.077 C 
ATOM      3  C1  PXY d   1       1.031  -0.658   1.698  0.00  0.00    -0.082 A 
ATOM      4  C2  PXY d   1       1.690  -0.789   0.558  0.00  0.00     0.003 A 
ATOM      5  C3  PXY d   1       1.136  -0.354  -0.618  0.00  0.00     0.003 A 
ATOM      6  C4  PXY d   1      -0.128   0.172  -0.635  0.00  0.00    -0.082 A 
ATOM      7  C5  PXY d   1      -0.812   0.299   0.522  0.00  0.00     0.003 A 
ATOM      8  C6  PXY d   1      -0.215  -0.111   1.710  0.00  0.00     0.003 A 
ENDROOT
TORSDOF 0
ENDMDL
