MODEL 1
REMARK minimizedAffinity -1.48358393
REMARK minimizedRMSD -1
REMARK  0 active torsions:
REMARK  status: ('A' for Active; 'I' for Inactive)
ROOT
ATOM      1  C   UNL d   1       1.580  -1.635  -1.535  0.00  0.00     0.020 A 
ATOM      2  C1  UNL d   1       1.436  -2.145  -0.246  0.00  0.00     0.020 A 
ATOM      3  C2  UNL d   1       0.725  -1.424   0.715  0.00  0.00     0.034 A 
ATOM      4  C3  UNL d   1       0.155  -0.187   0.389  0.00  0.00     0.017 A 
ATOM      5  C4  UNL d   1       0.301   0.324  -0.905  0.00  0.00     0.017 A 
ATOM      6  C5  UNL d   1       1.014  -0.402  -1.864  0.00  0.00     0.034 A 
ATOM      7 Cl   UNL d   1      -0.373   1.843  -1.383  0.00  0.00    -0.070 Cl
ATOM      8 Cl1  UNL d   1      -0.711   0.650   1.627  0.00  0.00    -0.070 Cl
ENDROOT
TORSDOF 0
ENDMDL
