MODEL 1
REMARK minimizedAffinity -0.857498944
REMARK minimizedRMSD -1
REMARK  0 active torsions:
REMARK  status: ('A' for Active; 'I' for Inactive)
ROOT
ATOM      1  C   UNL d   1      -0.787  -1.150   0.822  0.00  0.00     0.020 A 
ATOM      2  C1  UNL d   1       0.161  -2.057   0.351  0.00  0.00     0.020 A 
ATOM      3  C2  UNL d   1       0.973  -1.718  -0.733  0.00  0.00     0.034 A 
ATOM      4  C3  UNL d   1       0.839  -0.469  -1.350  0.00  0.00     0.017 A 
ATOM      5  C4  UNL d   1      -0.113   0.441  -0.876  0.00  0.00     0.017 A 
ATOM      6  C5  UNL d   1      -0.924   0.096   0.210  0.00  0.00     0.034 A 
ATOM      7 Cl   UNL d   1      -0.338   2.001  -1.585  0.00  0.00    -0.070 Cl
ATOM      8 Cl1  UNL d   1       1.877  -0.116  -2.685  0.00  0.00    -0.070 Cl
ENDROOT
TORSDOF 0
ENDMDL
