MODEL 1
REMARK minimizedAffinity -1.65758884
REMARK minimizedRMSD -1
REMARK  0 active torsions:
REMARK  status: ('A' for Active; 'I' for Inactive)
ROOT
ATOM      1  C   UNL d   1       1.525  -1.484  -1.304  0.00  0.00     0.020 A 
ATOM      2  C1  UNL d   1       1.243  -2.038  -0.056  0.00  0.00     0.020 A 
ATOM      3  C2  UNL d   1       0.422  -1.354   0.843  0.00  0.00     0.034 A 
ATOM      4  C3  UNL d   1      -0.120  -0.111   0.494  0.00  0.00     0.017 A 
ATOM      5  C4  UNL d   1       0.164   0.444  -0.758  0.00  0.00     0.017 A 
ATOM      6  C5  UNL d   1       0.987  -0.245  -1.654  0.00  0.00     0.034 A 
ATOM      7 Cl   UNL d   1      -0.469   1.973  -1.259  0.00  0.00    -0.070 Cl
ATOM      8 Cl1  UNL d   1      -1.128   0.679   1.654  0.00  0.00    -0.070 Cl
ENDROOT
TORSDOF 0
ENDMDL
