MODEL 1
REMARK minimizedAffinity -3.3898797
REMARK minimizedRMSD -1
REMARK  0 active torsions:
REMARK  status: ('A' for Active; 'I' for Inactive)
ROOT
ATOM      1  C   UNL d   1       1.631  -1.434  -1.554  0.00  0.00     0.020 A 
ATOM      2  C1  UNL d   1       1.243  -2.110  -0.398  0.00  0.00     0.020 A 
ATOM      3  C2  UNL d   1       0.271  -1.560   0.441  0.00  0.00     0.034 A 
ATOM      4  C3  UNL d   1      -0.316  -0.329   0.125  0.00  0.00     0.017 A 
ATOM      5  C4  UNL d   1       0.074   0.349  -1.035  0.00  0.00     0.017 A 
ATOM      6  C5  UNL d   1       1.048  -0.206  -1.872  0.00  0.00     0.034 A 
ATOM      7 Cl   UNL d   1      -0.605   1.872  -1.491  0.00  0.00    -0.070 Cl
ATOM      8 Cl1  UNL d   1      -1.511   0.292   1.207  0.00  0.00    -0.070 Cl
ENDROOT
TORSDOF 0
ENDMDL
