MODEL 1
REMARK minimizedAffinity -3.76260686
REMARK minimizedRMSD -1
REMARK  0 active torsions:
REMARK  status: ('A' for Active; 'I' for Inactive)
ROOT
ATOM      1  C   UNL d   1       2.812   1.177  -1.674  0.00  0.00     0.020 A 
ATOM      2  C1  UNL d   1       1.791   1.771  -0.934  0.00  0.00     0.020 A 
ATOM      3  C2  UNL d   1       0.724   0.998  -0.471  0.00  0.00     0.034 A 
ATOM      4  C3  UNL d   1       0.676  -0.373  -0.748  0.00  0.00     0.017 A 
ATOM      5  C4  UNL d   1       1.701  -0.968  -1.492  0.00  0.00     0.017 A 
ATOM      6  C5  UNL d   1       2.767  -0.189  -1.953  0.00  0.00     0.034 A 
ATOM      7 Cl   UNL d   1       1.711  -2.654  -1.874  0.00  0.00    -0.070 Cl
ATOM      8 Cl1  UNL d   1      -0.673  -1.268  -0.144  0.00  0.00    -0.070 Cl
ENDROOT
TORSDOF 0
ENDMDL
