MODEL 1
REMARK minimizedAffinity 10.7265463
REMARK minimizedRMSD -1
REMARK  0 active torsions:
REMARK  status: ('A' for Active; 'I' for Inactive)
ROOT
ATOM      1  C   UNL d   1      -2.736  -0.038   2.281  0.00  0.00     0.020 A 
ATOM      2  C1  UNL d   1      -2.008   0.155   3.454  0.00  0.00     0.020 A 
ATOM      3  C2  UNL d   1      -2.302  -0.603   4.590  0.00  0.00     0.034 A 
ATOM      4  C3  UNL d   1      -3.327  -1.555   4.556  0.00  0.00     0.017 A 
ATOM      5  C4  UNL d   1      -4.057  -1.748   3.377  0.00  0.00     0.017 A 
ATOM      6  C5  UNL d   1      -3.759  -0.987   2.243  0.00  0.00     0.034 A 
ATOM      7 Cl   UNL d   1      -5.336  -2.904   3.258  0.00  0.00    -0.070 Cl
ATOM      8 Cl1  UNL d   1      -3.635  -2.456   5.997  0.00  0.00    -0.070 Cl
ENDROOT
TORSDOF 0
ENDMDL
