MODEL 1
REMARK minimizedAffinity -2.78846622
REMARK minimizedRMSD -1
REMARK  0 active torsions:
REMARK  status: ('A' for Active; 'I' for Inactive)
ROOT
ATOM      1  C   UNL d   1       1.422  -1.311  -1.644  0.00  0.00     0.020 A 
ATOM      2  C1  UNL d   1       1.041  -1.947  -0.462  0.00  0.00     0.020 A 
ATOM      3  C2  UNL d   1       0.139  -1.326   0.405  0.00  0.00     0.034 A 
ATOM      4  C3  UNL d   1      -0.383  -0.065   0.093  0.00  0.00     0.017 A 
ATOM      5  C4  UNL d   1      -0.000   0.571  -1.093  0.00  0.00     0.017 A 
ATOM      6  C5  UNL d   1       0.903  -0.055  -1.958  0.00  0.00     0.034 A 
ATOM      7 Cl   UNL d   1      -0.603   2.127  -1.546  0.00  0.00    -0.070 Cl
ATOM      8 Cl1  UNL d   1      -1.493   0.643   1.211  0.00  0.00    -0.070 Cl
ENDROOT
TORSDOF 0
ENDMDL
