MODEL 1
REMARK minimizedAffinity -3.37512136
REMARK minimizedRMSD -1
REMARK  0 active torsions:
REMARK  status: ('A' for Active; 'I' for Inactive)
ROOT
ATOM      1  C   UNL d   1      -0.580  -0.435   0.685  0.00  0.00     0.020 A 
ATOM      2  C1  UNL d   1      -1.135   0.760   0.229  0.00  0.00     0.020 A 
ATOM      3  C2  UNL d   1      -0.556   1.431  -0.850  0.00  0.00     0.034 A 
ATOM      4  C3  UNL d   1       0.581   0.909  -1.476  0.00  0.00     0.017 A 
ATOM      5  C4  UNL d   1       1.138  -0.291  -1.018  0.00  0.00     0.017 A 
ATOM      6  C5  UNL d   1       0.554  -0.960   0.063  0.00  0.00     0.034 A 
ATOM      7 Cl   UNL d   1       2.540  -0.998  -1.740  0.00  0.00    -0.070 Cl
ATOM      8 Cl1  UNL d   1       1.244   1.792  -2.805  0.00  0.00    -0.070 Cl
ENDROOT
TORSDOF 0
ENDMDL
