MODEL 1
REMARK minimizedAffinity -3.08992171
REMARK minimizedRMSD -1
REMARK  0 active torsions:
REMARK  status: ('A' for Active; 'I' for Inactive)
ROOT
ATOM      1  C   UNL d   1       2.050  -1.716  -1.284  0.00  0.00     0.020 A 
ATOM      2  C1  UNL d   1       1.379  -2.447  -0.304  0.00  0.00     0.020 A 
ATOM      3  C2  UNL d   1       0.305  -1.876   0.381  0.00  0.00     0.034 A 
ATOM      4  C3  UNL d   1      -0.101  -0.569   0.089  0.00  0.00     0.017 A 
ATOM      5  C4  UNL d   1       0.572   0.165  -0.895  0.00  0.00     0.017 A 
ATOM      6  C5  UNL d   1       1.647  -0.413  -1.578  0.00  0.00     0.034 A 
ATOM      7 Cl   UNL d   1       0.129   1.782  -1.311  0.00  0.00    -0.070 Cl
ATOM      8 Cl1  UNL d   1      -1.437   0.075   0.975  0.00  0.00    -0.070 Cl
ENDROOT
TORSDOF 0
ENDMDL
