MODEL 1
REMARK minimizedAffinity -3.47837377
REMARK minimizedRMSD -1
REMARK  0 active torsions:
REMARK  status: ('A' for Active; 'I' for Inactive)
ROOT
ATOM      1  C   UNL d   1      -0.541   0.357   0.244  0.00  0.00     0.020 A 
ATOM      2  C1  UNL d   1       0.021  -0.901   0.460  0.00  0.00     0.020 A 
ATOM      3  C2  UNL d   1       1.049  -1.358  -0.366  0.00  0.00     0.034 A 
ATOM      4  C3  UNL d   1       1.519  -0.557  -1.414  0.00  0.00     0.017 A 
ATOM      5  C4  UNL d   1       0.954   0.705  -1.630  0.00  0.00     0.017 A 
ATOM      6  C5  UNL d   1      -0.075   1.158  -0.800  0.00  0.00     0.034 A 
ATOM      7 Cl   UNL d   1       1.481   1.751  -2.902  0.00  0.00    -0.070 Cl
ATOM      8 Cl1  UNL d   1       2.794  -1.185  -2.396  0.00  0.00    -0.070 Cl
ENDROOT
TORSDOF 0
ENDMDL
