MODEL 1
REMARK minimizedAffinity -4.76375103
REMARK minimizedRMSD -1
REMARK  0 active torsions:
REMARK  status: ('A' for Active; 'I' for Inactive)
ROOT
ATOM      1  C   UNL d   1       2.462   1.648  -2.000  0.00  0.00     0.020 A 
ATOM      2  C1  UNL d   1       3.188   0.464  -1.873  0.00  0.00     0.020 A 
ATOM      3  C2  UNL d   1       2.643  -0.617  -1.177  0.00  0.00     0.034 A 
ATOM      4  C3  UNL d   1       1.369  -0.516  -0.605  0.00  0.00     0.017 A 
ATOM      5  C4  UNL d   1       0.642   0.672  -0.733  0.00  0.00     0.017 A 
ATOM      6  C5  UNL d   1       1.192   1.752  -1.432  0.00  0.00     0.034 A 
ATOM      7 Cl   UNL d   1      -0.935   0.872  -0.055  0.00  0.00    -0.070 Cl
ATOM      8 Cl1  UNL d   1       0.758  -1.893   0.242  0.00  0.00    -0.070 Cl
ENDROOT
TORSDOF 0
ENDMDL
