MODEL 1
REMARK minimizedAffinity -4.92024851
REMARK minimizedRMSD -1
REMARK  0 active torsions:
REMARK  status: ('A' for Active; 'I' for Inactive)
ROOT
ATOM      1  C   UNL d   1      -1.381   1.218   0.252  0.00  0.00     0.020 A 
ATOM      2  C1  UNL d   1      -0.408   1.830  -0.537  0.00  0.00     0.020 A 
ATOM      3  C2  UNL d   1       0.568   1.055  -1.168  0.00  0.00     0.034 A 
ATOM      4  C3  UNL d   1       0.572  -0.336  -1.012  0.00  0.00     0.017 A 
ATOM      5  C4  UNL d   1      -0.405  -0.949  -0.220  0.00  0.00     0.017 A 
ATOM      6  C5  UNL d   1      -1.380  -0.168   0.410  0.00  0.00     0.034 A 
ATOM      7 Cl   UNL d   1      -0.465  -2.659   0.020  0.00  0.00    -0.070 Cl
ATOM      8 Cl1  UNL d   1       1.808  -1.231  -1.822  0.00  0.00    -0.070 Cl
ENDROOT
TORSDOF 0
ENDMDL
