MODEL 1
REMARK minimizedAffinity -3.63674712
REMARK minimizedRMSD -1
REMARK  0 active torsions:
REMARK  status: ('A' for Active; 'I' for Inactive)
ROOT
ATOM      1  C   UNL d   1      -1.139  -0.034   0.750  0.00  0.00     0.020 A 
ATOM      2  C1  UNL d   1      -0.395  -1.135   0.327  0.00  0.00     0.020 A 
ATOM      3  C2  UNL d   1       0.374  -1.052  -0.835  0.00  0.00     0.034 A 
ATOM      4  C3  UNL d   1       0.401   0.133  -1.579  0.00  0.00     0.017 A 
ATOM      5  C4  UNL d   1      -0.346   1.237  -1.154  0.00  0.00     0.017 A 
ATOM      6  C5  UNL d   1      -1.115   1.150   0.011  0.00  0.00     0.034 A 
ATOM      7 Cl   UNL d   1      -0.363   2.734  -2.019  0.00  0.00    -0.070 Cl
ATOM      8 Cl1  UNL d   1       1.374   0.164  -3.006  0.00  0.00    -0.070 Cl
ENDROOT
TORSDOF 0
ENDMDL
