MODEL 1
REMARK minimizedAffinity -3.21336985
REMARK minimizedRMSD -1
REMARK  0 active torsions:
REMARK  status: ('A' for Active; 'I' for Inactive)
ROOT
ATOM      1  C   UNL d   1       0.848  -2.115  -0.018  0.00  0.00     0.020 A 
ATOM      2  C1  UNL d   1       1.982  -1.681  -0.702  0.00  0.00     0.020 A 
ATOM      3  C2  UNL d   1       2.034  -0.383  -1.216  0.00  0.00     0.034 A 
ATOM      4  C3  UNL d   1       0.949   0.484  -1.047  0.00  0.00     0.017 A 
ATOM      5  C4  UNL d   1      -0.190   0.047  -0.361  0.00  0.00     0.017 A 
ATOM      6  C5  UNL d   1      -0.236  -1.253   0.152  0.00  0.00     0.034 A 
ATOM      7 Cl   UNL d   1      -1.569   1.060  -0.113  0.00  0.00    -0.070 Cl
ATOM      8 Cl1  UNL d   1       1.081   2.075  -1.709  0.00  0.00    -0.070 Cl
ENDROOT
TORSDOF 0
ENDMDL
