MODEL 1
REMARK minimizedAffinity -3.38402295
REMARK minimizedRMSD -1
REMARK  0 active torsions:
REMARK  status: ('A' for Active; 'I' for Inactive)
ROOT
ATOM      1  C   UNL d   1       1.729  -1.251  -1.245  0.00  0.00     0.020 A 
ATOM      2  C1  UNL d   1       1.942  -0.290  -2.233  0.00  0.00     0.020 A 
ATOM      3  C2  UNL d   1       1.170   0.874  -2.252  0.00  0.00     0.034 A 
ATOM      4  C3  UNL d   1       0.182   1.079  -1.282  0.00  0.00     0.017 A 
ATOM      5  C4  UNL d   1      -0.031   0.113  -0.292  0.00  0.00     0.017 A 
ATOM      6  C5  UNL d   1       0.745  -1.050  -0.277  0.00  0.00     0.034 A 
ATOM      7 Cl   UNL d   1      -1.231   0.296   0.938  0.00  0.00    -0.070 Cl
ATOM      8 Cl1  UNL d   1      -0.735   2.541  -1.367  0.00  0.00    -0.070 Cl
ENDROOT
TORSDOF 0
ENDMDL
