MODEL 1
REMARK minimizedAffinity -1.66758585
REMARK minimizedRMSD -1
REMARK  0 active torsions:
REMARK  status: ('A' for Active; 'I' for Inactive)
ROOT
ATOM      1  C   UNL d   1       1.110  -1.528  -1.054  0.00  0.00     0.020 A 
ATOM      2  C1  UNL d   1       0.224  -0.972  -0.131  0.00  0.00     0.020 A 
ATOM      3  C2  UNL d   1      -0.276   0.316  -0.333  0.00  0.00     0.034 A 
ATOM      4  C3  UNL d   1       0.109   1.052  -1.459  0.00  0.00     0.017 A 
ATOM      5  C4  UNL d   1       0.997   0.493  -2.385  0.00  0.00     0.017 A 
ATOM      6  C5  UNL d   1       1.495  -0.797  -2.178  0.00  0.00     0.034 A 
ATOM      7 Cl   UNL d   1       1.518   1.340  -3.799  0.00  0.00    -0.070 Cl
ATOM      8 Cl1  UNL d   1      -0.550   2.639  -1.645  0.00  0.00    -0.070 Cl
ENDROOT
TORSDOF 0
ENDMDL
