MODEL 1
REMARK minimizedAffinity -3.00056434
REMARK minimizedRMSD -1
REMARK  0 active torsions:
REMARK  status: ('A' for Active; 'I' for Inactive)
ROOT
ATOM      1  C   UNL d   1       3.582   1.669  -4.112  0.00  0.00     0.020 A 
ATOM      2  C1  UNL d   1       4.125   0.424  -4.427  0.00  0.00     0.020 A 
ATOM      3  C2  UNL d   1       3.657  -0.725  -3.786  0.00  0.00     0.034 A 
ATOM      4  C3  UNL d   1       2.642  -0.631  -2.826  0.00  0.00     0.017 A 
ATOM      5  C4  UNL d   1       2.098   0.619  -2.511  0.00  0.00     0.017 A 
ATOM      6  C5  UNL d   1       2.571   1.766  -3.156  0.00  0.00     0.034 A 
ATOM      7 Cl   UNL d   1       0.844   0.814  -1.337  0.00  0.00    -0.070 Cl
ATOM      8 Cl1  UNL d   1       2.111  -2.093  -2.073  0.00  0.00    -0.070 Cl
ENDROOT
TORSDOF 0
ENDMDL
