MODEL 1
REMARK minimizedAffinity 8.03594398
REMARK minimizedRMSD -1
REMARK  0 active torsions:
REMARK  status: ('A' for Active; 'I' for Inactive)
ROOT
ATOM      1  N1  IND d   1      -2.667  -3.269   0.309  0.00  0.00    -0.196 N 
ATOM      2  C2  IND d   1      -1.532  -2.703   0.821  0.00  0.00     0.054 A 
ATOM      3  C3  IND d   1      -0.762  -2.211  -0.175  0.00  0.00    -0.031 A 
ATOM      4  C4  IND d   1      -1.217  -2.133  -2.708  0.00  0.00     0.051 A 
ATOM      5  C5  IND d   1      -2.105  -2.557  -3.657  0.00  0.00    -0.031 A 
ATOM      6  C6  IND d   1      -3.250  -3.251  -3.325  0.00  0.00     0.015 A 
ATOM      7  C7  IND d   1      -3.557  -3.539  -2.025  0.00  0.00    -0.016 A 
ATOM      8  C8  IND d   1      -2.654  -3.117  -1.060  0.00  0.00    -0.047 A 
ATOM      9  C9  IND d   1      -1.469  -2.449  -1.394  0.00  0.00    -0.096 A 
ATOM     10  HN1 IND d   1      -3.284  -3.655   0.766  0.00  0.00     0.298 HD
ENDROOT
TORSDOF 0
ENDMDL
