MODEL 1
REMARK minimizedAffinity 13.6768713
REMARK minimizedRMSD -1
REMARK  0 active torsions:
REMARK  status: ('A' for Active; 'I' for Inactive)
ROOT
ATOM      1  N1  IND d   1       3.557   0.078   1.112  0.00  0.00    -0.196 N 
ATOM      2  C2  IND d   1       2.463   0.831   1.435  0.00  0.00     0.054 A 
ATOM      3  C3  IND d   1       2.118   1.628   0.398  0.00  0.00    -0.031 A 
ATOM      4  C4  IND d   1       3.146   1.785  -1.956  0.00  0.00     0.051 A 
ATOM      5  C5  IND d   1       4.186   1.319  -2.711  0.00  0.00    -0.031 A 
ATOM      6  C6  IND d   1       5.086   0.395  -2.221  0.00  0.00     0.015 A 
ATOM      7  C7  IND d   1       4.973  -0.109  -0.956  0.00  0.00    -0.016 A 
ATOM      8  C8  IND d   1       3.922   0.367  -0.184  0.00  0.00    -0.047 A 
ATOM      9  C9  IND d   1       3.030   1.337  -0.662  0.00  0.00    -0.096 A 
ATOM     10  HN1 IND d   1       3.951  -0.483   1.632  0.00  0.00     0.298 HD
ENDROOT
TORSDOF 0
ENDMDL
