MODEL 1
REMARK minimizedAffinity 5.27549839
REMARK minimizedRMSD -1
REMARK  0 active torsions:
REMARK  status: ('A' for Active; 'I' for Inactive)
ROOT
ATOM      1  N1  IND d   1      -0.542  -3.494  -3.235  0.00  0.00    -0.196 N 
ATOM      2  C2  IND d   1      -1.561  -3.297  -4.124  0.00  0.00     0.054 A 
ATOM      3  C3  IND d   1      -2.681  -2.903  -3.477  0.00  0.00    -0.031 A 
ATOM      4  C4  IND d   1      -3.038  -2.421  -0.973  0.00  0.00     0.051 A 
ATOM      5  C5  IND d   1      -2.410  -2.494   0.238  0.00  0.00    -0.031 A 
ATOM      6  C6  IND d   1      -1.099  -2.909   0.356  0.00  0.00     0.015 A 
ATOM      7  C7  IND d   1      -0.361  -3.258  -0.740  0.00  0.00    -0.016 A 
ATOM      8  C8  IND d   1      -0.999  -3.193  -1.971  0.00  0.00    -0.047 A 
ATOM      9  C9  IND d   1      -2.341  -2.812  -2.092  0.00  0.00    -0.096 A 
ATOM     10  HN1 IND d   1       0.251  -3.762  -3.432  0.00  0.00     0.298 HD
ENDROOT
TORSDOF 0
ENDMDL
