MODEL 1
REMARK minimizedAffinity 4.53267813
REMARK minimizedRMSD -1
REMARK  0 active torsions:
REMARK  status: ('A' for Active; 'I' for Inactive)
ROOT
ATOM      1  N1  IND d   1      -3.990  -3.493  -1.656  0.00  0.00    -0.196 N 
ATOM      2  C2  IND d   1      -3.423  -2.699  -2.613  0.00  0.00     0.054 A 
ATOM      3  C3  IND d   1      -2.191  -2.300  -2.224  0.00  0.00    -0.031 A 
ATOM      4  C4  IND d   1      -0.867  -2.915  -0.104  0.00  0.00     0.051 A 
ATOM      5  C5  IND d   1      -0.983  -3.583   1.083  0.00  0.00    -0.031 A 
ATOM      6  C6  IND d   1      -2.130  -4.272   1.423  0.00  0.00     0.015 A 
ATOM      7  C7  IND d   1      -3.204  -4.327   0.580  0.00  0.00    -0.016 A 
ATOM      8  C8  IND d   1      -3.092  -3.644  -0.622  0.00  0.00    -0.047 A 
ATOM      9  C9  IND d   1      -1.947  -2.908  -0.954  0.00  0.00    -0.096 A 
ATOM     10  HN1 IND d   1      -4.776  -3.840  -1.693  0.00  0.00     0.298 HD
ENDROOT
TORSDOF 0
ENDMDL
