MODEL 1
REMARK minimizedAffinity 2.9215591
REMARK minimizedRMSD -1
REMARK  0 active torsions:
REMARK  status: ('A' for Active; 'I' for Inactive)
ROOT
ATOM      1  N1  IND d   1      -3.584  -3.960  -4.718  0.00  0.00    -0.196 N 
ATOM      2  C2  IND d   1      -4.666  -4.524  -4.102  0.00  0.00     0.054 A 
ATOM      3  C3  IND d   1      -4.577  -4.371  -2.762  0.00  0.00    -0.031 A 
ATOM      4  C4  IND d   1      -2.796  -3.138  -1.371  0.00  0.00     0.051 A 
ATOM      5  C5  IND d   1      -1.596  -2.494  -1.485  0.00  0.00    -0.031 A 
ATOM      6  C6  IND d   1      -0.987  -2.299  -2.708  0.00  0.00     0.015 A 
ATOM      7  C7  IND d   1      -1.563  -2.733  -3.868  0.00  0.00    -0.016 A 
ATOM      8  C8  IND d   1      -2.778  -3.394  -3.755  0.00  0.00    -0.047 A 
ATOM      9  C9  IND d   1      -3.380  -3.632  -2.513  0.00  0.00    -0.096 A 
ATOM     10  HN1 IND d   1      -3.433  -3.959  -5.564  0.00  0.00     0.298 HD
ENDROOT
TORSDOF 0
ENDMDL
