MODEL 1
REMARK minimizedAffinity 13.7229452
REMARK minimizedRMSD -1
REMARK  0 active torsions:
REMARK  status: ('A' for Active; 'I' for Inactive)
ROOT
ATOM      1  N1  IND d   1       3.804  -0.323   0.953  0.00  0.00    -0.196 N 
ATOM      2  C2  IND d   1       2.509  -0.489   0.550  0.00  0.00     0.054 A 
ATOM      3  C3  IND d   1       1.896   0.710   0.432  0.00  0.00    -0.031 A 
ATOM      4  C4  IND d   1       2.857   3.077   0.753  0.00  0.00     0.051 A 
ATOM      5  C5  IND d   1       3.984   3.736   1.157  0.00  0.00    -0.031 A 
ATOM      6  C6  IND d   1       5.133   3.062   1.518  0.00  0.00     0.015 A 
ATOM      7  C7  IND d   1       5.202   1.698   1.477  0.00  0.00    -0.016 A 
ATOM      8  C8  IND d   1       4.057   1.025   1.075  0.00  0.00    -0.047 A 
ATOM      9  C9  IND d   1       2.874   1.702   0.748  0.00  0.00    -0.096 A 
ATOM     10  HN1 IND d   1       4.367  -0.955   1.105  0.00  0.00     0.298 HD
ENDROOT
TORSDOF 0
ENDMDL
