MODEL 1
REMARK minimizedAffinity -0.581414461
REMARK minimizedRMSD -1
REMARK  0 active torsions:
REMARK  status: ('A' for Active; 'I' for Inactive)
ROOT
ATOM      1  N1  IND d   1       2.359   2.206   1.027  0.00  0.00    -0.196 N 
ATOM      2  C2  IND d   1       1.553   1.122   1.237  0.00  0.00     0.054 A 
ATOM      3  C3  IND d   1       2.291  -0.009   1.291  0.00  0.00    -0.031 A 
ATOM      4  C4  IND d   1       4.846  -0.303   1.161  0.00  0.00     0.051 A 
ATOM      5  C5  IND d   1       6.000   0.393   0.936  0.00  0.00    -0.031 A 
ATOM      6  C6  IND d   1       6.000   1.757   0.729  0.00  0.00     0.015 A 
ATOM      7  C7  IND d   1       4.841   2.481   0.750  0.00  0.00    -0.016 A 
ATOM      8  C8  IND d   1       3.666   1.776   0.971  0.00  0.00    -0.047 A 
ATOM      9  C9  IND d   1       3.656   0.385   1.139  0.00  0.00    -0.096 A 
ATOM     10  HN1 IND d   1       2.093   3.020   0.944  0.00  0.00     0.298 HD
ENDROOT
TORSDOF 0
ENDMDL
