MODEL 1
REMARK minimizedAffinity 10.3958254
REMARK minimizedRMSD -1
REMARK  0 active torsions:
REMARK  status: ('A' for Active; 'I' for Inactive)
ROOT
ATOM      1  N1  IND d   1       1.884   1.386  -1.499  0.00  0.00    -0.196 N 
ATOM      2  C2  IND d   1       2.719   1.063  -2.532  0.00  0.00     0.054 A 
ATOM      3  C3  IND d   1       3.845   0.481  -2.062  0.00  0.00    -0.031 A 
ATOM      4  C4  IND d   1       4.482  -0.133   0.356  0.00  0.00     0.051 A 
ATOM      5  C5  IND d   1       4.056  -0.004   1.648  0.00  0.00    -0.031 A 
ATOM      6  C6  IND d   1       2.858   0.605   1.963  0.00  0.00     0.015 A 
ATOM      7  C7  IND d   1       2.033   1.099   0.993  0.00  0.00    -0.016 A 
ATOM      8  C8  IND d   1       2.466   0.976  -0.320  0.00  0.00    -0.047 A 
ATOM      9  C9  IND d   1       3.701   0.398  -0.643  0.00  0.00    -0.096 A 
ATOM     10  HN1 IND d   1       1.123   1.778  -1.574  0.00  0.00     0.298 HD
ENDROOT
TORSDOF 0
ENDMDL
