MODEL 1
REMARK minimizedAffinity 3.35334992
REMARK minimizedRMSD -1
REMARK  0 active torsions:
REMARK  status: ('A' for Active; 'I' for Inactive)
ROOT
ATOM      1  N1  IND d   1       3.812   0.937  -1.742  0.00  0.00    -0.196 N 
ATOM      2  C2  IND d   1       2.862   1.833  -2.147  0.00  0.00     0.054 A 
ATOM      3  C3  IND d   1       1.943   2.015  -1.172  0.00  0.00    -0.031 A 
ATOM      4  C4  IND d   1       1.858   1.025   1.202  0.00  0.00     0.051 A 
ATOM      5  C5  IND d   1       2.487   0.127   2.018  0.00  0.00    -0.031 A 
ATOM      6  C6  IND d   1       3.615  -0.558   1.616  0.00  0.00     0.015 A 
ATOM      7  C7  IND d   1       4.164  -0.362   0.380  0.00  0.00    -0.016 A 
ATOM      8  C8  IND d   1       3.524   0.543  -0.454  0.00  0.00    -0.047 A 
ATOM      9  C9  IND d   1       2.354   1.210  -0.066  0.00  0.00    -0.096 A 
ATOM     10  HN1 IND d   1       4.478   0.665  -2.213  0.00  0.00     0.298 HD
ENDROOT
TORSDOF 0
ENDMDL
