MODEL 1
REMARK minimizedAffinity 7.27238798
REMARK minimizedRMSD -1
REMARK  0 active torsions:
REMARK  status: ('A' for Active; 'I' for Inactive)
ROOT
ATOM      1  N1  IND d   1       4.382  -0.638   2.454  0.00  0.00    -0.196 N 
ATOM      2  C2  IND d   1       4.825  -0.541   1.164  0.00  0.00     0.054 A 
ATOM      3  C3  IND d   1       3.995   0.242   0.439  0.00  0.00    -0.031 A 
ATOM      4  C4  IND d   1       1.907   1.547   1.189  0.00  0.00     0.051 A 
ATOM      5  C5  IND d   1       1.088   1.742   2.266  0.00  0.00    -0.031 A 
ATOM      6  C6  IND d   1       1.331   1.144   3.485  0.00  0.00     0.015 A 
ATOM      7  C7  IND d   1       2.414   0.334   3.678  0.00  0.00    -0.016 A 
ATOM      8  C8  IND d   1       3.244   0.128   2.585  0.00  0.00    -0.047 A 
ATOM      9  C9  IND d   1       2.979   0.698   1.333  0.00  0.00    -0.096 A 
ATOM     10  HN1 IND d   1       4.751  -1.099   3.078  0.00  0.00     0.298 HD
ENDROOT
TORSDOF 0
ENDMDL
