MODEL 1
REMARK minimizedAffinity -1.61537433
REMARK minimizedRMSD -1
REMARK  0 active torsions:
REMARK  status: ('A' for Active; 'I' for Inactive)
ROOT
ATOM      1  N1  IND d   1       4.292   5.597   2.267  0.00  0.00    -0.196 N 
ATOM      2  C2  IND d   1       5.219   5.999   3.188  0.00  0.00     0.054 A 
ATOM      3  C3  IND d   1       5.999   4.958   3.555  0.00  0.00    -0.031 A 
ATOM      4  C4  IND d   1       5.998   2.531   2.698  0.00  0.00     0.051 A 
ATOM      5  C5  IND d   1       5.312   1.678   1.880  0.00  0.00    -0.031 A 
ATOM      6  C6  IND d   1       4.230   2.096   1.133  0.00  0.00     0.015 A 
ATOM      7  C7  IND d   1       3.800   3.392   1.167  0.00  0.00    -0.016 A 
ATOM      8  C8  IND d   1       4.490   4.260   2.001  0.00  0.00    -0.047 A 
ATOM      9  C9  IND d   1       5.562   3.831   2.794  0.00  0.00    -0.096 A 
ATOM     10  HN1 IND d   1       3.687   6.096   1.913  0.00  0.00     0.298 HD
ENDROOT
TORSDOF 0
ENDMDL
