MODEL 1
REMARK minimizedAffinity -0.541621149
REMARK minimizedRMSD -1
REMARK  0 active torsions:
REMARK  status: ('A' for Active; 'I' for Inactive)
ROOT
ATOM      1  N1  IND d   1      -3.285  -2.940  -2.474  0.00  0.00    -0.196 N 
ATOM      2  C2  IND d   1      -2.857  -2.730  -3.755  0.00  0.00     0.054 A 
ATOM      3  C3  IND d   1      -1.506  -2.744  -3.808  0.00  0.00    -0.031 A 
ATOM      4  C4  IND d   1       0.200  -3.197  -1.934  0.00  0.00     0.051 A 
ATOM      5  C5  IND d   1       0.289  -3.405  -0.586  0.00  0.00    -0.031 A 
ATOM      6  C6  IND d   1      -0.831  -3.473   0.217  0.00  0.00     0.015 A 
ATOM      7  C7  IND d   1      -2.089  -3.346  -0.302  0.00  0.00    -0.016 A 
ATOM      8  C8  IND d   1      -2.183  -3.128  -1.669  0.00  0.00    -0.047 A 
ATOM      9  C9  IND d   1      -1.048  -3.015  -2.482  0.00  0.00    -0.096 A 
ATOM     10  HN1 IND d   1      -4.104  -2.953  -2.215  0.00  0.00     0.298 HD
ENDROOT
TORSDOF 0
ENDMDL
