MODEL 1
REMARK minimizedAffinity 12.7315035
REMARK minimizedRMSD -1
REMARK  0 active torsions:
REMARK  status: ('A' for Active; 'I' for Inactive)
ROOT
ATOM      1  N1  IND d   1       0.365  -3.374  -0.488  0.00  0.00    -0.196 N 
ATOM      2  C2  IND d   1       0.089  -2.598   0.603  0.00  0.00     0.054 A 
ATOM      3  C3  IND d   1      -1.128  -2.023   0.475  0.00  0.00    -0.031 A 
ATOM      4  C4  IND d   1      -2.878  -2.297  -1.392  0.00  0.00     0.051 A 
ATOM      5  C5  IND d   1      -3.066  -2.875  -2.617  0.00  0.00    -0.031 A 
ATOM      6  C6  IND d   1      -2.101  -3.667  -3.205  0.00  0.00     0.015 A 
ATOM      7  C7  IND d   1      -0.911  -3.921  -2.582  0.00  0.00    -0.016 A 
ATOM      8  C8  IND d   1      -0.715  -3.330  -1.342  0.00  0.00    -0.047 A 
ATOM      9  C9  IND d   1      -1.673  -2.491  -0.759  0.00  0.00    -0.096 A 
ATOM     10  HN1 IND d   1       1.092  -3.816  -0.619  0.00  0.00     0.298 HD
ENDROOT
TORSDOF 0
ENDMDL
