MODEL 1
REMARK minimizedAffinity 9.19522667
REMARK minimizedRMSD -1
REMARK  0 active torsions:
REMARK  status: ('A' for Active; 'I' for Inactive)
ROOT
ATOM      1  N1  IND d   1      -3.624  -2.634  -3.319  0.00  0.00    -0.196 N 
ATOM      2  C2  IND d   1      -2.560  -2.497  -2.471  0.00  0.00     0.054 A 
ATOM      3  C3  IND d   1      -2.572  -3.475  -1.538  0.00  0.00    -0.031 A 
ATOM      4  C4  IND d   1      -4.186  -5.463  -1.275  0.00  0.00     0.051 A 
ATOM      5  C5  IND d   1      -5.337  -5.992  -1.788  0.00  0.00    -0.031 A 
ATOM      6  C6  IND d   1      -5.987  -5.418  -2.861  0.00  0.00     0.015 A 
ATOM      7  C7  IND d   1      -5.503  -4.296  -3.471  0.00  0.00    -0.016 A 
ATOM      8  C8  IND d   1      -4.338  -3.752  -2.948  0.00  0.00    -0.047 A 
ATOM      9  C9  IND d   1      -3.696  -4.306  -1.832  0.00  0.00    -0.096 A 
ATOM     10  HN1 IND d   1      -3.815  -2.110  -3.973  0.00  0.00     0.298 HD
ENDROOT
TORSDOF 0
ENDMDL
