MODEL 1
REMARK minimizedAffinity 3.78528118
REMARK minimizedRMSD -1
REMARK  0 active torsions:
REMARK  status: ('A' for Active; 'I' for Inactive)
ROOT
ATOM      1  N1  IND d   1       2.235   0.275   4.009  0.00  0.00    -0.196 N 
ATOM      2  C2  IND d   1       1.125   1.065   4.125  0.00  0.00     0.054 A 
ATOM      3  C3  IND d   1       0.870   1.693   2.955  0.00  0.00    -0.031 A 
ATOM      4  C4  IND d   1       2.083   1.491   0.693  0.00  0.00     0.051 A 
ATOM      5  C5  IND d   1       3.175   0.919   0.104  0.00  0.00    -0.031 A 
ATOM      6  C6  IND d   1       4.026   0.084   0.800  0.00  0.00     0.015 A 
ATOM      7  C7  IND d   1       3.808  -0.220   2.114  0.00  0.00    -0.016 A 
ATOM      8  C8  IND d   1       2.704   0.365   2.717  0.00  0.00    -0.047 A 
ATOM      9  C9  IND d   1       1.861   1.246   2.028  0.00  0.00    -0.096 A 
ATOM     10  HN1 IND d   1       2.582  -0.198   4.638  0.00  0.00     0.298 HD
ENDROOT
TORSDOF 0
ENDMDL
