MODEL 1
REMARK minimizedAffinity 8.63196659
REMARK minimizedRMSD -1
REMARK  0 active torsions:
REMARK  status: ('A' for Active; 'I' for Inactive)
ROOT
ATOM      1  N1  IND d   1      -0.353  -3.545   0.126  0.00  0.00    -0.196 N 
ATOM      2  C2  IND d   1      -1.157  -2.842   0.979  0.00  0.00     0.054 A 
ATOM      3  C3  IND d   1      -2.233  -2.359   0.319  0.00  0.00    -0.031 A 
ATOM      4  C4  IND d   1      -2.929  -2.685  -2.138  0.00  0.00     0.051 A 
ATOM      5  C5  IND d   1      -2.496  -3.221  -3.318  0.00  0.00    -0.031 A 
ATOM      6  C6  IND d   1      -1.303  -3.909  -3.412  0.00  0.00     0.015 A 
ATOM      7  C7  IND d   1      -0.501  -4.097  -2.322  0.00  0.00    -0.016 A 
ATOM      8  C8  IND d   1      -0.935  -3.548  -1.123  0.00  0.00    -0.047 A 
ATOM      9  C9  IND d   1      -2.123  -2.812  -1.031  0.00  0.00    -0.096 A 
ATOM     10  HN1 IND d   1       0.391  -3.923   0.334  0.00  0.00     0.298 HD
ENDROOT
TORSDOF 0
ENDMDL
