MODEL 1
REMARK minimizedAffinity 3.64950824
REMARK minimizedRMSD -1
REMARK  0 active torsions:
REMARK  status: ('A' for Active; 'I' for Inactive)
ROOT
ATOM      1  C   UNL d   1      -3.074   0.281  -4.103  0.00  0.00     0.078 C 
ATOM      2  C1  UNL d   1      -3.261   0.378  -2.618  0.00  0.00    -0.077 A 
ATOM      3  C2  UNL d   1      -2.215   0.075  -1.738  0.00  0.00    -0.001 A 
ATOM      4  C3  UNL d   1      -2.406   0.161  -0.358  0.00  0.00     0.003 A 
ATOM      5  C4  UNL d   1      -3.642   0.549   0.154  0.00  0.00    -0.005 A 
ATOM      6  C5  UNL d   1      -4.690   0.851  -0.713  0.00  0.00     0.003 A 
ATOM      7  C6  UNL d   1      -4.501   0.766  -2.094  0.00  0.00    -0.001 A 
ENDROOT
TORSDOF 0
ENDMDL
