MODEL 1
REMARK minimizedAffinity 2.89147615
REMARK minimizedRMSD -1
REMARK  0 active torsions:
REMARK  status: ('A' for Active; 'I' for Inactive)
ROOT
ATOM      1  C   UNL d   1       4.605   2.582  -1.892  0.00  0.00     0.078 C 
ATOM      2  C1  UNL d   1       3.783   1.574  -1.147  0.00  0.00    -0.077 A 
ATOM      3  C2  UNL d   1       4.217   1.053   0.079  0.00  0.00    -0.001 A 
ATOM      4  C3  UNL d   1       3.446   0.108   0.757  0.00  0.00     0.003 A 
ATOM      5  C4  UNL d   1       2.237  -0.326   0.217  0.00  0.00    -0.005 A 
ATOM      6  C5  UNL d   1       1.798   0.185  -1.003  0.00  0.00     0.003 A 
ATOM      7  C6  UNL d   1       2.568   1.130  -1.682  0.00  0.00    -0.001 A 
ENDROOT
TORSDOF 0
ENDMDL
