MODEL 1
REMARK minimizedAffinity 5.64033079
REMARK minimizedRMSD -1
REMARK  0 active torsions:
REMARK  status: ('A' for Active; 'I' for Inactive)
ROOT
ATOM      1  C   UNL d   1       2.433  -0.713  -0.014  0.00  0.00     0.078 C 
ATOM      2  C1  UNL d   1       3.106   0.563  -0.423  0.00  0.00    -0.077 A 
ATOM      3  C2  UNL d   1       3.867   0.633  -1.596  0.00  0.00    -0.001 A 
ATOM      4  C3  UNL d   1       4.496   1.825  -1.959  0.00  0.00     0.003 A 
ATOM      5  C4  UNL d   1       4.371   2.956  -1.155  0.00  0.00    -0.005 A 
ATOM      6  C5  UNL d   1       3.617   2.895   0.016  0.00  0.00     0.003 A 
ATOM      7  C6  UNL d   1       2.988   1.704   0.381  0.00  0.00    -0.001 A 
ENDROOT
TORSDOF 0
ENDMDL
