MODEL 1
REMARK minimizedAffinity 7.54189682
REMARK minimizedRMSD -1
REMARK  0 active torsions:
REMARK  status: ('A' for Active; 'I' for Inactive)
ROOT
ATOM      1  C   UNL d   1       3.473   2.099  -0.929  0.00  0.00     0.078 C 
ATOM      2  C1  UNL d   1       3.007   0.699  -0.660  0.00  0.00    -0.077 A 
ATOM      3  C2  UNL d   1       3.635  -0.096   0.307  0.00  0.00    -0.001 A 
ATOM      4  C3  UNL d   1       3.198  -1.400   0.540  0.00  0.00     0.003 A 
ATOM      5  C4  UNL d   1       2.132  -1.922  -0.190  0.00  0.00    -0.005 A 
ATOM      6  C5  UNL d   1       1.502  -1.139  -1.155  0.00  0.00     0.003 A 
ATOM      7  C6  UNL d   1       1.938   0.166  -1.390  0.00  0.00    -0.001 A 
ENDROOT
TORSDOF 0
ENDMDL
