MODEL 1
REMARK minimizedAffinity 4.19486046
REMARK minimizedRMSD -1
REMARK  0 active torsions:
REMARK  status: ('A' for Active; 'I' for Inactive)
ROOT
ATOM      1  C   UNL d   1      -4.562   5.945   5.988  0.00  0.00     0.078 C 
ATOM      2  C1  UNL d   1      -5.057   5.266   4.746  0.00  0.00    -0.077 A 
ATOM      3  C2  UNL d   1      -5.350   5.999   3.590  0.00  0.00    -0.001 A 
ATOM      4  C3  UNL d   1      -5.819   5.355   2.445  0.00  0.00     0.003 A 
ATOM      5  C4  UNL d   1      -6.000   3.973   2.444  0.00  0.00    -0.005 A 
ATOM      6  C5  UNL d   1      -5.713   3.235   3.590  0.00  0.00     0.003 A 
ATOM      7  C6  UNL d   1      -5.244   3.878   4.737  0.00  0.00    -0.001 A 
ENDROOT
TORSDOF 0
ENDMDL
