MODEL 1
REMARK minimizedAffinity 6.58164454
REMARK minimizedRMSD -1
REMARK  0 active torsions:
REMARK  status: ('A' for Active; 'I' for Inactive)
ROOT
ATOM      1  C   UNL d   1       4.594   2.160  -1.756  0.00  0.00     0.078 C 
ATOM      2  C1  UNL d   1       3.672   1.263  -0.985  0.00  0.00    -0.077 A 
ATOM      3  C2  UNL d   1       3.824   1.087   0.395  0.00  0.00    -0.001 A 
ATOM      4  C3  UNL d   1       2.965   0.241   1.098  0.00  0.00     0.003 A 
ATOM      5  C4  UNL d   1       1.948  -0.436   0.428  0.00  0.00    -0.005 A 
ATOM      6  C5  UNL d   1       1.790  -0.269  -0.946  0.00  0.00     0.003 A 
ATOM      7  C6  UNL d   1       2.649   0.576  -1.651  0.00  0.00    -0.001 A 
ENDROOT
TORSDOF 0
ENDMDL
