MODEL 1
REMARK minimizedAffinity 20.5920563
REMARK minimizedRMSD -1
REMARK  0 active torsions:
REMARK  status: ('A' for Active; 'I' for Inactive)
ROOT
ATOM      1  C   UNL d   1      -4.003   4.520  -0.701  0.00  0.00     0.078 C 
ATOM      2  C1  UNL d   1      -4.628   3.174  -0.915  0.00  0.00    -0.077 A 
ATOM      3  C2  UNL d   1      -5.373   2.901  -2.069  0.00  0.00    -0.001 A 
ATOM      4  C3  UNL d   1      -5.958   1.646  -2.251  0.00  0.00     0.003 A 
ATOM      5  C4  UNL d   1      -5.804   0.656  -1.282  0.00  0.00    -0.005 A 
ATOM      6  C5  UNL d   1      -5.066   0.920  -0.130  0.00  0.00     0.003 A 
ATOM      7  C6  UNL d   1      -4.481   2.174   0.053  0.00  0.00    -0.001 A 
ENDROOT
TORSDOF 0
ENDMDL
