MODEL 1
REMARK minimizedAffinity 1.02715218
REMARK minimizedRMSD -1
REMARK  0 active torsions:
REMARK  status: ('A' for Active; 'I' for Inactive)
ROOT
ATOM      1  C   UNL d   1      -4.841   3.466   2.294  0.00  0.00     0.078 C 
ATOM      2  C1  UNL d   1      -4.872   4.338   3.514  0.00  0.00    -0.077 A 
ATOM      3  C2  UNL d   1      -5.981   4.342   4.370  0.00  0.00    -0.001 A 
ATOM      4  C3  UNL d   1      -6.000   5.166   5.496  0.00  0.00     0.003 A 
ATOM      5  C4  UNL d   1      -4.914   5.993   5.776  0.00  0.00    -0.005 A 
ATOM      6  C5  UNL d   1      -3.808   5.998   4.929  0.00  0.00     0.003 A 
ATOM      7  C6  UNL d   1      -3.787   5.175   3.802  0.00  0.00    -0.001 A 
ENDROOT
TORSDOF 0
ENDMDL
