MODEL 1
REMARK minimizedAffinity 14.8299913
REMARK minimizedRMSD -1
REMARK  0 active torsions:
REMARK  status: ('A' for Active; 'I' for Inactive)
ROOT
ATOM      1  C   UNL d   1       3.456   1.366  -0.711  0.00  0.00     0.078 C 
ATOM      2  C1  UNL d   1       3.101  -0.040  -0.332  0.00  0.00    -0.077 A 
ATOM      3  C2  UNL d   1       3.361  -0.528   0.954  0.00  0.00    -0.001 A 
ATOM      4  C3  UNL d   1       3.034  -1.843   1.290  0.00  0.00     0.003 A 
ATOM      5  C4  UNL d   1       2.446  -2.681   0.345  0.00  0.00    -0.005 A 
ATOM      6  C5  UNL d   1       2.185  -2.205  -0.939  0.00  0.00     0.003 A 
ATOM      7  C6  UNL d   1       2.512  -0.891  -1.276  0.00  0.00    -0.001 A 
ENDROOT
TORSDOF 0
ENDMDL
