MODEL 1
REMARK minimizedAffinity 5.64897251
REMARK minimizedRMSD -1
REMARK  1 active torsions:
REMARK  status: ('A' for Active; 'I' for Inactive)
REMARK    1  A    between atoms: C1_2  and  C2_3 
ROOT
ATOM      1  C2  UNL d   1       1.217  -1.817   4.414  0.00  0.00    -0.073 A 
ATOM      2  C3  UNL d   1       1.909  -0.622   4.641  0.00  0.00    -0.002 A 
ATOM      3  C4  UNL d   1       1.561   0.536   3.945  0.00  0.00     0.004 A 
ATOM      4  C5  UNL d   1       0.516   0.514   3.022  0.00  0.00    -0.004 A 
ATOM      5  C6  UNL d   1      -0.195  -0.668   2.790  0.00  0.00    -0.075 A 
ATOM      6  C7  UNL d   1      -1.321  -0.709   1.799  0.00  0.00     0.076 C 
ATOM      7  C8  UNL d   1       0.162  -1.828   3.491  0.00  0.00     0.001 A 
ENDROOT
BRANCH   1   8
ATOM      8  C1  UNL d   1       1.585  -3.069   5.168  0.00  0.00     0.053 C 
ATOM      9  C   UNL d   1       2.844  -2.886   5.999  0.00  0.00     0.018 C 
ENDBRANCH   1   8
TORSDOF 1
ENDMDL
