MODEL 1
REMARK minimizedAffinity 3.82085705
REMARK minimizedRMSD -1
REMARK  1 active torsions:
REMARK  status: ('A' for Active; 'I' for Inactive)
REMARK    1  A    between atoms: C1_2  and  C2_3 
ROOT
ATOM      1  C2  UNL d   1       4.908   4.758   1.311  0.00  0.00    -0.073 A 
ATOM      2  C3  UNL d   1       4.048   3.740   0.884  0.00  0.00    -0.002 A 
ATOM      3  C4  UNL d   1       3.806   2.634   1.700  0.00  0.00     0.004 A 
ATOM      4  C5  UNL d   1       4.415   2.537   2.951  0.00  0.00    -0.004 A 
ATOM      5  C6  UNL d   1       5.268   3.550   3.400  0.00  0.00    -0.075 A 
ATOM      6  C7  UNL d   1       5.933   3.461   4.743  0.00  0.00     0.076 C 
ATOM      7  C8  UNL d   1       5.508   4.657   2.575  0.00  0.00     0.001 A 
ENDROOT
BRANCH   1   8
ATOM      8  C1  UNL d   1       5.167   5.958   0.437  0.00  0.00     0.053 C 
ATOM      9  C   UNL d   1       4.266   5.976  -0.787  0.00  0.00     0.018 C 
ENDBRANCH   1   8
TORSDOF 1
ENDMDL
