MODEL 1
REMARK minimizedAffinity 20.6109085
REMARK minimizedRMSD -1
REMARK  1 active torsions:
REMARK  status: ('A' for Active; 'I' for Inactive)
REMARK    1  A    between atoms: C1_2  and  C2_3 
ROOT
ATOM      1  C2  UNL d   1      -0.694  -2.011  -2.772  0.00  0.00    -0.073 A 
ATOM      2  C3  UNL d   1      -1.686  -1.651  -3.691  0.00  0.00    -0.002 A 
ATOM      3  C4  UNL d   1      -1.353  -0.944  -4.847  0.00  0.00     0.004 A 
ATOM      4  C5  UNL d   1      -0.026  -0.596  -5.099  0.00  0.00    -0.004 A 
ATOM      5  C6  UNL d   1       0.982  -0.957  -4.198  0.00  0.00    -0.075 A 
ATOM      6  C7  UNL d   1       2.414  -0.588  -4.453  0.00  0.00     0.076 C 
ATOM      7  C8  UNL d   1       0.638  -1.664  -3.038  0.00  0.00     0.001 A 
ENDROOT
BRANCH   1   8
ATOM      8  C1  UNL d   1      -1.048  -2.780  -1.525  0.00  0.00     0.053 C 
ATOM      9  C   UNL d   1      -1.617  -4.153  -1.845  0.00  0.00     0.018 C 
ENDBRANCH   1   8
TORSDOF 1
ENDMDL
