MODEL 1
REMARK minimizedAffinity 9.67132282
REMARK minimizedRMSD -1
REMARK  1 active torsions:
REMARK  status: ('A' for Active; 'I' for Inactive)
REMARK    1  A    between atoms: C1_2  and  C2_3 
ROOT
ATOM      1  C2  UNL d   1       1.513  -1.727   3.977  0.00  0.00    -0.073 A 
ATOM      2  C3  UNL d   1       2.268  -0.556   3.846  0.00  0.00    -0.002 A 
ATOM      3  C4  UNL d   1       1.729   0.562   3.207  0.00  0.00     0.004 A 
ATOM      4  C5  UNL d   1       0.431   0.523   2.699  0.00  0.00    -0.004 A 
ATOM      5  C6  UNL d   1      -0.343  -0.634   2.831  0.00  0.00    -0.075 A 
ATOM      6  C7  UNL d   1      -1.741  -0.693   2.288  0.00  0.00     0.076 C 
ATOM      7  C8  UNL d   1       0.205  -1.753   3.471  0.00  0.00     0.001 A 
ENDROOT
BRANCH   1   8
ATOM      8  C1  UNL d   1       2.087  -2.934   4.672  0.00  0.00     0.053 C 
ATOM      9  C   UNL d   1       3.388  -2.613   5.391  0.00  0.00     0.018 C 
ENDBRANCH   1   8
TORSDOF 1
ENDMDL
