MODEL 1
REMARK minimizedAffinity 13.7728605
REMARK minimizedRMSD -1
REMARK  1 active torsions:
REMARK  status: ('A' for Active; 'I' for Inactive)
REMARK    1  A    between atoms: C1_2  and  C2_3 
ROOT
ATOM      1  C2  UNL d   1      -0.410   1.275   2.643  0.00  0.00    -0.073 A 
ATOM      2  C3  UNL d   1      -0.935  -0.020   2.570  0.00  0.00    -0.002 A 
ATOM      3  C4  UNL d   1      -0.120  -1.126   2.816  0.00  0.00     0.004 A 
ATOM      4  C5  UNL d   1       1.224  -0.949   3.144  0.00  0.00    -0.004 A 
ATOM      5  C6  UNL d   1       1.764   0.338   3.233  0.00  0.00    -0.075 A 
ATOM      6  C7  UNL d   1       3.209   0.546   3.582  0.00  0.00     0.076 C 
ATOM      7  C8  UNL d   1       0.941   1.444   2.982  0.00  0.00     0.001 A 
ENDROOT
BRANCH   1   8
ATOM      8  C1  UNL d   1      -1.287   2.473   2.384  0.00  0.00     0.053 C 
ATOM      9  C   UNL d   1      -0.602   3.500   1.496  0.00  0.00     0.018 C 
ENDBRANCH   1   8
TORSDOF 1
ENDMDL
