MODEL 1
REMARK minimizedAffinity 11.9144993
REMARK minimizedRMSD -1
REMARK  1 active torsions:
REMARK  status: ('A' for Active; 'I' for Inactive)
REMARK    1  A    between atoms: C1_2  and  C2_3 
ROOT
ATOM      1  C2  UNL d   1       3.357  -3.267  -4.873  0.00  0.00    -0.073 A 
ATOM      2  C3  UNL d   1       2.585  -4.170  -5.614  0.00  0.00    -0.002 A 
ATOM      3  C4  UNL d   1       1.225  -3.933  -5.817  0.00  0.00     0.004 A 
ATOM      4  C5  UNL d   1       0.625  -2.791  -5.288  0.00  0.00    -0.004 A 
ATOM      5  C6  UNL d   1       1.382  -1.871  -4.555  0.00  0.00    -0.075 A 
ATOM      6  C7  UNL d   1       0.750  -0.638  -3.977  0.00  0.00     0.076 C 
ATOM      7  C8  UNL d   1       2.746  -2.117  -4.353  0.00  0.00     0.001 A 
ENDROOT
BRANCH   1   8
ATOM      8  C1  UNL d   1       4.827  -3.515  -4.657  0.00  0.00     0.053 C 
ATOM      9  C   UNL d   1       5.624  -3.377  -5.944  0.00  0.00     0.018 C 
ENDBRANCH   1   8
TORSDOF 1
ENDMDL
