MODEL 1
REMARK minimizedAffinity 13.7187338
REMARK minimizedRMSD -1
REMARK  1 active torsions:
REMARK  status: ('A' for Active; 'I' for Inactive)
REMARK    1  A    between atoms: C1_2  and  C2_3 
ROOT
ATOM      1  C2  UNL d   1       0.008  -3.251  -5.861  0.00  0.00    -0.073 A 
ATOM      2  C3  UNL d   1       1.068  -4.160  -5.766  0.00  0.00    -0.002 A 
ATOM      3  C4  UNL d   1       0.816  -5.527  -5.644  0.00  0.00     0.004 A 
ATOM      4  C5  UNL d   1      -0.496  -6.000  -5.623  0.00  0.00    -0.004 A 
ATOM      5  C6  UNL d   1      -1.569  -5.109  -5.729  0.00  0.00    -0.075 A 
ATOM      6  C7  UNL d   1      -2.986  -5.602  -5.705  0.00  0.00     0.076 C 
ATOM      7  C8  UNL d   1      -1.308  -3.737  -5.848  0.00  0.00     0.001 A 
ENDROOT
BRANCH   1   8
ATOM      8  C1  UNL d   1       0.274  -1.775  -6.000  0.00  0.00     0.053 C 
ATOM      9  C   UNL d   1       0.644  -1.135  -4.671  0.00  0.00     0.018 C 
ENDBRANCH   1   8
TORSDOF 1
ENDMDL
