MODEL 1
REMARK minimizedAffinity -3.39933324
REMARK minimizedRMSD -1
REMARK  0 active torsions:
REMARK  status: ('A' for Active; 'I' for Inactive)
ROOT
ATOM      1  C   UNL d   1      -0.728   3.706  -2.521  0.00  0.00     0.023 A 
ATOM      2  C1  UNL d   1      -1.665   2.673  -2.480  0.00  0.00     0.003 A 
ATOM      3  C2  UNL d   1      -1.269   1.384  -2.117  0.00  0.00     0.048 A 
ATOM      4  C3  UNL d   1       0.064   1.135  -1.795  0.00  0.00     0.023 A 
ATOM      5  C4  UNL d   1       1.005   2.165  -1.833  0.00  0.00     0.048 A 
ATOM      6  C5  UNL d   1       0.605   3.452  -2.198  0.00  0.00     0.003 A 
ATOM      7  I   UNL d   1       0.655  -0.783  -1.253  0.00  0.00    -0.146 I 
ENDROOT
TORSDOF 0
ENDMDL
