MODEL 1
REMARK minimizedAffinity -3.3262167
REMARK minimizedRMSD -1
REMARK  0 active torsions:
REMARK  status: ('A' for Active; 'I' for Inactive)
ROOT
ATOM      1  C   UNL d   1      -1.224   4.136  -3.087  0.00  0.00     0.023 A 
ATOM      2  C1  UNL d   1       0.134   3.912  -2.860  0.00  0.00     0.003 A 
ATOM      3  C2  UNL d   1       0.546   2.800  -2.123  0.00  0.00     0.048 A 
ATOM      4  C3  UNL d   1      -0.405   1.916  -1.616  0.00  0.00     0.023 A 
ATOM      5  C4  UNL d   1      -1.765   2.135  -1.841  0.00  0.00     0.048 A 
ATOM      6  C5  UNL d   1      -2.173   3.248  -2.578  0.00  0.00     0.003 A 
ATOM      7  I   UNL d   1       0.206   0.260  -0.519  0.00  0.00    -0.146 I 
ENDROOT
TORSDOF 0
ENDMDL
