MODEL 1
REMARK minimizedAffinity -1.00034797
REMARK minimizedRMSD -1
REMARK  0 active torsions:
REMARK  status: ('A' for Active; 'I' for Inactive)
ROOT
ATOM      1  C   UNL d   1      -0.423   3.027  -2.908  0.00  0.00     0.023 A 
ATOM      2  C1  UNL d   1      -1.645   2.419  -2.617  0.00  0.00     0.003 A 
ATOM      3  C2  UNL d   1      -1.709   1.396  -1.669  0.00  0.00     0.048 A 
ATOM      4  C3  UNL d   1      -0.548   0.986  -1.014  0.00  0.00     0.023 A 
ATOM      5  C4  UNL d   1       0.676   1.592  -1.301  0.00  0.00     0.048 A 
ATOM      6  C5  UNL d   1       0.736   2.613  -2.251  0.00  0.00     0.003 A 
ATOM      7  I   UNL d   1      -0.641  -0.536   0.398  0.00  0.00    -0.146 I 
ENDROOT
TORSDOF 0
ENDMDL
