MODEL 1
REMARK minimizedAffinity -1.17252278
REMARK minimizedRMSD -1
REMARK  0 active torsions:
REMARK  status: ('A' for Active; 'I' for Inactive)
ROOT
ATOM      1  C   UNL d   1       0.341  -1.092   2.030  0.00  0.00     0.023 A 
ATOM      2  C1  UNL d   1      -0.746  -0.230   2.174  0.00  0.00     0.003 A 
ATOM      3  C2  UNL d   1      -1.199   0.513   1.082  0.00  0.00     0.048 A 
ATOM      4  C3  UNL d   1      -0.560   0.388  -0.152  0.00  0.00     0.023 A 
ATOM      5  C4  UNL d   1       0.527  -0.474  -0.301  0.00  0.00     0.048 A 
ATOM      6  C5  UNL d   1       0.977  -1.214   0.794  0.00  0.00     0.003 A 
ATOM      7  I   UNL d   1      -1.233   1.493  -1.779  0.00  0.00    -0.146 I 
ENDROOT
TORSDOF 0
ENDMDL
