MODEL 1
REMARK minimizedAffinity -3.73394704
REMARK minimizedRMSD -1
REMARK  0 active torsions:
REMARK  status: ('A' for Active; 'I' for Inactive)
ROOT
ATOM      1  C   UNL d   1       0.025  -1.115   2.124  0.00  0.00     0.023 A 
ATOM      2  C1  UNL d   1      -1.170  -0.407   1.991  0.00  0.00     0.003 A 
ATOM      3  C2  UNL d   1      -1.405   0.359   0.848  0.00  0.00     0.048 A 
ATOM      4  C3  UNL d   1      -0.442   0.412  -0.159  0.00  0.00     0.023 A 
ATOM      5  C4  UNL d   1       0.754  -0.295  -0.031  0.00  0.00     0.048 A 
ATOM      6  C5  UNL d   1       0.986  -1.059   1.115  0.00  0.00     0.003 A 
ATOM      7  I   UNL d   1      -0.790   1.552  -1.862  0.00  0.00    -0.146 I 
ENDROOT
TORSDOF 0
ENDMDL
