MODEL 1
REMARK minimizedAffinity -0.618744969
REMARK minimizedRMSD -1
REMARK  0 active torsions:
REMARK  status: ('A' for Active; 'I' for Inactive)
ROOT
ATOM      1  C   UNL d   1      -0.530  -0.747  -0.125  0.00  0.00     0.023 A 
ATOM      2  C1  UNL d   1      -0.821  -0.650  -1.486  0.00  0.00     0.003 A 
ATOM      3  C2  UNL d   1      -0.913   0.604  -2.094  0.00  0.00     0.048 A 
ATOM      4  C3  UNL d   1      -0.712   1.756  -1.335  0.00  0.00     0.023 A 
ATOM      5  C4  UNL d   1      -0.420   1.664   0.027  0.00  0.00     0.048 A 
ATOM      6  C5  UNL d   1      -0.330   0.408   0.630  0.00  0.00     0.003 A 
ATOM      7  I   UNL d   1      -0.848   3.624  -2.237  0.00  0.00    -0.146 I 
ENDROOT
TORSDOF 0
ENDMDL
