MODEL 1
REMARK minimizedAffinity -4.16756582
REMARK minimizedRMSD -1
REMARK  0 active torsions:
REMARK  status: ('A' for Active; 'I' for Inactive)
ROOT
ATOM      1  C   UNL d   1      -0.680   1.734   2.880  0.00  0.00     0.077 C 
ATOM      2  C1  UNL d   1      -0.602   0.808   1.703  0.00  0.00    -0.074 A 
ATOM      3  C2  UNL d   1      -1.728   0.550   0.915  0.00  0.00    -0.005 A 
ATOM      4  C3  UNL d   1      -1.638  -0.306  -0.182  0.00  0.00     0.006 A 
ATOM      5  C4  UNL d   1      -0.422  -0.912  -0.503  0.00  0.00    -0.005 A 
ATOM      6  C5  UNL d   1       0.715  -0.664   0.273  0.00  0.00    -0.074 A 
ATOM      7  C6  UNL d   1       2.032  -1.299  -0.064  0.00  0.00     0.077 C 
ATOM      8  C7  UNL d   1       0.618   0.203   1.370  0.00  0.00    -0.001 A 
ENDROOT
TORSDOF 0
ENDMDL
