MODEL 1
REMARK minimizedAffinity 2.11718082
REMARK minimizedRMSD -1
REMARK  0 active torsions:
REMARK  status: ('A' for Active; 'I' for Inactive)
ROOT
ATOM      1  C   UNL d   1       2.290  -1.523   0.348  0.00  0.00     0.077 C 
ATOM      2  C1  UNL d   1       1.129  -0.657   0.737  0.00  0.00    -0.074 A 
ATOM      3  C2  UNL d   1       1.313   0.472   1.543  0.00  0.00    -0.005 A 
ATOM      4  C3  UNL d   1       0.225   1.274   1.888  0.00  0.00     0.006 A 
ATOM      5  C4  UNL d   1      -1.055   0.955   1.433  0.00  0.00    -0.005 A 
ATOM      6  C5  UNL d   1      -1.258  -0.169   0.627  0.00  0.00    -0.074 A 
ATOM      7  C6  UNL d   1      -2.625  -0.519   0.121  0.00  0.00     0.077 C 
ATOM      8  C7  UNL d   1      -0.159  -0.965   0.278  0.00  0.00    -0.001 A 
ENDROOT
TORSDOF 0
ENDMDL
