MODEL 1
REMARK minimizedAffinity 0.240450874
REMARK minimizedRMSD -1
REMARK  0 active torsions:
REMARK  status: ('A' for Active; 'I' for Inactive)
ROOT
ATOM      1  C   UNL d   1       1.460  -2.073  -0.653  0.00  0.00     0.077 C 
ATOM      2  C1  UNL d   1       2.147  -1.341  -1.768  0.00  0.00    -0.074 A 
ATOM      3  C2  UNL d   1       3.529  -1.450  -1.955  0.00  0.00    -0.005 A 
ATOM      4  C3  UNL d   1       4.152  -0.772  -3.002  0.00  0.00     0.006 A 
ATOM      5  C4  UNL d   1       3.402   0.022  -3.871  0.00  0.00    -0.005 A 
ATOM      6  C5  UNL d   1       2.019   0.142  -3.700  0.00  0.00    -0.074 A 
ATOM      7  C6  UNL d   1       1.196   0.983  -4.630  0.00  0.00     0.077 C 
ATOM      8  C7  UNL d   1       1.399  -0.548  -2.649  0.00  0.00    -0.001 A 
ENDROOT
TORSDOF 0
ENDMDL
