MODEL 1
REMARK minimizedAffinity 8.74064159
REMARK minimizedRMSD -1
REMARK  0 active torsions:
REMARK  status: ('A' for Active; 'I' for Inactive)
ROOT
ATOM      1  C   UNL d   1       1.716   0.941  -2.936  0.00  0.00     0.077 C 
ATOM      2  C1  UNL d   1       1.317  -0.184  -2.027  0.00  0.00    -0.074 A 
ATOM      3  C2  UNL d   1       0.369  -1.130  -2.428  0.00  0.00    -0.005 A 
ATOM      4  C3  UNL d   1       0.015  -2.177  -1.576  0.00  0.00     0.006 A 
ATOM      5  C4  UNL d   1       0.606  -2.287  -0.317  0.00  0.00    -0.005 A 
ATOM      6  C5  UNL d   1       1.557  -1.351   0.101  0.00  0.00    -0.074 A 
ATOM      7  C6  UNL d   1       2.208  -1.461   1.448  0.00  0.00     0.077 C 
ATOM      8  C7  UNL d   1       1.912  -0.306  -0.763  0.00  0.00    -0.001 A 
ENDROOT
TORSDOF 0
ENDMDL
