MODEL 1
REMARK minimizedAffinity 0.732185304
REMARK minimizedRMSD -1
REMARK  0 active torsions:
REMARK  status: ('A' for Active; 'I' for Inactive)
ROOT
ATOM      1  C   UNL d   1       4.591  -2.084  -4.261  0.00  0.00     0.077 C 
ATOM      2  C1  UNL d   1       3.697  -0.961  -3.827  0.00  0.00    -0.074 A 
ATOM      3  C2  UNL d   1       4.204   0.123  -3.104  0.00  0.00    -0.005 A 
ATOM      4  C3  UNL d   1       3.363   1.166  -2.716  0.00  0.00     0.006 A 
ATOM      5  C4  UNL d   1       2.007   1.134  -3.047  0.00  0.00    -0.005 A 
ATOM      6  C5  UNL d   1       1.482   0.059  -3.770  0.00  0.00    -0.074 A 
ATOM      7  C6  UNL d   1       0.030   0.014  -4.142  0.00  0.00     0.077 C 
ATOM      8  C7  UNL d   1       2.336  -0.981  -4.162  0.00  0.00    -0.001 A 
ENDROOT
TORSDOF 0
ENDMDL
