MODEL 1
REMARK minimizedAffinity 5.68716574
REMARK minimizedRMSD -1
REMARK  0 active torsions:
REMARK  status: ('A' for Active; 'I' for Inactive)
ROOT
ATOM      1  C   UNL d   1      -0.415  -0.441  -5.508  0.00  0.00     0.077 C 
ATOM      2  C1  UNL d   1       0.569   0.021  -4.474  0.00  0.00    -0.074 A 
ATOM      3  C2  UNL d   1       1.477   1.048  -4.754  0.00  0.00    -0.005 A 
ATOM      4  C3  UNL d   1       2.379   1.473  -3.779  0.00  0.00     0.006 A 
ATOM      5  C4  UNL d   1       2.383   0.878  -2.517  0.00  0.00    -0.005 A 
ATOM      6  C5  UNL d   1       1.481  -0.149  -2.219  0.00  0.00    -0.074 A 
ATOM      7  C6  UNL d   1       1.465  -0.793  -0.864  0.00  0.00     0.077 C 
ATOM      8  C7  UNL d   1       0.573  -0.566  -3.202  0.00  0.00    -0.001 A 
ENDROOT
TORSDOF 0
ENDMDL
