MODEL 1
REMARK minimizedAffinity 3.74393153
REMARK minimizedRMSD -1
REMARK  0 active torsions:
REMARK  status: ('A' for Active; 'I' for Inactive)
ROOT
ATOM      1  C   UNL d   1       5.875  -5.025   1.306  0.00  0.00     0.023 A 
ATOM      2  C1  UNL d   1       5.792  -4.113   0.253  0.00  0.00     0.003 A 
ATOM      3  C2  UNL d   1       4.556  -3.571  -0.107  0.00  0.00     0.048 A 
ATOM      4  C3  UNL d   1       3.408  -3.944   0.591  0.00  0.00     0.023 A 
ATOM      5  C4  UNL d   1       3.486  -4.855   1.646  0.00  0.00     0.048 A 
ATOM      6  C5  UNL d   1       4.724  -5.395   2.001  0.00  0.00     0.003 A 
ATOM      7  I   UNL d   1       1.568  -3.138   0.057  0.00  0.00    -0.146 I 
ENDROOT
TORSDOF 0
ENDMDL
