MODEL 1
REMARK minimizedAffinity 5.3166852
REMARK minimizedRMSD -1
REMARK  0 active torsions:
REMARK  status: ('A' for Active; 'I' for Inactive)
ROOT
ATOM      1  C   UNL d   1       1.137  -2.006   1.134  0.00  0.00     0.023 A 
ATOM      2  C1  UNL d   1       1.917  -1.453   0.119  0.00  0.00     0.003 A 
ATOM      3  C2  UNL d   1       2.436  -0.164   0.259  0.00  0.00     0.048 A 
ATOM      4  C3  UNL d   1       2.171   0.566   1.418  0.00  0.00     0.023 A 
ATOM      5  C4  UNL d   1       1.392   0.015   2.437  0.00  0.00     0.048 A 
ATOM      6  C5  UNL d   1       0.874  -1.273   2.292  0.00  0.00     0.003 A 
ATOM      7  I   UNL d   1       2.942   2.484   1.629  0.00  0.00    -0.146 I 
ENDROOT
TORSDOF 0
ENDMDL
