MODEL 1
REMARK minimizedAffinity -4.86510134
REMARK minimizedRMSD -1
REMARK  0 active torsions:
REMARK  status: ('A' for Active; 'I' for Inactive)
ROOT
ATOM      1  C   UNL d   1      -4.212  -1.914  -5.995  0.00  0.00     0.023 A 
ATOM      2  C1  UNL d   1      -4.665  -0.600  -5.868  0.00  0.00     0.003 A 
ATOM      3  C2  UNL d   1      -4.091   0.248  -4.919  0.00  0.00     0.048 A 
ATOM      4  C3  UNL d   1      -3.064  -0.223  -4.101  0.00  0.00     0.023 A 
ATOM      5  C4  UNL d   1      -2.608  -1.536  -4.226  0.00  0.00     0.048 A 
ATOM      6  C5  UNL d   1      -3.185  -2.381  -5.175  0.00  0.00     0.003 A 
ATOM      7  I   UNL d   1      -2.208   1.038  -2.688  0.00  0.00    -0.146 I 
ENDROOT
TORSDOF 0
ENDMDL
