MODEL 1
REMARK minimizedAffinity -5.31076288
REMARK minimizedRMSD -1
REMARK  0 active torsions:
REMARK  status: ('A' for Active; 'I' for Inactive)
ROOT
ATOM      1  C   UNL d   1      -4.204   2.758  -3.134  0.00  0.00     0.023 A 
ATOM      2  C1  UNL d   1      -3.168   2.089  -2.481  0.00  0.00     0.003 A 
ATOM      3  C2  UNL d   1      -2.874   0.764  -2.811  0.00  0.00     0.048 A 
ATOM      4  C3  UNL d   1      -3.619   0.115  -3.794  0.00  0.00     0.023 A 
ATOM      5  C4  UNL d   1      -4.655   0.780  -4.451  0.00  0.00     0.048 A 
ATOM      6  C5  UNL d   1      -4.946   2.104  -4.118  0.00  0.00     0.003 A 
ATOM      7  I   UNL d   1      -3.182  -1.857  -4.286  0.00  0.00    -0.146 I 
ENDROOT
TORSDOF 0
ENDMDL
