MODEL 1
REMARK minimizedAffinity 3.10826945
REMARK minimizedRMSD -1
REMARK  0 active torsions:
REMARK  status: ('A' for Active; 'I' for Inactive)
ROOT
ATOM      1  C   UNL d   1      -3.402  -1.794  -4.039  0.00  0.00     0.023 A 
ATOM      2  C1  UNL d   1      -2.932  -1.100  -5.154  0.00  0.00     0.003 A 
ATOM      3  C2  UNL d   1      -3.253   0.248  -5.325  0.00  0.00     0.048 A 
ATOM      4  C3  UNL d   1      -4.045   0.896  -4.377  0.00  0.00     0.023 A 
ATOM      5  C4  UNL d   1      -4.517   0.205  -3.260  0.00  0.00     0.048 A 
ATOM      6  C5  UNL d   1      -4.194  -1.143  -3.093  0.00  0.00     0.003 A 
ATOM      7  I   UNL d   1      -4.525   2.902  -4.630  0.00  0.00    -0.146 I 
ENDROOT
TORSDOF 0
ENDMDL
