MODEL 1
REMARK minimizedAffinity -0.01341963
REMARK minimizedRMSD -1
REMARK  0 active torsions:
REMARK  status: ('A' for Active; 'I' for Inactive)
ROOT
ATOM      1  C   UNL d   1       5.157  -4.964   5.353  0.00  0.00     0.023 A 
ATOM      2  C1  UNL d   1       4.622  -5.708   4.301  0.00  0.00     0.003 A 
ATOM      3  C2  UNL d   1       3.871  -5.076   3.308  0.00  0.00     0.048 A 
ATOM      4  C3  UNL d   1       3.660  -3.699   3.373  0.00  0.00     0.023 A 
ATOM      5  C4  UNL d   1       4.194  -2.950   4.423  0.00  0.00     0.048 A 
ATOM      6  C5  UNL d   1       4.944  -3.587   5.414  0.00  0.00     0.003 A 
ATOM      7  I   UNL d   1       2.543  -2.755   1.896  0.00  0.00    -0.146 I 
ENDROOT
TORSDOF 0
ENDMDL
