MODEL 1
REMARK minimizedAffinity -3.69847083
REMARK minimizedRMSD -1
REMARK  0 active torsions:
REMARK  status: ('A' for Active; 'I' for Inactive)
ROOT
ATOM      1  C   UNL d   1      -4.391  -1.390  -4.193  0.00  0.00     0.023 A 
ATOM      2  C1  UNL d   1      -3.533  -1.252  -3.101  0.00  0.00     0.003 A 
ATOM      3  C2  UNL d   1      -2.705  -0.133  -2.999  0.00  0.00     0.048 A 
ATOM      4  C3  UNL d   1      -2.740   0.846  -3.992  0.00  0.00     0.023 A 
ATOM      5  C4  UNL d   1      -3.597   0.713  -5.086  0.00  0.00     0.048 A 
ATOM      6  C5  UNL d   1      -4.423  -0.409  -5.184  0.00  0.00     0.003 A 
ATOM      7  I   UNL d   1      -1.508   2.513  -3.842  0.00  0.00    -0.146 I 
ENDROOT
TORSDOF 0
ENDMDL
