MODEL 1
REMARK minimizedAffinity 4.50349045
REMARK minimizedRMSD -1
REMARK  0 active torsions:
REMARK  status: ('A' for Active; 'I' for Inactive)
ROOT
ATOM      1  C   UNL d   1       0.493  -1.839   2.431  0.00  0.00     0.023 A 
ATOM      2  C1  UNL d   1       0.625  -0.518   2.859  0.00  0.00     0.003 A 
ATOM      3  C2  UNL d   1       1.443   0.367   2.154  0.00  0.00     0.048 A 
ATOM      4  C3  UNL d   1       2.125  -0.075   1.021  0.00  0.00     0.023 A 
ATOM      5  C4  UNL d   1       1.995  -1.395   0.588  0.00  0.00     0.048 A 
ATOM      6  C5  UNL d   1       1.177  -2.277   1.296  0.00  0.00     0.003 A 
ATOM      7  I   UNL d   1       3.343   1.241  -0.030  0.00  0.00    -0.146 I 
ENDROOT
TORSDOF 0
ENDMDL
