MODEL 1
REMARK minimizedAffinity 5.04971123
REMARK minimizedRMSD -1
REMARK  0 active torsions:
REMARK  status: ('A' for Active; 'I' for Inactive)
ROOT
ATOM      1  C   UNL d   1      -2.993  -0.371  -1.481  0.00  0.00     0.023 A 
ATOM      2  C1  UNL d   1      -2.988   0.979  -1.833  0.00  0.00     0.003 A 
ATOM      3  C2  UNL d   1      -3.336   1.365  -3.129  0.00  0.00     0.048 A 
ATOM      4  C3  UNL d   1      -3.690   0.397  -4.068  0.00  0.00     0.023 A 
ATOM      5  C4  UNL d   1      -3.697  -0.955  -3.720  0.00  0.00     0.048 A 
ATOM      6  C5  UNL d   1      -3.348  -1.337  -2.423  0.00  0.00     0.003 A 
ATOM      7  I   UNL d   1      -4.208   0.969  -5.997  0.00  0.00    -0.146 I 
ENDROOT
TORSDOF 0
ENDMDL
