MODEL 1
REMARK minimizedAffinity -1.05096781
REMARK minimizedRMSD -1
REMARK  0 active torsions:
REMARK  status: ('A' for Active; 'I' for Inactive)
ROOT
ATOM      1  C   UNL d   1       2.259  -3.063   1.716  0.00  0.00     0.023 A 
ATOM      2  C1  UNL d   1       3.282  -3.474   0.862  0.00  0.00     0.003 A 
ATOM      3  C2  UNL d   1       3.627  -2.694  -0.243  0.00  0.00     0.048 A 
ATOM      4  C3  UNL d   1       2.946  -1.502  -0.488  0.00  0.00     0.023 A 
ATOM      5  C4  UNL d   1       1.922  -1.086   0.365  0.00  0.00     0.048 A 
ATOM      6  C5  UNL d   1       1.580  -1.870   1.468  0.00  0.00     0.003 A 
ATOM      7  I   UNL d   1       3.458  -0.338  -2.132  0.00  0.00    -0.146 I 
ENDROOT
TORSDOF 0
ENDMDL
