MODEL 1
REMARK minimizedAffinity 1.88960421
REMARK minimizedRMSD -1
REMARK  0 active torsions:
REMARK  status: ('A' for Active; 'I' for Inactive)
ROOT
ATOM      1  C   UNL d   1       1.557   5.962   5.265  0.00  0.00     0.023 A 
ATOM      2  C1  UNL d   1       1.505   5.989   3.872  0.00  0.00     0.003 A 
ATOM      3  C2  UNL d   1       2.686   6.000   3.127  0.00  0.00     0.048 A 
ATOM      4  C3  UNL d   1       3.917   5.983   3.784  0.00  0.00     0.023 A 
ATOM      5  C4  UNL d   1       3.974   5.956   5.178  0.00  0.00     0.048 A 
ATOM      6  C5  UNL d   1       2.790   5.946   5.918  0.00  0.00     0.003 A 
ATOM      7  I   UNL d   1       5.677   5.999   2.678  0.00  0.00    -0.146 I 
ENDROOT
TORSDOF 0
ENDMDL
