MODEL 1
REMARK minimizedAffinity -5.46796227
REMARK minimizedRMSD -1
REMARK  0 active torsions:
REMARK  status: ('A' for Active; 'I' for Inactive)
ROOT
ATOM      1  C   UNL d   1       2.870  -1.324   1.673  0.00  0.00    -0.002 A 
ATOM      2  C1  UNL d   1       3.447  -0.063   1.630  0.00  0.00     0.010 A 
ATOM      3  C2  UNL d   1       2.759   1.015   1.070  0.00  0.00     0.041 A 
ATOM      4  C3  UNL d   1       1.467   0.802   0.549  0.00  0.00    -0.075 A 
ATOM      5  S   UNL d   1       0.436   1.973  -0.184  0.00  0.00     0.015 SA
ATOM      6  C4  UNL d   1      -0.795   0.827  -0.457  0.00  0.00     0.022 A 
ATOM      7  C5  UNL d   1      -0.445  -0.423  -0.007  0.00  0.00     0.026 A 
ATOM      8  C6  UNL d   1       0.865  -0.458   0.581  0.00  0.00    -0.082 A 
ATOM      9  C7  UNL d   1       1.589  -1.531   1.155  0.00  0.00     0.045 A 
ENDROOT
TORSDOF 0
ENDMDL
