MODEL 1
REMARK minimizedAffinity -5.868577
REMARK minimizedRMSD -1
REMARK  0 active torsions:
REMARK  status: ('A' for Active; 'I' for Inactive)
ROOT
ATOM      1  C   UNL d   1       3.196  -0.536   1.122  0.00  0.00    -0.002 A 
ATOM      2  C1  UNL d   1       2.735  -1.798   1.466  0.00  0.00     0.010 A 
ATOM      3  C2  UNL d   1       1.372  -2.096   1.410  0.00  0.00     0.041 A 
ATOM      4  C3  UNL d   1       0.472  -1.095   0.995  0.00  0.00    -0.075 A 
ATOM      5  S   UNL d   1      -1.241  -1.232   0.849  0.00  0.00     0.015 SA
ATOM      6  C4  UNL d   1      -1.400   0.382   0.325  0.00  0.00     0.022 A 
ATOM      7  C5  UNL d   1      -0.186   1.025   0.257  0.00  0.00     0.026 A 
ATOM      8  C6  UNL d   1       0.912   0.184   0.642  0.00  0.00    -0.082 A 
ATOM      9  C7  UNL d   1       2.300   0.455   0.711  0.00  0.00     0.045 A 
ENDROOT
TORSDOF 0
ENDMDL
