MODEL 1
REMARK minimizedAffinity -2.55394053
REMARK minimizedRMSD -1
REMARK  0 active torsions:
REMARK  status: ('A' for Active; 'I' for Inactive)
ROOT
ATOM      1  C   UNL d   1       2.597   1.523   0.428  0.00  0.00    -0.002 A 
ATOM      2  C1  UNL d   1       1.274   1.711   0.055  0.00  0.00     0.010 A 
ATOM      3  C2  UNL d   1       0.312   0.738   0.333  0.00  0.00     0.041 A 
ATOM      4  C3  UNL d   1       0.707  -0.439   0.999  0.00  0.00    -0.075 A 
ATOM      5  S   UNL d   1      -0.298  -1.768   1.445  0.00  0.00     0.015 SA
ATOM      6  C4  UNL d   1       1.006  -2.616   2.141  0.00  0.00     0.022 A 
ATOM      7  C5  UNL d   1       2.186  -1.918   2.045  0.00  0.00     0.026 A 
ATOM      8  C6  UNL d   1       2.033  -0.651   1.386  0.00  0.00    -0.082 A 
ATOM      9  C7  UNL d   1       2.985   0.354   1.090  0.00  0.00     0.045 A 
ENDROOT
TORSDOF 0
ENDMDL
