MODEL 1
REMARK minimizedAffinity 2.57688498
REMARK minimizedRMSD -1
REMARK  0 active torsions:
REMARK  status: ('A' for Active; 'I' for Inactive)
ROOT
ATOM      1  C   UNL d   1       0.620   2.272   0.409  0.00  0.00    -0.002 A 
ATOM      2  C1  UNL d   1       0.786   2.059  -0.952  0.00  0.00     0.010 A 
ATOM      3  C2  UNL d   1       0.563   0.797  -1.506  0.00  0.00     0.041 A 
ATOM      4  C3  UNL d   1       0.164  -0.258  -0.661  0.00  0.00    -0.075 A 
ATOM      5  S   UNL d   1      -0.166  -1.887  -1.118  0.00  0.00     0.015 SA
ATOM      6  C4  UNL d   1      -0.538  -2.339   0.483  0.00  0.00     0.022 A 
ATOM      7  C5  UNL d   1      -0.417  -1.285   1.358  0.00  0.00     0.026 A 
ATOM      8  C6  UNL d   1      -0.011  -0.068   0.712  0.00  0.00    -0.082 A 
ATOM      9  C7  UNL d   1       0.224   1.223   1.244  0.00  0.00     0.045 A 
ENDROOT
TORSDOF 0
ENDMDL
