MODEL 1
REMARK minimizedAffinity -4.16886044
REMARK minimizedRMSD -1
REMARK  0 active torsions:
REMARK  status: ('A' for Active; 'I' for Inactive)
ROOT
ATOM      1  C   UNL d   1       3.273   0.025   1.024  0.00  0.00    -0.002 A 
ATOM      2  C1  UNL d   1       2.648  -1.155   0.648  0.00  0.00     0.010 A 
ATOM      3  C2  UNL d   1       1.307  -1.157   0.261  0.00  0.00     0.041 A 
ATOM      4  C3  UNL d   1       0.597   0.060   0.255  0.00  0.00    -0.075 A 
ATOM      5  S   UNL d   1      -1.053   0.299  -0.183  0.00  0.00     0.015 SA
ATOM      6  C4  UNL d   1      -0.967   1.975   0.118  0.00  0.00     0.022 A 
ATOM      7  C5  UNL d   1       0.282   2.359   0.543  0.00  0.00     0.026 A 
ATOM      8  C6  UNL d   1       1.205   1.262   0.629  0.00  0.00    -0.082 A 
ATOM      9  C7  UNL d   1       2.566   1.231   1.017  0.00  0.00     0.045 A 
ENDROOT
TORSDOF 0
ENDMDL
