MODEL 1
REMARK minimizedAffinity 3.35069227
REMARK minimizedRMSD -1
REMARK  0 active torsions:
REMARK  status: ('A' for Active; 'I' for Inactive)
ROOT
ATOM      1  C   UNL d   1      -4.788   0.159  -5.242  0.00  0.00     0.077 C 
ATOM      2  C1  UNL d   1      -4.557  -0.375  -3.860  0.00  0.00    -0.074 A 
ATOM      3  C2  UNL d   1      -4.204  -1.713  -3.656  0.00  0.00    -0.005 A 
ATOM      4  C3  UNL d   1      -3.983  -2.194  -2.366  0.00  0.00     0.006 A 
ATOM      5  C4  UNL d   1      -4.114  -1.343  -1.267  0.00  0.00    -0.005 A 
ATOM      6  C5  UNL d   1      -4.465  -0.002  -1.451  0.00  0.00    -0.074 A 
ATOM      7  C6  UNL d   1      -4.600   0.928  -0.282  0.00  0.00     0.077 C 
ATOM      8  C7  UNL d   1      -4.679   0.475  -2.752  0.00  0.00    -0.001 A 
ENDROOT
TORSDOF 0
ENDMDL
