MODEL 1
REMARK minimizedAffinity 5.25708055
REMARK minimizedRMSD -1
REMARK  0 active torsions:
REMARK  status: ('A' for Active; 'I' for Inactive)
ROOT
ATOM      1  C   UNL d   1       0.046  -1.151  -0.673  0.00  0.00     0.077 C 
ATOM      2  C1  UNL d   1       0.099   0.136  -1.442  0.00  0.00    -0.074 A 
ATOM      3  C2  UNL d   1       1.257   0.517  -2.127  0.00  0.00    -0.005 A 
ATOM      4  C3  UNL d   1       1.289   1.713  -2.845  0.00  0.00     0.006 A 
ATOM      5  C4  UNL d   1       0.164   2.538  -2.885  0.00  0.00    -0.005 A 
ATOM      6  C5  UNL d   1      -1.003   2.173  -2.207  0.00  0.00    -0.074 A 
ATOM      7  C6  UNL d   1      -2.224   3.043  -2.248  0.00  0.00     0.077 C 
ATOM      8  C7  UNL d   1      -1.029   0.967  -1.493  0.00  0.00    -0.001 A 
ENDROOT
TORSDOF 0
ENDMDL
