MODEL 1
REMARK minimizedAffinity 11.2546453
REMARK minimizedRMSD -1
REMARK  0 active torsions:
REMARK  status: ('A' for Active; 'I' for Inactive)
ROOT
ATOM      1  C   UNL d   1      -2.033  -4.227   3.655  0.00  0.00     0.077 C 
ATOM      2  C1  UNL d   1      -0.832  -3.535   3.082  0.00  0.00    -0.074 A 
ATOM      3  C2  UNL d   1      -0.708  -2.143   3.141  0.00  0.00    -0.005 A 
ATOM      4  C3  UNL d   1       0.419  -1.515   2.613  0.00  0.00     0.006 A 
ATOM      5  C4  UNL d   1       1.432  -2.270   2.021  0.00  0.00    -0.005 A 
ATOM      6  C5  UNL d   1       1.326  -3.663   1.953  0.00  0.00    -0.074 A 
ATOM      7  C6  UNL d   1       2.411  -4.490   1.330  0.00  0.00     0.077 C 
ATOM      8  C7  UNL d   1       0.194  -4.288   2.493  0.00  0.00    -0.001 A 
ENDROOT
TORSDOF 0
ENDMDL
