MODEL 1
REMARK minimizedAffinity 10.0290251
REMARK minimizedRMSD -1
REMARK  0 active torsions:
REMARK  status: ('A' for Active; 'I' for Inactive)
ROOT
ATOM      1  C   UNL d   1      -5.959   3.861  -5.887  0.00  0.00     0.077 C 
ATOM      2  C1  UNL d   1      -4.623   3.760  -5.212  0.00  0.00    -0.074 A 
ATOM      3  C2  UNL d   1      -4.505   3.216  -3.929  0.00  0.00    -0.005 A 
ATOM      4  C3  UNL d   1      -3.255   3.119  -3.318  0.00  0.00     0.006 A 
ATOM      5  C4  UNL d   1      -2.112   3.565  -3.983  0.00  0.00    -0.005 A 
ATOM      6  C5  UNL d   1      -2.210   4.111  -5.267  0.00  0.00    -0.074 A 
ATOM      7  C6  UNL d   1      -0.990   4.586  -5.999  0.00  0.00     0.077 C 
ATOM      8  C7  UNL d   1      -3.469   4.198  -5.877  0.00  0.00    -0.001 A 
ENDROOT
TORSDOF 0
ENDMDL
