MODEL 1
REMARK minimizedAffinity 4.18781614
REMARK minimizedRMSD -1
REMARK  0 active torsions:
REMARK  status: ('A' for Active; 'I' for Inactive)
ROOT
ATOM      1  C   UNL d   1      -0.741  -2.018   3.376  0.00  0.00     0.077 C 
ATOM      2  C1  UNL d   1       0.397  -2.639   2.621  0.00  0.00    -0.074 A 
ATOM      3  C2  UNL d   1       1.123  -1.900   1.681  0.00  0.00    -0.005 A 
ATOM      4  C3  UNL d   1       2.184  -2.488   0.993  0.00  0.00     0.006 A 
ATOM      5  C4  UNL d   1       2.529  -3.818   1.237  0.00  0.00    -0.005 A 
ATOM      6  C5  UNL d   1       1.815  -4.572   2.173  0.00  0.00    -0.074 A 
ATOM      7  C6  UNL d   1       2.178  -6.000   2.455  0.00  0.00     0.077 C 
ATOM      8  C7  UNL d   1       0.754  -3.972   2.866  0.00  0.00    -0.001 A 
ENDROOT
TORSDOF 0
ENDMDL
