MODEL 1
REMARK minimizedAffinity 13.8121805
REMARK minimizedRMSD -1
REMARK  0 active torsions:
REMARK  status: ('A' for Active; 'I' for Inactive)
ROOT
ATOM      1  C   UNL d   1       1.478   1.849   4.135  0.00  0.00     0.077 C 
ATOM      2  C1  UNL d   1       1.421   1.145   2.812  0.00  0.00    -0.074 A 
ATOM      3  C2  UNL d   1       1.395   1.867   1.614  0.00  0.00    -0.005 A 
ATOM      4  C3  UNL d   1       1.352   1.199   0.391  0.00  0.00     0.006 A 
ATOM      5  C4  UNL d   1       1.333  -0.196   0.352  0.00  0.00    -0.005 A 
ATOM      6  C5  UNL d   1       1.359  -0.935   1.539  0.00  0.00    -0.074 A 
ATOM      7  C6  UNL d   1       1.350  -2.434   1.516  0.00  0.00     0.077 C 
ATOM      8  C7  UNL d   1       1.410  -0.256   2.765  0.00  0.00    -0.001 A 
ENDROOT
TORSDOF 0
ENDMDL
