MODEL 1
REMARK minimizedAffinity 4.82263327
REMARK minimizedRMSD -1
REMARK  0 active torsions:
REMARK  status: ('A' for Active; 'I' for Inactive)
ROOT
ATOM      1  C   UNL d   1       0.814  -1.608   1.369  0.00  0.00     0.077 C 
ATOM      2  C1  UNL d   1       1.565  -2.706   2.060  0.00  0.00    -0.074 A 
ATOM      3  C2  UNL d   1       1.543  -4.014   1.566  0.00  0.00    -0.005 A 
ATOM      4  C3  UNL d   1       2.255  -5.023   2.214  0.00  0.00     0.006 A 
ATOM      5  C4  UNL d   1       2.995  -4.735   3.362  0.00  0.00    -0.005 A 
ATOM      6  C5  UNL d   1       3.029  -3.433   3.870  0.00  0.00    -0.074 A 
ATOM      7  C6  UNL d   1       3.828  -3.105   5.097  0.00  0.00     0.077 C 
ATOM      8  C7  UNL d   1       2.317  -2.423   3.209  0.00  0.00    -0.001 A 
ENDROOT
TORSDOF 0
ENDMDL
