MODEL 1
REMARK minimizedAffinity -1.19374955
REMARK minimizedRMSD -1
REMARK  0 active torsions:
REMARK  status: ('A' for Active; 'I' for Inactive)
ROOT
ATOM      1  C   UNL d   1      -0.722   2.843  -3.192  0.00  0.00     0.023 A 
ATOM      2  C1  UNL d   1      -1.882   2.201  -2.757  0.00  0.00     0.003 A 
ATOM      3  C2  UNL d   1      -1.839   1.357  -1.644  0.00  0.00     0.048 A 
ATOM      4  C3  UNL d   1      -0.633   1.161  -0.971  0.00  0.00     0.023 A 
ATOM      5  C4  UNL d   1       0.529   1.803  -1.402  0.00  0.00     0.048 A 
ATOM      6  C5  UNL d   1       0.482   2.644  -2.515  0.00  0.00     0.003 A 
ATOM      7  I   UNL d   1      -0.567  -0.093   0.685  0.00  0.00    -0.146 I 
ENDROOT
TORSDOF 0
ENDMDL
