MODEL 1
REMARK minimizedAffinity -3.37769842
REMARK minimizedRMSD -1
REMARK  0 active torsions:
REMARK  status: ('A' for Active; 'I' for Inactive)
ROOT
ATOM      1  C   UNL d   1       0.965  -1.579   2.232  0.00  0.00     0.023 A 
ATOM      2  C1  UNL d   1      -0.248  -0.907   2.384  0.00  0.00     0.003 A 
ATOM      3  C2  UNL d   1      -0.774  -0.166   1.325  0.00  0.00     0.048 A 
ATOM      4  C3  UNL d   1      -0.084  -0.102   0.115  0.00  0.00     0.023 A 
ATOM      5  C4  UNL d   1       1.130  -0.774  -0.042  0.00  0.00     0.048 A 
ATOM      6  C5  UNL d   1       1.653  -1.513   1.020  0.00  0.00     0.003 A 
ATOM      7  I   UNL d   1      -0.866   1.000  -1.464  0.00  0.00    -0.146 I 
ENDROOT
TORSDOF 0
ENDMDL
