MODEL 1
REMARK minimizedAffinity -2.95824552
REMARK minimizedRMSD -1
REMARK  0 active torsions:
REMARK  status: ('A' for Active; 'I' for Inactive)
ROOT
ATOM      1  C   UNL d   1      -0.856   3.534  -2.973  0.00  0.00     0.023 A 
ATOM      2  C1  UNL d   1      -1.859   2.578  -2.811  0.00  0.00     0.003 A 
ATOM      3  C2  UNL d   1      -1.637   1.462  -2.001  0.00  0.00     0.048 A 
ATOM      4  C3  UNL d   1      -0.411   1.310  -1.355  0.00  0.00     0.023 A 
ATOM      5  C4  UNL d   1       0.595   2.265  -1.513  0.00  0.00     0.048 A 
ATOM      6  C5  UNL d   1       0.369   3.378  -2.325  0.00  0.00     0.003 A 
ATOM      7  I   UNL d   1      -0.079  -0.349  -0.148  0.00  0.00    -0.146 I 
ENDROOT
TORSDOF 0
ENDMDL
