MODEL 1
REMARK minimizedAffinity -1.72633111
REMARK minimizedRMSD -1
REMARK  0 active torsions:
REMARK  status: ('A' for Active; 'I' for Inactive)
ROOT
ATOM      1  C   UNL d   1      -0.678  -0.498   2.268  0.00  0.00     0.023 A 
ATOM      2  C1  UNL d   1      -0.101  -0.938   1.076  0.00  0.00     0.003 A 
ATOM      3  C2  UNL d   1      -0.059  -0.092  -0.034  0.00  0.00     0.048 A 
ATOM      4  C3  UNL d   1      -0.595   1.192   0.054  0.00  0.00     0.023 A 
ATOM      5  C4  UNL d   1      -1.172   1.637   1.245  0.00  0.00     0.048 A 
ATOM      6  C5  UNL d   1      -1.213   0.787   2.352  0.00  0.00     0.003 A 
ATOM      7  I   UNL d   1      -0.533   2.453  -1.597  0.00  0.00    -0.146 I 
ENDROOT
TORSDOF 0
ENDMDL
