MODEL 1
REMARK minimizedAffinity -2.18627739
REMARK minimizedRMSD -1
REMARK  0 active torsions:
REMARK  status: ('A' for Active; 'I' for Inactive)
ROOT
ATOM      1  C   UNL d   1      -0.879  -0.215   0.965  0.00  0.00     0.023 A 
ATOM      2  C1  UNL d   1      -0.753  -0.550  -0.384  0.00  0.00     0.003 A 
ATOM      3  C2  UNL d   1      -0.600   0.453  -1.343  0.00  0.00     0.048 A 
ATOM      4  C3  UNL d   1      -0.573   1.790  -0.946  0.00  0.00     0.023 A 
ATOM      5  C4  UNL d   1      -0.698   2.130   0.402  0.00  0.00     0.048 A 
ATOM      6  C5  UNL d   1      -0.851   1.123   1.357  0.00  0.00     0.003 A 
ATOM      7  I   UNL d   1      -0.346   3.286  -2.371  0.00  0.00    -0.146 I 
ENDROOT
TORSDOF 0
ENDMDL
