MODEL 1
REMARK minimizedAffinity -2.40276337
REMARK minimizedRMSD -1
REMARK  0 active torsions:
REMARK  status: ('A' for Active; 'I' for Inactive)
ROOT
ATOM      1  C   UNL d   1       1.617  -2.459   1.598  0.00  0.00     0.023 A 
ATOM      2  C1  UNL d   1       0.579  -1.748   2.200  0.00  0.00     0.003 A 
ATOM      3  C2  UNL d   1      -0.135  -0.797   1.467  0.00  0.00     0.048 A 
ATOM      4  C3  UNL d   1       0.194  -0.564   0.132  0.00  0.00     0.023 A 
ATOM      5  C4  UNL d   1       1.231  -1.274  -0.475  0.00  0.00     0.048 A 
ATOM      6  C5  UNL d   1       1.942  -2.223   0.262  0.00  0.00     0.003 A 
ATOM      7  I   UNL d   1      -0.867   0.850  -0.961  0.00  0.00    -0.146 I 
ENDROOT
TORSDOF 0
ENDMDL
