MODEL 1
REMARK minimizedAffinity -4.08749771
REMARK minimizedRMSD -1
REMARK  0 active torsions:
REMARK  status: ('A' for Active; 'I' for Inactive)
ROOT
ATOM      1  C   UNL d   1      -0.183   1.789  -3.241  0.00  0.00     0.023 A 
ATOM      2  C1  UNL d   1       0.130   0.467  -2.927  0.00  0.00     0.003 A 
ATOM      3  C2  UNL d   1      -0.120  -0.026  -1.644  0.00  0.00     0.048 A 
ATOM      4  C3  UNL d   1      -0.685   0.809  -0.681  0.00  0.00     0.023 A 
ATOM      5  C4  UNL d   1      -1.001   2.133  -0.991  0.00  0.00     0.048 A 
ATOM      6  C5  UNL d   1      -0.748   2.621  -2.274  0.00  0.00     0.003 A 
ATOM      7  I   UNL d   1      -1.058   0.078   1.228  0.00  0.00    -0.146 I 
ENDROOT
TORSDOF 0
ENDMDL
