MODEL 1
REMARK minimizedAffinity -2.86634445
REMARK minimizedRMSD -1
REMARK  0 active torsions:
REMARK  status: ('A' for Active; 'I' for Inactive)
ROOT
ATOM      1  C   UNL d   1      -0.359   0.984  -2.599  0.00  0.00     0.023 A 
ATOM      2  C1  UNL d   1      -0.533   1.873  -1.538  0.00  0.00     0.003 A 
ATOM      3  C2  UNL d   1      -0.446   1.416  -0.221  0.00  0.00     0.048 A 
ATOM      4  C3  UNL d   1      -0.183   0.069   0.027  0.00  0.00     0.023 A 
ATOM      5  C4  UNL d   1      -0.008  -0.824  -1.031  0.00  0.00     0.048 A 
ATOM      6  C5  UNL d   1      -0.097  -0.363  -2.346  0.00  0.00     0.003 A 
ATOM      7  I   UNL d   1      -0.053  -0.614   1.986  0.00  0.00    -0.146 I 
ENDROOT
TORSDOF 0
ENDMDL
