MODEL 1
REMARK minimizedAffinity 0.684857786
REMARK minimizedRMSD -1
REMARK  0 active torsions:
REMARK  status: ('A' for Active; 'I' for Inactive)
ROOT
ATOM      1  C   UNL d   1       2.540  -2.637   0.747  0.00  0.00     0.023 A 
ATOM      2  C1  UNL d   1       1.790  -2.560   1.921  0.00  0.00     0.003 A 
ATOM      3  C2  UNL d   1       0.688  -1.705   1.992  0.00  0.00     0.048 A 
ATOM      4  C3  UNL d   1       0.340  -0.932   0.885  0.00  0.00     0.023 A 
ATOM      5  C4  UNL d   1       1.087  -1.006  -0.292  0.00  0.00     0.048 A 
ATOM      6  C5  UNL d   1       2.189  -1.861  -0.358  0.00  0.00     0.003 A 
ATOM      7  I   UNL d   1      -1.300   0.340   0.988  0.00  0.00    -0.146 I 
ENDROOT
TORSDOF 0
ENDMDL
