MODEL 1
REMARK minimizedAffinity -1.89122748
REMARK minimizedRMSD -1
REMARK  0 active torsions:
REMARK  status: ('A' for Active; 'I' for Inactive)
ROOT
ATOM      1  C   UNL d   1      -0.348  -1.051   1.606  0.00  0.00     0.023 A 
ATOM      2  C1  UNL d   1       0.394  -1.168   0.430  0.00  0.00     0.003 A 
ATOM      3  C2  UNL d   1       0.144  -0.311  -0.643  0.00  0.00     0.048 A 
ATOM      4  C3  UNL d   1      -0.848   0.663  -0.533  0.00  0.00     0.023 A 
ATOM      5  C4  UNL d   1      -1.592   0.785   0.642  0.00  0.00     0.048 A 
ATOM      6  C5  UNL d   1      -1.339  -0.075   1.712  0.00  0.00     0.003 A 
ATOM      7  I   UNL d   1      -1.221   1.942  -2.129  0.00  0.00    -0.146 I 
ENDROOT
TORSDOF 0
ENDMDL
