MODEL 1
REMARK minimizedAffinity -2.84110451
REMARK minimizedRMSD -1
REMARK  0 active torsions:
REMARK  status: ('A' for Active; 'I' for Inactive)
ROOT
ATOM      1  C   UNL d   1      -1.273   0.185   1.163  0.00  0.00     0.023 A 
ATOM      2  C1  UNL d   1      -1.006  -0.271  -0.128  0.00  0.00     0.003 A 
ATOM      3  C2  UNL d   1       0.082  -1.115  -0.360  0.00  0.00     0.048 A 
ATOM      4  C3  UNL d   1       0.898  -1.500   0.703  0.00  0.00     0.023 A 
ATOM      5  C4  UNL d   1       0.634  -1.047   1.997  0.00  0.00     0.048 A 
ATOM      6  C5  UNL d   1      -0.454  -0.202   2.224  0.00  0.00     0.003 A 
ATOM      7  I   UNL d   1       2.518  -2.756   0.360  0.00  0.00    -0.146 I 
ENDROOT
TORSDOF 0
ENDMDL
