MODEL 1
REMARK minimizedAffinity -3.73259044
REMARK minimizedRMSD -1
REMARK  0 active torsions:
REMARK  status: ('A' for Active; 'I' for Inactive)
ROOT
ATOM      1  C   UNL d   1      -1.162   1.065   2.749  0.00  0.00     0.078 C 
ATOM      2  C1  UNL d   1      -0.494   0.498   1.532  0.00  0.00    -0.077 A 
ATOM      3  C2  UNL d   1       0.877   0.214   1.528  0.00  0.00    -0.001 A 
ATOM      4  C3  UNL d   1       1.488  -0.304   0.385  0.00  0.00     0.003 A 
ATOM      5  C4  UNL d   1       0.736  -0.542  -0.763  0.00  0.00    -0.005 A 
ATOM      6  C5  UNL d   1      -0.629  -0.261  -0.770  0.00  0.00     0.003 A 
ATOM      7  C6  UNL d   1      -1.241   0.258   0.372  0.00  0.00    -0.001 A 
ENDROOT
TORSDOF 0
ENDMDL
