MODEL 1
REMARK minimizedAffinity -3.34032583
REMARK minimizedRMSD -1
REMARK  0 active torsions:
REMARK  status: ('A' for Active; 'I' for Inactive)
ROOT
ATOM      1  C   UNL d   1      -1.627   1.080   2.259  0.00  0.00     0.078 C 
ATOM      2  C1  UNL d   1      -0.836   0.431   1.164  0.00  0.00    -0.077 A 
ATOM      3  C2  UNL d   1       0.559   0.333   1.242  0.00  0.00    -0.001 A 
ATOM      4  C3  UNL d   1       1.283  -0.265   0.210  0.00  0.00     0.003 A 
ATOM      5  C4  UNL d   1       0.622  -0.770  -0.908  0.00  0.00    -0.005 A 
ATOM      6  C5  UNL d   1      -0.765  -0.675  -0.996  0.00  0.00     0.003 A 
ATOM      7  C6  UNL d   1      -1.492  -0.077   0.035  0.00  0.00    -0.001 A 
ENDROOT
TORSDOF 0
ENDMDL
