MODEL 1
REMARK minimizedAffinity -0.56413132
REMARK minimizedRMSD -1
REMARK  0 active torsions:
REMARK  status: ('A' for Active; 'I' for Inactive)
ROOT
ATOM      1  C   UNL d   1      -1.333   0.466   2.152  0.00  0.00     0.078 C 
ATOM      2  C1  UNL d   1      -0.745   0.105   0.820  0.00  0.00    -0.077 A 
ATOM      3  C2  UNL d   1      -1.562  -0.087  -0.301  0.00  0.00    -0.001 A 
ATOM      4  C3  UNL d   1      -1.002  -0.432  -1.531  0.00  0.00     0.003 A 
ATOM      5  C4  UNL d   1       0.378  -0.589  -1.653  0.00  0.00    -0.005 A 
ATOM      6  C5  UNL d   1       1.198  -0.402  -0.542  0.00  0.00     0.003 A 
ATOM      7  C6  UNL d   1       0.640  -0.057   0.689  0.00  0.00    -0.001 A 
ENDROOT
TORSDOF 0
ENDMDL
