MODEL 1
REMARK minimizedAffinity -4.05469656
REMARK minimizedRMSD -1
REMARK  0 active torsions:
REMARK  status: ('A' for Active; 'I' for Inactive)
ROOT
ATOM      1  C   UNL d   1       0.661  -0.650  -1.236  0.00  0.00     0.078 C 
ATOM      2  C1  UNL d   1      -0.037  -0.059  -0.047  0.00  0.00    -0.077 A 
ATOM      3  C2  UNL d   1       0.689   0.463   1.030  0.00  0.00    -0.001 A 
ATOM      4  C3  UNL d   1       0.026   1.000   2.134  0.00  0.00     0.003 A 
ATOM      5  C4  UNL d   1      -1.367   1.020   2.172  0.00  0.00    -0.005 A 
ATOM      6  C5  UNL d   1      -2.098   0.501   1.106  0.00  0.00     0.003 A 
ATOM      7  C6  UNL d   1      -1.437  -0.037   0.001  0.00  0.00    -0.001 A 
ENDROOT
TORSDOF 0
ENDMDL
