MODEL 1
REMARK minimizedAffinity -4.2902565
REMARK minimizedRMSD -1
REMARK  0 active torsions:
REMARK  status: ('A' for Active; 'I' for Inactive)
ROOT
ATOM      1  C   UNL d   1      -0.543   0.722   3.206  0.00  0.00     0.078 C 
ATOM      2  C1  UNL d   1      -0.424   0.245   1.790  0.00  0.00    -0.077 A 
ATOM      3  C2  UNL d   1      -1.556   0.115   0.975  0.00  0.00    -0.001 A 
ATOM      4  C3  UNL d   1      -1.431  -0.339  -0.339  0.00  0.00     0.003 A 
ATOM      5  C4  UNL d   1      -0.177  -0.668  -0.849  0.00  0.00    -0.005 A 
ATOM      6  C5  UNL d   1       0.954  -0.544  -0.046  0.00  0.00     0.003 A 
ATOM      7  C6  UNL d   1       0.832  -0.090   1.268  0.00  0.00    -0.001 A 
ENDROOT
TORSDOF 0
ENDMDL
