MODEL 1
REMARK minimizedAffinity -3.44979572
REMARK minimizedRMSD -1
REMARK  0 active torsions:
REMARK  status: ('A' for Active; 'I' for Inactive)
ROOT
ATOM      1  C   UNL d   1       0.212   0.119  -1.361  0.00  0.00     0.078 C 
ATOM      2  C1  UNL d   1      -0.237   0.201   0.067  0.00  0.00    -0.077 A 
ATOM      3  C2  UNL d   1      -1.578  -0.002   0.415  0.00  0.00    -0.001 A 
ATOM      4  C3  UNL d   1      -1.982   0.087   1.748  0.00  0.00     0.003 A 
ATOM      5  C4  UNL d   1      -1.053   0.381   2.744  0.00  0.00    -0.005 A 
ATOM      6  C5  UNL d   1       0.283   0.587   2.407  0.00  0.00     0.003 A 
ATOM      7  C6  UNL d   1       0.690   0.498   1.075  0.00  0.00    -0.001 A 
ENDROOT
TORSDOF 0
ENDMDL
