MODEL 1
REMARK minimizedAffinity -3.14445162
REMARK minimizedRMSD -1
REMARK  0 active torsions:
REMARK  status: ('A' for Active; 'I' for Inactive)
ROOT
ATOM      1  C   UNL d   1      -2.564  -0.966   3.854  0.00  0.00     0.078 C 
ATOM      2  C1  UNL d   1      -1.919  -0.166   2.761  0.00  0.00    -0.077 A 
ATOM      3  C2  UNL d   1      -2.065  -0.531   1.418  0.00  0.00    -0.001 A 
ATOM      4  C3  UNL d   1      -1.451   0.217   0.412  0.00  0.00     0.003 A 
ATOM      5  C4  UNL d   1      -0.686   1.334   0.739  0.00  0.00    -0.005 A 
ATOM      6  C5  UNL d   1      -0.533   1.704   2.074  0.00  0.00     0.003 A 
ATOM      7  C6  UNL d   1      -1.146   0.957   3.081  0.00  0.00    -0.001 A 
ENDROOT
TORSDOF 0
ENDMDL
