MODEL 1
REMARK minimizedAffinity -5.07210207
REMARK minimizedRMSD -1
REMARK  0 active torsions:
REMARK  status: ('A' for Active; 'I' for Inactive)
ROOT
ATOM      1  C   UNL d   1       0.033  -0.748  -1.169  0.00  0.00     0.078 C 
ATOM      2  C1  UNL d   1      -0.216   0.063   0.067  0.00  0.00    -0.077 A 
ATOM      3  C2  UNL d   1       0.787   0.237   1.030  0.00  0.00    -0.001 A 
ATOM      4  C3  UNL d   1       0.538   0.986   2.180  0.00  0.00     0.003 A 
ATOM      5  C4  UNL d   1      -0.713   1.567   2.381  0.00  0.00    -0.005 A 
ATOM      6  C5  UNL d   1      -1.717   1.397   1.430  0.00  0.00     0.003 A 
ATOM      7  C6  UNL d   1      -1.470   0.648   0.278  0.00  0.00    -0.001 A 
ENDROOT
TORSDOF 0
ENDMDL
