MODEL 1
REMARK minimizedAffinity -5.00793505
REMARK minimizedRMSD -1
REMARK  0 active torsions:
REMARK  status: ('A' for Active; 'I' for Inactive)
ROOT
ATOM      1  C   UNL d   1       0.446  -0.562  -1.143  0.00  0.00     0.078 C 
ATOM      2  C1  UNL d   1      -0.075   0.118   0.088  0.00  0.00    -0.077 A 
ATOM      3  C2  UNL d   1       0.796   0.727   0.999  0.00  0.00    -0.001 A 
ATOM      4  C3  UNL d   1       0.298   1.349   2.145  0.00  0.00     0.003 A 
ATOM      5  C4  UNL d   1      -1.074   1.366   2.391  0.00  0.00    -0.005 A 
ATOM      6  C5  UNL d   1      -1.948   0.760   1.491  0.00  0.00     0.003 A 
ATOM      7  C6  UNL d   1      -1.452   0.138   0.345  0.00  0.00    -0.001 A 
ENDROOT
TORSDOF 0
ENDMDL
