MODEL 1
REMARK minimizedAffinity -3.02806902
REMARK minimizedRMSD -1
REMARK  0 active torsions:
REMARK  status: ('A' for Active; 'I' for Inactive)
ROOT
ATOM      1  N1  IND d   1       4.263  -0.571  -4.456  0.00  0.00    -0.196 N 
ATOM      2  C2  IND d   1       4.560   0.764  -4.485  0.00  0.00     0.054 A 
ATOM      3  C3  IND d   1       3.532   1.485  -3.983  0.00  0.00    -0.031 A 
ATOM      4  C4  IND d   1       1.311   0.676  -2.964  0.00  0.00     0.051 A 
ATOM      5  C5  IND d   1       0.571  -0.453  -2.751  0.00  0.00    -0.031 A 
ATOM      6  C6  IND d   1       1.035  -1.705  -3.100  0.00  0.00     0.015 A 
ATOM      7  C7  IND d   1       2.266  -1.876  -3.667  0.00  0.00    -0.016 A 
ATOM      8  C8  IND d   1       3.017  -0.731  -3.892  0.00  0.00    -0.047 A 
ATOM      9  C9  IND d   1       2.534   0.546  -3.578  0.00  0.00    -0.096 A 
ATOM     10  HN1 IND d   1       4.770  -1.204  -4.743  0.00  0.00     0.298 HD
ENDROOT
TORSDOF 0
ENDMDL
