MODEL 1
REMARK minimizedAffinity -6.40063477
REMARK minimizedRMSD -1
REMARK  0 active torsions:
REMARK  status: ('A' for Active; 'I' for Inactive)
ROOT
ATOM      1  N1  IND d   1      -0.811   0.407  -0.547  0.00  0.00    -0.196 N 
ATOM      2  C2  IND d   1       0.553   0.489  -0.505  0.00  0.00     0.054 A 
ATOM      3  C3  IND d   1       0.995   0.324   0.763  0.00  0.00    -0.031 A 
ATOM      4  C4  IND d   1      -0.337  -0.195   2.904  0.00  0.00     0.051 A 
ATOM      5  C5  IND d   1      -1.614  -0.327   3.373  0.00  0.00    -0.031 A 
ATOM      6  C6  IND d   1      -2.710  -0.222   2.542  0.00  0.00     0.015 A 
ATOM      7  C7  IND d   1      -2.569   0.009   1.202  0.00  0.00    -0.016 A 
ATOM      8  C8  IND d   1      -1.275   0.151   0.724  0.00  0.00    -0.047 A 
ATOM      9  C9  IND d   1      -0.160   0.088   1.570  0.00  0.00    -0.096 A 
ATOM     10  HN1 IND d   1      -1.297   0.500  -1.250  0.00  0.00     0.298 HD
ENDROOT
TORSDOF 0
ENDMDL
