MODEL 1
REMARK minimizedAffinity -4.91702795
REMARK minimizedRMSD -1
REMARK  0 active torsions:
REMARK  status: ('A' for Active; 'I' for Inactive)
ROOT
ATOM      1  N1  IND d   1      -0.912   0.098  -1.010  0.00  0.00    -0.196 N 
ATOM      2  C2  IND d   1       0.412   0.426  -1.095  0.00  0.00     0.054 A 
ATOM      3  C3  IND d   1       0.963   0.480   0.138  0.00  0.00    -0.031 A 
ATOM      4  C4  IND d   1      -0.098  -0.033   2.427  0.00  0.00     0.051 A 
ATOM      5  C5  IND d   1      -1.292  -0.340   3.017  0.00  0.00    -0.031 A 
ATOM      6  C6  IND d   1      -2.444  -0.523   2.278  0.00  0.00     0.015 A 
ATOM      7  C7  IND d   1      -2.441  -0.417   0.916  0.00  0.00    -0.016 A 
ATOM      8  C8  IND d   1      -1.232  -0.098   0.315  0.00  0.00    -0.047 A 
ATOM      9  C9  IND d   1      -0.069   0.130   1.062  0.00  0.00    -0.096 A 
ATOM     10  HN1 IND d   1      -1.455   0.026  -1.674  0.00  0.00     0.298 HD
ENDROOT
TORSDOF 0
ENDMDL
