MODEL 1
REMARK minimizedAffinity -1.57732904
REMARK minimizedRMSD -1
REMARK  0 active torsions:
REMARK  status: ('A' for Active; 'I' for Inactive)
ROOT
ATOM      1  N1  IND d   1       1.988   2.993  -4.937  0.00  0.00    -0.196 N 
ATOM      2  C2  IND d   1       1.538   4.134  -5.540  0.00  0.00     0.054 A 
ATOM      3  C3  IND d   1       2.579   4.864  -6.000  0.00  0.00    -0.031 A 
ATOM      4  C4  IND d   1       5.097   4.328  -5.961  0.00  0.00     0.051 A 
ATOM      5  C5  IND d   1       5.997   3.417  -5.484  0.00  0.00    -0.031 A 
ATOM      6  C6  IND d   1       5.598   2.294  -4.788  0.00  0.00     0.015 A 
ATOM      7  C7  IND d   1       4.278   2.033  -4.553  0.00  0.00    -0.016 A 
ATOM      8  C8  IND d   1       3.362   2.960  -5.030  0.00  0.00    -0.047 A 
ATOM      9  C9  IND d   1       3.763   4.123  -5.699  0.00  0.00    -0.096 A 
ATOM     10  HN1 IND d   1       1.495   2.396  -4.562  0.00  0.00     0.298 HD
ENDROOT
TORSDOF 0
ENDMDL
