MODEL 1
REMARK minimizedAffinity -3.31603336
REMARK minimizedRMSD -1
REMARK  0 active torsions:
REMARK  status: ('A' for Active; 'I' for Inactive)
ROOT
ATOM      1  N1  IND d   1      -1.146   0.277  -0.838  0.00  0.00    -0.196 N 
ATOM      2  C2  IND d   1      -0.011   0.539  -1.554  0.00  0.00     0.054 A 
ATOM      3  C3  IND d   1       1.050   0.663  -0.725  0.00  0.00    -0.031 A 
ATOM      4  C4  IND d   1       1.172   0.373   1.830  0.00  0.00     0.051 A 
ATOM      5  C5  IND d   1       0.387   0.165   2.929  0.00  0.00    -0.031 A 
ATOM      6  C6  IND d   1      -0.977  -0.022   2.826  0.00  0.00     0.015 A 
ATOM      7  C7  IND d   1      -1.607  -0.020   1.614  0.00  0.00    -0.016 A 
ATOM      8  C8  IND d   1      -0.814   0.197   0.496  0.00  0.00    -0.047 A 
ATOM      9  C9  IND d   1       0.564   0.431   0.598  0.00  0.00    -0.096 A 
ATOM     10  HN1 IND d   1      -1.935   0.179  -1.166  0.00  0.00     0.298 HD
ENDROOT
TORSDOF 0
ENDMDL
