MODEL 1
REMARK minimizedAffinity -1.64517081
REMARK minimizedRMSD -1
REMARK  0 active torsions:
REMARK  status: ('A' for Active; 'I' for Inactive)
ROOT
ATOM      1  N1  IND d   1       0.775   1.049  -0.696  0.00  0.00    -0.196 N 
ATOM      2  C2  IND d   1       1.883   1.061   0.105  0.00  0.00     0.054 A 
ATOM      3  C3  IND d   1       1.615   0.464   1.288  0.00  0.00    -0.031 A 
ATOM      4  C4  IND d   1      -0.544  -0.692   2.085  0.00  0.00     0.051 A 
ATOM      5  C5  IND d   1      -1.839  -0.925   1.717  0.00  0.00    -0.031 A 
ATOM      6  C6  IND d   1      -2.338  -0.507   0.500  0.00  0.00     0.015 A 
ATOM      7  C7  IND d   1      -1.554   0.154  -0.402  0.00  0.00    -0.016 A 
ATOM      8  C8  IND d   1      -0.240   0.399  -0.029  0.00  0.00    -0.047 A 
ATOM      9  C9  IND d   1       0.260   0.015   1.221  0.00  0.00    -0.096 A 
ATOM     10  HN1 IND d   1       0.722   1.390  -1.483  0.00  0.00     0.298 HD
ENDROOT
TORSDOF 0
ENDMDL
