MODEL 1
REMARK minimizedAffinity -0.152494296
REMARK minimizedRMSD -1
REMARK  0 active torsions:
REMARK  status: ('A' for Active; 'I' for Inactive)
ROOT
ATOM      1  N1  IND d   1      -0.936   0.014  -0.922  0.00  0.00    -0.196 N 
ATOM      2  C2  IND d   1      -0.027   0.608  -1.753  0.00  0.00     0.054 A 
ATOM      3  C3  IND d   1       1.055   1.016  -1.053  0.00  0.00    -0.031 A 
ATOM      4  C4  IND d   1       1.591   0.722   1.448  0.00  0.00     0.051 A 
ATOM      5  C5  IND d   1       1.050   0.274   2.620  0.00  0.00    -0.031 A 
ATOM      6  C6  IND d   1      -0.205  -0.298   2.672  0.00  0.00     0.015 A 
ATOM      7  C7  IND d   1      -0.964  -0.454   1.547  0.00  0.00    -0.016 A 
ATOM      8  C8  IND d   1      -0.421   0.007   0.356  0.00  0.00    -0.047 A 
ATOM      9  C9  IND d   1       0.834   0.626   0.304  0.00  0.00    -0.096 A 
ATOM     10  HN1 IND d   1      -1.700  -0.301  -1.158  0.00  0.00     0.298 HD
ENDROOT
TORSDOF 0
ENDMDL
