MODEL 1
REMARK minimizedAffinity -4.30201006
REMARK minimizedRMSD -1
REMARK  0 active torsions:
REMARK  status: ('A' for Active; 'I' for Inactive)
ROOT
ATOM      1  N1  IND d   1      -0.573   0.396  -1.508  0.00  0.00    -0.196 N 
ATOM      2  C2  IND d   1       0.793   0.331  -1.538  0.00  0.00     0.054 A 
ATOM      3  C3  IND d   1       1.290   0.301  -0.281  0.00  0.00    -0.031 A 
ATOM      4  C4  IND d   1       0.043   0.246   1.970  0.00  0.00     0.051 A 
ATOM      5  C5  IND d   1      -1.211   0.324   2.510  0.00  0.00    -0.031 A 
ATOM      6  C6  IND d   1      -2.338   0.430   1.721  0.00  0.00     0.015 A 
ATOM      7  C7  IND d   1      -2.255   0.450   0.358  0.00  0.00    -0.016 A 
ATOM      8  C8  IND d   1      -0.984   0.377  -0.193  0.00  0.00    -0.047 A 
ATOM      9  C9  IND d   1       0.168   0.313   0.603  0.00  0.00    -0.096 A 
ATOM     10  HN1 IND d   1      -1.088   0.440  -2.195  0.00  0.00     0.298 HD
ENDROOT
TORSDOF 0
ENDMDL
