MODEL 1
REMARK minimizedAffinity -4.63135433
REMARK minimizedRMSD -1
REMARK  0 active torsions:
REMARK  status: ('A' for Active; 'I' for Inactive)
ROOT
ATOM      1  N1  IND d   1      -2.107   0.586   1.115  0.00  0.00    -0.196 N 
ATOM      2  C2  IND d   1      -2.812   0.511   2.284  0.00  0.00     0.054 A 
ATOM      3  C3  IND d   1      -2.039  -0.004   3.267  0.00  0.00    -0.031 A 
ATOM      4  C4  IND d   1       0.440  -0.695   3.206  0.00  0.00     0.051 A 
ATOM      5  C5  IND d   1       1.496  -0.843   2.352  0.00  0.00    -0.031 A 
ATOM      6  C6  IND d   1       1.404  -0.512   1.015  0.00  0.00     0.015 A 
ATOM      7  C7  IND d   1       0.251  -0.009   0.483  0.00  0.00    -0.016 A 
ATOM      8  C8  IND d   1      -0.826   0.135   1.346  0.00  0.00    -0.047 A 
ATOM      9  C9  IND d   1      -0.752  -0.238   2.694  0.00  0.00    -0.096 A 
ATOM     10  HN1 IND d   1      -2.413   0.867   0.362  0.00  0.00     0.298 HD
ENDROOT
TORSDOF 0
ENDMDL
