MODEL 1
REMARK minimizedAffinity -3.83707929
REMARK minimizedRMSD -1
REMARK  0 active torsions:
REMARK  status: ('A' for Active; 'I' for Inactive)
ROOT
ATOM      1  N1  IND d   1      -1.024  -0.603  -0.871  0.00  0.00    -0.196 N 
ATOM      2  C2  IND d   1       0.008  -0.156  -1.648  0.00  0.00     0.054 A 
ATOM      3  C3  IND d   1       1.043   0.239  -0.873  0.00  0.00    -0.031 A 
ATOM      4  C4  IND d   1       1.300   0.145   1.686  0.00  0.00     0.051 A 
ATOM      5  C5  IND d   1       0.609  -0.152   2.828  0.00  0.00    -0.031 A 
ATOM      6  C6  IND d   1      -0.686  -0.627   2.794  0.00  0.00     0.015 A 
ATOM      7  C7  IND d   1      -1.338  -0.834   1.611  0.00  0.00    -0.016 A 
ATOM      8  C8  IND d   1      -0.643  -0.527   0.450  0.00  0.00    -0.047 A 
ATOM      9  C9  IND d   1       0.657  -0.005   0.480  0.00  0.00    -0.096 A 
ATOM     10  HN1 IND d   1      -1.783  -0.885  -1.160  0.00  0.00     0.298 HD
ENDROOT
TORSDOF 0
ENDMDL
