MODEL 1
REMARK minimizedAffinity -5.37239981
REMARK minimizedRMSD -1
REMARK  0 active torsions:
REMARK  status: ('A' for Active; 'I' for Inactive)
ROOT
ATOM      1  N1  IND d   1      -1.064   0.166  -0.709  0.00  0.00    -0.196 N 
ATOM      2  C2  IND d   1       0.209   0.316  -1.185  0.00  0.00     0.054 A 
ATOM      3  C3  IND d   1       1.102   0.245  -0.172  0.00  0.00    -0.031 A 
ATOM      4  C4  IND d   1       0.704  -0.212   2.330  0.00  0.00     0.051 A 
ATOM      5  C5  IND d   1      -0.294  -0.378   3.249  0.00  0.00    -0.031 A 
ATOM      6  C6  IND d   1      -1.626  -0.374   2.888  0.00  0.00     0.015 A 
ATOM      7  C7  IND d   1      -2.011  -0.215   1.587  0.00  0.00    -0.016 A 
ATOM      8  C8  IND d   1      -1.001  -0.038   0.652  0.00  0.00    -0.047 A 
ATOM      9  C9  IND d   1       0.350   0.001   1.018  0.00  0.00    -0.096 A 
ATOM     10  HN1 IND d   1      -1.782   0.195  -1.180  0.00  0.00     0.298 HD
ENDROOT
TORSDOF 0
ENDMDL
