MODEL 1
REMARK minimizedAffinity -1.8304826
REMARK minimizedRMSD -1
REMARK  0 active torsions:
REMARK  status: ('A' for Active; 'I' for Inactive)
ROOT
ATOM      1  N1  IND d   1      -0.538   0.224  -1.334  0.00  0.00    -0.196 N 
ATOM      2  C2  IND d   1       0.775   0.537  -1.549  0.00  0.00     0.054 A 
ATOM      3  C3  IND d   1       1.454   0.547  -0.380  0.00  0.00    -0.031 A 
ATOM      4  C4  IND d   1       0.633  -0.021   1.993  0.00  0.00     0.051 A 
ATOM      5  C5  IND d   1      -0.498  -0.329   2.696  0.00  0.00    -0.031 A 
ATOM      6  C6  IND d   1      -1.723  -0.475   2.079  0.00  0.00     0.015 A 
ATOM      7  C7  IND d   1      -1.863  -0.328   0.728  0.00  0.00    -0.016 A 
ATOM      8  C8  IND d   1      -0.718  -0.008   0.012  0.00  0.00    -0.047 A 
ATOM      9  C9  IND d   1       0.520   0.183   0.638  0.00  0.00    -0.096 A 
ATOM     10  HN1 IND d   1      -1.148   0.179  -1.938  0.00  0.00     0.298 HD
ENDROOT
TORSDOF 0
ENDMDL
