MODEL 1
REMARK minimizedAffinity -5.37540817
REMARK minimizedRMSD -1
REMARK  0 active torsions:
REMARK  status: ('A' for Active; 'I' for Inactive)
ROOT
ATOM      1  N1  IND d   1      -1.084   0.785  -1.272  0.00  0.00    -0.196 N 
ATOM      2  C2  IND d   1       0.266   0.583  -1.214  0.00  0.00     0.054 A 
ATOM      3  C3  IND d   1       0.615   0.079  -0.009  0.00  0.00    -0.031 A 
ATOM      4  C4  IND d   1      -0.878  -0.588   1.979  0.00  0.00     0.051 A 
ATOM      5  C5  IND d   1      -2.174  -0.556   2.411  0.00  0.00    -0.031 A 
ATOM      6  C6  IND d   1      -3.194  -0.068   1.621  0.00  0.00     0.015 A 
ATOM      7  C7  IND d   1      -2.957   0.398   0.358  0.00  0.00    -0.016 A 
ATOM      8  C8  IND d   1      -1.641   0.373  -0.081  0.00  0.00    -0.047 A 
ATOM      9  C9  IND d   1      -0.595  -0.081   0.733  0.00  0.00    -0.096 A 
ATOM     10  HN1 IND d   1      -1.514   1.113  -1.940  0.00  0.00     0.298 HD
ENDROOT
TORSDOF 0
ENDMDL
