MODEL 1
REMARK minimizedAffinity -4.09061289
REMARK minimizedRMSD -1
REMARK  0 active torsions:
REMARK  status: ('A' for Active; 'I' for Inactive)
ROOT
ATOM      1  N1  IND d   1      -0.510   0.111  -0.610  0.00  0.00    -0.196 N 
ATOM      2  C2  IND d   1       0.842   0.304  -0.549  0.00  0.00     0.054 A 
ATOM      3  C3  IND d   1       1.269   0.244   0.733  0.00  0.00    -0.031 A 
ATOM      4  C4  IND d   1      -0.062  -0.262   2.877  0.00  0.00     0.051 A 
ATOM      5  C5  IND d   1      -1.334  -0.470   3.331  0.00  0.00    -0.031 A 
ATOM      6  C6  IND d   1      -2.418  -0.498   2.478  0.00  0.00     0.015 A 
ATOM      7  C7  IND d   1      -2.268  -0.330   1.130  0.00  0.00    -0.016 A 
ATOM      8  C8  IND d   1      -0.979  -0.111   0.666  0.00  0.00    -0.047 A 
ATOM      9  C9  IND d   1       0.120  -0.039   1.533  0.00  0.00    -0.096 A 
ATOM     10  HN1 IND d   1      -0.987   0.127  -1.325  0.00  0.00     0.298 HD
ENDROOT
TORSDOF 0
ENDMDL
