MODEL 1
REMARK minimizedAffinity -4.96623707
REMARK minimizedRMSD -1
REMARK  0 active torsions:
REMARK  status: ('A' for Active; 'I' for Inactive)
ROOT
ATOM      1  N1  IND d   1      -0.975   0.318  -0.744  0.00  0.00    -0.196 N 
ATOM      2  C2  IND d   1       0.371   0.132  -0.896  0.00  0.00     0.054 A 
ATOM      3  C3  IND d   1       0.955  -0.077   0.306  0.00  0.00    -0.031 A 
ATOM      4  C4  IND d   1      -0.121  -0.258   2.638  0.00  0.00     0.051 A 
ATOM      5  C5  IND d   1      -1.317  -0.123   3.286  0.00  0.00    -0.031 A 
ATOM      6  C6  IND d   1      -2.484   0.169   2.610  0.00  0.00     0.015 A 
ATOM      7  C7  IND d   1      -2.500   0.327   1.253  0.00  0.00    -0.016 A 
ATOM      8  C8  IND d   1      -1.287   0.198   0.592  0.00  0.00    -0.047 A 
ATOM      9  C9  IND d   1      -0.092  -0.057   1.278  0.00  0.00    -0.096 A 
ATOM     10  HN1 IND d   1      -1.533   0.483  -1.377  0.00  0.00     0.298 HD
ENDROOT
TORSDOF 0
ENDMDL
