MODEL 1
REMARK minimizedAffinity 1.14792788
REMARK minimizedRMSD -1
REMARK  1 active torsions:
REMARK  status: ('A' for Active; 'I' for Inactive)
REMARK    1  A    between atoms: C1_2  and  C2_3 
ROOT
ATOM      1  C2  UNL d   1      -4.126  -0.719  -3.740  0.00  0.00    -0.076 A 
ATOM      2  C3  UNL d   1      -5.350  -0.029  -3.772  0.00  0.00     0.004 A 
ATOM      3  C4  UNL d   1      -5.729   0.708  -4.892  0.00  0.00    -0.003 A 
ATOM      4  C5  UNL d   1      -4.890   0.766  -6.000  0.00  0.00     0.000 A 
ATOM      5  C6  UNL d   1      -3.680   0.073  -5.992  0.00  0.00     0.000 A 
ATOM      6  C7  UNL d   1      -3.290  -0.688  -4.877  0.00  0.00    -0.073 A 
ATOM      7  C8  UNL d   1      -1.972  -1.411  -4.921  0.00  0.00     0.078 C 
ENDROOT
BRANCH   1   8
ATOM      8  C1  UNL d   1      -3.756  -1.480  -2.487  0.00  0.00     0.053 C 
ATOM      9  C   UNL d   1      -3.085  -0.597  -1.446  0.00  0.00     0.018 C 
ENDBRANCH   1   8
TORSDOF 1
ENDMDL
