MODEL 1
REMARK minimizedAffinity 4.34401798
REMARK minimizedRMSD -1
REMARK  1 active torsions:
REMARK  status: ('A' for Active; 'I' for Inactive)
REMARK    1  A    between atoms: C1_2  and  C2_3 
ROOT
ATOM      1  C2  UNL d   1      -3.447   0.927  -3.410  0.00  0.00    -0.076 A 
ATOM      2  C3  UNL d   1      -2.710  -0.054  -2.724  0.00  0.00     0.004 A 
ATOM      3  C4  UNL d   1      -2.192  -1.162  -3.394  0.00  0.00    -0.003 A 
ATOM      4  C5  UNL d   1      -2.403  -1.306  -4.761  0.00  0.00     0.000 A 
ATOM      5  C6  UNL d   1      -3.117  -0.333  -5.461  0.00  0.00     0.000 A 
ATOM      6  C7  UNL d   1      -3.632   0.797  -4.803  0.00  0.00    -0.073 A 
ATOM      7  C8  UNL d   1      -4.399   1.812  -5.606  0.00  0.00     0.078 C 
ENDROOT
BRANCH   1   8
ATOM      8  C1  UNL d   1      -4.007   2.092  -2.626  0.00  0.00     0.053 C 
ATOM      9  C   UNL d   1      -3.532   3.435  -3.158  0.00  0.00     0.018 C 
ENDBRANCH   1   8
TORSDOF 1
ENDMDL
