MODEL 1
REMARK minimizedAffinity -0.732037723
REMARK minimizedRMSD -1
REMARK  1 active torsions:
REMARK  status: ('A' for Active; 'I' for Inactive)
REMARK    1  A    between atoms: C1_2  and  C2_3 
ROOT
ATOM      1  C2  UNL d   1      -4.260  -0.763  -3.644  0.00  0.00    -0.076 A 
ATOM      2  C3  UNL d   1      -5.479  -0.091  -3.841  0.00  0.00     0.004 A 
ATOM      3  C4  UNL d   1      -5.719   0.632  -5.009  0.00  0.00    -0.003 A 
ATOM      4  C5  UNL d   1      -4.743   0.695  -5.998  0.00  0.00     0.000 A 
ATOM      5  C6  UNL d   1      -3.535   0.020  -5.826  0.00  0.00     0.000 A 
ATOM      6  C7  UNL d   1      -3.284  -0.727  -4.662  0.00  0.00    -0.073 A 
ATOM      7  C8  UNL d   1      -1.961  -1.430  -4.527  0.00  0.00     0.078 C 
ENDROOT
BRANCH   1   8
ATOM      8  C1  UNL d   1      -4.047  -1.509  -2.346  0.00  0.00     0.053 C 
ATOM      9  C   UNL d   1      -3.269  -0.692  -1.325  0.00  0.00     0.018 C 
ENDBRANCH   1   8
TORSDOF 1
ENDMDL
