MODEL 1
REMARK minimizedAffinity 6.41947508
REMARK minimizedRMSD -1
REMARK  1 active torsions:
REMARK  status: ('A' for Active; 'I' for Inactive)
REMARK    1  A    between atoms: C1_2  and  C2_3 
ROOT
ATOM      1  C2  UNL d   1       3.703  -0.173   0.082  0.00  0.00    -0.076 A 
ATOM      2  C3  UNL d   1       5.048  -0.556   0.230  0.00  0.00     0.004 A 
ATOM      3  C4  UNL d   1       5.396  -1.892   0.421  0.00  0.00    -0.003 A 
ATOM      4  C5  UNL d   1       4.406  -2.867   0.467  0.00  0.00     0.000 A 
ATOM      5  C6  UNL d   1       3.068  -2.508   0.305  0.00  0.00     0.000 A 
ATOM      6  C7  UNL d   1       2.701  -1.167   0.095  0.00  0.00    -0.073 A 
ATOM      7  C8  UNL d   1       1.243  -0.835  -0.068  0.00  0.00     0.078 C 
ENDROOT
BRANCH   1   8
ATOM      8  C1  UNL d   1       3.383   1.294  -0.096  0.00  0.00     0.053 C 
ATOM      9  C   UNL d   1       2.708   1.895   1.127  0.00  0.00     0.018 C 
ENDBRANCH   1   8
TORSDOF 1
ENDMDL
