MODEL 1
REMARK minimizedAffinity 0.645054042
REMARK minimizedRMSD -1
REMARK  1 active torsions:
REMARK  status: ('A' for Active; 'I' for Inactive)
REMARK    1  A    between atoms: C1_2  and  C2_3 
ROOT
ATOM      1  C2  UNL d   1      -3.827   1.384  -3.469  0.00  0.00    -0.076 A 
ATOM      2  C3  UNL d   1      -3.735   0.669  -2.262  0.00  0.00     0.004 A 
ATOM      3  C4  UNL d   1      -3.948  -0.708  -2.226  0.00  0.00    -0.003 A 
ATOM      4  C5  UNL d   1      -4.256  -1.393  -3.396  0.00  0.00     0.000 A 
ATOM      5  C6  UNL d   1      -4.334  -0.703  -4.605  0.00  0.00     0.000 A 
ATOM      6  C7  UNL d   1      -4.106   0.683  -4.662  0.00  0.00    -0.073 A 
ATOM      7  C8  UNL d   1      -4.209   1.377  -5.992  0.00  0.00     0.078 C 
ENDROOT
BRANCH   1   8
ATOM      8  C1  UNL d   1      -3.612   2.880  -3.443  0.00  0.00     0.053 C 
ATOM      9  C   UNL d   1      -2.242   3.263  -2.904  0.00  0.00     0.018 C 
ENDBRANCH   1   8
TORSDOF 1
ENDMDL
