MODEL 1
REMARK minimizedAffinity 1.07584071
REMARK minimizedRMSD -1
REMARK  1 active torsions:
REMARK  status: ('A' for Active; 'I' for Inactive)
REMARK    1  A    between atoms: C1_2  and  C2_3 
ROOT
ATOM      1  C2  UNL d   1       4.626  -3.245   2.684  0.00  0.00    -0.076 A 
ATOM      2  C3  UNL d   1       4.404  -2.342   3.738  0.00  0.00     0.004 A 
ATOM      3  C4  UNL d   1       4.757  -2.666   5.047  0.00  0.00    -0.003 A 
ATOM      4  C5  UNL d   1       5.339  -3.898   5.323  0.00  0.00     0.000 A 
ATOM      5  C6  UNL d   1       5.583  -4.799   4.287  0.00  0.00     0.000 A 
ATOM      6  C7  UNL d   1       5.248  -4.481   2.960  0.00  0.00    -0.073 A 
ATOM      7  C8  UNL d   1       5.529  -5.493   1.883  0.00  0.00     0.078 C 
ENDROOT
BRANCH   1   8
ATOM      8  C1  UNL d   1       4.198  -2.850   1.289  0.00  0.00     0.053 C 
ATOM      9  C   UNL d   1       2.701  -3.008   1.073  0.00  0.00     0.018 C 
ENDBRANCH   1   8
TORSDOF 1
ENDMDL
