MODEL 1
REMARK minimizedAffinity 1.23641157
REMARK minimizedRMSD -1
REMARK  1 active torsions:
REMARK  status: ('A' for Active; 'I' for Inactive)
REMARK    1  A    between atoms: C1_2  and  C2_3 
ROOT
ATOM      1  C2  UNL d   1      -3.290   0.622  -5.383  0.00  0.00    -0.076 A 
ATOM      2  C3  UNL d   1      -4.288   1.398  -5.998  0.00  0.00     0.004 A 
ATOM      3  C4  UNL d   1      -5.632   1.226  -5.672  0.00  0.00    -0.003 A 
ATOM      4  C5  UNL d   1      -6.000   0.277  -4.726  0.00  0.00     0.000 A 
ATOM      5  C6  UNL d   1      -5.021  -0.489  -4.093  0.00  0.00     0.000 A 
ATOM      6  C7  UNL d   1      -3.660  -0.317  -4.398  0.00  0.00    -0.073 A 
ATOM      7  C8  UNL d   1      -2.648  -1.175  -3.689  0.00  0.00     0.078 C 
ENDROOT
BRANCH   1   8
ATOM      8  C1  UNL d   1      -1.851   0.834  -5.797  0.00  0.00     0.053 C 
ATOM      9  C   UNL d   1      -1.447   2.300  -5.771  0.00  0.00     0.018 C 
ENDBRANCH   1   8
TORSDOF 1
ENDMDL
