MODEL 1
REMARK minimizedAffinity -1.0833354
REMARK minimizedRMSD -1
REMARK  1 active torsions:
REMARK  status: ('A' for Active; 'I' for Inactive)
REMARK    1  A    between atoms: C1_2  and  C2_3 
ROOT
ATOM      1  C2  UNL d   1      -4.048  -0.535  -3.931  0.00  0.00    -0.076 A 
ATOM      2  C3  UNL d   1      -5.308   0.007  -3.626  0.00  0.00     0.004 A 
ATOM      3  C4  UNL d   1      -5.928   0.910  -4.488  0.00  0.00    -0.003 A 
ATOM      4  C5  UNL d   1      -5.299   1.284  -5.670  0.00  0.00     0.000 A 
ATOM      5  C6  UNL d   1      -4.056   0.742  -5.998  0.00  0.00     0.000 A 
ATOM      6  C7  UNL d   1      -3.424  -0.182  -5.147  0.00  0.00    -0.073 A 
ATOM      7  C8  UNL d   1      -2.082  -0.730  -5.547  0.00  0.00     0.078 C 
ENDROOT
BRANCH   1   8
ATOM      8  C1  UNL d   1      -3.411  -1.489  -2.945  0.00  0.00     0.053 C 
ATOM      9  C   UNL d   1      -2.714  -0.766  -1.803  0.00  0.00     0.018 C 
ENDBRANCH   1   8
TORSDOF 1
ENDMDL
