MODEL 1
REMARK minimizedAffinity 3.03516102
REMARK minimizedRMSD -1
REMARK  1 active torsions:
REMARK  status: ('A' for Active; 'I' for Inactive)
REMARK    1  A    between atoms: C1_2  and  C2_3 
ROOT
ATOM      1  C2  UNL d   1       3.761  -3.945   2.426  0.00  0.00    -0.076 A 
ATOM      2  C3  UNL d   1       3.411  -3.100   3.494  0.00  0.00     0.004 A 
ATOM      3  C4  UNL d   1       4.063  -3.190   4.723  0.00  0.00    -0.003 A 
ATOM      4  C5  UNL d   1       5.076  -4.125   4.903  0.00  0.00     0.000 A 
ATOM      5  C6  UNL d   1       5.448  -4.959   3.850  0.00  0.00     0.000 A 
ATOM      6  C7  UNL d   1       4.812  -4.871   2.599  0.00  0.00    -0.073 A 
ATOM      7  C8  UNL d   1       5.250  -5.799   1.500  0.00  0.00     0.078 C 
ENDROOT
BRANCH   1   8
ATOM      8  C1  UNL d   1       3.001  -3.821   1.125  0.00  0.00     0.053 C 
ATOM      9  C   UNL d   1       2.250  -2.503   1.013  0.00  0.00     0.018 C 
ENDBRANCH   1   8
TORSDOF 1
ENDMDL
