MODEL 1
REMARK minimizedAffinity -3.33349371
REMARK minimizedRMSD -1
REMARK  0 active torsions:
REMARK  status: ('A' for Active; 'I' for Inactive)
ROOT
ATOM      1  C2' OXE d   1      -0.499   1.191  -0.820  0.00  0.00     0.078 C 
ATOM      2  C1' OXE d   1       0.245  -1.004  -2.404  0.00  0.00     0.078 C 
ATOM      3  C1  OXE d   1      -0.363  -1.285  -1.053  0.00  0.00    -0.078 A 
ATOM      4  C2  OXE d   1      -0.681  -0.205  -0.265  0.00  0.00    -0.078 A 
ATOM      5  C3  OXE d   1      -1.296  -0.408   0.968  0.00  0.00     0.003 A 
ATOM      6  C4  OXE d   1      -1.452  -1.702   1.478  0.00  0.00    -0.002 A 
ATOM      7  C5  OXE d   1      -1.098  -2.816   0.708  0.00  0.00    -0.002 A 
ATOM      8  C6  OXE d   1      -0.593  -2.626  -0.573  0.00  0.00     0.003 A 
ENDROOT
TORSDOF 0
ENDMDL
