MODEL 1
REMARK minimizedAffinity -4.77911901
REMARK minimizedRMSD -1
REMARK  0 active torsions:
REMARK  status: ('A' for Active; 'I' for Inactive)
ROOT
ATOM      1  C2' OXE d   1      -0.768  -1.089   1.899  0.00  0.00     0.078 C 
ATOM      2  C1' OXE d   1       0.240   0.682  -0.031  0.00  0.00     0.078 C 
ATOM      3  C1  OXE d   1       0.155  -0.780  -0.394  0.00  0.00    -0.078 A 
ATOM      4  C2  OXE d   1      -0.296  -1.646   0.573  0.00  0.00    -0.078 A 
ATOM      5  C3  OXE d   1      -0.446  -2.997   0.273  0.00  0.00     0.003 A 
ATOM      6  C4  OXE d   1       0.002  -3.505  -0.952  0.00  0.00    -0.002 A 
ATOM      7  C5  OXE d   1       0.502  -2.646  -1.937  0.00  0.00    -0.002 A 
ATOM      8  C6  OXE d   1       0.545  -1.278  -1.690  0.00  0.00     0.003 A 
ENDROOT
TORSDOF 0
ENDMDL
