MODEL 1
REMARK minimizedAffinity -5.87459373
REMARK minimizedRMSD -1
REMARK  0 active torsions:
REMARK  status: ('A' for Active; 'I' for Inactive)
ROOT
ATOM      1  C2' OXE d   1       0.558  -1.768  -3.143  0.00  0.00     0.078 C 
ATOM      2  C1' OXE d   1       0.018  -3.447  -0.959  0.00  0.00     0.078 C 
ATOM      3  C1  OXE d   1      -0.052  -1.957  -0.735  0.00  0.00    -0.078 A 
ATOM      4  C2  OXE d   1       0.259  -1.143  -1.797  0.00  0.00    -0.078 A 
ATOM      5  C3  OXE d   1       0.157   0.239  -1.660  0.00  0.00     0.003 A 
ATOM      6  C4  OXE d   1      -0.110   0.809  -0.409  0.00  0.00    -0.002 A 
ATOM      7  C5  OXE d   1      -0.391  -0.002   0.696  0.00  0.00    -0.002 A 
ATOM      8  C6  OXE d   1      -0.408  -1.384   0.540  0.00  0.00     0.003 A 
ENDROOT
TORSDOF 0
ENDMDL
