MODEL 1
REMARK minimizedAffinity -6.15435266
REMARK minimizedRMSD -1
REMARK  0 active torsions:
REMARK  status: ('A' for Active; 'I' for Inactive)
ROOT
ATOM      1  C2' OXE d   1       0.171   0.552  -0.950  0.00  0.00     0.078 C 
ATOM      2  C1' OXE d   1       0.648  -2.024  -1.960  0.00  0.00     0.078 C 
ATOM      3  C1  OXE d   1      -0.106  -1.907  -0.659  0.00  0.00    -0.078 A 
ATOM      4  C2  OXE d   1      -0.293  -0.645  -0.148  0.00  0.00    -0.078 A 
ATOM      5  C3  OXE d   1      -1.029  -0.477   1.021  0.00  0.00     0.003 A 
ATOM      6  C4  OXE d   1      -1.447  -1.589   1.762  0.00  0.00    -0.002 A 
ATOM      7  C5  OXE d   1      -1.231  -2.884   1.280  0.00  0.00    -0.002 A 
ATOM      8  C6  OXE d   1      -0.601  -3.059   0.053  0.00  0.00     0.003 A 
ENDROOT
TORSDOF 0
ENDMDL
