MODEL 1
REMARK minimizedAffinity -5.98263788
REMARK minimizedRMSD -1
REMARK  0 active torsions:
REMARK  status: ('A' for Active; 'I' for Inactive)
ROOT
ATOM      1  C2' OXE d   1      -1.144   0.093   1.343  0.00  0.00     0.078 C 
ATOM      2  C1' OXE d   1       0.107   0.841  -1.056  0.00  0.00     0.078 C 
ATOM      3  C1  OXE d   1       0.081  -0.625  -0.704  0.00  0.00    -0.078 A 
ATOM      4  C2  OXE d   1      -0.492  -0.978   0.495  0.00  0.00    -0.078 A 
ATOM      5  C3  OXE d   1      -0.591  -2.322   0.842  0.00  0.00     0.003 A 
ATOM      6  C4  OXE d   1       0.023  -3.305   0.057  0.00  0.00    -0.002 A 
ATOM      7  C5  OXE d   1       0.647  -2.963  -1.148  0.00  0.00    -0.002 A 
ATOM      8  C6  OXE d   1       0.647  -1.636  -1.563  0.00  0.00     0.003 A 
ENDROOT
TORSDOF 0
ENDMDL
