MODEL 1
REMARK minimizedAffinity -2.08002329
REMARK minimizedRMSD -1
REMARK  0 active torsions:
REMARK  status: ('A' for Active; 'I' for Inactive)
ROOT
ATOM      1  C2' OXE d   1      -1.300  -1.526   1.638  0.00  0.00     0.078 C 
ATOM      2  C1' OXE d   1      -0.169   0.580   0.167  0.00  0.00     0.078 C 
ATOM      3  C1  OXE d   1      -0.386  -0.734  -0.539  0.00  0.00    -0.078 A 
ATOM      4  C2  OXE d   1      -0.897  -1.773   0.201  0.00  0.00    -0.078 A 
ATOM      5  C3  OXE d   1      -1.167  -2.991  -0.416  0.00  0.00     0.003 A 
ATOM      6  C4  OXE d   1      -0.781  -3.215  -1.743  0.00  0.00    -0.002 A 
ATOM      7  C5  OXE d   1      -0.223  -2.182  -2.504  0.00  0.00    -0.002 A 
ATOM      8  C6  OXE d   1      -0.058  -0.926  -1.931  0.00  0.00     0.003 A 
ENDROOT
TORSDOF 0
ENDMDL
