MODEL 1
REMARK minimizedAffinity -5.16964817
REMARK minimizedRMSD -1
REMARK  0 active torsions:
REMARK  status: ('A' for Active; 'I' for Inactive)
ROOT
ATOM      1  C2' OXE d   1      -1.780  -0.150   2.064  0.00  0.00     0.078 C 
ATOM      2  C1' OXE d   1      -0.207   1.288   0.237  0.00  0.00     0.078 C 
ATOM      3  C1  OXE d   1      -0.181  -0.218   0.156  0.00  0.00    -0.078 A 
ATOM      4  C2  OXE d   1      -0.917  -0.914   1.084  0.00  0.00    -0.078 A 
ATOM      5  C3  OXE d   1      -0.971  -2.304   1.020  0.00  0.00     0.003 A 
ATOM      6  C4  OXE d   1      -0.162  -3.003   0.116  0.00  0.00    -0.002 A 
ATOM      7  C5  OXE d   1       0.626  -2.314  -0.812  0.00  0.00    -0.002 A 
ATOM      8  C6  OXE d   1       0.595  -0.924  -0.834  0.00  0.00     0.003 A 
ENDROOT
TORSDOF 0
ENDMDL
