MODEL 1
REMARK minimizedAffinity -4.64490557
REMARK minimizedRMSD -1
REMARK  0 active torsions:
REMARK  status: ('A' for Active; 'I' for Inactive)
ROOT
ATOM      1  C2' OXE d   1       0.080   0.747  -0.806  0.00  0.00     0.078 C 
ATOM      2  C1' OXE d   1       0.052  -1.586  -2.368  0.00  0.00     0.078 C 
ATOM      3  C1  OXE d   1      -0.475  -1.677  -0.957  0.00  0.00    -0.078 A 
ATOM      4  C2  OXE d   1      -0.414  -0.542  -0.185  0.00  0.00    -0.078 A 
ATOM      5  C3  OXE d   1      -0.937  -0.558   1.105  0.00  0.00     0.003 A 
ATOM      6  C4  OXE d   1      -1.382  -1.756   1.675  0.00  0.00    -0.002 A 
ATOM      7  C5  OXE d   1      -1.416  -2.933   0.919  0.00  0.00    -0.002 A 
ATOM      8  C6  OXE d   1      -1.006  -2.901  -0.410  0.00  0.00     0.003 A 
ENDROOT
TORSDOF 0
ENDMDL
