MODEL 1
REMARK minimizedAffinity -4.34387732
REMARK minimizedRMSD -1
REMARK  0 active torsions:
REMARK  status: ('A' for Active; 'I' for Inactive)
ROOT
ATOM      1  C2' OXE d   1      -0.775  -0.011   1.236  0.00  0.00     0.078 C 
ATOM      2  C1' OXE d   1       0.091   1.320  -1.080  0.00  0.00     0.078 C 
ATOM      3  C1  OXE d   1      -0.057  -0.180  -1.144  0.00  0.00    -0.078 A 
ATOM      4  C2  OXE d   1      -0.436  -0.828   0.008  0.00  0.00    -0.078 A 
ATOM      5  C3  OXE d   1      -0.640  -2.204  -0.011  0.00  0.00     0.003 A 
ATOM      6  C4  OXE d   1      -0.315  -2.954  -1.148  0.00  0.00    -0.002 A 
ATOM      7  C5  OXE d   1       0.110  -2.318  -2.319  0.00  0.00    -0.002 A 
ATOM      8  C6  OXE d   1       0.204  -0.931  -2.347  0.00  0.00     0.003 A 
ENDROOT
TORSDOF 0
ENDMDL
