MODEL 1
REMARK minimizedAffinity -4.61555719
REMARK minimizedRMSD -1
REMARK  0 active torsions:
REMARK  status: ('A' for Active; 'I' for Inactive)
ROOT
ATOM      1  C2' OXE d   1       0.058  -3.508   0.126  0.00  0.00     0.078 C 
ATOM      2  C1' OXE d   1      -1.786  -2.017   1.629  0.00  0.00     0.078 C 
ATOM      3  C1  OXE d   1      -1.050  -1.311   0.518  0.00  0.00    -0.078 A 
ATOM      4  C2  OXE d   1      -0.116  -2.036  -0.182  0.00  0.00    -0.078 A 
ATOM      5  C3  OXE d   1       0.552  -1.449  -1.253  0.00  0.00     0.003 A 
ATOM      6  C4  OXE d   1       0.393  -0.084  -1.525  0.00  0.00    -0.002 A 
ATOM      7  C5  OXE d   1      -0.525   0.682  -0.798  0.00  0.00    -0.002 A 
ATOM      8  C6  OXE d   1      -1.284   0.075   0.196  0.00  0.00     0.003 A 
ENDROOT
TORSDOF 0
ENDMDL
