MODEL 1
REMARK minimizedAffinity -5.35922432
REMARK minimizedRMSD -1
REMARK  0 active torsions:
REMARK  status: ('A' for Active; 'I' for Inactive)
ROOT
ATOM      1  C2' OXE d   1      -1.192  -0.636   1.904  0.00  0.00     0.078 C 
ATOM      2  C1' OXE d   1      -0.090   1.101  -0.007  0.00  0.00     0.078 C 
ATOM      3  C1  OXE d   1      -0.295  -0.341  -0.402  0.00  0.00    -0.078 A 
ATOM      4  C2  OXE d   1      -0.791  -1.194   0.555  0.00  0.00    -0.078 A 
ATOM      5  C3  OXE d   1      -1.051  -2.521   0.226  0.00  0.00     0.003 A 
ATOM      6  C4  OXE d   1      -0.669  -3.031  -1.020  0.00  0.00    -0.002 A 
ATOM      7  C5  OXE d   1      -0.125  -2.188  -1.996  0.00  0.00    -0.002 A 
ATOM      8  C6  OXE d   1       0.028  -0.834  -1.718  0.00  0.00     0.003 A 
ENDROOT
TORSDOF 0
ENDMDL
