MODEL 1
REMARK minimizedAffinity -3.55555081
REMARK minimizedRMSD -1
REMARK  0 active torsions:
REMARK  status: ('A' for Active; 'I' for Inactive)
ROOT
ATOM      1  C2' OXE d   1      -2.052   0.132   1.288  0.00  0.00     0.078 C 
ATOM      2  C1' OXE d   1       0.390   0.912   0.144  0.00  0.00     0.078 C 
ATOM      3  C1  OXE d   1       0.086  -0.563   0.215  0.00  0.00    -0.078 A 
ATOM      4  C2  OXE d   1      -1.090  -0.938   0.818  0.00  0.00    -0.078 A 
ATOM      5  C3  OXE d   1      -1.445  -2.283   0.861  0.00  0.00     0.003 A 
ATOM      6  C4  OXE d   1      -0.545  -3.267   0.434  0.00  0.00    -0.002 A 
ATOM      7  C5  OXE d   1       0.676  -2.909  -0.148  0.00  0.00    -0.002 A 
ATOM      8  C6  OXE d   1       0.987  -1.563  -0.303  0.00  0.00     0.003 A 
ENDROOT
TORSDOF 0
ENDMDL
