MODEL 1
REMARK minimizedAffinity -3.79349971
REMARK minimizedRMSD -1
REMARK  0 active torsions:
REMARK  status: ('A' for Active; 'I' for Inactive)
ROOT
ATOM      1  C2' OXE d   1       0.264  -0.097  -2.039  0.00  0.00     0.078 C 
ATOM      2  C1' OXE d   1       0.533   1.576   0.199  0.00  0.00     0.078 C 
ATOM      3  C1  OXE d   1      -0.064   0.208   0.411  0.00  0.00    -0.078 A 
ATOM      4  C2  OXE d   1      -0.235  -0.587  -0.697  0.00  0.00    -0.078 A 
ATOM      5  C3  OXE d   1      -0.731  -1.879  -0.549  0.00  0.00     0.003 A 
ATOM      6  C4  OXE d   1      -1.199  -2.321   0.695  0.00  0.00    -0.002 A 
ATOM      7  C5  OXE d   1      -1.071  -1.512   1.829  0.00  0.00    -0.002 A 
ATOM      8  C6  OXE d   1      -0.468  -0.265   1.713  0.00  0.00     0.003 A 
ENDROOT
TORSDOF 0
ENDMDL
