MODEL 1
REMARK minimizedAffinity -5.90790415
REMARK minimizedRMSD -1
REMARK  0 active torsions:
REMARK  status: ('A' for Active; 'I' for Inactive)
ROOT
ATOM      1  C2' OXE d   1      -0.722   0.808  -0.530  0.00  0.00     0.078 C 
ATOM      2  C1' OXE d   1       0.273  -0.554  -2.774  0.00  0.00     0.078 C 
ATOM      3  C1  OXE d   1       0.133  -1.327  -1.486  0.00  0.00    -0.078 A 
ATOM      4  C2  OXE d   1      -0.310  -0.641  -0.382  0.00  0.00    -0.078 A 
ATOM      5  C3  OXE d   1      -0.509  -1.319   0.817  0.00  0.00     0.003 A 
ATOM      6  C4  OXE d   1      -0.116  -2.656   0.949  0.00  0.00    -0.002 A 
ATOM      7  C5  OXE d   1       0.376  -3.363  -0.154  0.00  0.00    -0.002 A 
ATOM      8  C6  OXE d   1       0.466  -2.726  -1.386  0.00  0.00     0.003 A 
ENDROOT
TORSDOF 0
ENDMDL
