MODEL 1
REMARK minimizedAffinity -3.19869661
REMARK minimizedRMSD -1
REMARK  0 active torsions:
REMARK  status: ('A' for Active; 'I' for Inactive)
ROOT
ATOM      1  C2' OXE d   1      -1.879   0.347   1.722  0.00  0.00     0.078 C 
ATOM      2  C1' OXE d   1      -0.026   1.204  -0.205  0.00  0.00     0.078 C 
ATOM      3  C1  OXE d   1      -0.282  -0.278  -0.085  0.00  0.00    -0.078 A 
ATOM      4  C2  OXE d   1      -1.155  -0.691   0.893  0.00  0.00    -0.078 A 
ATOM      5  C3  OXE d   1      -1.468  -2.043   1.010  0.00  0.00     0.003 A 
ATOM      6  C4  OXE d   1      -0.787  -2.997   0.246  0.00  0.00    -0.002 A 
ATOM      7  C5  OXE d   1       0.136  -2.600  -0.728  0.00  0.00    -0.002 A 
ATOM      8  C6  OXE d   1       0.368  -1.245  -0.935  0.00  0.00     0.003 A 
ENDROOT
TORSDOF 0
ENDMDL
