MODEL 1
REMARK minimizedAffinity -1.49585354
REMARK minimizedRMSD -1
REMARK  0 active torsions:
REMARK  status: ('A' for Active; 'I' for Inactive)
ROOT
ATOM      1  C2' OXE d   1      -0.263   1.242  -0.813  0.00  0.00     0.078 C 
ATOM      2  C1' OXE d   1       0.119  -1.237  -2.074  0.00  0.00     0.078 C 
ATOM      3  C1  OXE d   1      -0.431  -1.240  -0.669  0.00  0.00    -0.078 A 
ATOM      4  C2  OXE d   1      -0.571  -0.025  -0.043  0.00  0.00    -0.078 A 
ATOM      5  C3  OXE d   1      -1.125   0.034   1.233  0.00  0.00     0.003 A 
ATOM      6  C4  OXE d   1      -1.397  -1.143   1.942  0.00  0.00    -0.002 A 
ATOM      7  C5  OXE d   1      -1.224  -2.392   1.337  0.00  0.00    -0.002 A 
ATOM      8  C6  OXE d   1      -0.783  -2.457   0.020  0.00  0.00     0.003 A 
ENDROOT
TORSDOF 0
ENDMDL
