MODEL 1
REMARK minimizedAffinity -0.662973762
REMARK minimizedRMSD -1
REMARK  0 active torsions:
REMARK  status: ('A' for Active; 'I' for Inactive)
ROOT
ATOM      1  C2' OXE d   1       0.373   0.865  -0.786  0.00  0.00     0.078 C 
ATOM      2  C1' OXE d   1       0.099  -1.525  -2.233  0.00  0.00     0.078 C 
ATOM      3  C1  OXE d   1      -0.350  -1.519  -0.793  0.00  0.00    -0.078 A 
ATOM      4  C2  OXE d   1      -0.169  -0.359  -0.079  0.00  0.00    -0.078 A 
ATOM      5  C3  OXE d   1      -0.615  -0.283   1.237  0.00  0.00     0.003 A 
ATOM      6  C4  OXE d   1      -1.106  -1.422   1.886  0.00  0.00    -0.002 A 
ATOM      7  C5  OXE d   1      -1.262  -2.625   1.189  0.00  0.00    -0.002 A 
ATOM      8  C6  OXE d   1      -0.929  -2.678  -0.160  0.00  0.00     0.003 A 
ENDROOT
TORSDOF 0
ENDMDL
