MODEL 1
REMARK minimizedAffinity 6.84825039
REMARK minimizedRMSD -1
REMARK  0 active torsions:
REMARK  status: ('A' for Active; 'I' for Inactive)
ROOT
ATOM      1  C   UNL d   1      -0.759  -2.285  -0.020  0.00  0.00    -0.002 A 
ATOM      2  C1  UNL d   1      -1.648  -2.833  -0.933  0.00  0.00     0.010 A 
ATOM      3  C2  UNL d   1      -1.301  -2.952  -2.280  0.00  0.00     0.041 A 
ATOM      4  C3  UNL d   1      -0.031  -2.507  -2.698  0.00  0.00    -0.075 A 
ATOM      5  S   UNL d   1       0.612  -2.553  -4.297  0.00  0.00     0.015 SA
ATOM      6  C4  UNL d   1       2.083  -1.846  -3.806  0.00  0.00     0.022 A 
ATOM      7  C5  UNL d   1       2.100  -1.575  -2.458  0.00  0.00     0.026 A 
ATOM      8  C6  UNL d   1       0.883  -1.952  -1.797  0.00  0.00    -0.082 A 
ATOM      9  C7  UNL d   1       0.500  -1.845  -0.438  0.00  0.00     0.045 A 
ENDROOT
TORSDOF 0
ENDMDL
