MODEL 1
REMARK minimizedAffinity 8.59880352
REMARK minimizedRMSD -1
REMARK  0 active torsions:
REMARK  status: ('A' for Active; 'I' for Inactive)
ROOT
ATOM      1  C   UNL d   1      -0.252  -3.819  -4.320  0.00  0.00    -0.002 A 
ATOM      2  C1  UNL d   1      -0.248  -5.010  -3.609  0.00  0.00     0.010 A 
ATOM      3  C2  UNL d   1      -0.338  -5.006  -2.216  0.00  0.00     0.041 A 
ATOM      4  C3  UNL d   1      -0.435  -3.772  -1.543  0.00  0.00    -0.075 A 
ATOM      5  S   UNL d   1      -0.556  -3.523   0.159  0.00  0.00     0.015 SA
ATOM      6  C4  UNL d   1      -0.617  -1.829  -0.018  0.00  0.00     0.022 A 
ATOM      7  C5  UNL d   1      -0.548  -1.446  -1.337  0.00  0.00     0.026 A 
ATOM      8  C6  UNL d   1      -0.442  -2.559  -2.237  0.00  0.00    -0.082 A 
ATOM      9  C7  UNL d   1      -0.348  -2.597  -3.649  0.00  0.00     0.045 A 
ENDROOT
TORSDOF 0
ENDMDL
