MODEL 1
REMARK minimizedAffinity 11.3223953
REMARK minimizedRMSD -1
REMARK  0 active torsions:
REMARK  status: ('A' for Active; 'I' for Inactive)
ROOT
ATOM      1  C   UNL d   1      -2.257  -2.673   0.019  0.00  0.00    -0.002 A 
ATOM      2  C1  UNL d   1      -1.321  -2.273   0.963  0.00  0.00     0.010 A 
ATOM      3  C2  UNL d   1      -0.014  -1.967   0.580  0.00  0.00     0.041 A 
ATOM      4  C3  UNL d   1       0.340  -2.069  -0.780  0.00  0.00    -0.075 A 
ATOM      5  S   UNL d   1       1.882  -1.744  -1.479  0.00  0.00     0.015 SA
ATOM      6  C4  UNL d   1       1.334  -2.127  -3.047  0.00  0.00     0.022 A 
ATOM      7  C5  UNL d   1       0.010  -2.496  -3.055  0.00  0.00     0.026 A 
ATOM      8  C6  UNL d   1      -0.585  -2.468  -1.748  0.00  0.00    -0.082 A 
ATOM      9  C7  UNL d   1      -1.902  -2.772  -1.329  0.00  0.00     0.045 A 
ENDROOT
TORSDOF 0
ENDMDL
