MODEL 1
REMARK minimizedAffinity 5.32865381
REMARK minimizedRMSD -1
REMARK  0 active torsions:
REMARK  status: ('A' for Active; 'I' for Inactive)
ROOT
ATOM      1  C   UNL d   1       0.084  -3.590  -3.086  0.00  0.00    -0.002 A 
ATOM      2  C1  UNL d   1       0.307  -2.240  -3.313  0.00  0.00     0.010 A 
ATOM      3  C2  UNL d   1       0.069  -1.301  -2.307  0.00  0.00     0.041 A 
ATOM      4  C3  UNL d   1      -0.400  -1.748  -1.056  0.00  0.00    -0.075 A 
ATOM      5  S   UNL d   1      -0.760  -0.780   0.325  0.00  0.00     0.015 SA
ATOM      6  C4  UNL d   1      -1.216  -2.137   1.249  0.00  0.00     0.022 A 
ATOM      7  C5  UNL d   1      -1.103  -3.308   0.538  0.00  0.00     0.026 A 
ATOM      8  C6  UNL d   1      -0.630  -3.103  -0.802  0.00  0.00    -0.082 A 
ATOM      9  C7  UNL d   1      -0.380  -4.029  -1.843  0.00  0.00     0.045 A 
ENDROOT
TORSDOF 0
ENDMDL
