MODEL 1
REMARK minimizedAffinity 4.21083689
REMARK minimizedRMSD -1
REMARK  0 active torsions:
REMARK  status: ('A' for Active; 'I' for Inactive)
ROOT
ATOM      1  C   UNL d   1       4.080   5.173  -5.997  0.00  0.00    -0.002 A 
ATOM      2  C1  UNL d   1       5.315   4.544  -5.942  0.00  0.00     0.010 A 
ATOM      3  C2  UNL d   1       5.977   4.383  -4.723  0.00  0.00     0.041 A 
ATOM      4  C3  UNL d   1       5.369   4.868  -3.548  0.00  0.00    -0.075 A 
ATOM      5  S   UNL d   1       5.993   4.783  -1.943  0.00  0.00     0.015 SA
ATOM      6  C4  UNL d   1       4.634   5.579  -1.293  0.00  0.00     0.022 A 
ATOM      7  C5  UNL d   1       3.717   5.910  -2.262  0.00  0.00     0.026 A 
ATOM      8  C6  UNL d   1       4.125   5.505  -3.578  0.00  0.00    -0.082 A 
ATOM      9  C7  UNL d   1       3.480   5.654  -4.830  0.00  0.00     0.045 A 
ENDROOT
TORSDOF 0
ENDMDL
