MODEL 1
REMARK minimizedAffinity 17.9574871
REMARK minimizedRMSD -1
REMARK  0 active torsions:
REMARK  status: ('A' for Active; 'I' for Inactive)
ROOT
ATOM      1  C   UNL d   1       5.354   5.936  -4.155  0.00  0.00    -0.002 A 
ATOM      2  C1  UNL d   1       5.999   5.492  -3.009  0.00  0.00     0.010 A 
ATOM      3  C2  UNL d   1       5.266   5.106  -1.886  0.00  0.00     0.041 A 
ATOM      4  C3  UNL d   1       3.860   5.172  -1.934  0.00  0.00    -0.075 A 
ATOM      5  S   UNL d   1       2.756   4.750  -0.679  0.00  0.00     0.015 SA
ATOM      6  C4  UNL d   1       1.401   5.147  -1.634  0.00  0.00     0.022 A 
ATOM      7  C5  UNL d   1       1.764   5.593  -2.883  0.00  0.00     0.026 A 
ATOM      8  C6  UNL d   1       3.187   5.614  -3.076  0.00  0.00    -0.082 A 
ATOM      9  C7  UNL d   1       3.959   6.000  -4.199  0.00  0.00     0.045 A 
ENDROOT
TORSDOF 0
ENDMDL
