MODEL 1
REMARK minimizedAffinity 2.75121522
REMARK minimizedRMSD -1
REMARK  0 active torsions:
REMARK  status: ('A' for Active; 'I' for Inactive)
ROOT
ATOM      1  C   UNL d   1       4.979   3.754  -5.507  0.00  0.00    -0.002 A 
ATOM      2  C1  UNL d   1       5.997   4.658  -5.240  0.00  0.00     0.010 A 
ATOM      3  C2  UNL d   1       5.999   5.396  -4.055  0.00  0.00     0.041 A 
ATOM      4  C3  UNL d   1       4.951   5.207  -3.132  0.00  0.00    -0.075 A 
ATOM      5  S   UNL d   1       4.746   5.999  -1.615  0.00  0.00     0.015 SA
ATOM      6  C4  UNL d   1       3.303   5.156  -1.285  0.00  0.00     0.022 A 
ATOM      7  C5  UNL d   1       2.970   4.287  -2.297  0.00  0.00     0.026 A 
ATOM      8  C6  UNL d   1       3.915   4.302  -3.379  0.00  0.00    -0.082 A 
ATOM      9  C7  UNL d   1       3.941   3.569  -4.590  0.00  0.00     0.045 A 
ENDROOT
TORSDOF 0
ENDMDL
