MODEL 1
REMARK minimizedAffinity 15.9483519
REMARK minimizedRMSD -1
REMARK  0 active torsions:
REMARK  status: ('A' for Active; 'I' for Inactive)
ROOT
ATOM      1  C   UNL d   1       0.011  -1.861  -2.113  0.00  0.00    -0.002 A 
ATOM      2  C1  UNL d   1       0.431  -1.463  -3.374  0.00  0.00     0.010 A 
ATOM      3  C2  UNL d   1       0.379  -2.348  -4.453  0.00  0.00     0.041 A 
ATOM      4  C3  UNL d   1      -0.110  -3.652  -4.242  0.00  0.00    -0.075 A 
ATOM      5  S   UNL d   1      -0.266  -4.906  -5.414  0.00  0.00     0.015 SA
ATOM      6  C4  UNL d   1      -0.897  -6.000  -4.270  0.00  0.00     0.022 A 
ATOM      7  C5  UNL d   1      -0.992  -5.439  -3.018  0.00  0.00     0.026 A 
ATOM      8  C6  UNL d   1      -0.540  -4.076  -2.981  0.00  0.00    -0.082 A 
ATOM      9  C7  UNL d   1      -0.474  -3.156  -1.908  0.00  0.00     0.045 A 
ENDROOT
TORSDOF 0
ENDMDL
