MODEL 1
REMARK minimizedAffinity 5.20958424
REMARK minimizedRMSD -1
REMARK  0 active torsions:
REMARK  status: ('A' for Active; 'I' for Inactive)
ROOT
ATOM      1  C   UNL d   1       5.509   3.869  -5.105  0.00  0.00    -0.002 A 
ATOM      2  C1  UNL d   1       5.382   5.251  -5.125  0.00  0.00     0.010 A 
ATOM      3  C2  UNL d   1       5.452   5.987  -3.941  0.00  0.00     0.041 A 
ATOM      4  C3  UNL d   1       5.656   5.306  -2.725  0.00  0.00    -0.075 A 
ATOM      5  S   UNL d   1       5.776   6.000  -1.151  0.00  0.00     0.015 SA
ATOM      6  C4  UNL d   1       6.000   4.479  -0.416  0.00  0.00     0.022 A 
ATOM      7  C5  UNL d   1       5.985   3.455  -1.333  0.00  0.00     0.026 A 
ATOM      8  C6  UNL d   1       5.787   3.915  -2.679  0.00  0.00    -0.082 A 
ATOM      9  C7  UNL d   1       5.710   3.196  -3.897  0.00  0.00     0.045 A 
ENDROOT
TORSDOF 0
ENDMDL
