MODEL 1
REMARK minimizedAffinity 15.7634964
REMARK minimizedRMSD -1
REMARK  0 active torsions:
REMARK  status: ('A' for Active; 'I' for Inactive)
ROOT
ATOM      1  C   UNL d   1      -1.273  -2.237  -1.976  0.00  0.00    -0.002 A 
ATOM      2  C1  UNL d   1      -1.466  -2.330  -3.347  0.00  0.00     0.010 A 
ATOM      3  C2  UNL d   1      -0.379  -2.284  -4.221  0.00  0.00     0.041 A 
ATOM      4  C3  UNL d   1       0.918  -2.142  -3.690  0.00  0.00    -0.075 A 
ATOM      5  S   UNL d   1       2.399  -2.063  -4.569  0.00  0.00     0.015 SA
ATOM      6  C4  UNL d   1       3.322  -1.904  -3.145  0.00  0.00     0.022 A 
ATOM      7  C5  UNL d   1       2.536  -1.909  -2.017  0.00  0.00     0.026 A 
ATOM      8  C6  UNL d   1       1.138  -2.047  -2.312  0.00  0.00    -0.082 A 
ATOM      9  C7  UNL d   1       0.015  -2.097  -1.452  0.00  0.00     0.045 A 
ENDROOT
TORSDOF 0
ENDMDL
