MODEL 1
REMARK minimizedAffinity 10.2360125
REMARK minimizedRMSD -1
REMARK  0 active torsions:
REMARK  status: ('A' for Active; 'I' for Inactive)
ROOT
ATOM      1  C   UNL d   1       0.909  -2.250  -3.137  0.00  0.00    -0.002 A 
ATOM      2  C1  UNL d   1      -0.291  -1.979  -3.781  0.00  0.00     0.010 A 
ATOM      3  C2  UNL d   1      -1.476  -1.861  -3.053  0.00  0.00     0.041 A 
ATOM      4  C3  UNL d   1      -1.436  -2.019  -1.654  0.00  0.00    -0.075 A 
ATOM      5  S   UNL d   1      -2.762  -1.917  -0.557  0.00  0.00     0.015 SA
ATOM      6  C4  UNL d   1      -1.768  -2.230   0.791  0.00  0.00     0.022 A 
ATOM      7  C5  UNL d   1      -0.453  -2.411   0.432  0.00  0.00     0.026 A 
ATOM      8  C6  UNL d   1      -0.240  -2.292  -0.983  0.00  0.00    -0.082 A 
ATOM      9  C7  UNL d   1       0.945  -2.406  -1.749  0.00  0.00     0.045 A 
ENDROOT
TORSDOF 0
ENDMDL
