MODEL 1
REMARK minimizedAffinity 4.26776791
REMARK minimizedRMSD -1
REMARK  0 active torsions:
REMARK  status: ('A' for Active; 'I' for Inactive)
ROOT
ATOM      1  C   UNL d   1       4.148   4.962  -5.601  0.00  0.00    -0.002 A 
ATOM      2  C1  UNL d   1       5.354   4.285  -5.482  0.00  0.00     0.010 A 
ATOM      3  C2  UNL d   1       5.995   4.188  -4.246  0.00  0.00     0.041 A 
ATOM      4  C3  UNL d   1       5.397   4.787  -3.119  0.00  0.00    -0.075 A 
ATOM      5  S   UNL d   1       6.000   4.796  -1.504  0.00  0.00     0.015 SA
ATOM      6  C4  UNL d   1       4.670   5.697  -0.934  0.00  0.00     0.022 A 
ATOM      7  C5  UNL d   1       3.779   5.993  -1.938  0.00  0.00     0.026 A 
ATOM      8  C6  UNL d   1       4.183   5.473  -3.214  0.00  0.00    -0.082 A 
ATOM      9  C7  UNL d   1       3.558   5.555  -4.482  0.00  0.00     0.045 A 
ENDROOT
TORSDOF 0
ENDMDL
