MODEL 1
REMARK minimizedAffinity -0.0386572294
REMARK minimizedRMSD -1
REMARK  0 active torsions:
REMARK  status: ('A' for Active; 'I' for Inactive)
ROOT
ATOM      1  C   UNL d   1       3.890   5.636  -1.820  0.00  0.00    -0.002 A 
ATOM      2  C1  UNL d   1       5.270   5.782  -1.868  0.00  0.00     0.010 A 
ATOM      3  C2  UNL d   1       6.000   5.286  -2.950  0.00  0.00     0.041 A 
ATOM      4  C3  UNL d   1       5.314   4.636  -3.994  0.00  0.00    -0.075 A 
ATOM      5  S   UNL d   1       5.999   3.950  -5.419  0.00  0.00     0.015 SA
ATOM      6  C4  UNL d   1       4.478   3.447  -5.999  0.00  0.00     0.022 A 
ATOM      7  C5  UNL d   1       3.460   3.785  -5.139  0.00  0.00     0.026 A 
ATOM      8  C6  UNL d   1       3.925   4.477  -3.969  0.00  0.00    -0.082 A 
ATOM      9  C7  UNL d   1       3.213   4.990  -2.858  0.00  0.00     0.045 A 
ENDROOT
TORSDOF 0
ENDMDL
