MODEL 1
REMARK minimizedAffinity 6.95570803
REMARK minimizedRMSD -1
REMARK  0 active torsions:
REMARK  status: ('A' for Active; 'I' for Inactive)
ROOT
ATOM      1  C   UNL d   1       1.810  -2.160  -2.643  0.00  0.00    -0.002 A 
ATOM      2  C1  UNL d   1       1.907  -2.327  -1.269  0.00  0.00     0.010 A 
ATOM      3  C2  UNL d   1       0.758  -2.404  -0.479  0.00  0.00     0.041 A 
ATOM      4  C3  UNL d   1      -0.503  -2.314  -1.100  0.00  0.00    -0.075 A 
ATOM      5  S   UNL d   1      -2.046  -2.384  -0.335  0.00  0.00     0.015 SA
ATOM      6  C4  UNL d   1      -2.872  -2.197  -1.814  0.00  0.00     0.022 A 
ATOM      7  C5  UNL d   1      -2.006  -2.081  -2.876  0.00  0.00     0.026 A 
ATOM      8  C6  UNL d   1      -0.627  -2.147  -2.483  0.00  0.00    -0.082 A 
ATOM      9  C7  UNL d   1       0.557  -2.071  -3.255  0.00  0.00     0.045 A 
ENDROOT
TORSDOF 0
ENDMDL
