MODEL 1
REMARK minimizedAffinity 2.44786167
REMARK minimizedRMSD -1
REMARK  1 active torsions:
REMARK  status: ('A' for Active; 'I' for Inactive)
REMARK    1  A    between atoms: N_2  and  C1_3 
ROOT
ATOM      1  C1  UNL d   1       0.489   0.403   0.673  0.00  0.00     0.143 A 
ATOM      2  C2  UNL d   1       1.090   0.354   1.935  0.00  0.00    -0.057 A 
ATOM      3  C3  UNL d   1       0.601   1.116   3.003  0.00  0.00     0.033 A 
ATOM      4  C4  UNL d   1      -0.484   1.967   2.818  0.00  0.00    -0.042 A 
ATOM      5  C5  UNL d   1      -1.082   2.051   1.566  0.00  0.00     0.033 A 
ATOM      6  C6  UNL d   1      -0.593   1.281   0.506  0.00  0.00    -0.057 A 
ENDROOT
BRANCH   1   7
ATOM      7  N   UNL d   1       0.989  -0.256  -0.453  0.00  0.00    -0.732 N 
ATOM      8  C   UNL d   1       1.224  -1.684  -0.427  0.00  0.00     0.284 C 
ATOM      9  H3  UNL d   1       0.572   0.081  -1.317  0.00  0.00     0.395 HD
ENDBRANCH   1   7
TORSDOF 1
ENDMDL
