MODEL 1
REMARK minimizedAffinity 1.74465966
REMARK minimizedRMSD -1
REMARK  1 active torsions:
REMARK  status: ('A' for Active; 'I' for Inactive)
REMARK    1  A    between atoms: N_2  and  C1_3 
ROOT
ATOM      1  C1  UNL d   1       0.215   1.659  -1.088  0.00  0.00     0.143 A 
ATOM      2  C2  UNL d   1      -0.540   2.023   0.032  0.00  0.00    -0.057 A 
ATOM      3  C3  UNL d   1      -0.797   3.367   0.329  0.00  0.00     0.033 A 
ATOM      4  C4  UNL d   1      -0.276   4.375  -0.475  0.00  0.00    -0.042 A 
ATOM      5  C5  UNL d   1       0.499   4.038  -1.579  0.00  0.00     0.033 A 
ATOM      6  C6  UNL d   1       0.745   2.694  -1.875  0.00  0.00    -0.057 A 
ENDROOT
BRANCH   1   7
ATOM      7  N   UNL d   1       0.587   0.345  -1.382  0.00  0.00    -0.732 N 
ATOM      8  C   UNL d   1      -0.316  -0.536  -2.092  0.00  0.00     0.284 C 
ATOM      9  H3  UNL d   1       1.557   0.273  -1.680  0.00  0.00     0.395 HD
ENDBRANCH   1   7
TORSDOF 1
ENDMDL
