MODEL 1
REMARK minimizedAffinity 6.92539454
REMARK minimizedRMSD -1
REMARK  1 active torsions:
REMARK  status: ('A' for Active; 'I' for Inactive)
REMARK    1  A    between atoms: N_2  and  C1_3 
ROOT
ATOM      1  C1  UNL d   1       0.289   1.210   1.026  0.00  0.00     0.143 A 
ATOM      2  C2  UNL d   1       0.757   0.827  -0.235  0.00  0.00    -0.057 A 
ATOM      3  C3  UNL d   1       1.876  -0.003  -0.373  0.00  0.00     0.033 A 
ATOM      4  C4  UNL d   1       2.567  -0.442   0.751  0.00  0.00    -0.042 A 
ATOM      5  C5  UNL d   1       2.135  -0.053   2.014  0.00  0.00     0.033 A 
ATOM      6  C6  UNL d   1       1.013   0.770   2.146  0.00  0.00    -0.057 A 
ENDROOT
BRANCH   1   7
ATOM      7  N   UNL d   1      -0.759   2.113   1.227  0.00  0.00    -0.732 N 
ATOM      8  C   UNL d   1      -2.030   1.662   1.750  0.00  0.00     0.284 C 
ATOM      9  H3  UNL d   1      -0.440   2.998   1.614  0.00  0.00     0.395 HD
ENDBRANCH   1   7
TORSDOF 1
ENDMDL
