MODEL 1
REMARK minimizedAffinity 6.1385169
REMARK minimizedRMSD -1
REMARK  1 active torsions:
REMARK  status: ('A' for Active; 'I' for Inactive)
REMARK    1  A    between atoms: N_2  and  C1_3 
ROOT
ATOM      1  C1  UNL d   1       2.686  -3.728  -0.147  0.00  0.00     0.143 A 
ATOM      2  C2  UNL d   1       3.951  -4.324  -0.180  0.00  0.00    -0.057 A 
ATOM      3  C3  UNL d   1       5.095  -3.623   0.223  0.00  0.00     0.033 A 
ATOM      4  C4  UNL d   1       4.996  -2.300   0.640  0.00  0.00    -0.042 A 
ATOM      5  C5  UNL d   1       3.752  -1.679   0.657  0.00  0.00     0.033 A 
ATOM      6  C6  UNL d   1       2.613  -2.386   0.260  0.00  0.00    -0.057 A 
ENDROOT
BRANCH   1   7
ATOM      7  N   UNL d   1       1.525  -4.339  -0.628  0.00  0.00    -0.732 N 
ATOM      8  C   UNL d   1       1.590  -5.623  -1.291  0.00  0.00     0.284 C 
ATOM      9  H3  UNL d   1       0.741  -4.241   0.013  0.00  0.00     0.395 HD
ENDBRANCH   1   7
TORSDOF 1
ENDMDL
