MODEL 1
REMARK minimizedAffinity 4.85822105
REMARK minimizedRMSD -1
REMARK  1 active torsions:
REMARK  status: ('A' for Active; 'I' for Inactive)
REMARK    1  A    between atoms: N_2  and  C1_3 
ROOT
ATOM      1  C1  UNL d   1       3.097  -3.392   0.510  0.00  0.00     0.143 A 
ATOM      2  C2  UNL d   1       4.485  -3.516   0.627  0.00  0.00    -0.057 A 
ATOM      3  C3  UNL d   1       5.329  -2.409   0.471  0.00  0.00     0.033 A 
ATOM      4  C4  UNL d   1       4.798  -1.161   0.164  0.00  0.00    -0.042 A 
ATOM      5  C5  UNL d   1       3.422  -1.019   0.019  0.00  0.00     0.033 A 
ATOM      6  C6  UNL d   1       2.585  -2.127   0.183  0.00  0.00    -0.057 A 
ENDROOT
BRANCH   1   7
ATOM      7  N   UNL d   1       2.213  -4.473   0.557  0.00  0.00    -0.732 N 
ATOM      8  C   UNL d   1       1.471  -4.871  -0.620  0.00  0.00     0.284 C 
ATOM      9  H3  UNL d   1       2.580  -5.252   1.100  0.00  0.00     0.395 HD
ENDBRANCH   1   7
TORSDOF 1
ENDMDL
