MODEL 1
REMARK minimizedAffinity 1.2975359
REMARK minimizedRMSD -1
REMARK  1 active torsions:
REMARK  status: ('A' for Active; 'I' for Inactive)
REMARK    1  A    between atoms: N_2  and  C1_3 
ROOT
ATOM      1  C1  UNL d   1      -1.866   1.451   2.123  0.00  0.00     0.143 A 
ATOM      2  C2  UNL d   1      -2.988   2.105   1.602  0.00  0.00    -0.057 A 
ATOM      3  C3  UNL d   1      -2.880   2.975   0.511  0.00  0.00     0.033 A 
ATOM      4  C4  UNL d   1      -1.639   3.231  -0.062  0.00  0.00    -0.042 A 
ATOM      5  C5  UNL d   1      -0.506   2.612   0.455  0.00  0.00     0.033 A 
ATOM      6  C6  UNL d   1      -0.621   1.739   1.540  0.00  0.00    -0.057 A 
ENDROOT
BRANCH   1   7
ATOM      7  N   UNL d   1      -1.893   0.651   3.267  0.00  0.00    -0.732 N 
ATOM      8  C   UNL d   1      -1.621  -0.768   3.181  0.00  0.00     0.284 C 
ATOM      9  H3  UNL d   1      -1.468   1.108   4.071  0.00  0.00     0.395 HD
ENDBRANCH   1   7
TORSDOF 1
ENDMDL
