MODEL 1
REMARK minimizedAffinity 2.14327073
REMARK minimizedRMSD -1
REMARK  1 active torsions:
REMARK  status: ('A' for Active; 'I' for Inactive)
REMARK    1  A    between atoms: N_2  and  C1_3 
ROOT
ATOM      1  C1  UNL d   1      -2.702   1.903   1.787  0.00  0.00     0.143 A 
ATOM      2  C2  UNL d   1      -1.579   1.823   0.956  0.00  0.00    -0.057 A 
ATOM      3  C3  UNL d   1      -1.145   2.927   0.214  0.00  0.00     0.033 A 
ATOM      4  C4  UNL d   1      -1.846   4.128   0.267  0.00  0.00    -0.042 A 
ATOM      5  C5  UNL d   1      -2.979   4.223   1.067  0.00  0.00     0.033 A 
ATOM      6  C6  UNL d   1      -3.404   3.118   1.811  0.00  0.00    -0.057 A 
ENDROOT
BRANCH   1   7
ATOM      7  N   UNL d   1      -3.240   0.812   2.474  0.00  0.00    -0.732 N 
ATOM      8  C   UNL d   1      -2.380  -0.227   2.998  0.00  0.00     0.284 C 
ATOM      9  H3  UNL d   1      -3.995   1.082   3.101  0.00  0.00     0.395 HD
ENDBRANCH   1   7
TORSDOF 1
ENDMDL
