MODEL 1
REMARK minimizedAffinity 3.6915338
REMARK minimizedRMSD -1
REMARK  1 active torsions:
REMARK  status: ('A' for Active; 'I' for Inactive)
REMARK    1  A    between atoms: N_2  and  C1_3 
ROOT
ATOM      1  C1  UNL d   1       0.094   1.761  -1.101  0.00  0.00     0.143 A 
ATOM      2  C2  UNL d   1      -0.515   1.731   0.159  0.00  0.00    -0.057 A 
ATOM      3  C3  UNL d   1      -0.729   2.906   0.890  0.00  0.00     0.033 A 
ATOM      4  C4  UNL d   1      -0.310   4.132   0.385  0.00  0.00    -0.042 A 
ATOM      5  C5  UNL d   1       0.320   4.183  -0.853  0.00  0.00     0.033 A 
ATOM      6  C6  UNL d   1       0.524   3.008  -1.582  0.00  0.00    -0.057 A 
ENDROOT
BRANCH   1   7
ATOM      7  N   UNL d   1       0.423   0.618  -1.833  0.00  0.00    -0.732 N 
ATOM      8  C   UNL d   1      -0.592  -0.102  -2.572  0.00  0.00     0.284 C 
ATOM      9  H3  UNL d   1       1.308   0.714  -2.327  0.00  0.00     0.395 HD
ENDBRANCH   1   7
TORSDOF 1
ENDMDL
