MODEL 1
REMARK minimizedAffinity 5.89702415
REMARK minimizedRMSD -1
REMARK  1 active torsions:
REMARK  status: ('A' for Active; 'I' for Inactive)
REMARK    1  A    between atoms: N_2  and  C1_3 
ROOT
ATOM      1  C1  UNL d   1       0.142   1.663  -1.353  0.00  0.00     0.143 A 
ATOM      2  C2  UNL d   1      -0.320   1.466  -0.048  0.00  0.00    -0.057 A 
ATOM      3  C3  UNL d   1      -0.691   2.547   0.762  0.00  0.00     0.033 A 
ATOM      4  C4  UNL d   1      -0.578   3.850   0.288  0.00  0.00    -0.042 A 
ATOM      5  C5  UNL d   1      -0.098   4.071  -0.998  0.00  0.00     0.033 A 
ATOM      6  C6  UNL d   1       0.265   2.987  -1.804  0.00  0.00    -0.057 A 
ENDROOT
BRANCH   1   7
ATOM      7  N   UNL d   1       0.619   0.637  -2.172  0.00  0.00    -0.732 N 
ATOM      8  C   UNL d   1       0.321  -0.746  -1.870  0.00  0.00     0.284 C 
ATOM      9  H3  UNL d   1       0.558   0.869  -3.161  0.00  0.00     0.395 HD
ENDBRANCH   1   7
TORSDOF 1
ENDMDL
