MODEL 1
REMARK minimizedAffinity 9.45504189
REMARK minimizedRMSD -1
REMARK  1 active torsions:
REMARK  status: ('A' for Active; 'I' for Inactive)
REMARK    1  A    between atoms: N_2  and  C1_3 
ROOT
ATOM      1  C1  UNL d   1      -2.109  -0.096  -2.087  0.00  0.00     0.143 A 
ATOM      2  C2  UNL d   1      -1.281  -0.705  -3.036  0.00  0.00    -0.057 A 
ATOM      3  C3  UNL d   1       0.042  -0.287  -3.220  0.00  0.00     0.033 A 
ATOM      4  C4  UNL d   1       0.554   0.770  -2.476  0.00  0.00    -0.042 A 
ATOM      5  C5  UNL d   1      -0.258   1.407  -1.544  0.00  0.00     0.033 A 
ATOM      6  C6  UNL d   1      -1.577   0.981  -1.360  0.00  0.00    -0.057 A 
ENDROOT
BRANCH   1   7
ATOM      7  N   UNL d   1      -3.463  -0.401  -1.926  0.00  0.00    -0.732 N 
ATOM      8  C   UNL d   1      -4.128  -0.155  -0.665  0.00  0.00     0.284 C 
ATOM      9  H3  UNL d   1      -4.016  -0.154  -2.743  0.00  0.00     0.395 HD
ENDBRANCH   1   7
TORSDOF 1
ENDMDL
