MODEL 1
REMARK minimizedAffinity 5.6224637
REMARK minimizedRMSD -1
REMARK  1 active torsions:
REMARK  status: ('A' for Active; 'I' for Inactive)
REMARK    1  A    between atoms: N_2  and  C1_3 
ROOT
ATOM      1  C1  UNL d   1      -2.340   0.312  -1.981  0.00  0.00     0.143 A 
ATOM      2  C2  UNL d   1      -1.594   1.449  -1.651  0.00  0.00    -0.057 A 
ATOM      3  C3  UNL d   1      -0.196   1.413  -1.605  0.00  0.00     0.033 A 
ATOM      4  C4  UNL d   1       0.484   0.226  -1.861  0.00  0.00    -0.042 A 
ATOM      5  C5  UNL d   1      -0.237  -0.923  -2.166  0.00  0.00     0.033 A 
ATOM      6  C6  UNL d   1      -1.634  -0.878  -2.217  0.00  0.00    -0.057 A 
ENDROOT
BRANCH   1   7
ATOM      7  N   UNL d   1      -3.735   0.260  -1.947  0.00  0.00    -0.732 N 
ATOM      8  C   UNL d   1      -4.433  -0.001  -0.706  0.00  0.00     0.284 C 
ATOM      9  H3  UNL d   1      -4.165   0.981  -2.522  0.00  0.00     0.395 HD
ENDBRANCH   1   7
TORSDOF 1
ENDMDL
