MODEL 1
REMARK minimizedAffinity 9.50270271
REMARK minimizedRMSD -1
REMARK  1 active torsions:
REMARK  status: ('A' for Active; 'I' for Inactive)
REMARK    1  A    between atoms: N_2  and  C1_3 
ROOT
ATOM      1  C1  UNL d   1      -1.757   0.128  -2.114  0.00  0.00     0.143 A 
ATOM      2  C2  UNL d   1      -0.906  -0.439  -3.068  0.00  0.00    -0.057 A 
ATOM      3  C3  UNL d   1       0.425  -0.023  -3.193  0.00  0.00     0.033 A 
ATOM      4  C4  UNL d   1       0.922   0.992  -2.383  0.00  0.00    -0.042 A 
ATOM      5  C5  UNL d   1       0.087   1.588  -1.444  0.00  0.00     0.033 A 
ATOM      6  C6  UNL d   1      -1.239   1.163  -1.319  0.00  0.00    -0.057 A 
ENDROOT
BRANCH   1   7
ATOM      7  N   UNL d   1      -3.117  -0.173  -2.006  0.00  0.00    -0.732 N 
ATOM      8  C   UNL d   1      -3.736  -0.336  -0.708  0.00  0.00     0.284 C 
ATOM      9  H3  UNL d   1      -3.683   0.344  -2.675  0.00  0.00     0.395 HD
ENDBRANCH   1   7
TORSDOF 1
ENDMDL
