MODEL 1
REMARK minimizedAffinity 7.45522881
REMARK minimizedRMSD -1
REMARK  1 active torsions:
REMARK  status: ('A' for Active; 'I' for Inactive)
REMARK    1  A    between atoms: N_2  and  C1_3 
ROOT
ATOM      1  C1  UNL d   1       3.105  -1.998   1.176  0.00  0.00     0.143 A 
ATOM      2  C2  UNL d   1       2.468  -3.236   1.038  0.00  0.00    -0.057 A 
ATOM      3  C3  UNL d   1       3.204  -4.420   0.904  0.00  0.00     0.033 A 
ATOM      4  C4  UNL d   1       4.595  -4.382   0.875  0.00  0.00    -0.042 A 
ATOM      5  C5  UNL d   1       5.248  -3.160   0.985  0.00  0.00     0.033 A 
ATOM      6  C6  UNL d   1       4.507  -1.982   1.126  0.00  0.00    -0.057 A 
ENDROOT
BRANCH   1   7
ATOM      7  N   UNL d   1       2.428  -0.776   1.214  0.00  0.00    -0.732 N 
ATOM      8  C   UNL d   1       1.714  -0.366   2.404  0.00  0.00     0.284 C 
ATOM      9  H3  UNL d   1       2.952  -0.028   0.765  0.00  0.00     0.395 HD
ENDBRANCH   1   7
TORSDOF 1
ENDMDL
