MODEL 1
REMARK minimizedAffinity 0.342861176
REMARK minimizedRMSD -1
REMARK  1 active torsions:
REMARK  status: ('A' for Active; 'I' for Inactive)
REMARK    1  A    between atoms: N_2  and  C1_3 
ROOT
ATOM      1  C1  UNL d   1      -0.405   1.783  -1.741  0.00  0.00     0.143 A 
ATOM      2  C2  UNL d   1      -1.726   1.690  -2.191  0.00  0.00    -0.057 A 
ATOM      3  C3  UNL d   1      -2.228   0.498  -2.728  0.00  0.00     0.033 A 
ATOM      4  C4  UNL d   1      -1.406  -0.616  -2.852  0.00  0.00    -0.042 A 
ATOM      5  C5  UNL d   1      -0.081  -0.539  -2.435  0.00  0.00     0.033 A 
ATOM      6  C6  UNL d   1       0.412   0.652  -1.893  0.00  0.00    -0.057 A 
ENDROOT
BRANCH   1   7
ATOM      7  N   UNL d   1       0.181   2.968  -1.289  0.00  0.00    -0.732 N 
ATOM      8  C   UNL d   1      -0.184   3.528  -0.006  0.00  0.00     0.284 C 
ATOM      9  H3  UNL d   1       1.177   3.012  -1.493  0.00  0.00     0.395 HD
ENDBRANCH   1   7
TORSDOF 1
ENDMDL
