MODEL 1
REMARK minimizedAffinity -5.10525084
REMARK minimizedRMSD -1
REMARK  0 active torsions:
REMARK  status: ('A' for Active; 'I' for Inactive)
ROOT
ATOM      1  N1  IND d   1       0.110   0.322  -0.956  0.00  0.00    -0.196 N 
ATOM      2  C2  IND d   1       0.560  -0.637  -0.092  0.00  0.00     0.054 A 
ATOM      3  C3  IND d   1       0.574  -0.162   1.173  0.00  0.00    -0.031 A 
ATOM      4  C4  IND d   1      -0.196   2.126   2.069  0.00  0.00     0.051 A 
ATOM      5  C5  IND d   1      -0.650   3.347   1.656  0.00  0.00    -0.031 A 
ATOM      6  C6  IND d   1      -0.881   3.627   0.325  0.00  0.00     0.015 A 
ATOM      7  C7  IND d   1      -0.677   2.688  -0.646  0.00  0.00    -0.016 A 
ATOM      8  C8  IND d   1      -0.209   1.449  -0.231  0.00  0.00    -0.047 A 
ATOM      9  C9  IND d   1       0.068   1.173   1.114  0.00  0.00    -0.096 A 
ATOM     10  HN1 IND d   1       0.038   0.236  -1.808  0.00  0.00     0.298 HD
ENDROOT
TORSDOF 0
ENDMDL
