MODEL 1
REMARK minimizedAffinity -4.34655857
REMARK minimizedRMSD -1
REMARK  0 active torsions:
REMARK  status: ('A' for Active; 'I' for Inactive)
ROOT
ATOM      1  N1  IND d   1      -0.470   0.338  -1.021  0.00  0.00    -0.196 N 
ATOM      2  C2  IND d   1       0.126  -0.867  -0.775  0.00  0.00     0.054 A 
ATOM      3  C3  IND d   1       0.490  -0.956   0.524  0.00  0.00    -0.031 A 
ATOM      4  C4  IND d   1       0.111   0.714   2.446  0.00  0.00     0.051 A 
ATOM      5  C5  IND d   1      -0.359   1.971   2.704  0.00  0.00    -0.031 A 
ATOM      6  C6  IND d   1      -0.904   2.763   1.714  0.00  0.00     0.015 A 
ATOM      7  C7  IND d   1      -1.009   2.321   0.426  0.00  0.00    -0.016 A 
ATOM      8  C8  IND d   1      -0.527   1.048   0.159  0.00  0.00    -0.047 A 
ATOM      9  C9  IND d   1       0.066   0.256   1.151  0.00  0.00    -0.096 A 
ATOM     10  HN1 IND d   1      -0.762   0.607  -1.783  0.00  0.00     0.298 HD
ENDROOT
TORSDOF 0
ENDMDL
