MODEL 1
REMARK minimizedAffinity -2.29621649
REMARK minimizedRMSD -1
REMARK  0 active torsions:
REMARK  status: ('A' for Active; 'I' for Inactive)
ROOT
ATOM      1  N1  IND d   1      -0.059   2.509  -1.377  0.00  0.00    -0.196 N 
ATOM      2  C2  IND d   1      -0.005   1.587  -2.385  0.00  0.00     0.054 A 
ATOM      3  C3  IND d   1       0.186   0.348  -1.879  0.00  0.00    -0.031 A 
ATOM      4  C4  IND d   1       0.337  -0.412   0.576  0.00  0.00     0.051 A 
ATOM      5  C5  IND d   1       0.378   0.073   1.853  0.00  0.00    -0.031 A 
ATOM      6  C6  IND d   1       0.271   1.422   2.124  0.00  0.00     0.015 A 
ATOM      7  C7  IND d   1       0.107   2.339   1.125  0.00  0.00    -0.016 A 
ATOM      8  C8  IND d   1       0.071   1.851  -0.173  0.00  0.00    -0.047 A 
ATOM      9  C9  IND d   1       0.222   0.487  -0.458  0.00  0.00    -0.096 A 
ATOM     10  HN1 IND d   1      -0.157   3.357  -1.477  0.00  0.00     0.298 HD
ENDROOT
TORSDOF 0
ENDMDL
