MODEL 1
REMARK minimizedAffinity -2.61423397
REMARK minimizedRMSD -1
REMARK  0 active torsions:
REMARK  status: ('A' for Active; 'I' for Inactive)
ROOT
ATOM      1  N1  IND d   1      -0.367   2.445  -1.421  0.00  0.00    -0.196 N 
ATOM      2  C2  IND d   1      -0.422   3.748  -1.012  0.00  0.00     0.054 A 
ATOM      3  C3  IND d   1      -0.319   3.823   0.334  0.00  0.00    -0.031 A 
ATOM      4  C4  IND d   1       0.049   1.942   2.053  0.00  0.00     0.051 A 
ATOM      5  C5  IND d   1       0.127   0.582   2.162  0.00  0.00    -0.031 A 
ATOM      6  C6  IND d   1       0.045  -0.243   1.059  0.00  0.00     0.015 A 
ATOM      7  C7  IND d   1      -0.107   0.264  -0.201  0.00  0.00    -0.016 A 
ATOM      8  C8  IND d   1      -0.193   1.644  -0.314  0.00  0.00    -0.047 A 
ATOM      9  C9  IND d   1      -0.154   2.484   0.806  0.00  0.00    -0.096 A 
ATOM     10  HN1 IND d   1      -0.431   2.171  -2.234  0.00  0.00     0.298 HD
ENDROOT
TORSDOF 0
ENDMDL
