MODEL 1
REMARK minimizedAffinity -2.78035998
REMARK minimizedRMSD -1
REMARK  0 active torsions:
REMARK  status: ('A' for Active; 'I' for Inactive)
ROOT
ATOM      1  N1  IND d   1       0.733   0.345   2.698  0.00  0.00    -0.196 N 
ATOM      2  C2  IND d   1      -0.472  -0.096   2.228  0.00  0.00     0.054 A 
ATOM      3  C3  IND d   1      -1.113   0.897   1.572  0.00  0.00    -0.031 A 
ATOM      4  C4  IND d   1      -0.325   3.294   1.061  0.00  0.00     0.051 A 
ATOM      5  C5  IND d   1       0.692   4.171   1.316  0.00  0.00    -0.031 A 
ATOM      6  C6  IND d   1       1.798   3.810   2.057  0.00  0.00     0.015 A 
ATOM      7  C7  IND d   1       1.935   2.548   2.564  0.00  0.00    -0.016 A 
ATOM      8  C8  IND d   1       0.901   1.657   2.313  0.00  0.00    -0.047 A 
ATOM      9  C9  IND d   1      -0.244   2.031   1.598  0.00  0.00    -0.096 A 
ATOM     10  HN1 IND d   1       1.293  -0.119   3.157  0.00  0.00     0.298 HD
ENDROOT
TORSDOF 0
ENDMDL
