MODEL 1
REMARK minimizedAffinity -5.59768295
REMARK minimizedRMSD -1
REMARK  0 active torsions:
REMARK  status: ('A' for Active; 'I' for Inactive)
ROOT
ATOM      1  N1  IND d   1       0.187   0.125  -0.937  0.00  0.00    -0.196 N 
ATOM      2  C2  IND d   1       0.500  -0.782   0.036  0.00  0.00     0.054 A 
ATOM      3  C3  IND d   1       0.307  -0.244   1.261  0.00  0.00    -0.031 A 
ATOM      4  C4  IND d   1      -0.614   2.073   1.903  0.00  0.00     0.051 A 
ATOM      5  C5  IND d   1      -1.005   3.265   1.360  0.00  0.00    -0.031 A 
ATOM      6  C6  IND d   1      -1.021   3.475  -0.004  0.00  0.00     0.015 A 
ATOM      7  C7  IND d   1      -0.657   2.492  -0.880  0.00  0.00    -0.016 A 
ATOM      8  C8  IND d   1      -0.253   1.282  -0.332  0.00  0.00    -0.047 A 
ATOM      9  C9  IND d   1      -0.193   1.078   1.052  0.00  0.00    -0.096 A 
ATOM     10  HN1 IND d   1       0.253  -0.005  -1.784  0.00  0.00     0.298 HD
ENDROOT
TORSDOF 0
ENDMDL
