MODEL 1
REMARK minimizedAffinity -5.59013653
REMARK minimizedRMSD -1
REMARK  0 active torsions:
REMARK  status: ('A' for Active; 'I' for Inactive)
ROOT
ATOM      1  N1  IND d   1       0.976  -0.163   1.374  0.00  0.00    -0.196 N 
ATOM      2  C2  IND d   1       0.654  -1.011   0.351  0.00  0.00     0.054 A 
ATOM      3  C3  IND d   1      -0.372  -0.508  -0.372  0.00  0.00    -0.031 A 
ATOM      4  C4  IND d   1      -1.606   1.737  -0.117  0.00  0.00     0.051 A 
ATOM      5  C5  IND d   1      -1.692   2.833   0.695  0.00  0.00    -0.031 A 
ATOM      6  C6  IND d   1      -0.874   2.991   1.795  0.00  0.00     0.015 A 
ATOM      7  C7  IND d   1       0.072   2.060   2.120  0.00  0.00    -0.016 A 
ATOM      8  C8  IND d   1       0.156   0.942   1.302  0.00  0.00    -0.047 A 
ATOM      9  C9  IND d   1      -0.700   0.756   0.208  0.00  0.00    -0.096 A 
ATOM     10  HN1 IND d   1       1.587  -0.297   1.964  0.00  0.00     0.298 HD
ENDROOT
TORSDOF 0
ENDMDL
