MODEL 1
REMARK minimizedAffinity -3.62155604
REMARK minimizedRMSD -1
REMARK  0 active torsions:
REMARK  status: ('A' for Active; 'I' for Inactive)
ROOT
ATOM      1  N1  IND d   1      -0.129   0.492  -1.566  0.00  0.00    -0.196 N 
ATOM      2  C2  IND d   1      -0.993   1.496  -1.905  0.00  0.00     0.054 A 
ATOM      3  C3  IND d   1      -1.367   2.186  -0.804  0.00  0.00    -0.031 A 
ATOM      4  C4  IND d   1      -0.605   1.906   1.639  0.00  0.00     0.051 A 
ATOM      5  C5  IND d   1       0.148   1.101   2.447  0.00  0.00    -0.031 A 
ATOM      6  C6  IND d   1       0.864   0.032   1.948  0.00  0.00     0.015 A 
ATOM      7  C7  IND d   1       0.862  -0.266   0.615  0.00  0.00    -0.016 A 
ATOM      8  C8  IND d   1       0.093   0.545  -0.208  0.00  0.00    -0.047 A 
ATOM      9  C9  IND d   1      -0.670   1.605   0.299  0.00  0.00    -0.096 A 
ATOM     10  HN1 IND d   1       0.217  -0.077  -2.110  0.00  0.00     0.298 HD
ENDROOT
TORSDOF 0
ENDMDL
