MODEL 1
REMARK minimizedAffinity -2.29465413
REMARK minimizedRMSD -1
REMARK  0 active torsions:
REMARK  status: ('A' for Active; 'I' for Inactive)
ROOT
ATOM      1  N1  IND d   1      -0.741  -0.594  -1.134  0.00  0.00    -0.196 N 
ATOM      2  C2  IND d   1      -0.094  -1.797  -1.056  0.00  0.00     0.054 A 
ATOM      3  C3  IND d   1       0.594  -1.886   0.103  0.00  0.00    -0.031 A 
ATOM      4  C4  IND d   1       0.720  -0.223   2.064  0.00  0.00     0.051 A 
ATOM      5  C5  IND d   1       0.326   1.031   2.440  0.00  0.00    -0.031 A 
ATOM      6  C6  IND d   1      -0.461   1.822   1.628  0.00  0.00     0.015 A 
ATOM      7  C7  IND d   1      -0.896   1.382   0.410  0.00  0.00    -0.016 A 
ATOM      8  C8  IND d   1      -0.492   0.112   0.022  0.00  0.00    -0.047 A 
ATOM      9  C9  IND d   1       0.342  -0.679   0.823  0.00  0.00    -0.096 A 
ATOM     10  HN1 IND d   1      -1.222  -0.325  -1.794  0.00  0.00     0.298 HD
ENDROOT
TORSDOF 0
ENDMDL
