MODEL 1
REMARK minimizedAffinity 0.0816642717
REMARK minimizedRMSD -1
REMARK  0 active torsions:
REMARK  status: ('A' for Active; 'I' for Inactive)
ROOT
ATOM      1  N1  IND d   1       0.822  -0.664   0.208  0.00  0.00    -0.196 N 
ATOM      2  C2  IND d   1       0.285  -0.799  -1.042  0.00  0.00     0.054 A 
ATOM      3  C3  IND d   1      -0.711   0.096  -1.225  0.00  0.00    -0.031 A 
ATOM      4  C4  IND d   1      -1.561   1.943   0.353  0.00  0.00     0.051 A 
ATOM      5  C5  IND d   1      -1.406   2.434   1.619  0.00  0.00    -0.031 A 
ATOM      6  C6  IND d   1      -0.480   1.908   2.497  0.00  0.00     0.015 A 
ATOM      7  C7  IND d   1       0.337   0.875   2.135  0.00  0.00    -0.016 A 
ATOM      8  C8  IND d   1       0.178   0.370   0.852  0.00  0.00    -0.047 A 
ATOM      9  C9  IND d   1      -0.790   0.871  -0.028  0.00  0.00    -0.096 A 
ATOM     10  HN1 IND d   1       1.455  -1.143   0.537  0.00  0.00     0.298 HD
ENDROOT
TORSDOF 0
ENDMDL
