MODEL 1
REMARK minimizedAffinity -3.24343133
REMARK minimizedRMSD -1
REMARK  0 active torsions:
REMARK  status: ('A' for Active; 'I' for Inactive)
ROOT
ATOM      1  N1  IND d   1       1.414  -0.517  -0.013  0.00  0.00    -0.196 N 
ATOM      2  C2  IND d   1       1.601  -0.662   1.334  0.00  0.00     0.054 A 
ATOM      3  C3  IND d   1       0.712   0.096   2.015  0.00  0.00    -0.031 A 
ATOM      4  C4  IND d   1      -1.201   1.572   1.126  0.00  0.00     0.051 A 
ATOM      5  C5  IND d   1      -1.743   2.049  -0.034  0.00  0.00    -0.031 A 
ATOM      6  C6  IND d   1      -1.253   1.685  -1.271  0.00  0.00     0.015 A 
ATOM      7  C7  IND d   1      -0.204   0.818  -1.396  0.00  0.00    -0.016 A 
ATOM      8  C8  IND d   1       0.354   0.338  -0.220  0.00  0.00    -0.047 A 
ATOM      9  C9  IND d   1      -0.112   0.736   1.040  0.00  0.00    -0.096 A 
ATOM     10  HN1 IND d   1       1.881  -0.896  -0.628  0.00  0.00     0.298 HD
ENDROOT
TORSDOF 0
ENDMDL
