MODEL 1
REMARK minimizedAffinity -5.11890411
REMARK minimizedRMSD -1
REMARK  0 active torsions:
REMARK  status: ('A' for Active; 'I' for Inactive)
ROOT
ATOM      1  N1  IND d   1       1.509   0.116  -0.156  0.00  0.00    -0.196 N 
ATOM      2  C2  IND d   1       1.286   0.124  -1.505  0.00  0.00     0.054 A 
ATOM      3  C3  IND d   1       0.223   0.905  -1.801  0.00  0.00    -0.031 A 
ATOM      4  C4  IND d   1      -1.234   2.345  -0.242  0.00  0.00     0.051 A 
ATOM      5  C5  IND d   1      -1.439   2.634   1.077  0.00  0.00    -0.031 A 
ATOM      6  C6  IND d   1      -0.654   2.090   2.074  0.00  0.00     0.015 A 
ATOM      7  C7  IND d   1       0.377   1.241   1.785  0.00  0.00    -0.016 A 
ATOM      8  C8  IND d   1       0.583   0.939   0.446  0.00  0.00    -0.047 A 
ATOM      9  C9  IND d   1      -0.237   1.455  -0.566  0.00  0.00    -0.096 A 
ATOM     10  HN1 IND d   1       2.123  -0.329   0.248  0.00  0.00     0.298 HD
ENDROOT
TORSDOF 0
ENDMDL
