MODEL 1
REMARK minimizedAffinity 3.97967052
REMARK minimizedRMSD -1
REMARK  1 active torsions:
REMARK  status: ('A' for Active; 'I' for Inactive)
REMARK    1  A    between atoms: N_2  and  C1_3 
ROOT
ATOM      1  C1  UNL d   1       2.972   3.786  -4.897  0.00  0.00     0.143 A 
ATOM      2  C2  UNL d   1       3.099   4.181  -3.560  0.00  0.00    -0.057 A 
ATOM      3  C3  UNL d   1       3.750   3.371  -2.622  0.00  0.00     0.033 A 
ATOM      4  C4  UNL d   1       4.262   2.133  -2.999  0.00  0.00    -0.042 A 
ATOM      5  C5  UNL d   1       4.125   1.709  -4.316  0.00  0.00     0.033 A 
ATOM      6  C6  UNL d   1       3.480   2.526  -5.250  0.00  0.00    -0.057 A 
ENDROOT
BRANCH   1   7
ATOM      7  N   UNL d   1       2.250   4.502  -5.854  0.00  0.00    -0.732 N 
ATOM      8  C   UNL d   1       2.433   5.930  -6.000  0.00  0.00     0.284 C 
ATOM      9  H3  UNL d   1       2.171   4.001  -6.736  0.00  0.00     0.395 HD
ENDBRANCH   1   7
TORSDOF 1
ENDMDL
