MODEL 1
REMARK minimizedAffinity 11.7699986
REMARK minimizedRMSD -1
REMARK  1 active torsions:
REMARK  status: ('A' for Active; 'I' for Inactive)
REMARK    1  A    between atoms: N_2  and  C1_3 
ROOT
ATOM      1  C1  UNL d   1      -4.061  -5.015  -1.430  0.00  0.00     0.143 A 
ATOM      2  C2  UNL d   1      -5.362  -4.864  -1.921  0.00  0.00    -0.057 A 
ATOM      3  C3  UNL d   1      -5.701  -3.798  -2.762  0.00  0.00     0.033 A 
ATOM      4  C4  UNL d   1      -4.749  -2.843  -3.103  0.00  0.00    -0.042 A 
ATOM      5  C5  UNL d   1      -3.455  -2.959  -2.607  0.00  0.00     0.033 A 
ATOM      6  C6  UNL d   1      -3.121  -4.031  -1.773  0.00  0.00    -0.057 A 
ENDROOT
BRANCH   1   7
ATOM      7  N   UNL d   1      -3.685  -5.999  -0.511  0.00  0.00    -0.732 N 
ATOM      8  C   UNL d   1      -4.041  -5.877   0.886  0.00  0.00     0.284 C 
ATOM      9  H3  UNL d   1      -3.788  -6.939  -0.886  0.00  0.00     0.395 HD
ENDBRANCH   1   7
TORSDOF 1
ENDMDL
