MODEL 1
REMARK minimizedAffinity 8.8252182
REMARK minimizedRMSD -1
REMARK  1 active torsions:
REMARK  status: ('A' for Active; 'I' for Inactive)
REMARK    1  A    between atoms: N_2  and  C1_3 
ROOT
ATOM      1  C1  UNL d   1      -2.576  -2.865  -2.557  0.00  0.00     0.143 A 
ATOM      2  C2  UNL d   1      -2.531  -2.426  -1.230  0.00  0.00    -0.057 A 
ATOM      3  C3  UNL d   1      -1.337  -2.442  -0.499  0.00  0.00     0.033 A 
ATOM      4  C4  UNL d   1      -0.168  -2.928  -1.077  0.00  0.00    -0.042 A 
ATOM      5  C5  UNL d   1      -0.194  -3.393  -2.387  0.00  0.00     0.033 A 
ATOM      6  C6  UNL d   1      -1.389  -3.367  -3.113  0.00  0.00    -0.057 A 
ENDROOT
BRANCH   1   7
ATOM      7  N   UNL d   1      -3.752  -2.966  -3.304  0.00  0.00    -0.732 N 
ATOM      8  C   UNL d   1      -4.890  -3.698  -2.791  0.00  0.00     0.284 C 
ATOM      9  H3  UNL d   1      -3.994  -2.092  -3.767  0.00  0.00     0.395 HD
ENDBRANCH   1   7
TORSDOF 1
ENDMDL
