MODEL 1
REMARK minimizedAffinity 10.8963852
REMARK minimizedRMSD -1
REMARK  1 active torsions:
REMARK  status: ('A' for Active; 'I' for Inactive)
REMARK    1  A    between atoms: N_2  and  C1_3 
ROOT
ATOM      1  C1  UNL d   1      -3.628  -3.789  -2.997  0.00  0.00     0.143 A 
ATOM      2  C2  UNL d   1      -2.799  -3.767  -4.124  0.00  0.00    -0.057 A 
ATOM      3  C3  UNL d   1      -1.593  -3.055  -4.124  0.00  0.00     0.033 A 
ATOM      4  C4  UNL d   1      -1.209  -2.325  -3.004  0.00  0.00    -0.042 A 
ATOM      5  C5  UNL d   1      -2.030  -2.312  -1.882  0.00  0.00     0.033 A 
ATOM      6  C6  UNL d   1      -3.229  -3.031  -1.885  0.00  0.00    -0.057 A 
ENDROOT
BRANCH   1   7
ATOM      7  N   UNL d   1      -4.885  -4.398  -2.969  0.00  0.00    -0.732 N 
ATOM      8  C   UNL d   1      -5.999  -3.822  -3.690  0.00  0.00     0.284 C 
ATOM      9  H3  UNL d   1      -4.828  -5.411  -3.033  0.00  0.00     0.395 HD
ENDBRANCH   1   7
TORSDOF 1
ENDMDL
