MODEL 1
REMARK minimizedAffinity 9.32426643
REMARK minimizedRMSD -1
REMARK  1 active torsions:
REMARK  status: ('A' for Active; 'I' for Inactive)
REMARK    1  A    between atoms: N_2  and  C1_3 
ROOT
ATOM      1  C1  UNL d   1      -3.201  -5.328   1.318  0.00  0.00     0.143 A 
ATOM      2  C2  UNL d   1      -2.948  -3.982   1.034  0.00  0.00    -0.057 A 
ATOM      3  C3  UNL d   1      -1.798  -3.343   1.514  0.00  0.00     0.033 A 
ATOM      4  C4  UNL d   1      -0.894  -4.033   2.314  0.00  0.00    -0.042 A 
ATOM      5  C5  UNL d   1      -1.138  -5.365   2.630  0.00  0.00     0.033 A 
ATOM      6  C6  UNL d   1      -2.284  -6.000   2.142  0.00  0.00    -0.057 A 
ENDROOT
BRANCH   1   7
ATOM      7  N   UNL d   1      -4.374  -5.993   0.952  0.00  0.00    -0.732 N 
ATOM      8  C   UNL d   1      -5.524  -5.996   1.831  0.00  0.00     0.284 C 
ATOM      9  H3  UNL d   1      -4.603  -5.865  -0.031  0.00  0.00     0.395 HD
ENDBRANCH   1   7
TORSDOF 1
ENDMDL
