MODEL 1
REMARK minimizedAffinity 13.6122246
REMARK minimizedRMSD -1
REMARK  1 active torsions:
REMARK  status: ('A' for Active; 'I' for Inactive)
REMARK    1  A    between atoms: N_2  and  C1_3 
ROOT
ATOM      1  C1  UNL d   1      -4.822  -5.434  -2.351  0.00  0.00     0.143 A 
ATOM      2  C2  UNL d   1      -5.991  -4.953  -2.951  0.00  0.00    -0.057 A 
ATOM      3  C3  UNL d   1      -5.972  -4.402  -4.238  0.00  0.00     0.033 A 
ATOM      4  C4  UNL d   1      -4.775  -4.296  -4.939  0.00  0.00    -0.042 A 
ATOM      5  C5  UNL d   1      -3.597  -4.744  -4.352  0.00  0.00     0.033 A 
ATOM      6  C6  UNL d   1      -3.623  -5.299  -3.069  0.00  0.00    -0.057 A 
ENDROOT
BRANCH   1   7
ATOM      7  N   UNL d   1      -4.759  -5.902  -1.036  0.00  0.00    -0.732 N 
ATOM      8  C   UNL d   1      -3.499  -5.936  -0.326  0.00  0.00     0.284 C 
ATOM      9  H3  UNL d   1      -5.545  -5.586  -0.473  0.00  0.00     0.395 HD
ENDBRANCH   1   7
TORSDOF 1
ENDMDL
