MODEL 1
REMARK minimizedAffinity 6.92452002
REMARK minimizedRMSD -1
REMARK  1 active torsions:
REMARK  status: ('A' for Active; 'I' for Inactive)
REMARK    1  A    between atoms: N_2  and  C1_3 
ROOT
ATOM      1  C1  UNL d   1      -3.710  -3.900  -1.528  0.00  0.00     0.143 A 
ATOM      2  C2  UNL d   1      -3.734  -5.064  -0.751  0.00  0.00    -0.057 A 
ATOM      3  C3  UNL d   1      -4.855  -5.902  -0.733  0.00  0.00     0.033 A 
ATOM      4  C4  UNL d   1      -5.988  -5.574  -1.471  0.00  0.00    -0.042 A 
ATOM      5  C5  UNL d   1      -5.996  -4.410  -2.230  0.00  0.00     0.033 A 
ATOM      6  C6  UNL d   1      -4.871  -3.580  -2.249  0.00  0.00    -0.057 A 
ENDROOT
BRANCH   1   7
ATOM      7  N   UNL d   1      -2.663  -2.975  -1.511  0.00  0.00    -0.732 N 
ATOM      8  C   UNL d   1      -1.729  -2.900  -2.614  0.00  0.00     0.284 C 
ATOM      9  H3  UNL d   1      -2.951  -2.069  -1.148  0.00  0.00     0.395 HD
ENDBRANCH   1   7
TORSDOF 1
ENDMDL
