MODEL 1
REMARK minimizedAffinity 19.1348534
REMARK minimizedRMSD -1
REMARK  0 active torsions:
REMARK  status: ('A' for Active; 'I' for Inactive)
ROOT
ATOM      1  C2' OXE d   1      -1.586  -5.560  -5.824  0.00  0.00     0.078 C 
ATOM      2  C1' OXE d   1      -1.788  -5.823  -3.037  0.00  0.00     0.078 C 
ATOM      3  C1  OXE d   1      -3.066  -5.820  -3.838  0.00  0.00    -0.078 A 
ATOM      4  C2  OXE d   1      -2.960  -5.645  -5.197  0.00  0.00    -0.078 A 
ATOM      5  C3  OXE d   1      -4.104  -5.689  -5.989  0.00  0.00     0.003 A 
ATOM      6  C4  OXE d   1      -5.372  -5.757  -5.399  0.00  0.00    -0.002 A 
ATOM      7  C5  OXE d   1      -5.505  -5.897  -4.013  0.00  0.00    -0.002 A 
ATOM      8  C6  OXE d   1      -4.362  -5.973  -3.224  0.00  0.00     0.003 A 
ENDROOT
TORSDOF 0
ENDMDL
