MODEL 1
REMARK minimizedAffinity 11.648078
REMARK minimizedRMSD -1
REMARK  0 active torsions:
REMARK  status: ('A' for Active; 'I' for Inactive)
ROOT
ATOM      1  C2' OXE d   1      -1.278   5.117  -1.720  0.00  0.00     0.078 C 
ATOM      2  C1' OXE d   1      -3.829   4.599  -2.770  0.00  0.00     0.078 C 
ATOM      3  C1  OXE d   1      -3.740   5.074  -1.342  0.00  0.00    -0.078 A 
ATOM      4  C2  OXE d   1      -2.485   5.280  -0.821  0.00  0.00    -0.078 A 
ATOM      5  C3  OXE d   1      -2.348   5.772   0.474  0.00  0.00     0.003 A 
ATOM      6  C4  OXE d   1      -3.468   5.911   1.301  0.00  0.00    -0.002 A 
ATOM      7  C5  OXE d   1      -4.753   5.668   0.803  0.00  0.00    -0.002 A 
ATOM      8  C6  OXE d   1      -4.909   5.291  -0.526  0.00  0.00     0.003 A 
ENDROOT
TORSDOF 0
ENDMDL
