MODEL 1
REMARK minimizedAffinity 8.60598755
REMARK minimizedRMSD -1
REMARK  0 active torsions:
REMARK  status: ('A' for Active; 'I' for Inactive)
ROOT
ATOM      1  C2' OXE d   1       2.992  -2.054  -0.774  0.00  0.00     0.078 C 
ATOM      2  C1' OXE d   1       1.317  -4.302  -0.912  0.00  0.00     0.078 C 
ATOM      3  C1  OXE d   1       2.807  -4.535  -0.902  0.00  0.00    -0.078 A 
ATOM      4  C2  OXE d   1       3.620  -3.427  -0.881  0.00  0.00    -0.078 A 
ATOM      5  C3  OXE d   1       5.001  -3.587  -0.815  0.00  0.00     0.003 A 
ATOM      6  C4  OXE d   1       5.573  -4.860  -0.925  0.00  0.00    -0.002 A 
ATOM      7  C5  OXE d   1       4.764  -5.999  -0.987  0.00  0.00    -0.002 A 
ATOM      8  C6  OXE d   1       3.382  -5.857  -0.934  0.00  0.00     0.003 A 
ENDROOT
TORSDOF 0
ENDMDL
