MODEL 1
REMARK minimizedAffinity 12.4071512
REMARK minimizedRMSD -1
REMARK  0 active torsions:
REMARK  status: ('A' for Active; 'I' for Inactive)
ROOT
ATOM      1  C2' OXE d   1       1.484   3.402  -1.474  0.00  0.00     0.078 C 
ATOM      2  C1' OXE d   1      -0.664   2.380   0.016  0.00  0.00     0.078 C 
ATOM      3  C1  OXE d   1       0.693   2.415   0.672  0.00  0.00    -0.078 A 
ATOM      4  C2  OXE d   1       1.748   2.873  -0.081  0.00  0.00    -0.078 A 
ATOM      5  C3  OXE d   1       3.011   2.977   0.494  0.00  0.00     0.003 A 
ATOM      6  C4  OXE d   1       3.248   2.476   1.780  0.00  0.00    -0.002 A 
ATOM      7  C5  OXE d   1       2.196   1.969   2.549  0.00  0.00    -0.002 A 
ATOM      8  C6  OXE d   1       0.908   1.970   2.027  0.00  0.00     0.003 A 
ENDROOT
TORSDOF 0
ENDMDL
