MODEL 1
REMARK minimizedAffinity 11.7000713
REMARK minimizedRMSD -1
REMARK  0 active torsions:
REMARK  status: ('A' for Active; 'I' for Inactive)
ROOT
ATOM      1  C2' OXE d   1       5.918  -5.437  -3.780  0.00  0.00     0.078 C 
ATOM      2  C1' OXE d   1       5.890  -2.661  -3.360  0.00  0.00     0.078 C 
ATOM      3  C1  OXE d   1       5.935  -3.556  -2.147  0.00  0.00    -0.078 A 
ATOM      4  C2  OXE d   1       5.901  -4.913  -2.360  0.00  0.00    -0.078 A 
ATOM      5  C3  OXE d   1       5.995  -5.783  -1.278  0.00  0.00     0.003 A 
ATOM      6  C4  OXE d   1       5.969  -5.290   0.032  0.00  0.00    -0.002 A 
ATOM      7  C5  OXE d   1       5.964  -3.912   0.273  0.00  0.00    -0.002 A 
ATOM      8  C6  OXE d   1       5.989  -3.033  -0.804  0.00  0.00     0.003 A 
ENDROOT
TORSDOF 0
ENDMDL
