MODEL 1
REMARK minimizedAffinity 3.0179143
REMARK minimizedRMSD -1
REMARK  0 active torsions:
REMARK  status: ('A' for Active; 'I' for Inactive)
ROOT
ATOM      1  C   UNL d   1      -1.280  -0.764   0.550  0.00  0.00     0.078 C 
ATOM      2  C1  UNL d   1      -0.685  -1.798  -0.359  0.00  0.00    -0.077 A 
ATOM      3  C2  UNL d   1      -1.171  -3.111  -0.373  0.00  0.00    -0.001 A 
ATOM      4  C3  UNL d   1      -0.602  -4.066  -1.217  0.00  0.00     0.003 A 
ATOM      5  C4  UNL d   1       0.458  -3.718  -2.052  0.00  0.00    -0.005 A 
ATOM      6  C5  UNL d   1       0.950  -2.415  -2.043  0.00  0.00     0.003 A 
ATOM      7  C6  UNL d   1       0.382  -1.459  -1.200  0.00  0.00    -0.001 A 
ENDROOT
TORSDOF 0
ENDMDL
