MODEL 1
REMARK minimizedAffinity 0.702884018
REMARK minimizedRMSD -1
REMARK  0 active torsions:
REMARK  status: ('A' for Active; 'I' for Inactive)
ROOT
ATOM      1  C   UNL d   1       2.377   5.848  -1.912  0.00  0.00     0.078 C 
ATOM      2  C1  UNL d   1       3.592   5.893  -2.790  0.00  0.00    -0.077 A 
ATOM      3  C2  UNL d   1       4.878   5.937  -2.239  0.00  0.00    -0.001 A 
ATOM      4  C3  UNL d   1       6.000   5.988  -3.068  0.00  0.00     0.003 A 
ATOM      5  C4  UNL d   1       5.847   5.998  -4.453  0.00  0.00    -0.005 A 
ATOM      6  C5  UNL d   1       4.570   5.958  -5.010  0.00  0.00     0.003 A 
ATOM      7  C6  UNL d   1       3.447   5.906  -4.183  0.00  0.00    -0.001 A 
ENDROOT
TORSDOF 0
ENDMDL
