MODEL 1
REMARK minimizedAffinity 1.63766205
REMARK minimizedRMSD -1
REMARK  0 active torsions:
REMARK  status: ('A' for Active; 'I' for Inactive)
ROOT
ATOM      1  C   UNL d   1       5.539  -3.203   3.515  0.00  0.00     0.078 C 
ATOM      2  C1  UNL d   1       4.073  -2.903   3.611  0.00  0.00    -0.077 A 
ATOM      3  C2  UNL d   1       3.436  -2.103   2.653  0.00  0.00    -0.001 A 
ATOM      4  C3  UNL d   1       2.073  -1.824   2.761  0.00  0.00     0.003 A 
ATOM      5  C4  UNL d   1       1.334  -2.339   3.824  0.00  0.00    -0.005 A 
ATOM      6  C5  UNL d   1       1.960  -3.134   4.783  0.00  0.00     0.003 A 
ATOM      7  C6  UNL d   1       3.323  -3.414   4.677  0.00  0.00    -0.001 A 
ENDROOT
TORSDOF 0
ENDMDL
