MODEL 1
REMARK minimizedAffinity -0.0344045572
REMARK minimizedRMSD -1
REMARK  0 active torsions:
REMARK  status: ('A' for Active; 'I' for Inactive)
ROOT
ATOM      1  C   UNL d   1       3.386  -0.767  -1.430  0.00  0.00     0.078 C 
ATOM      2  C1  UNL d   1       3.015  -0.518   0.002  0.00  0.00    -0.077 A 
ATOM      3  C2  UNL d   1       3.733   0.394   0.785  0.00  0.00    -0.001 A 
ATOM      4  C3  UNL d   1       3.383   0.609   2.119  0.00  0.00     0.003 A 
ATOM      5  C4  UNL d   1       2.314  -0.085   2.682  0.00  0.00    -0.005 A 
ATOM      6  C5  UNL d   1       1.594  -0.996   1.911  0.00  0.00     0.003 A 
ATOM      7  C6  UNL d   1       1.943  -1.212   0.577  0.00  0.00    -0.001 A 
ENDROOT
TORSDOF 0
ENDMDL
