MODEL 1
REMARK minimizedAffinity -5.50758696
REMARK minimizedRMSD -1
REMARK  1 active torsions:
REMARK  status: ('A' for Active; 'I' for Inactive)
REMARK    1  A    between atoms: N_2  and  C1_3 
ROOT
ATOM      1  C1  UNL d   1      -0.048   0.114  -0.193  0.00  0.00     0.143 A 
ATOM      2  C2  UNL d   1      -0.435  -0.169   1.121  0.00  0.00    -0.057 A 
ATOM      3  C3  UNL d   1      -1.192   0.741   1.868  0.00  0.00     0.033 A 
ATOM      4  C4  UNL d   1      -1.552   1.968   1.321  0.00  0.00    -0.042 A 
ATOM      5  C5  UNL d   1      -1.158   2.282   0.026  0.00  0.00     0.033 A 
ATOM      6  C6  UNL d   1      -0.408   1.366  -0.717  0.00  0.00    -0.057 A 
ENDROOT
BRANCH   1   7
ATOM      7  N   UNL d   1       0.788  -0.707  -0.953  0.00  0.00    -0.732 N 
ATOM      8  C   UNL d   1       0.283  -1.928  -1.544  0.00  0.00     0.284 C 
ATOM      9  H3  UNL d   1       1.407  -0.176  -1.561  0.00  0.00     0.395 HD
ENDBRANCH   1   7
TORSDOF 1
ENDMDL
