MODEL 1
REMARK minimizedAffinity -2.60447454
REMARK minimizedRMSD -1
REMARK  1 active torsions:
REMARK  status: ('A' for Active; 'I' for Inactive)
REMARK    1  A    between atoms: N_2  and  C1_3 
ROOT
ATOM      1  C1  UNL d   1       0.434  -0.472  -1.332  0.00  0.00     0.143 A 
ATOM      2  C2  UNL d   1       1.197  -1.361  -0.568  0.00  0.00    -0.057 A 
ATOM      3  C3  UNL d   1       1.405  -2.682  -0.984  0.00  0.00     0.033 A 
ATOM      4  C4  UNL d   1       0.827  -3.146  -2.161  0.00  0.00    -0.042 A 
ATOM      5  C5  UNL d   1       0.044  -2.287  -2.924  0.00  0.00     0.033 A 
ATOM      6  C6  UNL d   1      -0.155  -0.967  -2.506  0.00  0.00    -0.057 A 
ENDROOT
BRANCH   1   7
ATOM      7  N   UNL d   1       0.110   0.824  -0.924  0.00  0.00    -0.732 N 
ATOM      8  C   UNL d   1      -0.661   1.046   0.281  0.00  0.00     0.284 C 
ATOM      9  H3  UNL d   1       0.881   1.476  -1.050  0.00  0.00     0.395 HD
ENDBRANCH   1   7
TORSDOF 1
ENDMDL
