MODEL 1
REMARK minimizedAffinity -4.45688343
REMARK minimizedRMSD -1
REMARK  1 active torsions:
REMARK  status: ('A' for Active; 'I' for Inactive)
REMARK    1  A    between atoms: N_2  and  C1_3 
ROOT
ATOM      1  C1  UNL d   1      -0.181  -0.170  -0.005  0.00  0.00     0.143 A 
ATOM      2  C2  UNL d   1      -0.670  -0.318   1.297  0.00  0.00    -0.057 A 
ATOM      3  C3  UNL d   1      -1.447   0.679   1.900  0.00  0.00     0.033 A 
ATOM      4  C4  UNL d   1      -1.725   1.859   1.218  0.00  0.00    -0.042 A 
ATOM      5  C5  UNL d   1      -1.229   2.039  -0.068  0.00  0.00     0.033 A 
ATOM      6  C6  UNL d   1      -0.459   1.037  -0.667  0.00  0.00    -0.057 A 
ENDROOT
BRANCH   1   7
ATOM      7  N   UNL d   1       0.678  -1.082  -0.622  0.00  0.00    -0.732 N 
ATOM      8  C   UNL d   1       0.221  -1.892  -1.730  0.00  0.00     0.284 C 
ATOM      9  H3  UNL d   1       1.619  -0.711  -0.739  0.00  0.00     0.395 HD
ENDBRANCH   1   7
TORSDOF 1
ENDMDL
