MODEL 1
REMARK minimizedAffinity -1.49600208
REMARK minimizedRMSD -1
REMARK  1 active torsions:
REMARK  status: ('A' for Active; 'I' for Inactive)
REMARK    1  A    between atoms: N_2  and  C1_3 
ROOT
ATOM      1  C1  UNL d   1       0.588  -0.721  -0.940  0.00  0.00     0.143 A 
ATOM      2  C2  UNL d   1      -0.088   0.499  -1.053  0.00  0.00    -0.057 A 
ATOM      3  C3  UNL d   1      -0.685   1.103   0.060  0.00  0.00     0.033 A 
ATOM      4  C4  UNL d   1      -0.643   0.481   1.303  0.00  0.00    -0.042 A 
ATOM      5  C5  UNL d   1       0.002  -0.744   1.434  0.00  0.00     0.033 A 
ATOM      6  C6  UNL d   1       0.602  -1.339   0.320  0.00  0.00    -0.057 A 
ENDROOT
BRANCH   1   7
ATOM      7  N   UNL d   1       1.117  -1.420  -2.028  0.00  0.00    -0.732 N 
ATOM      8  C   UNL d   1       0.525  -2.668  -2.461  0.00  0.00     0.284 C 
ATOM      9  H3  UNL d   1       1.391  -0.804  -2.790  0.00  0.00     0.395 HD
ENDBRANCH   1   7
TORSDOF 1
ENDMDL
