MODEL 1
REMARK minimizedAffinity -5.45904589
REMARK minimizedRMSD -1
REMARK  1 active torsions:
REMARK  status: ('A' for Active; 'I' for Inactive)
REMARK    1  A    between atoms: N_2  and  C1_3 
ROOT
ATOM      1  C1  UNL d   1      -0.195   0.148   0.084  0.00  0.00     0.143 A 
ATOM      2  C2  UNL d   1      -0.834   1.182  -0.608  0.00  0.00    -0.057 A 
ATOM      3  C3  UNL d   1      -1.829   1.957   0.001  0.00  0.00     0.033 A 
ATOM      4  C4  UNL d   1      -2.223   1.691   1.308  0.00  0.00    -0.042 A 
ATOM      5  C5  UNL d   1      -1.620   0.652   2.007  0.00  0.00     0.033 A 
ATOM      6  C6  UNL d   1      -0.622  -0.114   1.396  0.00  0.00    -0.057 A 
ENDROOT
BRANCH   1   7
ATOM      7  N   UNL d   1       0.731  -0.722  -0.497  0.00  0.00    -0.732 N 
ATOM      8  C   UNL d   1       0.305  -1.720  -1.454  0.00  0.00     0.284 C 
ATOM      9  H3  UNL d   1       1.601  -0.255  -0.744  0.00  0.00     0.395 HD
ENDBRANCH   1   7
TORSDOF 1
ENDMDL
