MODEL 1
REMARK minimizedAffinity -5.07987261
REMARK minimizedRMSD -1
REMARK  1 active torsions:
REMARK  status: ('A' for Active; 'I' for Inactive)
REMARK    1  A    between atoms: N_2  and  C1_3 
ROOT
ATOM      1  C1  UNL d   1       0.035   0.128  -0.001  0.00  0.00     0.143 A 
ATOM      2  C2  UNL d   1      -0.372  -0.395   1.231  0.00  0.00    -0.057 A 
ATOM      3  C3  UNL d   1      -1.272   0.296   2.051  0.00  0.00     0.033 A 
ATOM      4  C4  UNL d   1      -1.760   1.541   1.665  0.00  0.00    -0.042 A 
ATOM      5  C5  UNL d   1      -1.349   2.091   0.456  0.00  0.00     0.033 A 
ATOM      6  C6  UNL d   1      -0.456   1.392  -0.362  0.00  0.00    -0.057 A 
ENDROOT
BRANCH   1   7
ATOM      7  N   UNL d   1       1.002  -0.465  -0.816  0.00  0.00    -0.732 N 
ATOM      8  C   UNL d   1       0.752  -1.744  -1.447  0.00  0.00     0.284 C 
ATOM      9  H3  UNL d   1       1.471   0.209  -1.416  0.00  0.00     0.395 HD
ENDBRANCH   1   7
TORSDOF 1
ENDMDL
