MODEL 1
REMARK minimizedAffinity -1.69391942
REMARK minimizedRMSD -1
REMARK  1 active torsions:
REMARK  status: ('A' for Active; 'I' for Inactive)
REMARK    1  A    between atoms: N_2  and  C1_3 
ROOT
ATOM      1  C1  UNL d   1      -0.237   0.292   0.157  0.00  0.00     0.143 A 
ATOM      2  C2  UNL d   1      -1.388   0.944  -0.296  0.00  0.00    -0.057 A 
ATOM      3  C3  UNL d   1      -2.049   1.887   0.501  0.00  0.00     0.033 A 
ATOM      4  C4  UNL d   1      -1.584   2.174   1.780  0.00  0.00    -0.042 A 
ATOM      5  C5  UNL d   1      -0.455   1.520   2.260  0.00  0.00     0.033 A 
ATOM      6  C6  UNL d   1       0.204   0.583   1.457  0.00  0.00    -0.057 A 
ENDROOT
BRANCH   1   7
ATOM      7  N   UNL d   1       0.408  -0.728  -0.548  0.00  0.00    -0.732 N 
ATOM      8  C   UNL d   1      -0.347  -1.829  -1.107  0.00  0.00     0.284 C 
ATOM      9  H3  UNL d   1       1.141  -0.374  -1.159  0.00  0.00     0.395 HD
ENDBRANCH   1   7
TORSDOF 1
ENDMDL
