MODEL 1
REMARK minimizedAffinity -2.06062174
REMARK minimizedRMSD -1
REMARK  1 active torsions:
REMARK  status: ('A' for Active; 'I' for Inactive)
REMARK    1  A    between atoms: N_2  and  C1_3 
ROOT
ATOM      1  C1  UNL d   1      -0.333   0.931   0.044  0.00  0.00     0.143 A 
ATOM      2  C2  UNL d   1      -0.981   0.482   1.200  0.00  0.00    -0.057 A 
ATOM      3  C3  UNL d   1      -1.636   1.374   2.058  0.00  0.00     0.033 A 
ATOM      4  C4  UNL d   1      -1.629   2.739   1.789  0.00  0.00    -0.042 A 
ATOM      5  C5  UNL d   1      -0.970   3.210   0.660  0.00  0.00     0.033 A 
ATOM      6  C6  UNL d   1      -0.324   2.314  -0.197  0.00  0.00    -0.057 A 
ENDROOT
BRANCH   1   7
ATOM      7  N   UNL d   1       0.419   0.107  -0.796  0.00  0.00    -0.732 N 
ATOM      8  C   UNL d   1       1.100  -1.057  -0.271  0.00  0.00     0.284 C 
ATOM      9  H3  UNL d   1      -0.032  -0.047  -1.695  0.00  0.00     0.395 HD
ENDBRANCH   1   7
TORSDOF 1
ENDMDL
