MODEL 1
REMARK minimizedAffinity -3.42226553
REMARK minimizedRMSD -1
REMARK  1 active torsions:
REMARK  status: ('A' for Active; 'I' for Inactive)
REMARK    1  A    between atoms: N_2  and  C1_3 
ROOT
ATOM      1  C1  UNL d   1      -1.024   2.039   0.720  0.00  0.00     0.143 A 
ATOM      2  C2  UNL d   1      -0.120   0.987   0.535  0.00  0.00    -0.057 A 
ATOM      3  C3  UNL d   1      -0.311  -0.252   1.160  0.00  0.00     0.033 A 
ATOM      4  C4  UNL d   1      -1.397  -0.451   2.006  0.00  0.00    -0.042 A 
ATOM      5  C5  UNL d   1      -2.294   0.589   2.224  0.00  0.00     0.033 A 
ATOM      6  C6  UNL d   1      -2.102   1.821   1.592  0.00  0.00    -0.057 A 
ENDROOT
BRANCH   1   7
ATOM      7  N   UNL d   1      -0.836   3.324   0.205  0.00  0.00    -0.732 N 
ATOM      8  C   UNL d   1      -0.058   3.531  -0.997  0.00  0.00     0.284 C 
ATOM      9  H3  UNL d   1      -1.680   3.890   0.256  0.00  0.00     0.395 HD
ENDBRANCH   1   7
TORSDOF 1
ENDMDL
