MODEL 1
REMARK minimizedAffinity -3.33006191
REMARK minimizedRMSD -1
REMARK  1 active torsions:
REMARK  status: ('A' for Active; 'I' for Inactive)
REMARK    1  A    between atoms: N_2  and  C1_3 
ROOT
ATOM      1  C1  UNL d   1      -0.066   0.415   1.248  0.00  0.00     0.143 A 
ATOM      2  C2  UNL d   1      -0.506   1.383   2.157  0.00  0.00    -0.057 A 
ATOM      3  C3  UNL d   1      -1.496   2.310   1.809  0.00  0.00     0.033 A 
ATOM      4  C4  UNL d   1      -2.045   2.303   0.531  0.00  0.00    -0.042 A 
ATOM      5  C5  UNL d   1      -1.606   1.366  -0.397  0.00  0.00     0.033 A 
ATOM      6  C6  UNL d   1      -0.621   0.439  -0.041  0.00  0.00    -0.057 A 
ENDROOT
BRANCH   1   7
ATOM      7  N   UNL d   1       0.984  -0.470   1.501  0.00  0.00    -0.732 N 
ATOM      8  C   UNL d   1       0.783  -1.633   2.339  0.00  0.00     0.284 C 
ATOM      9  H3  UNL d   1       1.552  -0.646   0.675  0.00  0.00     0.395 HD
ENDBRANCH   1   7
TORSDOF 1
ENDMDL
