MODEL 1
REMARK minimizedAffinity -4.93002129
REMARK minimizedRMSD -1
REMARK  1 active torsions:
REMARK  status: ('A' for Active; 'I' for Inactive)
REMARK    1  A    between atoms: N_2  and  C1_3 
ROOT
ATOM      1  C1  UNL d   1       0.224  -0.189  -0.103  0.00  0.00     0.143 A 
ATOM      2  C2  UNL d   1       0.144  -0.580   1.237  0.00  0.00    -0.057 A 
ATOM      3  C3  UNL d   1      -0.744   0.042   2.124  0.00  0.00     0.033 A 
ATOM      4  C4  UNL d   1      -1.550   1.089   1.690  0.00  0.00    -0.042 A 
ATOM      5  C5  UNL d   1      -1.469   1.511   0.367  0.00  0.00     0.033 A 
ATOM      6  C6  UNL d   1      -0.585   0.882  -0.514  0.00  0.00    -0.057 A 
ENDROOT
BRANCH   1   7
ATOM      7  N   UNL d   1       1.157  -0.701  -1.009  0.00  0.00    -0.732 N 
ATOM      8  C   UNL d   1       1.132  -2.099  -1.381  0.00  0.00     0.284 C 
ATOM      9  H3  UNL d   1       1.333  -0.067  -1.785  0.00  0.00     0.395 HD
ENDBRANCH   1   7
TORSDOF 1
ENDMDL
