MODEL 1
REMARK minimizedAffinity -3.2984755
REMARK minimizedRMSD -1
REMARK  1 active torsions:
REMARK  status: ('A' for Active; 'I' for Inactive)
REMARK    1  A    between atoms: N_2  and  C1_3 
ROOT
ATOM      1  C1  UNL d   1       0.529  -0.627  -0.442  0.00  0.00     0.143 A 
ATOM      2  C2  UNL d   1      -0.043   0.494  -1.053  0.00  0.00    -0.057 A 
ATOM      3  C3  UNL d   1      -0.987   1.282  -0.384  0.00  0.00     0.033 A 
ATOM      4  C4  UNL d   1      -1.399   0.945   0.901  0.00  0.00    -0.042 A 
ATOM      5  C5  UNL d   1      -0.862  -0.180   1.518  0.00  0.00     0.033 A 
ATOM      6  C6  UNL d   1       0.085  -0.959   0.847  0.00  0.00    -0.057 A 
ENDROOT
BRANCH   1   7
ATOM      7  N   UNL d   1       1.399  -1.507  -1.091  0.00  0.00    -0.732 N 
ATOM      8  C   UNL d   1       0.884  -2.584  -1.909  0.00  0.00     0.284 C 
ATOM      9  H3  UNL d   1       2.207  -1.032  -1.488  0.00  0.00     0.395 HD
ENDBRANCH   1   7
TORSDOF 1
ENDMDL
