MODEL 1
REMARK minimizedAffinity -3.43957114
REMARK minimizedRMSD -1
REMARK  1 active torsions:
REMARK  status: ('A' for Active; 'I' for Inactive)
REMARK    1  A    between atoms: N_2  and  C1_3 
ROOT
ATOM      1  C1  UNL d   1       0.017  -1.547  -1.345  0.00  0.00     0.143 A 
ATOM      2  C2  UNL d   1      -1.216  -1.496  -0.685  0.00  0.00    -0.057 A 
ATOM      3  C3  UNL d   1      -1.342  -0.897   0.574  0.00  0.00     0.033 A 
ATOM      4  C4  UNL d   1      -0.227  -0.362   1.211  0.00  0.00    -0.042 A 
ATOM      5  C5  UNL d   1       1.013  -0.423   0.585  0.00  0.00     0.033 A 
ATOM      6  C6  UNL d   1       1.131  -1.017  -0.675  0.00  0.00    -0.057 A 
ENDROOT
BRANCH   1   7
ATOM      7  N   UNL d   1       0.226  -2.216  -2.553  0.00  0.00    -0.732 N 
ATOM      8  C   UNL d   1       1.206  -3.276  -2.649  0.00  0.00     0.284 C 
ATOM      9  H3  UNL d   1      -0.643  -2.407  -3.047  0.00  0.00     0.395 HD
ENDBRANCH   1   7
TORSDOF 1
ENDMDL
