MODEL 1
REMARK minimizedAffinity -4.54718304
REMARK minimizedRMSD -1
REMARK  1 active torsions:
REMARK  status: ('A' for Active; 'I' for Inactive)
REMARK    1  A    between atoms: N_2  and  C1_3 
ROOT
ATOM      1  C1  UNL d   1       0.402   0.221   0.039  0.00  0.00     0.143 A 
ATOM      2  C2  UNL d   1      -0.147   1.244  -0.741  0.00  0.00    -0.057 A 
ATOM      3  C3  UNL d   1      -1.149   2.082  -0.238  0.00  0.00     0.033 A 
ATOM      4  C4  UNL d   1      -1.642   1.892   1.049  0.00  0.00    -0.042 A 
ATOM      5  C5  UNL d   1      -1.129   0.864   1.833  0.00  0.00     0.033 A 
ATOM      6  C6  UNL d   1      -0.124   0.035   1.327  0.00  0.00    -0.057 A 
ENDROOT
BRANCH   1   7
ATOM      7  N   UNL d   1       1.331  -0.708  -0.438  0.00  0.00    -0.732 N 
ATOM      8  C   UNL d   1       0.894  -1.882  -1.163  0.00  0.00     0.284 C 
ATOM      9  H3  UNL d   1       2.159  -0.263  -0.827  0.00  0.00     0.395 HD
ENDBRANCH   1   7
TORSDOF 1
ENDMDL
