MODEL 1
REMARK minimizedAffinity -3.0725832
REMARK minimizedRMSD -1
REMARK  1 active torsions:
REMARK  status: ('A' for Active; 'I' for Inactive)
REMARK    1  A    between atoms: N_2  and  C1_3 
ROOT
ATOM      1  C1  UNL d   1      -0.082   0.126   0.503  0.00  0.00     0.143 A 
ATOM      2  C2  UNL d   1      -0.171   1.471   0.877  0.00  0.00    -0.057 A 
ATOM      3  C3  UNL d   1      -1.014   1.882   1.917  0.00  0.00     0.033 A 
ATOM      4  C4  UNL d   1      -1.807   0.955   2.584  0.00  0.00    -0.042 A 
ATOM      5  C5  UNL d   1      -1.754  -0.384   2.213  0.00  0.00     0.033 A 
ATOM      6  C6  UNL d   1      -0.905  -0.789   1.178  0.00  0.00    -0.057 A 
ENDROOT
BRANCH   1   7
ATOM      7  N   UNL d   1       0.663  -0.331  -0.587  0.00  0.00    -0.732 N 
ATOM      8  C   UNL d   1       0.461  -1.664  -1.111  0.00  0.00     0.284 C 
ATOM      9  H3  UNL d   1       0.783   0.383  -1.302  0.00  0.00     0.395 HD
ENDBRANCH   1   7
TORSDOF 1
ENDMDL
