MODEL 1
REMARK minimizedAffinity 6.18798161
REMARK minimizedRMSD -1
REMARK  1 active torsions:
REMARK  status: ('A' for Active; 'I' for Inactive)
REMARK    1  A    between atoms: C1_2  and  C2_3 
ROOT
ATOM      1  C2  UNL d   1       0.140  -0.010   0.475  0.00  0.00    -0.081 A 
ATOM      2  C3  UNL d   1       1.155   0.934   0.278  0.00  0.00     0.006 A 
ATOM      3  C4  UNL d   1       2.122   0.739  -0.710  0.00  0.00     0.002 A 
ATOM      4  C5  UNL d   1       2.087  -0.400  -1.523  0.00  0.00    -0.080 A 
ATOM      5  C6  UNL d   1       3.102  -0.607  -2.607  0.00  0.00     0.076 C 
ATOM      6  C7  UNL d   1       1.083  -1.352  -1.315  0.00  0.00     0.002 A 
ATOM      7  C8  UNL d   1       0.116  -1.157  -0.326  0.00  0.00     0.006 A 
ENDROOT
BRANCH   1   8
ATOM      8  C1  UNL d   1      -0.943   0.230   1.496  0.00  0.00     0.054 C 
ATOM      9  C   UNL d   1      -1.856   1.373   1.077  0.00  0.00     0.018 C 
ENDBRANCH   1   8
TORSDOF 1
ENDMDL
