MODEL 1
REMARK minimizedAffinity 2.4706409
REMARK minimizedRMSD -1
REMARK  1 active torsions:
REMARK  status: ('A' for Active; 'I' for Inactive)
REMARK    1  A    between atoms: C1_2  and  C2_3 
ROOT
ATOM      1  C2  UNL d   1      -2.038   3.943  -5.829  0.00  0.00    -0.081 A 
ATOM      2  C3  UNL d   1      -2.186   5.332  -5.919  0.00  0.00     0.006 A 
ATOM      3  C4  UNL d   1      -3.459   5.905  -5.986  0.00  0.00     0.002 A 
ATOM      4  C5  UNL d   1      -4.602   5.100  -5.958  0.00  0.00    -0.080 A 
ATOM      5  C6  UNL d   1      -5.974   5.704  -5.999  0.00  0.00     0.076 C 
ATOM      6  C7  UNL d   1      -4.453   3.711  -5.886  0.00  0.00     0.002 A 
ATOM      7  C8  UNL d   1      -3.182   3.137  -5.819  0.00  0.00     0.006 A 
ENDROOT
BRANCH   1   8
ATOM      8  C1  UNL d   1      -0.669   3.326  -5.691  0.00  0.00     0.054 C 
ATOM      9  C   UNL d   1      -0.700   1.836  -5.999  0.00  0.00     0.018 C 
ENDBRANCH   1   8
TORSDOF 1
ENDMDL
