MODEL 1
REMARK minimizedAffinity 15.312377
REMARK minimizedRMSD -1
REMARK  1 active torsions:
REMARK  status: ('A' for Active; 'I' for Inactive)
REMARK    1  A    between atoms: C1_2  and  C2_3 
ROOT
ATOM      1  C2  UNL d   1      -1.525   1.440   0.575  0.00  0.00    -0.081 A 
ATOM      2  C3  UNL d   1      -0.968   0.164   0.730  0.00  0.00     0.006 A 
ATOM      3  C4  UNL d   1       0.281  -0.135   0.182  0.00  0.00     0.002 A 
ATOM      4  C5  UNL d   1       0.998   0.838  -0.524  0.00  0.00    -0.080 A 
ATOM      5  C6  UNL d   1       2.353   0.539  -1.092  0.00  0.00     0.076 C 
ATOM      6  C7  UNL d   1       0.434   2.107  -0.694  0.00  0.00     0.002 A 
ATOM      7  C8  UNL d   1      -0.816   2.406  -0.146  0.00  0.00     0.006 A 
ENDROOT
BRANCH   1   8
ATOM      8  C1  UNL d   1      -2.843   1.784   1.220  0.00  0.00     0.054 C 
ATOM      9  C   UNL d   1      -2.639   2.548   2.521  0.00  0.00     0.018 C 
ENDBRANCH   1   8
TORSDOF 1
ENDMDL
