MODEL 1
REMARK minimizedAffinity 7.57400084
REMARK minimizedRMSD -1
REMARK  1 active torsions:
REMARK  status: ('A' for Active; 'I' for Inactive)
REMARK    1  A    between atoms: C1_2  and  C2_3 
ROOT
ATOM      1  C2  UNL d   1      -4.489   3.886  -5.886  0.00  0.00    -0.081 A 
ATOM      2  C3  UNL d   1      -3.351   4.702  -5.860  0.00  0.00     0.006 A 
ATOM      3  C4  UNL d   1      -2.074   4.137  -5.883  0.00  0.00     0.002 A 
ATOM      4  C5  UNL d   1      -1.912   2.749  -5.941  0.00  0.00    -0.080 A 
ATOM      5  C6  UNL d   1      -0.547   2.131  -5.997  0.00  0.00     0.076 C 
ATOM      6  C7  UNL d   1      -3.049   1.933  -5.950  0.00  0.00     0.002 A 
ATOM      7  C8  UNL d   1      -4.326   2.497  -5.926  0.00  0.00     0.006 A 
ENDROOT
BRANCH   1   8
ATOM      8  C1  UNL d   1      -5.868   4.494  -5.927  0.00  0.00     0.054 C 
ATOM      9  C   UNL d   1      -5.835   5.965  -5.537  0.00  0.00     0.018 C 
ENDBRANCH   1   8
TORSDOF 1
ENDMDL
