MODEL 1
REMARK minimizedAffinity 5.11483765
REMARK minimizedRMSD -1
REMARK  1 active torsions:
REMARK  status: ('A' for Active; 'I' for Inactive)
REMARK    1  A    between atoms: C1_2  and  C2_3 
ROOT
ATOM      1  C2  UNL d   1      -0.781   3.168  -5.500  0.00  0.00    -0.081 A 
ATOM      2  C3  UNL d   1      -0.341   4.242  -4.716  0.00  0.00     0.006 A 
ATOM      3  C4  UNL d   1      -1.254   5.167  -4.206  0.00  0.00     0.002 A 
ATOM      4  C5  UNL d   1      -2.623   5.030  -4.464  0.00  0.00    -0.080 A 
ATOM      5  C6  UNL d   1      -3.617   5.999  -3.897  0.00  0.00     0.076 C 
ATOM      6  C7  UNL d   1      -3.060   3.967  -5.262  0.00  0.00     0.002 A 
ATOM      7  C8  UNL d   1      -2.147   3.042  -5.773  0.00  0.00     0.006 A 
ENDROOT
BRANCH   1   8
ATOM      8  C1  UNL d   1       0.195   2.132  -5.998  0.00  0.00     0.054 C 
ATOM      9  C   UNL d   1       1.619   2.669  -5.999  0.00  0.00     0.018 C 
ENDBRANCH   1   8
TORSDOF 1
ENDMDL
