MODEL 1
REMARK minimizedAffinity 8.28203869
REMARK minimizedRMSD -1
REMARK  1 active torsions:
REMARK  status: ('A' for Active; 'I' for Inactive)
REMARK    1  A    between atoms: C1_2  and  C2_3 
ROOT
ATOM      1  C2  UNL d   1       1.156   1.153  -0.488  0.00  0.00    -0.081 A 
ATOM      2  C3  UNL d   1       0.523   2.374  -0.752  0.00  0.00     0.006 A 
ATOM      3  C4  UNL d   1      -0.750   2.637  -0.241  0.00  0.00     0.002 A 
ATOM      4  C5  UNL d   1      -1.408   1.688   0.548  0.00  0.00    -0.080 A 
ATOM      5  C6  UNL d   1      -2.762   1.970   1.128  0.00  0.00     0.076 C 
ATOM      6  C7  UNL d   1      -0.784   0.461   0.797  0.00  0.00     0.002 A 
ATOM      7  C8  UNL d   1       0.489   0.197   0.286  0.00  0.00     0.006 A 
ENDROOT
BRANCH   1   8
ATOM      8  C1  UNL d   1       2.555   0.892  -0.984  0.00  0.00     0.054 C 
ATOM      9  C   UNL d   1       2.568  -0.178  -2.066  0.00  0.00     0.018 C 
ENDBRANCH   1   8
TORSDOF 1
ENDMDL
