MODEL 1
REMARK minimizedAffinity 8.32610226
REMARK minimizedRMSD -1
REMARK  1 active torsions:
REMARK  status: ('A' for Active; 'I' for Inactive)
REMARK    1  A    between atoms: C1_2  and  C2_3 
ROOT
ATOM      1  C2  UNL d   1      -1.377   3.106  -5.876  0.00  0.00    -0.081 A 
ATOM      2  C3  UNL d   1      -2.703   2.673  -5.991  0.00  0.00     0.006 A 
ATOM      3  C4  UNL d   1      -3.751   3.597  -6.000  0.00  0.00     0.002 A 
ATOM      4  C5  UNL d   1      -3.490   4.968  -5.901  0.00  0.00    -0.080 A 
ATOM      5  C6  UNL d   1      -4.604   5.972  -5.940  0.00  0.00     0.076 C 
ATOM      6  C7  UNL d   1      -2.166   5.399  -5.769  0.00  0.00     0.002 A 
ATOM      7  C8  UNL d   1      -1.118   4.476  -5.759  0.00  0.00     0.006 A 
ENDROOT
BRANCH   1   8
ATOM      8  C1  UNL d   1      -0.240   2.117  -5.931  0.00  0.00     0.054 C 
ATOM      9  C   UNL d   1       1.107   2.824  -5.977  0.00  0.00     0.018 C 
ENDBRANCH   1   8
TORSDOF 1
ENDMDL
