MODEL 1
REMARK minimizedAffinity -1.3685348
REMARK minimizedRMSD -1
REMARK  1 active torsions:
REMARK  status: ('A' for Active; 'I' for Inactive)
REMARK    1  A    between atoms: C1_2  and  C2_3 
ROOT
ATOM      1  C2  UNL d   1      -2.452   3.663  -5.142  0.00  0.00    -0.081 A 
ATOM      2  C3  UNL d   1      -2.478   5.036  -4.873  0.00  0.00     0.006 A 
ATOM      3  C4  UNL d   1      -3.617   5.793  -5.161  0.00  0.00     0.002 A 
ATOM      4  C5  UNL d   1      -4.750   5.188  -5.714  0.00  0.00    -0.080 A 
ATOM      5  C6  UNL d   1      -5.989   5.983  -6.000  0.00  0.00     0.076 C 
ATOM      6  C7  UNL d   1      -4.718   3.819  -6.000  0.00  0.00     0.002 A 
ATOM      7  C8  UNL d   1      -3.580   3.062  -5.713  0.00  0.00     0.006 A 
ENDROOT
BRANCH   1   8
ATOM      8  C1  UNL d   1      -1.250   2.832  -4.774  0.00  0.00     0.054 C 
ATOM      9  C   UNL d   1      -0.352   2.592  -5.979  0.00  0.00     0.018 C 
ENDBRANCH   1   8
TORSDOF 1
ENDMDL
