MODEL 1
REMARK minimizedAffinity 5.32825994
REMARK minimizedRMSD -1
REMARK  1 active torsions:
REMARK  status: ('A' for Active; 'I' for Inactive)
REMARK    1  A    between atoms: C1_2  and  C2_3 
ROOT
ATOM      1  C2  UNL d   1      -0.547   3.006  -5.869  0.00  0.00    -0.081 A 
ATOM      2  C3  UNL d   1      -1.890   2.613  -5.829  0.00  0.00     0.006 A 
ATOM      3  C4  UNL d   1      -2.909   3.569  -5.857  0.00  0.00     0.002 A 
ATOM      4  C5  UNL d   1      -2.601   4.932  -5.933  0.00  0.00    -0.080 A 
ATOM      5  C6  UNL d   1      -3.686   5.966  -5.994  0.00  0.00     0.076 C 
ATOM      6  C7  UNL d   1      -1.259   5.325  -5.956  0.00  0.00     0.002 A 
ATOM      7  C8  UNL d   1      -0.240   4.370  -5.927  0.00  0.00     0.006 A 
ENDROOT
BRANCH   1   8
ATOM      8  C1  UNL d   1       0.553   1.976  -5.905  0.00  0.00     0.054 C 
ATOM      9  C   UNL d   1       1.515   2.153  -4.739  0.00  0.00     0.018 C 
ENDBRANCH   1   8
TORSDOF 1
ENDMDL
