MODEL 1
REMARK minimizedAffinity 9.39258575
REMARK minimizedRMSD -1
REMARK  1 active torsions:
REMARK  status: ('A' for Active; 'I' for Inactive)
REMARK    1  A    between atoms: C1_2  and  C2_3 
ROOT
ATOM      1  C2  UNL d   1       1.270   2.716   2.242  0.00  0.00    -0.081 A 
ATOM      2  C3  UNL d   1       1.207   3.054   3.599  0.00  0.00     0.006 A 
ATOM      3  C4  UNL d   1      -0.024   3.302   4.211  0.00  0.00     0.002 A 
ATOM      4  C5  UNL d   1      -1.212   3.210   3.478  0.00  0.00    -0.080 A 
ATOM      5  C6  UNL d   1      -2.542   3.445   4.130  0.00  0.00     0.076 C 
ATOM      6  C7  UNL d   1      -1.148   2.891   2.118  0.00  0.00     0.002 A 
ATOM      7  C8  UNL d   1       0.083   2.643   1.505  0.00  0.00     0.006 A 
ENDROOT
BRANCH   1   8
ATOM      8  C1  UNL d   1       2.591   2.384   1.595  0.00  0.00     0.054 C 
ATOM      9  C   UNL d   1       3.744   3.080   2.303  0.00  0.00     0.018 C 
ENDBRANCH   1   8
TORSDOF 1
ENDMDL
