MODEL 1
REMARK minimizedAffinity 6.13043213
REMARK minimizedRMSD -1
REMARK  1 active torsions:
REMARK  status: ('A' for Active; 'I' for Inactive)
REMARK    1  A    between atoms: C1_2  and  C2_3 
ROOT
ATOM      1  C2  UNL d   1      -2.263   3.794  -4.771  0.00  0.00    -0.081 A 
ATOM      2  C3  UNL d   1      -1.665   3.394  -5.972  0.00  0.00     0.006 A 
ATOM      3  C4  UNL d   1      -0.325   3.000  -6.000  0.00  0.00     0.002 A 
ATOM      4  C5  UNL d   1       0.436   2.991  -4.826  0.00  0.00    -0.080 A 
ATOM      5  C6  UNL d   1       1.867   2.540  -4.836  0.00  0.00     0.076 C 
ATOM      6  C7  UNL d   1      -0.156   3.407  -3.629  0.00  0.00     0.002 A 
ATOM      7  C8  UNL d   1      -1.495   3.802  -3.601  0.00  0.00     0.006 A 
ENDROOT
BRANCH   1   8
ATOM      8  C1  UNL d   1      -3.725   4.159  -4.727  0.00  0.00     0.054 C 
ATOM      9  C   UNL d   1      -4.440   3.730  -6.000  0.00  0.00     0.018 C 
ENDBRANCH   1   8
TORSDOF 1
ENDMDL
