MODEL 1
REMARK minimizedAffinity 11.6865225
REMARK minimizedRMSD -1
REMARK  1 active torsions:
REMARK  status: ('A' for Active; 'I' for Inactive)
REMARK    1  A    between atoms: C1_2  and  C2_3 
ROOT
ATOM      1  C2  UNL d   1       1.711   0.706  -0.812  0.00  0.00    -0.081 A 
ATOM      2  C3  UNL d   1       1.053  -0.451  -0.378  0.00  0.00     0.006 A 
ATOM      3  C4  UNL d   1      -0.143  -0.358   0.338  0.00  0.00     0.002 A 
ATOM      4  C5  UNL d   1      -0.705   0.891   0.624  0.00  0.00    -0.080 A 
ATOM      5  C6  UNL d   1      -2.004   1.003   1.365  0.00  0.00     0.076 C 
ATOM      6  C7  UNL d   1      -0.038   2.047   0.205  0.00  0.00     0.002 A 
ATOM      7  C8  UNL d   1       1.158   1.956  -0.510  0.00  0.00     0.006 A 
ENDROOT
BRANCH   1   8
ATOM      8  C1  UNL d   1       2.967   0.608  -1.640  0.00  0.00     0.054 C 
ATOM      9  C   UNL d   1       2.895  -0.555  -2.619  0.00  0.00     0.018 C 
ENDBRANCH   1   8
TORSDOF 1
ENDMDL
