MODEL 1
REMARK minimizedAffinity 5.58950806
REMARK minimizedRMSD -1
REMARK  1 active torsions:
REMARK  status: ('A' for Active; 'I' for Inactive)
REMARK    1  A    between atoms: C1_2  and  C2_3 
ROOT
ATOM      1  C2  UNL d   1       1.088   1.039  -0.004  0.00  0.00    -0.081 A 
ATOM      2  C3  UNL d   1       0.542  -0.159   0.472  0.00  0.00     0.006 A 
ATOM      3  C4  UNL d   1      -0.776  -0.202   0.934  0.00  0.00     0.002 A 
ATOM      4  C5  UNL d   1      -1.571   0.949   0.919  0.00  0.00    -0.080 A 
ATOM      5  C6  UNL d   1      -2.996   0.909   1.384  0.00  0.00     0.076 C 
ATOM      6  C7  UNL d   1      -1.020   2.150   0.460  0.00  0.00     0.002 A 
ATOM      7  C8  UNL d   1       0.298   2.194  -0.001  0.00  0.00     0.006 A 
ENDROOT
BRANCH   1   8
ATOM      8  C1  UNL d   1       2.488   1.075  -0.563  0.00  0.00     0.054 C 
ATOM      9  C   UNL d   1       2.629   0.147  -1.761  0.00  0.00     0.018 C 
ENDBRANCH   1   8
TORSDOF 1
ENDMDL
