MODEL 1
REMARK minimizedAffinity 1.29266262
REMARK minimizedRMSD -1
REMARK  1 active torsions:
REMARK  status: ('A' for Active; 'I' for Inactive)
REMARK    1  A    between atoms: C1_2  and  C2_3 
ROOT
ATOM      1  C2  UNL d   1      -0.707   3.252  -5.978  0.00  0.00    -0.081 A 
ATOM      2  C3  UNL d   1       0.390   2.382  -5.997  0.00  0.00     0.006 A 
ATOM      3  C4  UNL d   1       1.692   2.881  -5.916  0.00  0.00     0.002 A 
ATOM      4  C5  UNL d   1       1.918   4.258  -5.807  0.00  0.00    -0.080 A 
ATOM      5  C6  UNL d   1       3.310   4.805  -5.690  0.00  0.00     0.076 C 
ATOM      6  C7  UNL d   1       0.824   5.128  -5.806  0.00  0.00     0.002 A 
ATOM      7  C8  UNL d   1      -0.478   4.629  -5.887  0.00  0.00     0.006 A 
ENDROOT
BRANCH   1   8
ATOM      8  C1  UNL d   1      -2.114   2.712  -5.999  0.00  0.00     0.054 C 
ATOM      9  C   UNL d   1      -3.139   3.838  -5.999  0.00  0.00     0.018 C 
ENDBRANCH   1   8
TORSDOF 1
ENDMDL
