MODEL 1
REMARK minimizedAffinity 6.2850256
REMARK minimizedRMSD -1
REMARK  1 active torsions:
REMARK  status: ('A' for Active; 'I' for Inactive)
REMARK    1  A    between atoms: C1_2  and  C2_3 
ROOT
ATOM      1  C2  UNL d   1      -1.332   2.896  -5.989  0.00  0.00    -0.081 A 
ATOM      2  C3  UNL d   1      -0.229   2.034  -6.000  0.00  0.00     0.006 A 
ATOM      3  C4  UNL d   1       1.070   2.547  -5.999  0.00  0.00     0.002 A 
ATOM      4  C5  UNL d   1       1.288   3.928  -5.981  0.00  0.00    -0.080 A 
ATOM      5  C6  UNL d   1       2.678   4.492  -5.950  0.00  0.00     0.076 C 
ATOM      6  C7  UNL d   1       0.186   4.790  -5.988  0.00  0.00     0.002 A 
ATOM      7  C8  UNL d   1      -1.114   4.278  -5.989  0.00  0.00     0.006 A 
ENDROOT
BRANCH   1   8
ATOM      8  C1  UNL d   1      -2.734   2.345  -5.924  0.00  0.00     0.054 C 
ATOM      9  C   UNL d   1      -3.767   3.463  -5.895  0.00  0.00     0.018 C 
ENDBRANCH   1   8
TORSDOF 1
ENDMDL
