MODEL 1
REMARK minimizedAffinity 6.09756041
REMARK minimizedRMSD -1
REMARK  1 active torsions:
REMARK  status: ('A' for Active; 'I' for Inactive)
REMARK    1  A    between atoms: C3_4  and  O_7 
ROOT
ATOM      1  C   UNL d   1       0.500   2.000   2.494  0.00  0.00    -0.033 A 
ATOM      2  C1  UNL d   1       1.136   2.550   1.379  0.00  0.00     0.039 A 
ATOM      3  C2  UNL d   1       2.193   1.871   0.770  0.00  0.00    -0.080 A 
ATOM      4  C3  UNL d   1       2.604   0.644   1.284  0.00  0.00     0.150 A 
ATOM      5  C4  UNL d   1       1.973   0.088   2.392  0.00  0.00    -0.007 A 
ATOM      6  C5  UNL d   1       0.918   0.768   3.000  0.00  0.00     0.039 A 
ENDROOT
BRANCH   4   7
ATOM      7  O   UNL d   1       3.634  -0.053   0.726  0.00  0.00    -0.526 OA
ATOM      8  H5  UNL d   1       3.992   0.466  -0.013  0.00  0.00     0.418 HD
ENDBRANCH   4   7
TORSDOF 1
ENDMDL
