MODEL 1
REMARK minimizedAffinity 8.24597836
REMARK minimizedRMSD -1
REMARK  1 active torsions:
REMARK  status: ('A' for Active; 'I' for Inactive)
REMARK    1  A    between atoms: C3_4  and  O_7 
ROOT
ATOM      1  C   UNL d   1       0.305   1.616   2.770  0.00  0.00    -0.033 A 
ATOM      2  C1  UNL d   1       1.211   1.507   1.713  0.00  0.00     0.039 A 
ATOM      3  C2  UNL d   1       2.387   0.773   1.873  0.00  0.00    -0.080 A 
ATOM      4  C3  UNL d   1       2.646   0.153   3.092  0.00  0.00     0.150 A 
ATOM      5  C4  UNL d   1       1.746   0.254   4.148  0.00  0.00    -0.007 A 
ATOM      6  C5  UNL d   1       0.572   0.989   3.987  0.00  0.00     0.039 A 
ENDROOT
BRANCH   4   7
ATOM      7  O   UNL d   1       3.783  -0.571   3.297  0.00  0.00    -0.526 OA
ATOM      8  H5  UNL d   1       4.323  -0.530   2.491  0.00  0.00     0.418 HD
ENDBRANCH   4   7
TORSDOF 1
ENDMDL
