MODEL 1
REMARK minimizedAffinity 7.81784296
REMARK minimizedRMSD -1
REMARK  1 active torsions:
REMARK  status: ('A' for Active; 'I' for Inactive)
REMARK    1  A    between atoms: C3_4  and  O_7 
ROOT
ATOM      1  C   UNL d   1       1.640   1.573   0.645  0.00  0.00    -0.033 A 
ATOM      2  C1  UNL d   1       1.344   1.716   2.002  0.00  0.00     0.039 A 
ATOM      3  C2  UNL d   1       2.170   1.131   2.964  0.00  0.00    -0.080 A 
ATOM      4  C3  UNL d   1       3.288   0.408   2.556  0.00  0.00     0.150 A 
ATOM      5  C4  UNL d   1       3.590   0.265   1.206  0.00  0.00    -0.007 A 
ATOM      6  C5  UNL d   1       2.764   0.849   0.247  0.00  0.00     0.039 A 
ENDROOT
BRANCH   4   7
ATOM      7  O   UNL d   1       4.121  -0.185   3.458  0.00  0.00    -0.526 OA
ATOM      8  H5  UNL d   1       3.771  -0.026   4.350  0.00  0.00     0.418 HD
ENDBRANCH   4   7
TORSDOF 1
ENDMDL
