MODEL 1
REMARK minimizedAffinity 5.8215642
REMARK minimizedRMSD -1
REMARK  1 active torsions:
REMARK  status: ('A' for Active; 'I' for Inactive)
REMARK    1  A    between atoms: C3_4  and  O_7 
ROOT
ATOM      1  C   UNL d   1      -4.049  -4.434  -2.073  0.00  0.00    -0.033 A 
ATOM      2  C1  UNL d   1      -3.554  -3.234  -2.588  0.00  0.00     0.039 A 
ATOM      3  C2  UNL d   1      -2.308  -3.205  -3.219  0.00  0.00    -0.080 A 
ATOM      4  C3  UNL d   1      -1.569  -4.380  -3.328  0.00  0.00     0.150 A 
ATOM      5  C4  UNL d   1      -2.059  -5.579  -2.820  0.00  0.00    -0.007 A 
ATOM      6  C5  UNL d   1      -3.302  -5.606  -2.190  0.00  0.00     0.039 A 
ENDROOT
BRANCH   4   7
ATOM      7  O   UNL d   1      -0.347  -4.400  -3.930  0.00  0.00    -0.526 OA
ATOM      8  H5  UNL d   1      -0.125  -3.495  -4.207  0.00  0.00     0.418 HD
ENDBRANCH   4   7
TORSDOF 1
ENDMDL
