MODEL 1
REMARK minimizedAffinity 4.89627838
REMARK minimizedRMSD -1
REMARK  1 active torsions:
REMARK  status: ('A' for Active; 'I' for Inactive)
REMARK    1  A    between atoms: C3_4  and  O_7 
ROOT
ATOM      1  C   UNL d   1       3.637   0.852  -0.472  0.00  0.00    -0.033 A 
ATOM      2  C1  UNL d   1       4.646  -0.092  -0.266  0.00  0.00     0.039 A 
ATOM      3  C2  UNL d   1       4.754  -0.742   0.964  0.00  0.00    -0.080 A 
ATOM      4  C3  UNL d   1       3.849  -0.442   1.978  0.00  0.00     0.150 A 
ATOM      5  C4  UNL d   1       2.839   0.493   1.779  0.00  0.00    -0.007 A 
ATOM      6  C5  UNL d   1       2.733   1.143   0.549  0.00  0.00     0.039 A 
ENDROOT
BRANCH   4   7
ATOM      7  O   UNL d   1       3.918  -1.048   3.198  0.00  0.00    -0.526 OA
ATOM      8  H5  UNL d   1       4.682  -1.649   3.200  0.00  0.00     0.418 HD
ENDBRANCH   4   7
TORSDOF 1
ENDMDL
