MODEL 1
REMARK minimizedAffinity 7.719244
REMARK minimizedRMSD -1
REMARK  1 active torsions:
REMARK  status: ('A' for Active; 'I' for Inactive)
REMARK    1  A    between atoms: C3_4  and  O_7 
ROOT
ATOM      1  C   UNL d   1      -3.216  -3.023  -2.926  0.00  0.00    -0.033 A 
ATOM      2  C1  UNL d   1      -2.259  -2.401  -3.731  0.00  0.00     0.039 A 
ATOM      3  C2  UNL d   1      -1.169  -3.129  -4.211  0.00  0.00    -0.080 A 
ATOM      4  C3  UNL d   1      -1.047  -4.476  -3.880  0.00  0.00     0.150 A 
ATOM      5  C4  UNL d   1      -1.998  -5.102  -3.081  0.00  0.00    -0.007 A 
ATOM      6  C5  UNL d   1      -3.086  -4.374  -2.603  0.00  0.00     0.039 A 
ENDROOT
BRANCH   4   7
ATOM      7  O   UNL d   1       0.003  -5.226  -4.320  0.00  0.00    -0.526 OA
ATOM      8  H5  UNL d   1       0.595  -4.653  -4.837  0.00  0.00     0.418 HD
ENDBRANCH   4   7
TORSDOF 1
ENDMDL
