MODEL 1
REMARK minimizedAffinity 7.26225424
REMARK minimizedRMSD -1
REMARK  1 active torsions:
REMARK  status: ('A' for Active; 'I' for Inactive)
REMARK    1  A    between atoms: C3_4  and  O_7 
ROOT
ATOM      1  C   UNL d   1      -5.351   0.140   4.078  0.00  0.00    -0.033 A 
ATOM      2  C1  UNL d   1      -5.898   0.386   5.339  0.00  0.00     0.039 A 
ATOM      3  C2  UNL d   1      -5.621   1.585   6.000  0.00  0.00    -0.080 A 
ATOM      4  C3  UNL d   1      -4.798   2.528   5.389  0.00  0.00     0.150 A 
ATOM      5  C4  UNL d   1      -4.254   2.290   4.132  0.00  0.00    -0.007 A 
ATOM      6  C5  UNL d   1      -4.530   1.093   3.474  0.00  0.00     0.039 A 
ENDROOT
BRANCH   4   7
ATOM      7  O   UNL d   1      -4.496   3.710   5.997  0.00  0.00    -0.526 OA
ATOM      8  H5  UNL d   1      -4.919   3.723   6.872  0.00  0.00     0.418 HD
ENDBRANCH   4   7
TORSDOF 1
ENDMDL
