MODEL 1
REMARK minimizedAffinity 4.71170902
REMARK minimizedRMSD -1
REMARK  1 active torsions:
REMARK  status: ('A' for Active; 'I' for Inactive)
REMARK    1  A    between atoms: C3_4  and  O_7 
ROOT
ATOM      1  C   UNL d   1      -5.997   1.402   5.828  0.00  0.00    -0.033 A 
ATOM      2  C1  UNL d   1      -5.743   0.587   4.724  0.00  0.00     0.039 A 
ATOM      3  C2  UNL d   1      -4.827   0.993   3.750  0.00  0.00    -0.080 A 
ATOM      4  C3  UNL d   1      -4.174   2.213   3.894  0.00  0.00     0.150 A 
ATOM      5  C4  UNL d   1      -4.419   3.028   4.994  0.00  0.00    -0.007 A 
ATOM      6  C5  UNL d   1      -5.335   2.622   5.964  0.00  0.00     0.039 A 
ENDROOT
BRANCH   4   7
ATOM      7  O   UNL d   1      -3.275   2.654   2.968  0.00  0.00    -0.526 OA
ATOM      8  H5  UNL d   1      -3.228   2.001   2.250  0.00  0.00     0.418 HD
ENDBRANCH   4   7
TORSDOF 1
ENDMDL
