MODEL 1
REMARK minimizedAffinity 3.60758066
REMARK minimizedRMSD -1
REMARK  1 active torsions:
REMARK  status: ('A' for Active; 'I' for Inactive)
REMARK    1  A    between atoms: C3_4  and  O_7 
ROOT
ATOM      1  C   UNL d   1       2.750   1.843   0.394  0.00  0.00    -0.033 A 
ATOM      2  C1  UNL d   1       2.736   0.772   1.290  0.00  0.00     0.039 A 
ATOM      3  C2  UNL d   1       3.824  -0.102   1.353  0.00  0.00    -0.080 A 
ATOM      4  C3  UNL d   1       4.917   0.108   0.517  0.00  0.00     0.150 A 
ATOM      5  C4  UNL d   1       4.939   1.175  -0.374  0.00  0.00    -0.007 A 
ATOM      6  C5  UNL d   1       3.852   2.045  -0.437  0.00  0.00     0.039 A 
ENDROOT
BRANCH   4   7
ATOM      7  O   UNL d   1       6.000  -0.721   0.540  0.00  0.00    -0.526 OA
ATOM      8  H5  UNL d   1       5.832  -1.429   1.183  0.00  0.00     0.418 HD
ENDBRANCH   4   7
TORSDOF 1
ENDMDL
