MODEL 1
REMARK minimizedAffinity 3.64671135
REMARK minimizedRMSD -1
REMARK  1 active torsions:
REMARK  status: ('A' for Active; 'I' for Inactive)
REMARK    1  A    between atoms: C3_4  and  O_7 
ROOT
ATOM      1  C   UNL d   1      -5.311   2.675   5.973  0.00  0.00    -0.033 A 
ATOM      2  C1  UNL d   1      -6.000   1.461   6.000  0.00  0.00     0.039 A 
ATOM      3  C2  UNL d   1      -5.956   0.607   4.896  0.00  0.00    -0.080 A 
ATOM      4  C3  UNL d   1      -5.220   0.978   3.774  0.00  0.00     0.150 A 
ATOM      5  C4  UNL d   1      -4.528   2.184   3.742  0.00  0.00    -0.007 A 
ATOM      6  C5  UNL d   1      -4.574   3.036   4.845  0.00  0.00     0.039 A 
ENDROOT
BRANCH   4   7
ATOM      7  O   UNL d   1      -5.152   0.180   2.671  0.00  0.00    -0.526 OA
ATOM      8  H5  UNL d   1      -5.702  -0.606   2.825  0.00  0.00     0.418 HD
ENDBRANCH   4   7
TORSDOF 1
ENDMDL
