MODEL 1
REMARK minimizedAffinity 8.70472813
REMARK minimizedRMSD -1
REMARK  1 active torsions:
REMARK  status: ('A' for Active; 'I' for Inactive)
REMARK    1  A    between atoms: C3_4  and  O_7 
ROOT
ATOM      1  C   UNL d   1       3.746  -0.201   1.075  0.00  0.00    -0.033 A 
ATOM      2  C1  UNL d   1       2.958   0.923   1.325  0.00  0.00     0.039 A 
ATOM      3  C2  UNL d   1       3.131   2.082   0.566  0.00  0.00    -0.080 A 
ATOM      4  C3  UNL d   1       4.094   2.103  -0.439  0.00  0.00     0.150 A 
ATOM      5  C4  UNL d   1       4.880   0.985  -0.696  0.00  0.00    -0.007 A 
ATOM      6  C5  UNL d   1       4.707  -0.171   0.064  0.00  0.00     0.039 A 
ENDROOT
BRANCH   4   7
ATOM      7  O   UNL d   1       4.303   3.213  -1.203  0.00  0.00    -0.526 OA
ATOM      8  H5  UNL d   1       3.708   3.916  -0.893  0.00  0.00     0.418 HD
ENDBRANCH   4   7
TORSDOF 1
ENDMDL
