MODEL 1
REMARK minimizedAffinity 7.50745344
REMARK minimizedRMSD -1
REMARK  1 active torsions:
REMARK  status: ('A' for Active; 'I' for Inactive)
REMARK    1  A    between atoms: C3_4  and  O_7 
ROOT
ATOM      1  C   UNL d   1       1.596   1.958   0.253  0.00  0.00    -0.033 A 
ATOM      2  C1  UNL d   1       2.856   1.886  -0.345  0.00  0.00     0.039 A 
ATOM      3  C2  UNL d   1       3.688   0.794  -0.093  0.00  0.00    -0.080 A 
ATOM      4  C3  UNL d   1       3.249  -0.219   0.756  0.00  0.00     0.150 A 
ATOM      5  C4  UNL d   1       1.994  -0.156   1.351  0.00  0.00    -0.007 A 
ATOM      6  C5  UNL d   1       1.164   0.936   1.099  0.00  0.00     0.039 A 
ENDROOT
BRANCH   4   7
ATOM      7  O   UNL d   1       4.028  -1.302   1.035  0.00  0.00    -0.526 OA
ATOM      8  H5  UNL d   1       4.878  -1.196   0.577  0.00  0.00     0.418 HD
ENDBRANCH   4   7
TORSDOF 1
ENDMDL
