MODEL 1
REMARK minimizedAffinity 8.72881794
REMARK minimizedRMSD -1
REMARK  1 active torsions:
REMARK  status: ('A' for Active; 'I' for Inactive)
REMARK    1  A    between atoms: C3_4  and  O_7 
ROOT
ATOM      1  C   UNL d   1      -5.997   5.999   4.958  0.00  0.00    -0.033 A 
ATOM      2  C1  UNL d   1      -5.999   5.149   3.850  0.00  0.00     0.039 A 
ATOM      3  C2  UNL d   1      -5.095   4.087   3.781  0.00  0.00    -0.080 A 
ATOM      4  C3  UNL d   1      -4.196   3.887   4.825  0.00  0.00     0.150 A 
ATOM      5  C4  UNL d   1      -4.191   4.728   5.933  0.00  0.00    -0.007 A 
ATOM      6  C5  UNL d   1      -5.094   5.788   6.000  0.00  0.00     0.039 A 
ENDROOT
BRANCH   4   7
ATOM      7  O   UNL d   1      -3.291   2.867   4.801  0.00  0.00    -0.526 OA
ATOM      8  H5  UNL d   1      -3.392   2.387   3.962  0.00  0.00     0.418 HD
ENDBRANCH   4   7
TORSDOF 1
ENDMDL
