MODEL 1
REMARK minimizedAffinity 8.86717319
REMARK minimizedRMSD -1
REMARK  1 active torsions:
REMARK  status: ('A' for Active; 'I' for Inactive)
REMARK    1  A    between atoms: C3_4  and  O_7 
ROOT
ATOM      1  C   UNL d   1       3.460   0.030   1.103  0.00  0.00    -0.033 A 
ATOM      2  C1  UNL d   1       2.161   0.535   1.185  0.00  0.00     0.039 A 
ATOM      3  C2  UNL d   1       1.431   0.400   2.368  0.00  0.00    -0.080 A 
ATOM      4  C3  UNL d   1       2.011  -0.241   3.459  0.00  0.00     0.150 A 
ATOM      5  C4  UNL d   1       3.306  -0.743   3.385  0.00  0.00    -0.007 A 
ATOM      6  C5  UNL d   1       4.033  -0.608   2.203  0.00  0.00     0.039 A 
ENDROOT
BRANCH   4   7
ATOM      7  O   UNL d   1       1.336  -0.401   4.633  0.00  0.00    -0.526 OA
ATOM      8  H5  UNL d   1       0.444  -0.031   4.528  0.00  0.00     0.418 HD
ENDBRANCH   4   7
TORSDOF 1
ENDMDL
