MODEL 1
REMARK minimizedAffinity 17.0461178
REMARK minimizedRMSD -1
REMARK  1 active torsions:
REMARK  status: ('A' for Active; 'I' for Inactive)
REMARK    1  A    between atoms: C3_4  and  O_7 
ROOT
ATOM      1  C   UNL d   1      -4.133  -5.883  -1.876  0.00  0.00    -0.033 A 
ATOM      2  C1  UNL d   1      -3.414  -4.695  -2.028  0.00  0.00     0.039 A 
ATOM      3  C2  UNL d   1      -3.974  -3.623  -2.725  0.00  0.00    -0.080 A 
ATOM      4  C3  UNL d   1      -5.252  -3.750  -3.263  0.00  0.00     0.150 A 
ATOM      5  C4  UNL d   1      -5.975  -4.929  -3.111  0.00  0.00    -0.007 A 
ATOM      6  C5  UNL d   1      -5.414  -5.999  -2.416  0.00  0.00     0.039 A 
ENDROOT
BRANCH   4   7
ATOM      7  O   UNL d   1      -5.838  -2.733  -3.955  0.00  0.00    -0.526 OA
ATOM      8  H5  UNL d   1      -5.211  -1.992  -4.004  0.00  0.00     0.418 HD
ENDBRANCH   4   7
TORSDOF 1
ENDMDL
