MODEL 1
REMARK minimizedAffinity 16.9086761
REMARK minimizedRMSD -1
REMARK  1 active torsions:
REMARK  status: ('A' for Active; 'I' for Inactive)
REMARK    1  A    between atoms: C3_4  and  O_7 
ROOT
ATOM      1  C   UNL d   1      -4.298  -5.951  -1.670  0.00  0.00    -0.033 A 
ATOM      2  C1  UNL d   1      -3.444  -4.862  -1.854  0.00  0.00     0.039 A 
ATOM      3  C2  UNL d   1      -3.864  -3.762  -2.605  0.00  0.00    -0.080 A 
ATOM      4  C3  UNL d   1      -5.138  -3.764  -3.165  0.00  0.00     0.150 A 
ATOM      5  C4  UNL d   1      -5.996  -4.844  -2.983  0.00  0.00    -0.007 A 
ATOM      6  C5  UNL d   1      -5.575  -5.941  -2.234  0.00  0.00     0.039 A 
ENDROOT
BRANCH   4   7
ATOM      7  O   UNL d   1      -5.590  -2.715  -3.910  0.00  0.00    -0.526 OA
ATOM      8  H5  UNL d   1      -4.880  -2.055  -3.975  0.00  0.00     0.418 HD
ENDBRANCH   4   7
TORSDOF 1
ENDMDL
