MODEL 1
REMARK minimizedAffinity 9.75111771
REMARK minimizedRMSD -1
REMARK  1 active torsions:
REMARK  status: ('A' for Active; 'I' for Inactive)
REMARK    1  A    between atoms: C3_4  and  O_7 
ROOT
ATOM      1  C   UNL d   1      -1.500  -6.000  -3.020  0.00  0.00    -0.033 A 
ATOM      2  C1  UNL d   1      -2.638  -5.844  -2.226  0.00  0.00     0.039 A 
ATOM      3  C2  UNL d   1      -3.120  -4.566  -1.937  0.00  0.00    -0.080 A 
ATOM      4  C3  UNL d   1      -2.457  -3.454  -2.448  0.00  0.00     0.150 A 
ATOM      5  C4  UNL d   1      -1.325  -3.602  -3.243  0.00  0.00    -0.007 A 
ATOM      6  C5  UNL d   1      -0.844  -4.879  -3.529  0.00  0.00     0.039 A 
ENDROOT
BRANCH   4   7
ATOM      7  O   UNL d   1      -2.888  -2.186  -2.190  0.00  0.00    -0.526 OA
ATOM      8  H5  UNL d   1      -3.662  -2.238  -1.605  0.00  0.00     0.418 HD
ENDBRANCH   4   7
TORSDOF 1
ENDMDL
