MODEL 1
REMARK minimizedAffinity 12.4887419
REMARK minimizedRMSD -1
REMARK  1 active torsions:
REMARK  status: ('A' for Active; 'I' for Inactive)
REMARK    1  A    between atoms: C3_4  and  O_7 
ROOT
ATOM      1  C   UNL d   1       3.134   0.597   1.457  0.00  0.00    -0.033 A 
ATOM      2  C1  UNL d   1       4.138  -0.360   1.296  0.00  0.00     0.039 A 
ATOM      3  C2  UNL d   1       5.112  -0.193   0.309  0.00  0.00    -0.080 A 
ATOM      4  C3  UNL d   1       5.070   0.934  -0.508  0.00  0.00     0.150 A 
ATOM      5  C4  UNL d   1       4.074   1.892  -0.350  0.00  0.00    -0.007 A 
ATOM      6  C5  UNL d   1       3.103   1.723   0.635  0.00  0.00     0.039 A 
ENDROOT
BRANCH   4   7
ATOM      7  O   UNL d   1       5.995   1.138  -1.488  0.00  0.00    -0.526 OA
ATOM      8  H5  UNL d   1       6.604   0.380  -1.499  0.00  0.00     0.418 HD
ENDBRANCH   4   7
TORSDOF 1
ENDMDL
