MODEL 1
REMARK minimizedAffinity -4.12244081
REMARK minimizedRMSD -1
REMARK  2 active torsions:
REMARK  status: ('A' for Active; 'I' for Inactive)
REMARK    1  A    between atoms: C2'_3  and  C1'_4 
REMARK    2  A    between atoms: C1'_4  and  C1_5 
ROOT
ATOM      1  C1  I4B d   1       0.665  -0.659  -1.190  0.00  0.00    -0.075 A 
ATOM      2  C2  I4B d   1       1.052  -1.913  -0.789  0.00  0.00     0.003 A 
ATOM      3  C3  I4B d   1       2.071  -2.602  -1.490  0.00  0.00     0.002 A 
ATOM      4  C4  I4B d   1       2.636  -2.025  -2.609  0.00  0.00    -0.004 A 
ATOM      5  C5  I4B d   1       2.258  -0.744  -3.001  0.00  0.00     0.002 A 
ATOM      6  C6  I4B d   1       1.275  -0.051  -2.280  0.00  0.00     0.003 A 
ENDROOT
BRANCH   1   7
ATOM      7  C1' I4B d   1      -0.437   0.027  -0.446  0.00  0.00     0.060 C 
BRANCH   7   8
ATOM      8  C2' I4B d   1      -0.015   0.152   1.003  0.00  0.00    -0.013 C 
ATOM      9  C4' I4B d   1       1.029   1.223   1.177  0.00  0.00     0.013 C 
ATOM     10  C3' I4B d   1      -1.239   0.451   1.818  0.00  0.00     0.013 C 
ENDBRANCH   7   8
ENDBRANCH   1   7
TORSDOF 2
ENDMDL
