MODEL 1
REMARK minimizedAffinity -3.89018226
REMARK minimizedRMSD -1
REMARK  2 active torsions:
REMARK  status: ('A' for Active; 'I' for Inactive)
REMARK    1  A    between atoms: C2'_3  and  C1'_4 
REMARK    2  A    between atoms: C1'_4  and  C1_5 
ROOT
ATOM      1  C1  I4B d   1       1.056   0.194  -0.791  0.00  0.00    -0.075 A 
ATOM      2  C2  I4B d   1       0.854  -1.145  -1.011  0.00  0.00     0.003 A 
ATOM      3  C3  I4B d   1       1.484  -1.791  -2.102  0.00  0.00     0.002 A 
ATOM      4  C4  I4B d   1       2.261  -1.054  -2.972  0.00  0.00    -0.004 A 
ATOM      5  C5  I4B d   1       2.483   0.300  -2.735  0.00  0.00     0.002 A 
ATOM      6  C6  I4B d   1       1.887   0.926  -1.630  0.00  0.00     0.003 A 
ENDROOT
BRANCH   1   7
ATOM      7  C1' I4B d   1       0.350   0.851   0.352  0.00  0.00     0.060 C 
BRANCH   7   8
ATOM      8  C2' I4B d   1      -0.603  -0.160   0.956  0.00  0.00    -0.013 C 
ATOM      9  C4' I4B d   1       0.102  -1.050   1.946  0.00  0.00     0.013 C 
ATOM     10  C3' I4B d   1      -1.725   0.592   1.607  0.00  0.00     0.013 C 
ENDBRANCH   7   8
ENDBRANCH   1   7
TORSDOF 2
ENDMDL
