MODEL 1
REMARK minimizedAffinity -0.332322836
REMARK minimizedRMSD -1
REMARK  2 active torsions:
REMARK  status: ('A' for Active; 'I' for Inactive)
REMARK    1  A    between atoms: C2'_3  and  C1'_4 
REMARK    2  A    between atoms: C1'_4  and  C1_5 
ROOT
ATOM      1  C1  I4B d   1      -0.069   0.109   0.647  0.00  0.00    -0.075 A 
ATOM      2  C2  I4B d   1       0.819   1.150   0.543  0.00  0.00     0.003 A 
ATOM      3  C3  I4B d   1       1.646   1.269  -0.600  0.00  0.00     0.002 A 
ATOM      4  C4  I4B d   1       1.588   0.304  -1.585  0.00  0.00    -0.004 A 
ATOM      5  C5  I4B d   1       0.671  -0.738  -1.488  0.00  0.00     0.002 A 
ATOM      6  C6  I4B d   1      -0.172  -0.830  -0.371  0.00  0.00     0.003 A 
ENDROOT
BRANCH   1   7
ATOM      7  C1' I4B d   1      -0.904  -0.006   1.883  0.00  0.00     0.060 C 
BRANCH   7   8
ATOM      8  C2' I4B d   1      -1.877   1.156   1.898  0.00  0.00    -0.013 C 
ATOM      9  C4' I4B d   1      -3.235   0.736   1.401  0.00  0.00     0.013 C 
ATOM     10  C3' I4B d   1      -1.952   1.678   3.302  0.00  0.00     0.013 C 
ENDBRANCH   7   8
ENDBRANCH   1   7
TORSDOF 2
ENDMDL
