MODEL 1
REMARK minimizedAffinity -4.70090866
REMARK minimizedRMSD -1
REMARK  2 active torsions:
REMARK  status: ('A' for Active; 'I' for Inactive)
REMARK    1  A    between atoms: C2'_3  and  C1'_4 
REMARK    2  A    between atoms: C1'_4  and  C1_5 
ROOT
ATOM      1  C1  I4B d   1       0.504  -0.784  -1.614  0.00  0.00    -0.075 A 
ATOM      2  C2  I4B d   1       0.708  -2.073  -1.191  0.00  0.00     0.003 A 
ATOM      3  C3  I4B d   1       1.698  -2.877  -1.806  0.00  0.00     0.002 A 
ATOM      4  C4  I4B d   1       2.421  -2.371  -2.867  0.00  0.00    -0.004 A 
ATOM      5  C5  I4B d   1       2.229  -1.056  -3.279  0.00  0.00     0.002 A 
ATOM      6  C6  I4B d   1       1.273  -0.252  -2.641  0.00  0.00     0.003 A 
ENDROOT
BRANCH   1   7
ATOM      7  C1' I4B d   1      -0.573   0.026  -0.963  0.00  0.00     0.060 C 
BRANCH   7   8
ATOM      8  C2' I4B d   1      -0.177   0.254   0.482  0.00  0.00    -0.013 C 
ATOM      9  C4' I4B d   1       0.614   1.526   0.636  0.00  0.00     0.013 C 
ATOM     10  C3' I4B d   1      -1.431   0.293   1.304  0.00  0.00     0.013 C 
ENDBRANCH   7   8
ENDBRANCH   1   7
TORSDOF 2
ENDMDL
