MODEL 1
REMARK minimizedAffinity -5.4696455
REMARK minimizedRMSD -1
REMARK  2 active torsions:
REMARK  status: ('A' for Active; 'I' for Inactive)
REMARK    1  A    between atoms: C2'_3  and  C1'_4 
REMARK    2  A    between atoms: C1'_4  and  C1_5 
ROOT
ATOM      1  C1  I4B d   1       0.776  -0.191  -0.714  0.00  0.00    -0.075 A 
ATOM      2  C2  I4B d   1       1.588   0.600  -1.488  0.00  0.00     0.003 A 
ATOM      3  C3  I4B d   1       2.249   0.056  -2.616  0.00  0.00     0.002 A 
ATOM      4  C4  I4B d   1       2.110  -1.287  -2.902  0.00  0.00    -0.004 A 
ATOM      5  C5  I4B d   1       1.269  -2.083  -2.130  0.00  0.00     0.002 A 
ATOM      6  C6  I4B d   1       0.588  -1.529  -1.036  0.00  0.00     0.003 A 
ENDROOT
BRANCH   1   7
ATOM      7  C1' I4B d   1       0.120   0.409   0.489  0.00  0.00     0.060 C 
BRANCH   7   8
ATOM      8  C2' I4B d   1      -0.863  -0.605   1.038  0.00  0.00    -0.013 C 
ATOM      9  C4' I4B d   1      -0.231  -1.452   2.110  0.00  0.00     0.013 C 
ATOM     10  C3' I4B d   1      -2.050   0.142   1.568  0.00  0.00     0.013 C 
ENDBRANCH   7   8
ENDBRANCH   1   7
TORSDOF 2
ENDMDL
