MODEL 1
REMARK minimizedAffinity -1.01013434
REMARK minimizedRMSD -1
REMARK  2 active torsions:
REMARK  status: ('A' for Active; 'I' for Inactive)
REMARK    1  A    between atoms: C2'_3  and  C1'_4 
REMARK    2  A    between atoms: C1'_4  and  C1_5 
ROOT
ATOM      1  C1  I4B d   1       0.733  -0.763  -0.520  0.00  0.00    -0.075 A 
ATOM      2  C2  I4B d   1       1.726   0.183  -0.463  0.00  0.00     0.003 A 
ATOM      3  C3  I4B d   1       2.210   0.780  -1.652  0.00  0.00     0.002 A 
ATOM      4  C4  I4B d   1       1.712   0.368  -2.871  0.00  0.00    -0.004 A 
ATOM      5  C5  I4B d   1       0.689  -0.574  -2.926  0.00  0.00     0.002 A 
ATOM      6  C6  I4B d   1       0.188  -1.135  -1.742  0.00  0.00     0.003 A 
ENDROOT
BRANCH   1   7
ATOM      7  C1' I4B d   1       0.268  -1.398   0.752  0.00  0.00     0.060 C 
BRANCH   7   8
ATOM      8  C2' I4B d   1       0.139  -0.308   1.797  0.00  0.00    -0.013 C 
ATOM      9  C4' I4B d   1      -1.262   0.243   1.840  0.00  0.00     0.013 C 
ATOM     10  C3' I4B d   1       0.533  -0.888   3.123  0.00  0.00     0.013 C 
ENDBRANCH   7   8
ENDBRANCH   1   7
TORSDOF 2
ENDMDL
