MODEL 1
REMARK minimizedAffinity -0.698998392
REMARK minimizedRMSD -1
REMARK  2 active torsions:
REMARK  status: ('A' for Active; 'I' for Inactive)
REMARK    1  A    between atoms: C2'_3  and  C1'_4 
REMARK    2  A    between atoms: C1'_4  and  C1_5 
ROOT
ATOM      1  C1  I4B d   1      -0.156  -0.155  -0.074  0.00  0.00    -0.075 A 
ATOM      2  C2  I4B d   1      -0.249  -1.216  -0.940  0.00  0.00     0.003 A 
ATOM      3  C3  I4B d   1       0.504  -1.225  -2.139  0.00  0.00     0.002 A 
ATOM      4  C4  I4B d   1       1.294  -0.139  -2.454  0.00  0.00    -0.004 A 
ATOM      5  C5  I4B d   1       1.405   0.926  -1.564  0.00  0.00     0.002 A 
ATOM      6  C6  I4B d   1       0.685   0.912  -0.360  0.00  0.00     0.003 A 
ENDROOT
BRANCH   1   7
ATOM      7  C1' I4B d   1      -0.991  -0.163   1.167  0.00  0.00     0.060 C 
BRANCH   7   8
ATOM      8  C2' I4B d   1      -2.409   0.205   0.778  0.00  0.00    -0.013 C 
ATOM      9  C4' I4B d   1      -3.283  -1.018   0.686  0.00  0.00     0.013 C 
ATOM     10  C3' I4B d   1      -2.933   1.170   1.800  0.00  0.00     0.013 C 
ENDBRANCH   7   8
ENDBRANCH   1   7
TORSDOF 2
ENDMDL
