MODEL 1
REMARK minimizedAffinity -5.11600494
REMARK minimizedRMSD -1
REMARK  2 active torsions:
REMARK  status: ('A' for Active; 'I' for Inactive)
REMARK    1  A    between atoms: C2'_3  and  C1'_4 
REMARK    2  A    between atoms: C1'_4  and  C1_5 
ROOT
ATOM      1  C1  I4B d   1       0.863   0.055  -0.726  0.00  0.00    -0.075 A 
ATOM      2  C2  I4B d   1       1.713   0.789  -1.515  0.00  0.00     0.003 A 
ATOM      3  C3  I4B d   1       2.279   0.216  -2.679  0.00  0.00     0.002 A 
ATOM      4  C4  I4B d   1       2.009  -1.102  -2.987  0.00  0.00    -0.004 A 
ATOM      5  C5  I4B d   1       1.129  -1.838  -2.199  0.00  0.00     0.002 A 
ATOM      6  C6  I4B d   1       0.542  -1.252  -1.068  0.00  0.00     0.003 A 
ENDROOT
BRANCH   1   7
ATOM      7  C1' I4B d   1       0.309   0.682   0.514  0.00  0.00     0.060 C 
BRANCH   7   8
ATOM      8  C2' I4B d   1      -0.642  -0.309   1.153  0.00  0.00    -0.013 C 
ATOM      9  C4' I4B d   1       0.094  -1.276   2.042  0.00  0.00     0.013 C 
ATOM     10  C3' I4B d   1      -1.667   0.465   1.927  0.00  0.00     0.013 C 
ENDBRANCH   7   8
ENDBRANCH   1   7
TORSDOF 2
ENDMDL
