MODEL 1
REMARK minimizedAffinity -1.92538738
REMARK minimizedRMSD -1
REMARK  2 active torsions:
REMARK  status: ('A' for Active; 'I' for Inactive)
REMARK    1  A    between atoms: C2'_3  and  C1'_4 
REMARK    2  A    between atoms: C1'_4  and  C1_5 
ROOT
ATOM      1  C1  I4B d   1      -0.261   0.110   0.295  0.00  0.00    -0.075 A 
ATOM      2  C2  I4B d   1      -0.127  -1.098  -0.344  0.00  0.00     0.003 A 
ATOM      3  C3  I4B d   1       0.798  -1.243  -1.406  0.00  0.00     0.002 A 
ATOM      4  C4  I4B d   1       1.526  -0.150  -1.829  0.00  0.00    -0.004 A 
ATOM      5  C5  I4B d   1       1.405   1.068  -1.165  0.00  0.00     0.002 A 
ATOM      6  C6  I4B d   1       0.515   1.196  -0.089  0.00  0.00     0.003 A 
ENDROOT
BRANCH   1   7
ATOM      7  C1' I4B d   1      -1.270   0.237   1.391  0.00  0.00     0.060 C 
BRANCH   7   8
ATOM      8  C2' I4B d   1      -2.571   0.711   0.776  0.00  0.00    -0.013 C 
ATOM      9  C4' I4B d   1      -3.400  -0.450   0.292  0.00  0.00     0.013 C 
ATOM     10  C3' I4B d   1      -3.309   1.509   1.809  0.00  0.00     0.013 C 
ENDBRANCH   7   8
ENDBRANCH   1   7
TORSDOF 2
ENDMDL
