MODEL 1
REMARK minimizedAffinity -2.99297285
REMARK minimizedRMSD -1
REMARK  2 active torsions:
REMARK  status: ('A' for Active; 'I' for Inactive)
REMARK    1  A    between atoms: C2'_3  and  C1'_4 
REMARK    2  A    between atoms: C1'_4  and  C1_5 
ROOT
ATOM      1  C1  I4B d   1      -0.418  -0.157   0.433  0.00  0.00    -0.075 A 
ATOM      2  C2  I4B d   1       0.242   0.995   0.087  0.00  0.00     0.003 A 
ATOM      3  C3  I4B d   1       1.001   1.051  -1.107  0.00  0.00     0.002 A 
ATOM      4  C4  I4B d   1       1.114  -0.077  -1.893  0.00  0.00    -0.004 A 
ATOM      5  C5  I4B d   1       0.426  -1.238  -1.552  0.00  0.00     0.002 A 
ATOM      6  C6  I4B d   1      -0.355  -1.275  -0.388  0.00  0.00     0.003 A 
ENDROOT
BRANCH   1   7
ATOM      7  C1' I4B d   1      -1.184  -0.191   1.718  0.00  0.00     0.060 C 
BRANCH   7   8
ATOM      8  C2' I4B d   1      -2.483   0.561   1.507  0.00  0.00    -0.013 C 
ATOM      9  C4' I4B d   1      -3.556  -0.346   0.964  0.00  0.00     0.013 C 
ATOM     10  C3' I4B d   1      -2.892   1.157   2.820  0.00  0.00     0.013 C 
ENDBRANCH   7   8
ENDBRANCH   1   7
TORSDOF 2
ENDMDL
