MODEL 1
REMARK minimizedAffinity -3.46570301
REMARK minimizedRMSD -1
REMARK  2 active torsions:
REMARK  status: ('A' for Active; 'I' for Inactive)
REMARK    1  A    between atoms: C2'_3  and  C1'_4 
REMARK    2  A    between atoms: C1'_4  and  C1_5 
ROOT
ATOM      1  C1  I4B d   1      -0.375  -0.308   0.848  0.00  0.00    -0.075 A 
ATOM      2  C2  I4B d   1      -0.274  -1.647   0.562  0.00  0.00     0.003 A 
ATOM      3  C3  I4B d   1       0.368  -2.077  -0.624  0.00  0.00     0.002 A 
ATOM      4  C4  I4B d   1       0.847  -1.139  -1.515  0.00  0.00    -0.004 A 
ATOM      5  C5  I4B d   1       0.765   0.218  -1.213  0.00  0.00     0.002 A 
ATOM      6  C6  I4B d   1       0.162   0.636  -0.019  0.00  0.00     0.003 A 
ENDROOT
BRANCH   1   7
ATOM      7  C1' I4B d   1      -1.088   0.112   2.093  0.00  0.00     0.060 C 
BRANCH   7   8
ATOM      8  C2' I4B d   1      -2.321   0.892   1.684  0.00  0.00    -0.013 C 
ATOM      9  C4' I4B d   1      -3.496  -0.023   1.461  0.00  0.00     0.013 C 
ATOM     10  C3' I4B d   1      -2.613   1.895   2.761  0.00  0.00     0.013 C 
ENDBRANCH   7   8
ENDBRANCH   1   7
TORSDOF 2
ENDMDL
