MODEL 1
REMARK minimizedAffinity -1.2435739
REMARK minimizedRMSD -1
REMARK  2 active torsions:
REMARK  status: ('A' for Active; 'I' for Inactive)
REMARK    1  A    between atoms: C2'_3  and  C1'_4 
REMARK    2  A    between atoms: C1'_4  and  C1_5 
ROOT
ATOM      1  C1  I4B d   1      -1.571   0.157   0.902  0.00  0.00    -0.075 A 
ATOM      2  C2  I4B d   1      -1.983   1.093   1.817  0.00  0.00     0.003 A 
ATOM      3  C3  I4B d   1      -3.352   1.196   2.164  0.00  0.00     0.002 A 
ATOM      4  C4  I4B d   1      -4.275   0.382   1.539  0.00  0.00    -0.004 A 
ATOM      5  C5  I4B d   1      -3.852  -0.582   0.629  0.00  0.00     0.002 A 
ATOM      6  C6  I4B d   1      -2.490  -0.704   0.317  0.00  0.00     0.003 A 
ENDROOT
BRANCH   1   7
ATOM      7  C1' I4B d   1      -0.122   0.098   0.534  0.00  0.00     0.060 C 
BRANCH   7   8
ATOM      8  C2' I4B d   1       0.031  -0.895  -0.600  0.00  0.00    -0.013 C 
ATOM      9  C4' I4B d   1       0.926  -0.352  -1.683  0.00  0.00     0.013 C 
ATOM     10  C3' I4B d   1       0.583  -2.167  -0.030  0.00  0.00     0.013 C 
ENDBRANCH   7   8
ENDBRANCH   1   7
TORSDOF 2
ENDMDL
