MODEL 1
REMARK minimizedAffinity 9.66034126
REMARK minimizedRMSD -1
REMARK  1 active torsions:
REMARK  status: ('A' for Active; 'I' for Inactive)
REMARK    1  A    between atoms: C1_2  and  C2_3 
ROOT
ATOM      1  C2  UNL d   1      -5.353   3.717   0.134  0.00  0.00    -0.073 A 
ATOM      2  C3  UNL d   1      -6.000   3.623   1.372  0.00  0.00    -0.002 A 
ATOM      3  C4  UNL d   1      -5.396   2.947   2.433  0.00  0.00     0.004 A 
ATOM      4  C5  UNL d   1      -4.139   2.364   2.270  0.00  0.00    -0.004 A 
ATOM      5  C6  UNL d   1      -3.472   2.457   1.044  0.00  0.00    -0.075 A 
ATOM      6  C7  UNL d   1      -2.121   1.834   0.852  0.00  0.00     0.076 C 
ATOM      7  C8  UNL d   1      -4.086   3.135  -0.017  0.00  0.00     0.001 A 
ENDROOT
BRANCH   1   8
ATOM      8  C1  UNL d   1      -5.998   4.451  -1.012  0.00  0.00     0.053 C 
ATOM      9  C   UNL d   1      -6.000   5.956  -0.796  0.00  0.00     0.018 C 
ENDBRANCH   1   8
TORSDOF 1
ENDMDL
