MODEL 1
REMARK minimizedAffinity 12.7843494
REMARK minimizedRMSD -1
REMARK  1 active torsions:
REMARK  status: ('A' for Active; 'I' for Inactive)
REMARK    1  A    between atoms: C1_2  and  C2_3 
ROOT
ATOM      1  C2  UNL d   1       4.913  -5.282  -3.701  0.00  0.00    -0.073 A 
ATOM      2  C3  UNL d   1       3.827  -5.997  -3.184  0.00  0.00    -0.002 A 
ATOM      3  C4  UNL d   1       2.820  -5.338  -2.479  0.00  0.00     0.004 A 
ATOM      4  C5  UNL d   1       2.884  -3.957  -2.289  0.00  0.00    -0.004 A 
ATOM      5  C6  UNL d   1       3.955  -3.223  -2.808  0.00  0.00    -0.075 A 
ATOM      6  C7  UNL d   1       4.041  -1.738  -2.611  0.00  0.00     0.076 C 
ATOM      7  C8  UNL d   1       4.964  -3.893  -3.513  0.00  0.00     0.001 A 
ENDROOT
BRANCH   1   8
ATOM      8  C1  UNL d   1       5.999  -5.989  -4.470  0.00  0.00     0.053 C 
ATOM      9  C   UNL d   1       5.742  -5.971  -5.968  0.00  0.00     0.018 C 
ENDBRANCH   1   8
TORSDOF 1
ENDMDL
