MODEL 1
REMARK minimizedAffinity 7.49204874
REMARK minimizedRMSD -1
REMARK  1 active torsions:
REMARK  status: ('A' for Active; 'I' for Inactive)
REMARK    1  A    between atoms: C1_2  and  C2_3 
ROOT
ATOM      1  C2  UNL d   1       3.445   5.674  -2.435  0.00  0.00    -0.073 A 
ATOM      2  C3  UNL d   1       4.595   5.782  -1.644  0.00  0.00    -0.002 A 
ATOM      3  C4  UNL d   1       5.847   5.937  -2.240  0.00  0.00     0.004 A 
ATOM      4  C5  UNL d   1       5.963   5.992  -3.629  0.00  0.00    -0.004 A 
ATOM      5  C6  UNL d   1       4.824   5.897  -4.435  0.00  0.00    -0.075 A 
ATOM      6  C7  UNL d   1       4.931   5.952  -5.931  0.00  0.00     0.076 C 
ATOM      7  C8  UNL d   1       3.570   5.739  -3.830  0.00  0.00     0.001 A 
ENDROOT
BRANCH   1   8
ATOM      8  C1  UNL d   1       2.090   5.513  -1.796  0.00  0.00     0.053 C 
ATOM      9  C   UNL d   1       2.127   4.561  -0.612  0.00  0.00     0.018 C 
ENDBRANCH   1   8
TORSDOF 1
ENDMDL
