MODEL 1
REMARK minimizedAffinity 9.40853596
REMARK minimizedRMSD -1
REMARK  1 active torsions:
REMARK  status: ('A' for Active; 'I' for Inactive)
REMARK    1  A    between atoms: C1_2  and  C2_3 
ROOT
ATOM      1  C2  UNL d   1      -5.254   2.503   0.278  0.00  0.00    -0.073 A 
ATOM      2  C3  UNL d   1      -5.950   2.773   1.462  0.00  0.00    -0.002 A 
ATOM      3  C4  UNL d   1      -5.255   3.059   2.638  0.00  0.00     0.004 A 
ATOM      4  C5  UNL d   1      -3.861   3.085   2.641  0.00  0.00    -0.004 A 
ATOM      5  C6  UNL d   1      -3.148   2.830   1.465  0.00  0.00    -0.075 A 
ATOM      6  C7  UNL d   1      -1.647   2.851   1.452  0.00  0.00     0.076 C 
ATOM      7  C8  UNL d   1      -3.852   2.541   0.289  0.00  0.00     0.001 A 
ENDROOT
BRANCH   1   8
ATOM      8  C1  UNL d   1      -6.000   2.201  -0.996  0.00  0.00     0.053 C 
ATOM      9  C   UNL d   1      -6.000   3.383  -1.951  0.00  0.00     0.018 C 
ENDBRANCH   1   8
TORSDOF 1
ENDMDL
