MODEL 1
REMARK minimizedAffinity -2.91314793
REMARK minimizedRMSD -1
REMARK  0 active torsions:
REMARK  status: ('A' for Active; 'I' for Inactive)
ROOT
ATOM      1  C   UNL d   1      -1.089   2.431   2.261  0.00  0.00     0.023 A 
ATOM      2  C1  UNL d   1      -0.233   1.433   2.730  0.00  0.00     0.003 A 
ATOM      3  C2  UNL d   1       0.212   0.431   1.865  0.00  0.00     0.048 A 
ATOM      4  C3  UNL d   1      -0.202   0.432   0.534  0.00  0.00     0.023 A 
ATOM      5  C4  UNL d   1      -1.057   1.429   0.060  0.00  0.00     0.048 A 
ATOM      6  C5  UNL d   1      -1.500   2.428   0.928  0.00  0.00     0.003 A 
ATOM      7  I   UNL d   1       0.459  -1.059  -0.755  0.00  0.00    -0.146 I 
ENDROOT
TORSDOF 0
ENDMDL
