MODEL 1
REMARK minimizedAffinity 1.0846467
REMARK minimizedRMSD -1
REMARK  0 active torsions:
REMARK  status: ('A' for Active; 'I' for Inactive)
ROOT
ATOM      1  C   UNL d   1      -1.146   2.494   1.551  0.00  0.00     0.023 A 
ATOM      2  C1  UNL d   1      -0.119   1.848   2.240  0.00  0.00     0.003 A 
ATOM      3  C2  UNL d   1       0.428   0.668   1.734  0.00  0.00     0.048 A 
ATOM      4  C3  UNL d   1      -0.056   0.139   0.537  0.00  0.00     0.023 A 
ATOM      5  C4  UNL d   1      -1.083   0.782  -0.156  0.00  0.00     0.048 A 
ATOM      6  C5  UNL d   1      -1.627   1.962   0.355  0.00  0.00     0.003 A 
ATOM      7  I   UNL d   1       0.757  -1.618  -0.219  0.00  0.00    -0.146 I 
ENDROOT
TORSDOF 0
ENDMDL
