MODEL 1
REMARK minimizedAffinity 3.66836905
REMARK minimizedRMSD -1
REMARK  0 active torsions:
REMARK  status: ('A' for Active; 'I' for Inactive)
ROOT
ATOM      1  C   UNL d   1      -0.176   2.034   1.509  0.00  0.00     0.023 A 
ATOM      2  C1  UNL d   1       0.257   0.933   2.247  0.00  0.00     0.003 A 
ATOM      3  C2  UNL d   1       0.398  -0.312   1.631  0.00  0.00     0.048 A 
ATOM      4  C3  UNL d   1       0.104  -0.449   0.274  0.00  0.00     0.023 A 
ATOM      5  C4  UNL d   1      -0.329   0.650  -0.469  0.00  0.00     0.048 A 
ATOM      6  C5  UNL d   1      -0.469   1.893   0.152  0.00  0.00     0.003 A 
ATOM      7  I   UNL d   1       0.313  -2.301  -0.646  0.00  0.00    -0.146 I 
ENDROOT
TORSDOF 0
ENDMDL
