MODEL 1
REMARK minimizedAffinity -2.47129917
REMARK minimizedRMSD -1
REMARK  0 active torsions:
REMARK  status: ('A' for Active; 'I' for Inactive)
ROOT
ATOM      1  C   UNL d   1      -0.061   0.603   1.615  0.00  0.00     0.023 A 
ATOM      2  C1  UNL d   1      -0.438  -0.551   2.303  0.00  0.00     0.003 A 
ATOM      3  C2  UNL d   1      -0.535  -1.768   1.627  0.00  0.00     0.048 A 
ATOM      4  C3  UNL d   1      -0.253  -1.826   0.262  0.00  0.00     0.023 A 
ATOM      5  C4  UNL d   1       0.126  -0.674  -0.430  0.00  0.00     0.048 A 
ATOM      6  C5  UNL d   1       0.220   0.541   0.250  0.00  0.00     0.003 A 
ATOM      7  I   UNL d   1      -0.396  -3.637  -0.747  0.00  0.00    -0.146 I 
ENDROOT
TORSDOF 0
ENDMDL
