MODEL 1
REMARK minimizedAffinity 7.67938137
REMARK minimizedRMSD -1
REMARK  0 active torsions:
REMARK  status: ('A' for Active; 'I' for Inactive)
ROOT
ATOM      1  C   UNL d   1       0.746  -1.147   1.886  0.00  0.00     0.023 A 
ATOM      2  C1  UNL d   1       0.373  -0.368   2.980  0.00  0.00     0.003 A 
ATOM      3  C2  UNL d   1       0.317   1.023   2.862  0.00  0.00     0.048 A 
ATOM      4  C3  UNL d   1       0.634   1.627   1.646  0.00  0.00     0.023 A 
ATOM      5  C4  UNL d   1       1.007   0.850   0.547  0.00  0.00     0.048 A 
ATOM      6  C5  UNL d   1       1.063  -0.539   0.671  0.00  0.00     0.003 A 
ATOM      7  I   UNL d   1       0.550   3.696   1.467  0.00  0.00    -0.146 I 
ENDROOT
TORSDOF 0
ENDMDL
