MODEL 1
REMARK minimizedAffinity 3.88327956
REMARK minimizedRMSD -1
REMARK  0 active torsions:
REMARK  status: ('A' for Active; 'I' for Inactive)
ROOT
ATOM      1  C   UNL d   1      -2.124   0.485  -1.842  0.00  0.00     0.023 A 
ATOM      2  C1  UNL d   1      -0.815   0.124  -2.161  0.00  0.00     0.003 A 
ATOM      3  C2  UNL d   1      -0.484  -1.222  -2.336  0.00  0.00     0.048 A 
ATOM      4  C3  UNL d   1      -1.468  -2.200  -2.192  0.00  0.00     0.023 A 
ATOM      5  C4  UNL d   1      -2.779  -1.843  -1.875  0.00  0.00     0.048 A 
ATOM      6  C5  UNL d   1      -3.105  -0.496  -1.700  0.00  0.00     0.003 A 
ATOM      7  I   UNL d   1      -0.977  -4.203  -2.453  0.00  0.00    -0.146 I 
ENDROOT
TORSDOF 0
ENDMDL
