MODEL 1
REMARK minimizedAffinity 0.871068776
REMARK minimizedRMSD -1
REMARK  0 active torsions:
REMARK  status: ('A' for Active; 'I' for Inactive)
ROOT
ATOM      1  C   UNL d   1       0.119   1.753   0.709  0.00  0.00     0.023 A 
ATOM      2  C1  UNL d   1       0.483   0.417   0.538  0.00  0.00     0.003 A 
ATOM      3  C2  UNL d   1       0.645  -0.412   1.650  0.00  0.00     0.048 A 
ATOM      4  C3  UNL d   1       0.439   0.101   2.930  0.00  0.00     0.023 A 
ATOM      5  C4  UNL d   1       0.073   1.436   3.106  0.00  0.00     0.048 A 
ATOM      6  C5  UNL d   1      -0.086   2.262   1.992  0.00  0.00     0.003 A 
ATOM      7  I   UNL d   1       0.678  -1.132   4.587  0.00  0.00    -0.146 I 
ENDROOT
TORSDOF 0
ENDMDL
