MODEL 1
REMARK minimizedAffinity 3.38133979
REMARK minimizedRMSD -1
REMARK  0 active torsions:
REMARK  status: ('A' for Active; 'I' for Inactive)
ROOT
ATOM      1  C   UNL d   1       1.877   0.579  -5.753  0.00  0.00     0.077 C 
ATOM      2  C1  UNL d   1       0.455   0.377  -5.320  0.00  0.00    -0.074 A 
ATOM      3  C2  UNL d   1      -0.384  -0.511  -5.999  0.00  0.00    -0.005 A 
ATOM      4  C3  UNL d   1      -1.701  -0.696  -5.579  0.00  0.00     0.006 A 
ATOM      5  C4  UNL d   1      -2.191   0.004  -4.476  0.00  0.00    -0.005 A 
ATOM      6  C5  UNL d   1      -1.367   0.896  -3.783  0.00  0.00    -0.074 A 
ATOM      7  C6  UNL d   1      -1.875   1.650  -2.590  0.00  0.00     0.077 C 
ATOM      8  C7  UNL d   1      -0.043   1.071  -4.208  0.00  0.00    -0.001 A 
ENDROOT
TORSDOF 0
ENDMDL
