MODEL 1
REMARK minimizedAffinity 1.81618142
REMARK minimizedRMSD -1
REMARK  0 active torsions:
REMARK  status: ('A' for Active; 'I' for Inactive)
ROOT
ATOM      1  C   UNL d   1       2.802  -5.999  -2.981  0.00  0.00     0.077 C 
ATOM      2  C1  UNL d   1       1.445  -5.419  -3.249  0.00  0.00    -0.074 A 
ATOM      3  C2  UNL d   1       0.838  -4.556  -2.331  0.00  0.00    -0.005 A 
ATOM      4  C3  UNL d   1      -0.420  -4.016  -2.598  0.00  0.00     0.006 A 
ATOM      5  C4  UNL d   1      -1.083  -4.332  -3.784  0.00  0.00    -0.005 A 
ATOM      6  C5  UNL d   1      -0.491  -5.193  -4.715  0.00  0.00    -0.074 A 
ATOM      7  C6  UNL d   1      -1.186  -5.536  -5.999  0.00  0.00     0.077 C 
ATOM      8  C7  UNL d   1       0.776  -5.726  -4.442  0.00  0.00    -0.001 A 
ENDROOT
TORSDOF 0
ENDMDL
