MODEL 1
REMARK minimizedAffinity 3.31695056
REMARK minimizedRMSD -1
REMARK  0 active torsions:
REMARK  status: ('A' for Active; 'I' for Inactive)
ROOT
ATOM      1  C   UNL d   1      -2.357  -2.320   2.313  0.00  0.00     0.077 C 
ATOM      2  C1  UNL d   1      -1.041  -1.695   2.666  0.00  0.00    -0.074 A 
ATOM      3  C2  UNL d   1      -0.735  -0.390   2.267  0.00  0.00    -0.005 A 
ATOM      4  C3  UNL d   1       0.490   0.181   2.610  0.00  0.00     0.006 A 
ATOM      5  C4  UNL d   1       1.420  -0.545   3.355  0.00  0.00    -0.005 A 
ATOM      6  C5  UNL d   1       1.132  -1.851   3.764  0.00  0.00    -0.074 A 
ATOM      7  C6  UNL d   1       2.116  -2.642   4.573  0.00  0.00     0.077 C 
ATOM      8  C7  UNL d   1      -0.104  -2.416   3.421  0.00  0.00    -0.001 A 
ENDROOT
TORSDOF 0
ENDMDL
