MODEL 1
REMARK minimizedAffinity 5.39620876
REMARK minimizedRMSD -1
REMARK  0 active torsions:
REMARK  status: ('A' for Active; 'I' for Inactive)
ROOT
ATOM      1  C   UNL d   1       1.497  -3.614  -2.801  0.00  0.00     0.077 C 
ATOM      2  C1  UNL d   1       1.617  -2.626  -3.922  0.00  0.00    -0.074 A 
ATOM      3  C2  UNL d   1       0.501  -2.266  -4.686  0.00  0.00    -0.005 A 
ATOM      4  C3  UNL d   1       0.626  -1.338  -5.719  0.00  0.00     0.006 A 
ATOM      5  C4  UNL d   1       1.866  -0.761  -6.000  0.00  0.00    -0.005 A 
ATOM      6  C5  UNL d   1       2.992  -1.108  -5.247  0.00  0.00    -0.074 A 
ATOM      7  C6  UNL d   1       4.329  -0.490  -5.528  0.00  0.00     0.077 C 
ATOM      8  C7  UNL d   1       2.857  -2.036  -4.205  0.00  0.00    -0.001 A 
ENDROOT
TORSDOF 0
ENDMDL
