MODEL 1
REMARK minimizedAffinity 7.32276535
REMARK minimizedRMSD -1
REMARK  0 active torsions:
REMARK  status: ('A' for Active; 'I' for Inactive)
ROOT
ATOM      1  C   UNL d   1       2.285   4.116   0.472  0.00  0.00     0.077 C 
ATOM      2  C1  UNL d   1       1.087   4.539  -0.326  0.00  0.00    -0.074 A 
ATOM      3  C2  UNL d   1       0.289   5.609   0.089  0.00  0.00    -0.005 A 
ATOM      4  C3  UNL d   1      -0.816   5.997  -0.669  0.00  0.00     0.006 A 
ATOM      5  C4  UNL d   1      -1.134   5.319  -1.846  0.00  0.00    -0.005 A 
ATOM      6  C5  UNL d   1      -0.346   4.246  -2.277  0.00  0.00    -0.074 A 
ATOM      7  C6  UNL d   1      -0.668   3.513  -3.545  0.00  0.00     0.077 C 
ATOM      8  C7  UNL d   1       0.767   3.867  -1.514  0.00  0.00    -0.001 A 
ENDROOT
TORSDOF 0
ENDMDL
