MODEL 1
REMARK minimizedAffinity -2.64831901
REMARK minimizedRMSD -1
REMARK  0 active torsions:
REMARK  status: ('A' for Active; 'I' for Inactive)
ROOT
ATOM      1  C   UNL d   1      -2.633  -1.983  -1.689  0.00  0.00     0.077 C 
ATOM      2  C1  UNL d   1      -1.287  -2.044  -2.349  0.00  0.00    -0.074 A 
ATOM      3  C2  UNL d   1      -0.687  -0.892  -2.866  0.00  0.00    -0.005 A 
ATOM      4  C3  UNL d   1       0.569  -0.963  -3.468  0.00  0.00     0.006 A 
ATOM      5  C4  UNL d   1       1.237  -2.185  -3.559  0.00  0.00    -0.005 A 
ATOM      6  C5  UNL d   1       0.652  -3.348  -3.047  0.00  0.00    -0.074 A 
ATOM      7  C6  UNL d   1       1.360  -4.668  -3.128  0.00  0.00     0.077 C 
ATOM      8  C7  UNL d   1      -0.607  -3.267  -2.437  0.00  0.00    -0.001 A 
ENDROOT
TORSDOF 0
ENDMDL
