MODEL 1
REMARK minimizedAffinity -3.78822279
REMARK minimizedRMSD -1
REMARK  0 active torsions:
REMARK  status: ('A' for Active; 'I' for Inactive)
ROOT
ATOM      1  C   UNL d   1       2.316  -2.559  -1.844  0.00  0.00     0.077 C 
ATOM      2  C1  UNL d   1       1.132  -1.783  -2.340  0.00  0.00    -0.074 A 
ATOM      3  C2  UNL d   1       1.248  -0.911  -3.427  0.00  0.00    -0.005 A 
ATOM      4  C3  UNL d   1       0.136  -0.204  -3.884  0.00  0.00     0.006 A 
ATOM      5  C4  UNL d   1      -1.102  -0.361  -3.259  0.00  0.00    -0.005 A 
ATOM      6  C5  UNL d   1      -1.238  -1.230  -2.171  0.00  0.00    -0.074 A 
ATOM      7  C6  UNL d   1      -2.563  -1.418  -1.495  0.00  0.00     0.077 C 
ATOM      8  C7  UNL d   1      -0.117  -1.942  -1.723  0.00  0.00    -0.001 A 
ENDROOT
TORSDOF 0
ENDMDL
