MODEL 1
REMARK minimizedAffinity 0.443879902
REMARK minimizedRMSD -1
REMARK  0 active torsions:
REMARK  status: ('A' for Active; 'I' for Inactive)
ROOT
ATOM      1  C   UNL d   1       4.127  -4.021  -5.670  0.00  0.00     0.077 C 
ATOM      2  C1  UNL d   1       4.784  -2.838  -5.024  0.00  0.00    -0.074 A 
ATOM      3  C2  UNL d   1       5.401  -1.849  -5.795  0.00  0.00    -0.005 A 
ATOM      4  C3  UNL d   1       6.000  -0.749  -5.181  0.00  0.00     0.006 A 
ATOM      5  C4  UNL d   1       5.987  -0.628  -3.791  0.00  0.00    -0.005 A 
ATOM      6  C5  UNL d   1       5.374  -1.607  -3.003  0.00  0.00    -0.074 A 
ATOM      7  C6  UNL d   1       5.342  -1.487  -1.508  0.00  0.00     0.077 C 
ATOM      8  C7  UNL d   1       4.768  -2.705  -3.628  0.00  0.00    -0.001 A 
ENDROOT
TORSDOF 0
ENDMDL
