MODEL 1
REMARK minimizedAffinity 2.01778722
REMARK minimizedRMSD -1
REMARK  0 active torsions:
REMARK  status: ('A' for Active; 'I' for Inactive)
ROOT
ATOM      1  C   UNL d   1       2.299  -2.242  -2.125  0.00  0.00     0.077 C 
ATOM      2  C1  UNL d   1       1.250  -3.308  -2.236  0.00  0.00    -0.074 A 
ATOM      3  C2  UNL d   1       1.524  -4.523  -2.873  0.00  0.00    -0.005 A 
ATOM      4  C3  UNL d   1       0.541  -5.509  -2.960  0.00  0.00     0.006 A 
ATOM      5  C4  UNL d   1      -0.723  -5.290  -2.412  0.00  0.00    -0.005 A 
ATOM      6  C5  UNL d   1      -1.016  -4.082  -1.771  0.00  0.00    -0.074 A 
ATOM      7  C6  UNL d   1      -2.367  -3.835  -1.168  0.00  0.00     0.077 C 
ATOM      8  C7  UNL d   1      -0.021  -3.099  -1.681  0.00  0.00    -0.001 A 
ENDROOT
TORSDOF 0
ENDMDL
