MODEL 1
REMARK minimizedAffinity -5.00407887
REMARK minimizedRMSD -1
REMARK  0 active torsions:
REMARK  status: ('A' for Active; 'I' for Inactive)
ROOT
ATOM      1  C   UNL d   1       1.863  -6.000  -4.657  0.00  0.00     0.077 C 
ATOM      2  C1  UNL d   1       1.053  -5.009  -3.876  0.00  0.00    -0.074 A 
ATOM      3  C2  UNL d   1       0.676  -5.271  -2.555  0.00  0.00    -0.005 A 
ATOM      4  C3  UNL d   1      -0.070  -4.336  -1.837  0.00  0.00     0.006 A 
ATOM      5  C4  UNL d   1      -0.446  -3.131  -2.432  0.00  0.00    -0.005 A 
ATOM      6  C5  UNL d   1      -0.077  -2.851  -3.752  0.00  0.00    -0.074 A 
ATOM      7  C6  UNL d   1      -0.465  -1.557  -4.404  0.00  0.00     0.077 C 
ATOM      8  C7  UNL d   1       0.678  -3.793  -4.464  0.00  0.00    -0.001 A 
ENDROOT
TORSDOF 0
ENDMDL
