MODEL 1
REMARK minimizedAffinity 9.27090931
REMARK minimizedRMSD -1
REMARK  2 active torsions:
REMARK  status: ('A' for Active; 'I' for Inactive)
REMARK    1  A    between atoms: C1_2  and  C2_3 
REMARK    2  A    between atoms: C2_3  and  C3_4 
ROOT
ATOM      1  C3  UNL d   1       0.119  -0.365   3.223  0.00  0.00    -0.075 A 
ATOM      2  C4  UNL d   1       0.035  -1.603   2.570  0.00  0.00     0.002 A 
ATOM      3  C5  UNL d   1      -1.131  -1.974   1.901  0.00  0.00     0.002 A 
ATOM      4  C6  UNL d   1      -2.230  -1.118   1.884  0.00  0.00    -0.004 A 
ATOM      5  C7  UNL d   1      -2.164   0.108   2.543  0.00  0.00     0.002 A 
ATOM      6  C8  UNL d   1      -0.996   0.483   3.210  0.00  0.00     0.002 A 
ENDROOT
BRANCH   1   7
ATOM      7  C2  UNL d   1       1.389   0.055   3.924  0.00  0.00     0.056 C 
BRANCH   7   8
ATOM      8  C1  UNL d   1       2.667  -0.488   3.277  0.00  0.00     0.007 C 
ATOM      9  C   UNL d   1       3.438  -1.443   4.179  0.00  0.00     0.009 C 
ENDBRANCH   7   8
ENDBRANCH   1   7
TORSDOF 2
ENDMDL
