MODEL 1
REMARK minimizedAffinity 6.67863464
REMARK minimizedRMSD -1
REMARK  2 active torsions:
REMARK  status: ('A' for Active; 'I' for Inactive)
REMARK    1  A    between atoms: C1_2  and  C2_3 
REMARK    2  A    between atoms: C2_3  and  C3_4 
ROOT
ATOM      1  C3  UNL d   1      -1.224  -0.105   3.002  0.00  0.00    -0.075 A 
ATOM      2  C4  UNL d   1       0.027  -0.096   3.635  0.00  0.00     0.002 A 
ATOM      3  C5  UNL d   1       1.032  -0.975   3.230  0.00  0.00     0.002 A 
ATOM      4  C6  UNL d   1       0.796  -1.879   2.197  0.00  0.00    -0.004 A 
ATOM      5  C7  UNL d   1      -0.449  -1.908   1.572  0.00  0.00     0.002 A 
ATOM      6  C8  UNL d   1      -1.455  -1.027   1.972  0.00  0.00     0.002 A 
ENDROOT
BRANCH   1   7
ATOM      7  C2  UNL d   1      -2.306   0.864   3.416  0.00  0.00     0.056 C 
BRANCH   7   8
ATOM      8  C1  UNL d   1      -3.461   0.974   2.415  0.00  0.00     0.007 C 
ATOM      9  C   UNL d   1      -4.780   0.441   2.958  0.00  0.00     0.009 C 
ENDBRANCH   7   8
ENDBRANCH   1   7
TORSDOF 2
ENDMDL
