MODEL 1
REMARK minimizedAffinity 2.8671248
REMARK minimizedRMSD -1
REMARK  2 active torsions:
REMARK  status: ('A' for Active; 'I' for Inactive)
REMARK    1  A    between atoms: C1_2  and  C2_3 
REMARK    2  A    between atoms: C2_3  and  C3_4 
ROOT
ATOM      1  C3  UNL d   1      -2.934   3.969  -5.353  0.00  0.00    -0.075 A 
ATOM      2  C4  UNL d   1      -3.139   2.740  -5.997  0.00  0.00     0.002 A 
ATOM      3  C5  UNL d   1      -2.722   1.550  -5.400  0.00  0.00     0.002 A 
ATOM      4  C6  UNL d   1      -2.089   1.574  -4.159  0.00  0.00    -0.004 A 
ATOM      5  C7  UNL d   1      -1.866   2.791  -3.519  0.00  0.00     0.002 A 
ATOM      6  C8  UNL d   1      -2.285   3.983  -4.112  0.00  0.00     0.002 A 
ENDROOT
BRANCH   1   7
ATOM      7  C2  UNL d   1      -3.409   5.258  -5.981  0.00  0.00     0.056 C 
BRANCH   7   8
ATOM      8  C1  UNL d   1      -4.874   5.594  -5.683  0.00  0.00     0.007 C 
ATOM      9  C   UNL d   1      -5.828   4.447  -5.989  0.00  0.00     0.009 C 
ENDBRANCH   7   8
ENDBRANCH   1   7
TORSDOF 2
ENDMDL
