MODEL 1
REMARK minimizedAffinity 5.68929148
REMARK minimizedRMSD -1
REMARK  2 active torsions:
REMARK  status: ('A' for Active; 'I' for Inactive)
REMARK    1  A    between atoms: C1_2  and  C2_3 
REMARK    2  A    between atoms: C2_3  and  C3_4 
ROOT
ATOM      1  C3  UNL d   1       1.857  -0.241  -0.534  0.00  0.00    -0.075 A 
ATOM      2  C4  UNL d   1       0.808  -0.149  -1.459  0.00  0.00     0.002 A 
ATOM      3  C5  UNL d   1       0.473   1.079  -2.031  0.00  0.00     0.002 A 
ATOM      4  C6  UNL d   1       1.175   2.230  -1.678  0.00  0.00    -0.004 A 
ATOM      5  C7  UNL d   1       2.208   2.153  -0.747  0.00  0.00     0.002 A 
ATOM      6  C8  UNL d   1       2.548   0.925  -0.176  0.00  0.00     0.002 A 
ENDROOT
BRANCH   1   7
ATOM      7  C2  UNL d   1       2.244  -1.572   0.066  0.00  0.00     0.056 C 
BRANCH   7   8
ATOM      8  C1  UNL d   1       2.252  -1.586   1.599  0.00  0.00     0.007 C 
ATOM      9  C   UNL d   1       0.863  -1.734   2.205  0.00  0.00     0.009 C 
ENDBRANCH   7   8
ENDBRANCH   1   7
TORSDOF 2
ENDMDL
