MODEL 1
REMARK minimizedAffinity 8.49810696
REMARK minimizedRMSD -1
REMARK  2 active torsions:
REMARK  status: ('A' for Active; 'I' for Inactive)
REMARK    1  A    between atoms: C1_2  and  C2_3 
REMARK    2  A    between atoms: C2_3  and  C3_4 
ROOT
ATOM      1  C3  UNL d   1       1.264  -1.792   1.567  0.00  0.00    -0.075 A 
ATOM      2  C4  UNL d   1       0.752  -3.086   1.742  0.00  0.00     0.002 A 
ATOM      3  C5  UNL d   1      -0.323  -3.313   2.601  0.00  0.00     0.002 A 
ATOM      4  C6  UNL d   1      -0.894  -2.254   3.303  0.00  0.00    -0.004 A 
ATOM      5  C7  UNL d   1      -0.383  -0.967   3.150  0.00  0.00     0.002 A 
ATOM      6  C8  UNL d   1       0.690  -0.736   2.288  0.00  0.00     0.002 A 
ENDROOT
BRANCH   1   7
ATOM      7  C2  UNL d   1       2.408  -1.535   0.617  0.00  0.00     0.056 C 
BRANCH   7   8
ATOM      8  C1  UNL d   1       1.969  -1.104  -0.786  0.00  0.00     0.007 C 
ATOM      9  C   UNL d   1       1.973   0.407  -0.979  0.00  0.00     0.009 C 
ENDBRANCH   7   8
ENDBRANCH   1   7
TORSDOF 2
ENDMDL
