MODEL 1
REMARK minimizedAffinity 4.69232178
REMARK minimizedRMSD -1
REMARK  2 active torsions:
REMARK  status: ('A' for Active; 'I' for Inactive)
REMARK    1  A    between atoms: C1_2  and  C2_3 
REMARK    2  A    between atoms: C2_3  and  C3_4 
ROOT
ATOM      1  C3  UNL d   1       0.210  -0.783   1.637  0.00  0.00    -0.075 A 
ATOM      2  C4  UNL d   1      -1.109  -1.256   1.589  0.00  0.00     0.002 A 
ATOM      3  C5  UNL d   1      -1.764  -1.404   0.366  0.00  0.00     0.002 A 
ATOM      4  C6  UNL d   1      -1.114  -1.072  -0.821  0.00  0.00    -0.004 A 
ATOM      5  C7  UNL d   1       0.191  -0.585  -0.783  0.00  0.00     0.002 A 
ATOM      6  C8  UNL d   1       0.851  -0.440   0.439  0.00  0.00     0.002 A 
ENDROOT
BRANCH   1   7
ATOM      7  C2  UNL d   1       0.935  -0.648   2.955  0.00  0.00     0.056 C 
BRANCH   7   8
ATOM      8  C1  UNL d   1       1.523  -1.962   3.480  0.00  0.00     0.007 C 
ATOM      9  C   UNL d   1       2.363  -2.700   2.446  0.00  0.00     0.009 C 
ENDBRANCH   7   8
ENDBRANCH   1   7
TORSDOF 2
ENDMDL
