MODEL 1
REMARK minimizedAffinity 3.17009521
REMARK minimizedRMSD -1
REMARK  2 active torsions:
REMARK  status: ('A' for Active; 'I' for Inactive)
REMARK    1  A    between atoms: C1_2  and  C2_3 
REMARK    2  A    between atoms: C2_3  and  C3_4 
ROOT
ATOM      1  C3  UNL d   1       0.681  -1.356   1.519  0.00  0.00    -0.075 A 
ATOM      2  C4  UNL d   1      -0.304  -0.534   0.953  0.00  0.00     0.002 A 
ATOM      3  C5  UNL d   1      -1.219   0.137   1.764  0.00  0.00     0.002 A 
ATOM      4  C6  UNL d   1      -1.168  -0.012   3.148  0.00  0.00    -0.004 A 
ATOM      5  C7  UNL d   1      -0.204  -0.839   3.721  0.00  0.00     0.002 A 
ATOM      6  C8  UNL d   1       0.716  -1.509   2.912  0.00  0.00     0.002 A 
ENDROOT
BRANCH   1   7
ATOM      7  C2  UNL d   1       1.693  -2.061   0.648  0.00  0.00     0.056 C 
BRANCH   7   8
ATOM      8  C1  UNL d   1       2.534  -1.119  -0.220  0.00  0.00     0.007 C 
ATOM      9  C   UNL d   1       1.852  -0.738  -1.527  0.00  0.00     0.009 C 
ENDBRANCH   7   8
ENDBRANCH   1   7
TORSDOF 2
ENDMDL
