MODEL 1
REMARK minimizedAffinity 3.54109216
REMARK minimizedRMSD -1
REMARK  2 active torsions:
REMARK  status: ('A' for Active; 'I' for Inactive)
REMARK    1  A    between atoms: C1_2  and  C2_3 
REMARK    2  A    between atoms: C2_3  and  C3_4 
ROOT
ATOM      1  C3  UNL d   1       1.955  -0.576  -0.184  0.00  0.00    -0.075 A 
ATOM      2  C4  UNL d   1       2.414   0.715   0.115  0.00  0.00     0.002 A 
ATOM      3  C5  UNL d   1       2.162   1.776  -0.755  0.00  0.00     0.002 A 
ATOM      4  C6  UNL d   1       1.459   1.558  -1.938  0.00  0.00    -0.004 A 
ATOM      5  C7  UNL d   1       1.013   0.277  -2.254  0.00  0.00     0.002 A 
ATOM      6  C8  UNL d   1       1.259  -0.786  -1.382  0.00  0.00     0.002 A 
ENDROOT
BRANCH   1   7
ATOM      7  C2  UNL d   1       2.198  -1.723   0.768  0.00  0.00     0.056 C 
BRANCH   7   8
ATOM      8  C1  UNL d   1       0.973  -2.111   1.603  0.00  0.00     0.007 C 
ATOM      9  C   UNL d   1       0.848  -1.312   2.893  0.00  0.00     0.009 C 
ENDBRANCH   7   8
ENDBRANCH   1   7
TORSDOF 2
ENDMDL
