MODEL 1
REMARK minimizedAffinity 0.484631598
REMARK minimizedRMSD -1
REMARK  2 active torsions:
REMARK  status: ('A' for Active; 'I' for Inactive)
REMARK    1  A    between atoms: C1_2  and  C2_3 
REMARK    2  A    between atoms: C2_3  and  C3_4 
ROOT
ATOM      1  C3  UNL d   1       2.222  -0.632  -0.241  0.00  0.00    -0.075 A 
ATOM      2  C4  UNL d   1       2.612   0.671   0.099  0.00  0.00     0.002 A 
ATOM      3  C5  UNL d   1       2.368   1.734  -0.772  0.00  0.00     0.002 A 
ATOM      4  C6  UNL d   1       1.742   1.506  -1.995  0.00  0.00    -0.004 A 
ATOM      5  C7  UNL d   1       1.365   0.213  -2.350  0.00  0.00     0.002 A 
ATOM      6  C8  UNL d   1       1.603  -0.851  -1.479  0.00  0.00     0.002 A 
ENDROOT
BRANCH   1   7
ATOM      7  C2  UNL d   1       2.456  -1.782   0.710  0.00  0.00     0.056 C 
BRANCH   7   8
ATOM      8  C1  UNL d   1       1.592  -1.732   1.974  0.00  0.00     0.007 C 
ATOM      9  C   UNL d   1       2.275  -1.035   3.142  0.00  0.00     0.009 C 
ENDBRANCH   7   8
ENDBRANCH   1   7
TORSDOF 2
ENDMDL
