MODEL 1
REMARK minimizedAffinity -0.200144172
REMARK minimizedRMSD -1
REMARK  0 active torsions:
REMARK  status: ('A' for Active; 'I' for Inactive)
ROOT
ATOM      1  C2' OXE d   1       2.002  -0.097   2.285  0.00  0.00     0.078 C 
ATOM      2  C1' OXE d   1       3.172  -1.161  -0.034  0.00  0.00     0.078 C 
ATOM      3  C1  OXE d   1       1.769  -0.617  -0.140  0.00  0.00    -0.078 A 
ATOM      4  C2  OXE d   1       1.187  -0.141   1.011  0.00  0.00    -0.078 A 
ATOM      5  C3  OXE d   1      -0.085   0.421   0.958  0.00  0.00     0.003 A 
ATOM      6  C4  OXE d   1      -0.836   0.367  -0.222  0.00  0.00    -0.002 A 
ATOM      7  C5  OXE d   1      -0.277  -0.149  -1.396  0.00  0.00    -0.002 A 
ATOM      8  C6  OXE d   1       1.037  -0.606  -1.382  0.00  0.00     0.003 A 
ENDROOT
TORSDOF 0
ENDMDL
