MODEL 1
REMARK minimizedAffinity -4.79498339
REMARK minimizedRMSD -1
REMARK  0 active torsions:
REMARK  status: ('A' for Active; 'I' for Inactive)
ROOT
ATOM      1  C2' OXE d   1      -0.181   0.019  -1.074  0.00  0.00     0.078 C 
ATOM      2  C1' OXE d   1       2.160  -1.365  -0.376  0.00  0.00     0.078 C 
ATOM      3  C1  OXE d   1       1.213  -0.980   0.733  0.00  0.00    -0.078 A 
ATOM      4  C2  OXE d   1       0.094  -0.262   0.388  0.00  0.00    -0.078 A 
ATOM      5  C3  OXE d   1      -0.840   0.071   1.365  0.00  0.00     0.003 A 
ATOM      6  C4  OXE d   1      -0.574  -0.183   2.716  0.00  0.00    -0.002 A 
ATOM      7  C5  OXE d   1       0.580  -0.878   3.094  0.00  0.00    -0.002 A 
ATOM      8  C6  OXE d   1       1.461  -1.320   2.113  0.00  0.00     0.003 A 
ENDROOT
TORSDOF 0
ENDMDL
