MODEL 1
REMARK minimizedAffinity -3.04306173
REMARK minimizedRMSD -1
REMARK  0 active torsions:
REMARK  status: ('A' for Active; 'I' for Inactive)
ROOT
ATOM      1  C2' OXE d   1      -0.933   0.682  -1.453  0.00  0.00     0.078 C 
ATOM      2  C1' OXE d   1       1.197  -1.144  -1.526  0.00  0.00     0.078 C 
ATOM      3  C1  OXE d   1       0.506  -0.921  -0.204  0.00  0.00    -0.078 A 
ATOM      4  C2  OXE d   1      -0.505   0.008  -0.167  0.00  0.00    -0.078 A 
ATOM      5  C3  OXE d   1      -1.211   0.212   1.014  0.00  0.00     0.003 A 
ATOM      6  C4  OXE d   1      -0.802  -0.407   2.201  0.00  0.00    -0.002 A 
ATOM      7  C5  OXE d   1       0.251  -1.328   2.195  0.00  0.00    -0.002 A 
ATOM      8  C6  OXE d   1       0.887  -1.628   0.995  0.00  0.00     0.003 A 
ENDROOT
TORSDOF 0
ENDMDL
