MODEL 1
REMARK minimizedAffinity -2.88135982
REMARK minimizedRMSD -1
REMARK  0 active torsions:
REMARK  status: ('A' for Active; 'I' for Inactive)
ROOT
ATOM      1  C2' OXE d   1      -0.263   0.024  -1.216  0.00  0.00     0.078 C 
ATOM      2  C1' OXE d   1       2.189  -1.235  -0.682  0.00  0.00     0.078 C 
ATOM      3  C1  OXE d   1       1.405  -0.696   0.489  0.00  0.00    -0.078 A 
ATOM      4  C2  OXE d   1       0.229  -0.039   0.214  0.00  0.00    -0.078 A 
ATOM      5  C3  OXE d   1      -0.559   0.430   1.261  0.00  0.00     0.003 A 
ATOM      6  C4  OXE d   1      -0.092   0.375   2.579  0.00  0.00    -0.002 A 
ATOM      7  C5  OXE d   1       1.122  -0.253   2.877  0.00  0.00    -0.002 A 
ATOM      8  C6  OXE d   1       1.860  -0.830   1.850  0.00  0.00     0.003 A 
ENDROOT
TORSDOF 0
ENDMDL
