MODEL 1
REMARK minimizedAffinity -4.51515388
REMARK minimizedRMSD -1
REMARK  0 active torsions:
REMARK  status: ('A' for Active; 'I' for Inactive)
ROOT
ATOM      1  C2' OXE d   1       0.610  -0.591   2.742  0.00  0.00     0.078 C 
ATOM      2  C1' OXE d   1      -1.883   0.337   1.845  0.00  0.00     0.078 C 
ATOM      3  C1  OXE d   1      -0.834   0.025   0.807  0.00  0.00    -0.078 A 
ATOM      4  C2  OXE d   1       0.399  -0.384   1.257  0.00  0.00    -0.078 A 
ATOM      5  C3  OXE d   1       1.385  -0.737   0.341  0.00  0.00     0.003 A 
ATOM      6  C4  OXE d   1       1.185  -0.533  -1.030  0.00  0.00    -0.002 A 
ATOM      7  C5  OXE d   1      -0.050  -0.079  -1.507  0.00  0.00    -0.002 A 
ATOM      8  C6  OXE d   1      -1.081   0.163  -0.606  0.00  0.00     0.003 A 
ENDROOT
TORSDOF 0
ENDMDL
