MODEL 1
REMARK minimizedAffinity -4.28265762
REMARK minimizedRMSD -1
REMARK  0 active torsions:
REMARK  status: ('A' for Active; 'I' for Inactive)
ROOT
ATOM      1  C2' OXE d   1       1.165  -0.525   2.858  0.00  0.00     0.078 C 
ATOM      2  C1' OXE d   1      -1.588  -0.025   2.634  0.00  0.00     0.078 C 
ATOM      3  C1  OXE d   1      -0.775  -0.070   1.364  0.00  0.00    -0.078 A 
ATOM      4  C2  OXE d   1       0.579  -0.269   1.487  0.00  0.00    -0.078 A 
ATOM      5  C3  OXE d   1       1.366  -0.374   0.344  0.00  0.00     0.003 A 
ATOM      6  C4  OXE d   1       0.818  -0.125  -0.920  0.00  0.00    -0.002 A 
ATOM      7  C5  OXE d   1      -0.552   0.119  -1.064  0.00  0.00    -0.002 A 
ATOM      8  C6  OXE d   1      -1.368   0.108   0.062  0.00  0.00     0.003 A 
ENDROOT
TORSDOF 0
ENDMDL
