MODEL 1
REMARK minimizedAffinity -3.03278685
REMARK minimizedRMSD -1
REMARK  0 active torsions:
REMARK  status: ('A' for Active; 'I' for Inactive)
ROOT
ATOM      1  C2' OXE d   1      -2.312   0.076   1.323  0.00  0.00     0.078 C 
ATOM      2  C1' OXE d   1      -0.905   0.418  -1.082  0.00  0.00     0.078 C 
ATOM      3  C1  OXE d   1      -0.132  -0.051   0.125  0.00  0.00    -0.078 A 
ATOM      4  C2  OXE d   1      -0.819  -0.171   1.309  0.00  0.00    -0.078 A 
ATOM      5  C3  OXE d   1      -0.166  -0.652   2.440  0.00  0.00     0.003 A 
ATOM      6  C4  OXE d   1       1.217  -0.868   2.421  0.00  0.00    -0.002 A 
ATOM      7  C5  OXE d   1       1.944  -0.714   1.236  0.00  0.00    -0.002 A 
ATOM      8  C6  OXE d   1       1.278  -0.348   0.071  0.00  0.00     0.003 A 
ENDROOT
TORSDOF 0
ENDMDL
