MODEL 1
REMARK minimizedAffinity 2.60630465
REMARK minimizedRMSD -1
REMARK  0 active torsions:
REMARK  status: ('A' for Active; 'I' for Inactive)
ROOT
ATOM      1  C2' OXE d   1      -2.401   2.473  -3.106  0.00  0.00     0.078 C 
ATOM      2  C1' OXE d   1      -3.542   2.114  -5.646  0.00  0.00     0.078 C 
ATOM      3  C1  OXE d   1      -3.694   0.998  -4.642  0.00  0.00    -0.078 A 
ATOM      4  C2  OXE d   1      -3.092   1.163  -3.418  0.00  0.00    -0.078 A 
ATOM      5  C3  OXE d   1      -3.248   0.188  -2.437  0.00  0.00     0.003 A 
ATOM      6  C4  OXE d   1      -3.880  -1.024  -2.736  0.00  0.00    -0.002 A 
ATOM      7  C5  OXE d   1      -4.465  -1.229  -3.990  0.00  0.00    -0.002 A 
ATOM      8  C6  OXE d   1      -4.418  -0.213  -4.938  0.00  0.00     0.003 A 
ENDROOT
TORSDOF 0
ENDMDL
