MODEL 1
REMARK minimizedAffinity 2.87109709
REMARK minimizedRMSD -1
REMARK  0 active torsions:
REMARK  status: ('A' for Active; 'I' for Inactive)
ROOT
ATOM      1  C2' OXE d   1       1.627  -0.251   3.093  0.00  0.00     0.078 C 
ATOM      2  C1' OXE d   1       1.681  -1.381   0.523  0.00  0.00     0.078 C 
ATOM      3  C1  OXE d   1       0.339  -0.991   1.092  0.00  0.00    -0.078 A 
ATOM      4  C2  OXE d   1       0.318  -0.481   2.368  0.00  0.00    -0.078 A 
ATOM      5  C3  OXE d   1      -0.887  -0.054   2.920  0.00  0.00     0.003 A 
ATOM      6  C4  OXE d   1      -2.094  -0.280   2.248  0.00  0.00    -0.002 A 
ATOM      7  C5  OXE d   1      -2.098  -0.834   0.963  0.00  0.00    -0.002 A 
ATOM      8  C6  OXE d   1      -0.889  -1.155   0.355  0.00  0.00     0.003 A 
ENDROOT
TORSDOF 0
ENDMDL
