MODEL 1
REMARK minimizedAffinity -2.46966457
REMARK minimizedRMSD -1
REMARK  0 active torsions:
REMARK  status: ('A' for Active; 'I' for Inactive)
ROOT
ATOM      1  C2' OXE d   1       0.365  -0.821  -1.952  0.00  0.00     0.078 C 
ATOM      2  C1' OXE d   1      -0.410   1.859  -1.634  0.00  0.00     0.078 C 
ATOM      3  C1  OXE d   1      -0.129   1.056  -0.389  0.00  0.00    -0.078 A 
ATOM      4  C2  OXE d   1       0.204  -0.268  -0.552  0.00  0.00    -0.078 A 
ATOM      5  C3  OXE d   1       0.526  -1.040   0.561  0.00  0.00     0.003 A 
ATOM      6  C4  OXE d   1       0.365  -0.523   1.852  0.00  0.00    -0.002 A 
ATOM      7  C5  OXE d   1      -0.012   0.811   2.042  0.00  0.00    -0.002 A 
ATOM      8  C6  OXE d   1      -0.221   1.624   0.933  0.00  0.00     0.003 A 
ENDROOT
TORSDOF 0
ENDMDL
