MODEL 1
REMARK minimizedAffinity -2.42083883
REMARK minimizedRMSD -1
REMARK  0 active torsions:
REMARK  status: ('A' for Active; 'I' for Inactive)
ROOT
ATOM      1  C1  DEN d   1      -0.506  -0.639   1.261  0.00  0.00     0.130 A 
ATOM      2  C2  DEN d   1      -0.186  -1.503   0.128  0.00  0.00    -0.031 A 
ATOM      3  C3  DEN d   1       0.690  -0.747  -0.789  0.00  0.00     0.027 A 
ATOM      4  C4  DEN d   1       1.580   1.663  -0.565  0.00  0.00     0.027 A 
ATOM      5  C5  DEN d   1       1.570   2.795   0.220  0.00  0.00    -0.003 A 
ATOM      6  C6  DEN d   1       0.846   2.873   1.380  0.00  0.00     0.001 A 
ATOM      7  C7  DEN d   1       0.137   1.783   1.812  0.00  0.00     0.017 A 
ATOM      8  C8  DEN d   1       0.136   0.641   1.022  0.00  0.00    -0.094 A 
ATOM      9  C9  DEN d   1       0.885   0.578  -0.141  0.00  0.00    -0.072 A 
ENDROOT
TORSDOF 0
ENDMDL
