MODEL 1
REMARK minimizedAffinity -1.69616795
REMARK minimizedRMSD -1
REMARK  0 active torsions:
REMARK  status: ('A' for Active; 'I' for Inactive)
ROOT
ATOM      1  C1  DEN d   1       0.671   1.909   2.655  0.00  0.00     0.130 A 
ATOM      2  C2  DEN d   1       1.251   2.982   1.851  0.00  0.00    -0.031 A 
ATOM      3  C3  DEN d   1       1.089   2.625   0.428  0.00  0.00     0.027 A 
ATOM      4  C4  DEN d   1      -0.001   0.528  -0.605  0.00  0.00     0.027 A 
ATOM      5  C5  DEN d   1      -0.623  -0.668  -0.324  0.00  0.00    -0.003 A 
ATOM      6  C6  DEN d   1      -0.826  -1.101   0.960  0.00  0.00     0.001 A 
ATOM      7  C7  DEN d   1      -0.442  -0.311   2.011  0.00  0.00     0.017 A 
ATOM      8  C8  DEN d   1       0.193   0.893   1.735  0.00  0.00    -0.094 A 
ATOM      9  C9  DEN d   1       0.377   1.319   0.431  0.00  0.00    -0.072 A 
ENDROOT
TORSDOF 0
ENDMDL
