MODEL 1
REMARK minimizedAffinity -3.6907928
REMARK minimizedRMSD -1
REMARK  0 active torsions:
REMARK  status: ('A' for Active; 'I' for Inactive)
ROOT
ATOM      1  C1  DEN d   1      -1.070  -0.434  -2.877  0.00  0.00     0.130 A 
ATOM      2  C2  DEN d   1      -1.654  -1.771  -2.812  0.00  0.00    -0.031 A 
ATOM      3  C3  DEN d   1      -1.523  -2.260  -1.425  0.00  0.00     0.027 A 
ATOM      4  C4  DEN d   1      -0.482  -1.082   0.619  0.00  0.00     0.027 A 
ATOM      5  C5  DEN d   1       0.154   0.060   1.053  0.00  0.00    -0.003 A 
ATOM      6  C6  DEN d   1       0.454   1.095   0.208  0.00  0.00     0.001 A 
ATOM      7  C7  DEN d   1       0.078   1.028  -1.108  0.00  0.00     0.017 A 
ATOM      8  C8  DEN d   1      -0.557  -0.124  -1.555  0.00  0.00    -0.094 A 
ATOM      9  C9  DEN d   1      -0.862  -1.154  -0.681  0.00  0.00    -0.072 A 
ENDROOT
TORSDOF 0
ENDMDL
