MODEL 1
REMARK minimizedAffinity -5.19089127
REMARK minimizedRMSD -1
REMARK  0 active torsions:
REMARK  status: ('A' for Active; 'I' for Inactive)
ROOT
ATOM      1  C1  DEN d   1      -1.425  -0.033   1.253  0.00  0.00     0.130 A 
ATOM      2  C2  DEN d   1      -1.337  -1.166   0.336  0.00  0.00    -0.031 A 
ATOM      3  C3  DEN d   1      -0.071  -1.049  -0.414  0.00  0.00     0.027 A 
ATOM      4  C4  DEN d   1       1.756   0.764  -0.242  0.00  0.00     0.027 A 
ATOM      5  C5  DEN d   1       2.121   1.933   0.388  0.00  0.00    -0.003 A 
ATOM      6  C6  DEN d   1       1.320   2.542   1.318  0.00  0.00     0.001 A 
ATOM      7  C7  DEN d   1       0.134   1.960   1.678  0.00  0.00     0.017 A 
ATOM      8  C8  DEN d   1      -0.244   0.785   1.042  0.00  0.00    -0.094 A 
ATOM      9  C9  DEN d   1       0.584   0.178   0.113  0.00  0.00    -0.072 A 
ENDROOT
TORSDOF 0
ENDMDL
