MODEL 1
REMARK minimizedAffinity -2.9931941
REMARK minimizedRMSD -1
REMARK  0 active torsions:
REMARK  status: ('A' for Active; 'I' for Inactive)
ROOT
ATOM      1  C1  DEN d   1       1.021  -1.188   0.718  0.00  0.00     0.130 A 
ATOM      2  C2  DEN d   1      -0.047  -1.832  -0.042  0.00  0.00    -0.031 A 
ATOM      3  C3  DEN d   1      -0.676  -0.808  -0.901  0.00  0.00     0.027 A 
ATOM      4  C4  DEN d   1      -0.100   1.695  -1.131  0.00  0.00     0.027 A 
ATOM      5  C5  DEN d   1       0.724   2.703  -0.681  0.00  0.00    -0.003 A 
ATOM      6  C6  DEN d   1       1.674   2.494   0.283  0.00  0.00     0.001 A 
ATOM      7  C7  DEN d   1       1.855   1.237   0.797  0.00  0.00     0.017 A 
ATOM      8  C8  DEN d   1       1.023   0.217   0.354  0.00  0.00    -0.094 A 
ATOM      9  C9  DEN d   1       0.077   0.446  -0.631  0.00  0.00    -0.072 A 
ENDROOT
TORSDOF 0
ENDMDL
