MODEL 1
REMARK minimizedAffinity -4.68665791
REMARK minimizedRMSD -1
REMARK  0 active torsions:
REMARK  status: ('A' for Active; 'I' for Inactive)
ROOT
ATOM      1  C1  DEN d   1       2.768   1.788   0.073  0.00  0.00     0.130 A 
ATOM      2  C2  DEN d   1       1.581   2.551  -0.304  0.00  0.00    -0.031 A 
ATOM      3  C3  DEN d   1       0.727   2.687   0.893  0.00  0.00     0.027 A 
ATOM      4  C4  DEN d   1       1.127   1.801   3.282  0.00  0.00     0.027 A 
ATOM      5  C5  DEN d   1       1.989   1.086   4.084  0.00  0.00    -0.003 A 
ATOM      6  C6  DEN d   1       3.145   0.530   3.601  0.00  0.00     0.001 A 
ATOM      7  C7  DEN d   1       3.493   0.719   2.290  0.00  0.00     0.017 A 
ATOM      8  C8  DEN d   1       2.625   1.433   1.473  0.00  0.00    -0.094 A 
ATOM      9  C9  DEN d   1       1.468   1.997   1.983  0.00  0.00    -0.072 A 
ENDROOT
TORSDOF 0
ENDMDL
