MODEL 1
REMARK minimizedAffinity -5.98422003
REMARK minimizedRMSD -1
REMARK  0 active torsions:
REMARK  status: ('A' for Active; 'I' for Inactive)
ROOT
ATOM      1  C1  DEN d   1       1.221   2.699   0.810  0.00  0.00     0.130 A 
ATOM      2  C2  DEN d   1       0.008   2.720   1.623  0.00  0.00    -0.031 A 
ATOM      3  C3  DEN d   1      -0.631   1.392   1.525  0.00  0.00     0.027 A 
ATOM      4  C4  DEN d   1       0.140  -0.685   0.205  0.00  0.00     0.027 A 
ATOM      5  C5  DEN d   1       1.105  -1.181  -0.643  0.00  0.00    -0.003 A 
ATOM      6  C6  DEN d   1       2.148  -0.415  -1.090  0.00  0.00     0.001 A 
ATOM      7  C7  DEN d   1       2.277   0.877  -0.654  0.00  0.00     0.017 A 
ATOM      8  C8  DEN d   1       1.305   1.387   0.196  0.00  0.00    -0.094 A 
ATOM      9  C9  DEN d   1       0.264   0.593   0.646  0.00  0.00    -0.072 A 
ENDROOT
TORSDOF 0
ENDMDL
