MODEL 1
REMARK minimizedAffinity -0.445198208
REMARK minimizedRMSD -1
REMARK  0 active torsions:
REMARK  status: ('A' for Active; 'I' for Inactive)
ROOT
ATOM      1  C1  DEN d   1      -0.965   1.097   2.208  0.00  0.00     0.130 A 
ATOM      2  C2  DEN d   1      -1.315  -0.306   2.009  0.00  0.00    -0.031 A 
ATOM      3  C3  DEN d   1      -0.402  -0.865   0.991  0.00  0.00     0.027 A 
ATOM      4  C4  DEN d   1       1.512   0.301  -0.286  0.00  0.00     0.027 A 
ATOM      5  C5  DEN d   1       2.180   1.492  -0.464  0.00  0.00    -0.003 A 
ATOM      6  C6  DEN d   1       1.828   2.634   0.205  0.00  0.00     0.001 A 
ATOM      7  C7  DEN d   1       0.808   2.599   1.118  0.00  0.00     0.017 A 
ATOM      8  C8  DEN d   1       0.124   1.403   1.298  0.00  0.00    -0.094 A 
ATOM      9  C9  DEN d   1       0.503   0.256   0.621  0.00  0.00    -0.072 A 
ENDROOT
TORSDOF 0
ENDMDL
