MODEL 1
REMARK minimizedAffinity -1.47864807
REMARK minimizedRMSD -1
REMARK  0 active torsions:
REMARK  status: ('A' for Active; 'I' for Inactive)
ROOT
ATOM      1  C1  DEN d   1       1.187   2.332  -0.144  0.00  0.00     0.130 A 
ATOM      2  C2  DEN d   1       2.503   2.451  -0.766  0.00  0.00    -0.031 A 
ATOM      3  C3  DEN d   1       2.972   1.093  -1.104  0.00  0.00     0.027 A 
ATOM      4  C4  DEN d   1       1.794  -1.171  -0.731  0.00  0.00     0.027 A 
ATOM      5  C5  DEN d   1       0.666  -1.780  -0.228  0.00  0.00    -0.003 A 
ATOM      6  C6  DEN d   1      -0.344  -1.069   0.365  0.00  0.00     0.001 A 
ATOM      7  C7  DEN d   1      -0.267   0.297   0.428  0.00  0.00     0.017 A 
ATOM      8  C8  DEN d   1       0.871   0.917  -0.071  0.00  0.00    -0.094 A 
ATOM      9  C9  DEN d   1       1.876   0.182  -0.677  0.00  0.00    -0.072 A 
ENDROOT
TORSDOF 0
ENDMDL
