MODEL 1
REMARK minimizedAffinity -3.00854301
REMARK minimizedRMSD -1
REMARK  0 active torsions:
REMARK  status: ('A' for Active; 'I' for Inactive)
ROOT
ATOM      1  C1  DEN d   1       0.365   2.814  -0.164  0.00  0.00     0.130 A 
ATOM      2  C2  DEN d   1       0.806   3.105   1.197  0.00  0.00    -0.031 A 
ATOM      3  C3  DEN d   1       0.771   1.846   1.968  0.00  0.00     0.027 A 
ATOM      4  C4  DEN d   1       0.085  -0.515   1.188  0.00  0.00     0.027 A 
ATOM      5  C5  DEN d   1      -0.374  -1.256   0.122  0.00  0.00    -0.003 A 
ATOM      6  C6  DEN d   1      -0.650  -0.690  -1.095  0.00  0.00     0.001 A 
ATOM      7  C7  DEN d   1      -0.425   0.647  -1.289  0.00  0.00     0.017 A 
ATOM      8  C8  DEN d   1       0.031   1.402  -0.216  0.00  0.00    -0.094 A 
ATOM      9  C9  DEN d   1       0.316   0.809   1.003  0.00  0.00    -0.072 A 
ENDROOT
TORSDOF 0
ENDMDL
