MODEL 1
REMARK minimizedAffinity -2.1854527
REMARK minimizedRMSD -1
REMARK  0 active torsions:
REMARK  status: ('A' for Active; 'I' for Inactive)
ROOT
ATOM      1  C1  DEN d   1      -0.203   0.686  -0.931  0.00  0.00     0.130 A 
ATOM      2  C2  DEN d   1       0.228  -0.010   0.278  0.00  0.00    -0.031 A 
ATOM      3  C3  DEN d   1      -0.347  -1.370   0.251  0.00  0.00     0.027 A 
ATOM      4  C4  DEN d   1      -1.849  -2.461  -1.539  0.00  0.00     0.027 A 
ATOM      5  C5  DEN d   1      -2.492  -2.259  -2.740  0.00  0.00    -0.003 A 
ATOM      6  C6  DEN d   1      -2.445  -1.060  -3.401  0.00  0.00     0.001 A 
ATOM      7  C7  DEN d   1      -1.703  -0.030  -2.886  0.00  0.00     0.017 A 
ATOM      8  C8  DEN d   1      -1.059  -0.224  -1.671  0.00  0.00    -0.094 A 
ATOM      9  C9  DEN d   1      -1.108  -1.448  -1.025  0.00  0.00    -0.072 A 
ENDROOT
TORSDOF 0
ENDMDL
