MODEL 1
REMARK minimizedAffinity -6.66982746
REMARK minimizedRMSD -1
REMARK  0 active torsions:
REMARK  status: ('A' for Active; 'I' for Inactive)
ROOT
ATOM      1  C1  DEN d   1       1.577   1.639  -0.116  0.00  0.00     0.130 A 
ATOM      2  C2  DEN d   1       1.193   2.673   0.841  0.00  0.00    -0.031 A 
ATOM      3  C3  DEN d   1       0.081   2.147   1.659  0.00  0.00     0.027 A 
ATOM      4  C4  DEN d   1      -1.073  -0.156   1.540  0.00  0.00     0.027 A 
ATOM      5  C5  DEN d   1      -1.101  -1.365   0.880  0.00  0.00    -0.003 A 
ATOM      6  C6  DEN d   1      -0.268  -1.642  -0.172  0.00  0.00     0.001 A 
ATOM      7  C7  DEN d   1       0.660  -0.715  -0.565  0.00  0.00     0.017 A 
ATOM      8  C8  DEN d   1       0.689   0.509   0.090  0.00  0.00    -0.094 A 
ATOM      9  C9  DEN d   1      -0.153   0.766   1.159  0.00  0.00    -0.072 A 
ENDROOT
TORSDOF 0
ENDMDL
