MODEL 1
REMARK minimizedAffinity -3.71707916
REMARK minimizedRMSD -1
REMARK  0 active torsions:
REMARK  status: ('A' for Active; 'I' for Inactive)
ROOT
ATOM      1  C1  DEN d   1       0.378  -1.464  -0.156  0.00  0.00     0.130 A 
ATOM      2  C2  DEN d   1      -0.687  -1.295  -1.142  0.00  0.00    -0.031 A 
ATOM      3  C3  DEN d   1      -1.055   0.135  -1.176  0.00  0.00     0.027 A 
ATOM      4  C4  DEN d   1      -0.082   2.093   0.191  0.00  0.00     0.027 A 
ATOM      5  C5  DEN d   1       0.832   2.440   1.162  0.00  0.00    -0.003 A 
ATOM      6  C6  DEN d   1       1.627   1.513   1.781  0.00  0.00     0.001 A 
ATOM      7  C7  DEN d   1       1.557   0.198   1.403  0.00  0.00     0.017 A 
ATOM      8  C8  DEN d   1       0.633  -0.161   0.430  0.00  0.00    -0.094 A 
ATOM      9  C9  DEN d   1      -0.154   0.794  -0.192  0.00  0.00    -0.072 A 
ENDROOT
TORSDOF 0
ENDMDL
