MODEL 1
REMARK minimizedAffinity -4.79741192
REMARK minimizedRMSD -1
REMARK  0 active torsions:
REMARK  status: ('A' for Active; 'I' for Inactive)
ROOT
ATOM      1  C1  DEN d   1       0.956  -0.699  -0.512  0.00  0.00     0.130 A 
ATOM      2  C2  DEN d   1       0.127  -1.427   0.445  0.00  0.00    -0.031 A 
ATOM      3  C3  DEN d   1      -0.165  -0.524   1.576  0.00  0.00     0.027 A 
ATOM      4  C4  DEN d   1       0.579   1.919   1.935  0.00  0.00     0.027 A 
ATOM      5  C5  DEN d   1       1.304   2.962   1.402  0.00  0.00    -0.003 A 
ATOM      6  C6  DEN d   1       1.986   2.848   0.219  0.00  0.00     0.001 A 
ATOM      7  C7  DEN d   1       1.920   1.678  -0.492  0.00  0.00     0.017 A 
ATOM      8  C8  DEN d   1       1.198   0.620   0.044  0.00  0.00    -0.094 A 
ATOM      9  C9  DEN d   1       0.505   0.760   1.234  0.00  0.00    -0.072 A 
ENDROOT
TORSDOF 0
ENDMDL
