MODEL 1
REMARK minimizedAffinity -5.66387653
REMARK minimizedRMSD -1
REMARK  0 active torsions:
REMARK  status: ('A' for Active; 'I' for Inactive)
ROOT
ATOM      1  C1  DEN d   1       1.569   1.599  -0.429  0.00  0.00     0.130 A 
ATOM      2  C2  DEN d   1       1.432   2.725   0.490  0.00  0.00    -0.031 A 
ATOM      3  C3  DEN d   1       0.362   2.401   1.455  0.00  0.00     0.027 A 
ATOM      4  C4  DEN d   1      -1.085   0.271   1.617  0.00  0.00     0.027 A 
ATOM      5  C5  DEN d   1      -1.342  -0.957   1.049  0.00  0.00    -0.003 A 
ATOM      6  C6  DEN d   1      -0.677  -1.401  -0.062  0.00  0.00     0.001 A 
ATOM      7  C7  DEN d   1       0.312  -0.630  -0.615  0.00  0.00     0.017 A 
ATOM      8  C8  DEN d   1       0.572   0.612  -0.052  0.00  0.00    -0.094 A 
ATOM      9  C9  DEN d   1      -0.103   1.038   1.079  0.00  0.00    -0.072 A 
ENDROOT
TORSDOF 0
ENDMDL
