MODEL 1
REMARK minimizedAffinity 0.445279449
REMARK minimizedRMSD -1
REMARK  0 active torsions:
REMARK  status: ('A' for Active; 'I' for Inactive)
ROOT
ATOM      1  C1  BNZ d   1       0.932  -3.646   0.044  0.00  0.00     0.000 A 
ATOM      2  C2  BNZ d   1      -0.324  -3.395   0.528  0.00  0.00     0.000 A 
ATOM      3  C3  BNZ d   1      -0.583  -2.263   1.248  0.00  0.00     0.000 A 
ATOM      4  C4  BNZ d   1       0.422  -1.404   1.518  0.00  0.00     0.000 A 
ATOM      5  C5  BNZ d   1       1.696  -1.648   1.045  0.00  0.00     0.000 A 
ATOM      6  C6  BNZ d   1       1.944  -2.769   0.287  0.00  0.00     0.000 A 
ENDROOT
TORSDOF 0
ENDMDL
