MODEL 1
REMARK minimizedAffinity 2.39462137
REMARK minimizedRMSD -1
REMARK  0 active torsions:
REMARK  status: ('A' for Active; 'I' for Inactive)
ROOT
ATOM      1  C1  BNZ d   1       1.231  -2.748  -0.232  0.00  0.00     0.000 A 
ATOM      2  C2  BNZ d   1      -0.092  -2.748   0.122  0.00  0.00     0.000 A 
ATOM      3  C3  BNZ d   1      -0.655  -1.660   0.728  0.00  0.00     0.000 A 
ATOM      4  C4  BNZ d   1       0.114  -0.590   1.015  0.00  0.00     0.000 A 
ATOM      5  C5  BNZ d   1       1.451  -0.577   0.673  0.00  0.00     0.000 A 
ATOM      6  C6  BNZ d   1       2.006  -1.659   0.028  0.00  0.00     0.000 A 
ENDROOT
TORSDOF 0
ENDMDL
