MODEL 1
REMARK minimizedAffinity -3.06721091
REMARK minimizedRMSD -1
REMARK  0 active torsions:
REMARK  status: ('A' for Active; 'I' for Inactive)
ROOT
ATOM      1  C1  BNZ d   1       1.718  -1.936   0.598  0.00  0.00     0.000 A 
ATOM      2  C2  BNZ d   1       0.971  -2.908  -0.014  0.00  0.00     0.000 A 
ATOM      3  C3  BNZ d   1      -0.345  -2.693  -0.316  0.00  0.00     0.000 A 
ATOM      4  C4  BNZ d   1      -0.922  -1.525   0.029  0.00  0.00     0.000 A 
ATOM      5  C5  BNZ d   1      -0.185  -0.539   0.655  0.00  0.00     0.000 A 
ATOM      6  C6  BNZ d   1       1.149  -0.743   0.922  0.00  0.00     0.000 A 
ENDROOT
TORSDOF 0
ENDMDL
