MODEL 1
REMARK minimizedAffinity -0.127800867
REMARK minimizedRMSD -1
REMARK  0 active torsions:
REMARK  status: ('A' for Active; 'I' for Inactive)
ROOT
ATOM      1  C1  BNZ d   1      -0.556  -1.062   0.772  0.00  0.00     0.000 A 
ATOM      2  C2  BNZ d   1      -0.184  -2.089  -0.055  0.00  0.00     0.000 A 
ATOM      3  C3  BNZ d   1       1.133  -2.416  -0.214  0.00  0.00     0.000 A 
ATOM      4  C4  BNZ d   1       2.078  -1.693   0.421  0.00  0.00     0.000 A 
ATOM      5  C5  BNZ d   1       1.719  -0.649   1.250  0.00  0.00     0.000 A 
ATOM      6  C6  BNZ d   1       0.390  -0.347   1.439  0.00  0.00     0.000 A 
ENDROOT
TORSDOF 0
ENDMDL
