MODEL 1
REMARK minimizedAffinity -1.1286236
REMARK minimizedRMSD -1
REMARK  0 active torsions:
REMARK  status: ('A' for Active; 'I' for Inactive)
ROOT
ATOM      1  C1  BNZ d   1       0.716  -2.898   0.166  0.00  0.00     0.000 A 
ATOM      2  C2  BNZ d   1      -0.609  -2.821   0.501  0.00  0.00     0.000 A 
ATOM      3  C3  BNZ d   1      -1.109  -1.714   1.129  0.00  0.00     0.000 A 
ATOM      4  C4  BNZ d   1      -0.277  -0.705   1.455  0.00  0.00     0.000 A 
ATOM      5  C5  BNZ d   1       1.064  -0.771   1.132  0.00  0.00     0.000 A 
ATOM      6  C6  BNZ d   1       1.556  -1.870   0.466  0.00  0.00     0.000 A 
ENDROOT
TORSDOF 0
ENDMDL
