MODEL 1
REMARK minimizedAffinity -3.75857306
REMARK minimizedRMSD -1
REMARK  0 active torsions:
REMARK  status: ('A' for Active; 'I' for Inactive)
ROOT
ATOM      1  C1  BNZ d   1       1.071  -2.265  -0.419  0.00  0.00     0.000 A 
ATOM      2  C2  BNZ d   1      -0.216  -2.489  -0.007  0.00  0.00     0.000 A 
ATOM      3  C3  BNZ d   1      -0.836  -1.626   0.853  0.00  0.00     0.000 A 
ATOM      4  C4  BNZ d   1      -0.156  -0.564   1.331  0.00  0.00     0.000 A 
ATOM      5  C5  BNZ d   1       1.145  -0.330   0.933  0.00  0.00     0.000 A 
ATOM      6  C6  BNZ d   1       1.753  -1.179   0.037  0.00  0.00     0.000 A 
ENDROOT
TORSDOF 0
ENDMDL
