MODEL 1
REMARK minimizedAffinity -4.38101912
REMARK minimizedRMSD -1
REMARK  0 active torsions:
REMARK  status: ('A' for Active; 'I' for Inactive)
ROOT
ATOM      1  C1  BNZ d   1       0.766  -2.709  -0.260  0.00  0.00     0.000 A 
ATOM      2  C2  BNZ d   1       1.549  -1.729   0.289  0.00  0.00     0.000 A 
ATOM      3  C3  BNZ d   1       0.987  -0.661   0.930  0.00  0.00     0.000 A 
ATOM      4  C4  BNZ d   1      -0.356  -0.554   0.987  0.00  0.00     0.000 A 
ATOM      5  C5  BNZ d   1      -1.159  -1.529   0.431  0.00  0.00     0.000 A 
ATOM      6  C6  BNZ d   1      -0.589  -2.623  -0.180  0.00  0.00     0.000 A 
ENDROOT
TORSDOF 0
ENDMDL
