MODEL 1
REMARK minimizedAffinity -0.824138224
REMARK minimizedRMSD -1
REMARK  0 active torsions:
REMARK  status: ('A' for Active; 'I' for Inactive)
ROOT
ATOM      1  C1  BNZ d   1       1.766  -1.609   1.090  0.00  0.00     0.000 A 
ATOM      2  C2  BNZ d   1       1.288  -0.387   1.482  0.00  0.00     0.000 A 
ATOM      3  C3  BNZ d   1      -0.028  -0.061   1.306  0.00  0.00     0.000 A 
ATOM      4  C4  BNZ d   1      -0.854  -0.940   0.703  0.00  0.00     0.000 A 
ATOM      5  C5  BNZ d   1      -0.385  -2.172   0.294  0.00  0.00     0.000 A 
ATOM      6  C6  BNZ d   1       0.931  -2.512   0.507  0.00  0.00     0.000 A 
ENDROOT
TORSDOF 0
ENDMDL
