MODEL 1
REMARK minimizedAffinity -0.6911093
REMARK minimizedRMSD -1
REMARK  0 active torsions:
REMARK  status: ('A' for Active; 'I' for Inactive)
ROOT
ATOM      1  C1  BNZ d   1      -0.359   0.495   2.156  0.00  0.00     0.000 A 
ATOM      2  C2  BNZ d   1       0.829  -0.179   2.061  0.00  0.00     0.000 A 
ATOM      3  C3  BNZ d   1       1.012  -1.143   1.109  0.00  0.00     0.000 A 
ATOM      4  C4  BNZ d   1      -0.005  -1.459   0.281  0.00  0.00     0.000 A 
ATOM      5  C5  BNZ d   1      -1.212  -0.795   0.371  0.00  0.00     0.000 A 
ATOM      6  C6  BNZ d   1      -1.379   0.202   1.305  0.00  0.00     0.000 A 
ENDROOT
TORSDOF 0
ENDMDL
