MODEL 1
REMARK minimizedAffinity -0.445325911
REMARK minimizedRMSD -1
REMARK  0 active torsions:
REMARK  status: ('A' for Active; 'I' for Inactive)
ROOT
ATOM      1  C1  BNZ d   1       1.333  -3.202  -0.315  0.00  0.00     0.000 A 
ATOM      2  C2  BNZ d   1       0.068  -3.178   0.210  0.00  0.00     0.000 A 
ATOM      3  C3  BNZ d   1      -0.343  -2.140   0.999  0.00  0.00     0.000 A 
ATOM      4  C4  BNZ d   1       0.522  -1.149   1.294  0.00  0.00     0.000 A 
ATOM      5  C5  BNZ d   1       1.804  -1.163   0.780  0.00  0.00     0.000 A 
ATOM      6  C6  BNZ d   1       2.201  -2.189  -0.046  0.00  0.00     0.000 A 
ENDROOT
TORSDOF 0
ENDMDL
