MODEL 1
REMARK minimizedAffinity 1.82068741
REMARK minimizedRMSD -1
REMARK  0 active torsions:
REMARK  status: ('A' for Active; 'I' for Inactive)
ROOT
ATOM      1  C1  BNZ d   1      -0.458  -0.792   0.958  0.00  0.00     0.000 A 
ATOM      2  C2  BNZ d   1      -0.121  -1.616  -0.082  0.00  0.00     0.000 A 
ATOM      3  C3  BNZ d   1       1.189  -1.853  -0.392  0.00  0.00     0.000 A 
ATOM      4  C4  BNZ d   1       2.159  -1.235   0.312  0.00  0.00     0.000 A 
ATOM      5  C5  BNZ d   1       1.835  -0.393   1.358  0.00  0.00     0.000 A 
ATOM      6  C6  BNZ d   1       0.516  -0.188   1.691  0.00  0.00     0.000 A 
ENDROOT
TORSDOF 0
ENDMDL
