MODEL 1
REMARK minimizedAffinity -2.63628983
REMARK minimizedRMSD -1
REMARK  0 active torsions:
REMARK  status: ('A' for Active; 'I' for Inactive)
ROOT
ATOM      1  C1  BNZ d   1       1.948  -1.784  -0.403  0.00  0.00     0.000 A 
ATOM      2  C2  BNZ d   1       1.409  -0.724   0.275  0.00  0.00     0.000 A 
ATOM      3  C3  BNZ d   1       0.270  -0.873   1.017  0.00  0.00     0.000 A 
ATOM      4  C4  BNZ d   1      -0.349  -2.071   1.047  0.00  0.00     0.000 A 
ATOM      5  C5  BNZ d   1       0.177  -3.147   0.361  0.00  0.00     0.000 A 
ATOM      6  C6  BNZ d   1       1.344  -3.003  -0.353  0.00  0.00     0.000 A 
ENDROOT
TORSDOF 0
ENDMDL
