MODEL 1
REMARK minimizedAffinity -1.99025202
REMARK minimizedRMSD -1
REMARK  0 active torsions:
REMARK  status: ('A' for Active; 'I' for Inactive)
ROOT
ATOM      1  C1  BNZ d   1       1.015  -2.291  -0.343  0.00  0.00     0.000 A 
ATOM      2  C2  BNZ d   1      -0.096  -2.721   0.332  0.00  0.00     0.000 A 
ATOM      3  C3  BNZ d   1      -0.656  -1.957   1.317  0.00  0.00     0.000 A 
ATOM      4  C4  BNZ d   1      -0.082  -0.784   1.654  0.00  0.00     0.000 A 
ATOM      5  C5  BNZ d   1       1.044  -0.341   0.990  0.00  0.00     0.000 A 
ATOM      6  C6  BNZ d   1       1.582  -1.094  -0.028  0.00  0.00     0.000 A 
ENDROOT
TORSDOF 0
ENDMDL
