MODEL 1
REMARK minimizedAffinity -0.734530389
REMARK minimizedRMSD -1
REMARK  0 active torsions:
REMARK  status: ('A' for Active; 'I' for Inactive)
ROOT
ATOM      1  C1  BNZ d   1      -0.144  -0.448   1.040  0.00  0.00     0.000 A 
ATOM      2  C2  BNZ d   1       0.998  -0.188   0.329  0.00  0.00     0.000 A 
ATOM      3  C3  BNZ d   1       1.600  -1.168  -0.411  0.00  0.00     0.000 A 
ATOM      4  C4  BNZ d   1       1.083  -2.413  -0.407  0.00  0.00     0.000 A 
ATOM      5  C5  BNZ d   1      -0.062  -2.693   0.312  0.00  0.00     0.000 A 
ATOM      6  C6  BNZ d   1      -0.687  -1.695   1.024  0.00  0.00     0.000 A 
ENDROOT
TORSDOF 0
ENDMDL
