MODEL 1
REMARK minimizedAffinity -1.71915054
REMARK minimizedRMSD -1
REMARK  0 active torsions:
REMARK  status: ('A' for Active; 'I' for Inactive)
ROOT
ATOM      1  C1  BNZ d   1      -5.999  -4.672   4.133  0.00  0.00     0.000 A 
ATOM      2  C2  BNZ d   1      -5.955  -4.876   2.780  0.00  0.00     0.000 A 
ATOM      3  C3  BNZ d   1      -5.361  -3.964   1.953  0.00  0.00     0.000 A 
ATOM      4  C4  BNZ d   1      -4.847  -2.832   2.475  0.00  0.00     0.000 A 
ATOM      5  C5  BNZ d   1      -4.892  -2.607   3.837  0.00  0.00     0.000 A 
ATOM      6  C6  BNZ d   1      -5.456  -3.545   4.670  0.00  0.00     0.000 A 
ENDROOT
TORSDOF 0
ENDMDL
