MODEL 1
REMARK minimizedAffinity 11.8493357
REMARK minimizedRMSD -1
REMARK  1 active torsions:
REMARK  status: ('A' for Active; 'I' for Inactive)
REMARK    1  A    between atoms: C1_2  and  C2_3 
ROOT
ATOM      1  C2  UNL d   1      -0.011  -0.784   3.973  0.00  0.00    -0.073 A 
ATOM      2  C3  UNL d   1      -0.843  -1.787   3.462  0.00  0.00    -0.002 A 
ATOM      3  C4  UNL d   1      -0.513  -2.439   2.273  0.00  0.00     0.004 A 
ATOM      4  C5  UNL d   1       0.655  -2.102   1.588  0.00  0.00    -0.004 A 
ATOM      5  C6  UNL d   1       1.505  -1.111   2.089  0.00  0.00    -0.075 A 
ATOM      6  C7  UNL d   1       2.763  -0.735   1.363  0.00  0.00     0.076 C 
ATOM      7  C8  UNL d   1       1.165  -0.458   3.282  0.00  0.00     0.001 A 
ENDROOT
BRANCH   1   8
ATOM      8  C1  UNL d   1      -0.360  -0.082   5.259  0.00  0.00     0.053 C 
ATOM      9  C   UNL d   1      -1.492  -0.777   5.999  0.00  0.00     0.018 C 
ENDBRANCH   1   8
TORSDOF 1
ENDMDL
