MODEL 1
REMARK minimizedAffinity 20.3986149
REMARK minimizedRMSD -1
REMARK  1 active torsions:
REMARK  status: ('A' for Active; 'I' for Inactive)
REMARK    1  A    between atoms: C1_2  and  C2_3 
ROOT
ATOM      1  C2  UNL d   1      -2.580   3.577  -2.503  0.00  0.00    -0.073 A 
ATOM      2  C3  UNL d   1      -2.102   4.795  -2.999  0.00  0.00    -0.002 A 
ATOM      3  C4  UNL d   1      -2.652   6.000  -2.558  0.00  0.00     0.004 A 
ATOM      4  C5  UNL d   1      -3.679   5.999  -1.615  0.00  0.00    -0.004 A 
ATOM      5  C6  UNL d   1      -4.162   4.792  -1.099  0.00  0.00    -0.075 A 
ATOM      6  C7  UNL d   1      -5.268   4.774  -0.085  0.00  0.00     0.076 C 
ATOM      7  C8  UNL d   1      -3.606   3.587  -1.548  0.00  0.00     0.001 A 
ENDROOT
BRANCH   1   8
ATOM      8  C1  UNL d   1      -1.984   2.274  -2.971  0.00  0.00     0.053 C 
ATOM      9  C   UNL d   1      -0.694   1.941  -2.238  0.00  0.00     0.018 C 
ENDBRANCH   1   8
TORSDOF 1
ENDMDL
