MODEL 1
REMARK minimizedAffinity 5.73717642
REMARK minimizedRMSD -1
REMARK  1 active torsions:
REMARK  status: ('A' for Active; 'I' for Inactive)
REMARK    1  A    between atoms: C1_2  and  C2_3 
ROOT
ATOM      1  C2  UNL d   1      -2.165   4.138  -3.281  0.00  0.00    -0.073 A 
ATOM      2  C3  UNL d   1      -1.288   3.098  -2.952  0.00  0.00    -0.002 A 
ATOM      3  C4  UNL d   1      -1.539   2.289  -1.843  0.00  0.00     0.004 A 
ATOM      4  C5  UNL d   1      -2.671   2.505  -1.058  0.00  0.00    -0.004 A 
ATOM      5  C6  UNL d   1      -3.566   3.531  -1.378  0.00  0.00    -0.075 A 
ATOM      6  C7  UNL d   1      -4.788   3.778  -0.542  0.00  0.00     0.076 C 
ATOM      7  C8  UNL d   1      -3.306   4.342  -2.491  0.00  0.00     0.001 A 
ENDROOT
BRANCH   1   8
ATOM      8  C1  UNL d   1      -1.902   5.011  -4.481  0.00  0.00     0.053 C 
ATOM      9  C   UNL d   1      -2.184   4.285  -5.787  0.00  0.00     0.018 C 
ENDBRANCH   1   8
TORSDOF 1
ENDMDL
