MODEL 1
REMARK minimizedAffinity 24.2914639
REMARK minimizedRMSD -1
REMARK  1 active torsions:
REMARK  status: ('A' for Active; 'I' for Inactive)
REMARK    1  A    between atoms: C1_2  and  C2_3 
ROOT
ATOM      1  C2  UNL d   1       0.689  -0.556   3.648  0.00  0.00    -0.073 A 
ATOM      2  C3  UNL d   1       0.060  -1.654   3.051  0.00  0.00    -0.002 A 
ATOM      3  C4  UNL d   1       0.476  -2.111   1.799  0.00  0.00     0.004 A 
ATOM      4  C5  UNL d   1       1.528  -1.480   1.136  0.00  0.00    -0.004 A 
ATOM      5  C6  UNL d   1       2.178  -0.388   1.722  0.00  0.00    -0.075 A 
ATOM      6  C7  UNL d   1       3.310   0.303   1.021  0.00  0.00     0.076 C 
ATOM      7  C8  UNL d   1       1.752   0.066   2.978  0.00  0.00     0.001 A 
ENDROOT
BRANCH   1   8
ATOM      8  C1  UNL d   1       0.248  -0.064   5.002  0.00  0.00     0.053 C 
ATOM      9  C   UNL d   1       1.415   0.072   5.967  0.00  0.00     0.018 C 
ENDBRANCH   1   8
TORSDOF 1
ENDMDL
