MODEL 1
REMARK minimizedAffinity 12.0528259
REMARK minimizedRMSD -1
REMARK  1 active torsions:
REMARK  status: ('A' for Active; 'I' for Inactive)
REMARK    1  A    between atoms: C1_2  and  C2_3 
ROOT
ATOM      1  C2  UNL d   1       0.990  -0.084   4.238  0.00  0.00    -0.073 A 
ATOM      2  C3  UNL d   1       0.447  -0.968   3.299  0.00  0.00    -0.002 A 
ATOM      3  C4  UNL d   1       1.140  -1.263   2.124  0.00  0.00     0.004 A 
ATOM      4  C5  UNL d   1       2.384  -0.683   1.879  0.00  0.00    -0.004 A 
ATOM      5  C6  UNL d   1       2.950   0.194   2.811  0.00  0.00    -0.075 A 
ATOM      6  C7  UNL d   1       4.287   0.827   2.561  0.00  0.00     0.076 C 
ATOM      7  C8  UNL d   1       2.246   0.486   3.987  0.00  0.00     0.001 A 
ENDROOT
BRANCH   1   8
ATOM      8  C1  UNL d   1       0.249   0.231   5.511  0.00  0.00     0.053 C 
ATOM      9  C   UNL d   1      -1.242  -0.037   5.383  0.00  0.00     0.018 C 
ENDBRANCH   1   8
TORSDOF 1
ENDMDL
