MODEL 1
REMARK minimizedAffinity 18.4818859
REMARK minimizedRMSD -1
REMARK  1 active torsions:
REMARK  status: ('A' for Active; 'I' for Inactive)
REMARK    1  A    between atoms: C1_2  and  C2_3 
ROOT
ATOM      1  C2  UNL d   1       1.139  -1.242   2.372  0.00  0.00    -0.073 A 
ATOM      2  C3  UNL d   1       0.956  -0.395   3.471  0.00  0.00    -0.002 A 
ATOM      3  C4  UNL d   1      -0.222  -0.453   4.217  0.00  0.00     0.004 A 
ATOM      4  C5  UNL d   1      -1.224  -1.362   3.877  0.00  0.00    -0.004 A 
ATOM      5  C6  UNL d   1      -1.055  -2.225   2.790  0.00  0.00    -0.075 A 
ATOM      6  C7  UNL d   1      -2.124  -3.206   2.410  0.00  0.00     0.076 C 
ATOM      7  C8  UNL d   1       0.130  -2.159   2.044  0.00  0.00     0.001 A 
ENDROOT
BRANCH   1   8
ATOM      8  C1  UNL d   1       2.412  -1.188   1.568  0.00  0.00     0.053 C 
ATOM      9  C   UNL d   1       3.168   0.113   1.784  0.00  0.00     0.018 C 
ENDBRANCH   1   8
TORSDOF 1
ENDMDL
