MODEL 1
REMARK minimizedAffinity 3.87505913
REMARK minimizedRMSD -1
REMARK  1 active torsions:
REMARK  status: ('A' for Active; 'I' for Inactive)
REMARK    1  A    between atoms: C1_2  and  C2_3 
ROOT
ATOM      1  C2  UNL d   1       0.167  -2.344   3.737  0.00  0.00    -0.073 A 
ATOM      2  C3  UNL d   1       0.372  -1.192   4.504  0.00  0.00    -0.002 A 
ATOM      3  C4  UNL d   1      -0.417  -0.944   5.628  0.00  0.00     0.004 A 
ATOM      4  C5  UNL d   1      -1.413  -1.846   6.000  0.00  0.00    -0.004 A 
ATOM      5  C6  UNL d   1      -1.625  -3.010   5.253  0.00  0.00    -0.075 A 
ATOM      6  C7  UNL d   1      -2.694  -3.990   5.638  0.00  0.00     0.076 C 
ATOM      7  C8  UNL d   1      -0.830  -3.251   4.124  0.00  0.00     0.001 A 
ENDROOT
BRANCH   1   8
ATOM      8  C1  UNL d   1       1.021  -2.620   2.526  0.00  0.00     0.053 C 
ATOM      9  C   UNL d   1       1.514  -1.339   1.873  0.00  0.00     0.018 C 
ENDBRANCH   1   8
TORSDOF 1
ENDMDL
