MODEL 1
REMARK minimizedAffinity 14.0192785
REMARK minimizedRMSD -1
REMARK  1 active torsions:
REMARK  status: ('A' for Active; 'I' for Inactive)
REMARK    1  A    between atoms: C1_2  and  C2_3 
ROOT
ATOM      1  C2  UNL d   1      -0.354  -1.603   2.477  0.00  0.00    -0.073 A 
ATOM      2  C3  UNL d   1      -0.563  -1.114   3.771  0.00  0.00    -0.002 A 
ATOM      3  C4  UNL d   1       0.449  -0.418   4.434  0.00  0.00     0.004 A 
ATOM      4  C5  UNL d   1       1.676  -0.199   3.808  0.00  0.00    -0.004 A 
ATOM      5  C6  UNL d   1       1.900  -0.669   2.510  0.00  0.00    -0.075 A 
ATOM      6  C7  UNL d   1       3.215  -0.444   1.824  0.00  0.00     0.076 C 
ATOM      7  C8  UNL d   1       0.880  -1.370   1.852  0.00  0.00     0.001 A 
ENDROOT
BRANCH   1   8
ATOM      8  C1  UNL d   1      -1.446  -2.349   1.755  0.00  0.00     0.053 C 
ATOM      9  C   UNL d   1      -2.373  -3.075   2.717  0.00  0.00     0.018 C 
ENDBRANCH   1   8
TORSDOF 1
ENDMDL
