MODEL 1
REMARK minimizedAffinity 13.2916584
REMARK minimizedRMSD -1
REMARK  1 active torsions:
REMARK  status: ('A' for Active; 'I' for Inactive)
REMARK    1  A    between atoms: C1_2  and  C2_3 
ROOT
ATOM      1  C2  UNL d   1       0.987  -0.330   3.900  0.00  0.00    -0.073 A 
ATOM      2  C3  UNL d   1       0.578  -1.148   2.841  0.00  0.00    -0.002 A 
ATOM      3  C4  UNL d   1       1.397  -1.317   1.724  0.00  0.00     0.004 A 
ATOM      4  C5  UNL d   1       2.634  -0.676   1.657  0.00  0.00    -0.004 A 
ATOM      5  C6  UNL d   1       3.065   0.136   2.711  0.00  0.00    -0.075 A 
ATOM      6  C7  UNL d   1       4.392   0.834   2.653  0.00  0.00     0.076 C 
ATOM      7  C8  UNL d   1       2.236   0.303   3.828  0.00  0.00     0.001 A 
ENDROOT
BRANCH   1   8
ATOM      8  C1  UNL d   1       0.109  -0.150   5.111  0.00  0.00     0.053 C 
ATOM      9  C   UNL d   1      -1.368  -0.151   4.750  0.00  0.00     0.018 C 
ENDBRANCH   1   8
TORSDOF 1
ENDMDL
