MODEL 1
REMARK minimizedAffinity 20.4237022
REMARK minimizedRMSD -1
REMARK  1 active torsions:
REMARK  status: ('A' for Active; 'I' for Inactive)
REMARK    1  A    between atoms: C1_2  and  C2_3 
ROOT
ATOM      1  C2  UNL d   1       4.159  -0.215  -0.362  0.00  0.00    -0.073 A 
ATOM      2  C3  UNL d   1       4.696   0.821   0.412  0.00  0.00    -0.002 A 
ATOM      3  C4  UNL d   1       4.205   1.069   1.694  0.00  0.00     0.004 A 
ATOM      4  C5  UNL d   1       3.180   0.282   2.219  0.00  0.00    -0.004 A 
ATOM      5  C6  UNL d   1       2.639  -0.765   1.466  0.00  0.00    -0.075 A 
ATOM      6  C7  UNL d   1       1.535  -1.620   2.014  0.00  0.00     0.076 C 
ATOM      7  C8  UNL d   1       3.135  -1.007   0.177  0.00  0.00     0.001 A 
ENDROOT
BRANCH   1   8
ATOM      8  C1  UNL d   1       4.690  -0.491  -1.745  0.00  0.00     0.053 C 
ATOM      9  C   UNL d   1       4.494   0.693  -2.678  0.00  0.00     0.018 C 
ENDBRANCH   1   8
TORSDOF 1
ENDMDL
