MODEL 1
REMARK minimizedAffinity 9.9347744
REMARK minimizedRMSD -1
REMARK  1 active torsions:
REMARK  status: ('A' for Active; 'I' for Inactive)
REMARK    1  A    between atoms: C1_2  and  C2_3 
ROOT
ATOM      1  C2  UNL d   1      -2.228   4.136  -4.337  0.00  0.00    -0.073 A 
ATOM      2  C3  UNL d   1      -1.741   2.935  -3.809  0.00  0.00    -0.002 A 
ATOM      3  C4  UNL d   1      -1.979   2.604  -2.475  0.00  0.00     0.004 A 
ATOM      4  C5  UNL d   1      -2.710   3.465  -1.657  0.00  0.00    -0.004 A 
ATOM      5  C6  UNL d   1      -3.215   4.665  -2.169  0.00  0.00    -0.075 A 
ATOM      6  C7  UNL d   1      -4.002   5.603  -1.303  0.00  0.00     0.076 C 
ATOM      7  C8  UNL d   1      -2.970   4.991  -3.510  0.00  0.00     0.001 A 
ENDROOT
BRANCH   1   8
ATOM      8  C1  UNL d   1      -1.979   4.495  -5.779  0.00  0.00     0.053 C 
ATOM      9  C   UNL d   1      -1.956   6.000  -5.997  0.00  0.00     0.018 C 
ENDBRANCH   1   8
TORSDOF 1
ENDMDL
