MODEL 1
REMARK minimizedAffinity 13.6302404
REMARK minimizedRMSD -1
REMARK  1 active torsions:
REMARK  status: ('A' for Active; 'I' for Inactive)
REMARK    1  A    between atoms: C1_2  and  C2_3 
ROOT
ATOM      1  C2  UNL d   1       0.501   3.599  -0.492  0.00  0.00    -0.073 A 
ATOM      2  C3  UNL d   1       0.313   2.303   0.000  0.00  0.00    -0.002 A 
ATOM      3  C4  UNL d   1      -0.558   1.424  -0.645  0.00  0.00     0.004 A 
ATOM      4  C5  UNL d   1      -1.243   1.828  -1.791  0.00  0.00    -0.004 A 
ATOM      5  C6  UNL d   1      -1.059   3.116  -2.305  0.00  0.00    -0.075 A 
ATOM      6  C7  UNL d   1      -1.789   3.567  -3.535  0.00  0.00     0.076 C 
ATOM      7  C8  UNL d   1      -0.184   3.994  -1.650  0.00  0.00     0.001 A 
ENDROOT
BRANCH   1   8
ATOM      8  C1  UNL d   1       1.446   4.550   0.197  0.00  0.00     0.053 C 
ATOM      9  C   UNL d   1       1.022   6.000   0.024  0.00  0.00     0.018 C 
ENDBRANCH   1   8
TORSDOF 1
ENDMDL
