MODEL 1
REMARK minimizedAffinity 10.0068493
REMARK minimizedRMSD -1
REMARK  1 active torsions:
REMARK  status: ('A' for Active; 'I' for Inactive)
REMARK    1  A    between atoms: C1_2  and  C2_3 
ROOT
ATOM      1  C2  UNL d   1      -3.225   2.739  -1.839  0.00  0.00    -0.073 A 
ATOM      2  C3  UNL d   1      -2.617   2.882  -3.091  0.00  0.00    -0.002 A 
ATOM      3  C4  UNL d   1      -1.232   3.017  -3.191  0.00  0.00     0.004 A 
ATOM      4  C5  UNL d   1      -0.441   3.003  -2.042  0.00  0.00    -0.004 A 
ATOM      5  C6  UNL d   1      -1.028   2.850  -0.782  0.00  0.00    -0.075 A 
ATOM      6  C7  UNL d   1      -0.191   2.836   0.463  0.00  0.00     0.076 C 
ATOM      7  C8  UNL d   1      -2.420   2.717  -0.690  0.00  0.00     0.001 A 
ENDROOT
BRANCH   1   8
ATOM      8  C1  UNL d   1      -4.720   2.586  -1.726  0.00  0.00     0.053 C 
ATOM      9  C   UNL d   1      -5.242   1.443  -2.581  0.00  0.00     0.018 C 
ENDBRANCH   1   8
TORSDOF 1
ENDMDL
