MODEL 1
REMARK minimizedAffinity 10.8448801
REMARK minimizedRMSD -1
REMARK  1 active torsions:
REMARK  status: ('A' for Active; 'I' for Inactive)
REMARK    1  A    between atoms: C1_2  and  C2_3 
ROOT
ATOM      1  C2  UNL d   1      -0.411  -1.106   4.010  0.00  0.00    -0.073 A 
ATOM      2  C3  UNL d   1       0.561  -0.758   3.066  0.00  0.00    -0.002 A 
ATOM      3  C4  UNL d   1       0.654  -1.456   1.861  0.00  0.00     0.004 A 
ATOM      4  C5  UNL d   1      -0.226  -2.502   1.585  0.00  0.00    -0.004 A 
ATOM      5  C6  UNL d   1      -1.212  -2.857   2.511  0.00  0.00    -0.075 A 
ATOM      6  C7  UNL d   1      -2.165  -3.981   2.231  0.00  0.00     0.076 C 
ATOM      7  C8  UNL d   1      -1.298  -2.153   3.720  0.00  0.00     0.001 A 
ENDROOT
BRANCH   1   8
ATOM      8  C1  UNL d   1      -0.520  -0.352   5.310  0.00  0.00     0.053 C 
ATOM      9  C   UNL d   1      -1.853  -0.594   6.000  0.00  0.00     0.018 C 
ENDBRANCH   1   8
TORSDOF 1
ENDMDL
