MODEL 1
REMARK minimizedAffinity 7.72593117
REMARK minimizedRMSD -1
REMARK  1 active torsions:
REMARK  status: ('A' for Active; 'I' for Inactive)
REMARK    1  A    between atoms: C1_2  and  C2_3 
ROOT
ATOM      1  C2  UNL d   1       0.183   3.316  -0.525  0.00  0.00    -0.073 A 
ATOM      2  C3  UNL d   1      -0.043   4.018   0.665  0.00  0.00    -0.002 A 
ATOM      3  C4  UNL d   1       0.352   5.351   0.782  0.00  0.00     0.004 A 
ATOM      4  C5  UNL d   1       0.969   5.998  -0.289  0.00  0.00    -0.004 A 
ATOM      5  C6  UNL d   1       1.192   5.317  -1.490  0.00  0.00    -0.075 A 
ATOM      6  C7  UNL d   1       1.857   5.997  -2.650  0.00  0.00     0.076 C 
ATOM      7  C8  UNL d   1       0.796   3.977  -1.599  0.00  0.00     0.001 A 
ENDROOT
BRANCH   1   8
ATOM      8  C1  UNL d   1      -0.247   1.878  -0.659  0.00  0.00     0.053 C 
ATOM      9  C   UNL d   1      -1.152   1.663  -1.861  0.00  0.00     0.018 C 
ENDBRANCH   1   8
TORSDOF 1
ENDMDL
