MODEL 1
REMARK minimizedAffinity 4.98433733
REMARK minimizedRMSD -1
REMARK  1 active torsions:
REMARK  status: ('A' for Active; 'I' for Inactive)
REMARK    1  A    between atoms: C1_2  and  C2_3 
ROOT
ATOM      1  C2  UNL d   1      -0.989  -1.397   3.744  0.00  0.00    -0.073 A 
ATOM      2  C3  UNL d   1      -2.029  -2.281   3.434  0.00  0.00    -0.002 A 
ATOM      3  C4  UNL d   1      -1.942  -3.104   2.310  0.00  0.00     0.004 A 
ATOM      4  C5  UNL d   1      -0.815  -3.057   1.490  0.00  0.00    -0.004 A 
ATOM      5  C6  UNL d   1       0.240  -2.189   1.791  0.00  0.00    -0.075 A 
ATOM      6  C7  UNL d   1       1.459  -2.125   0.918  0.00  0.00     0.076 C 
ATOM      7  C8  UNL d   1       0.145  -1.364   2.920  0.00  0.00     0.001 A 
ENDROOT
BRANCH   1   8
ATOM      8  C1  UNL d   1      -1.075  -0.512   4.960  0.00  0.00     0.053 C 
ATOM      9  C   UNL d   1      -2.040  -1.061   5.999  0.00  0.00     0.018 C 
ENDBRANCH   1   8
TORSDOF 1
ENDMDL
