MODEL 1
REMARK minimizedAffinity 6.57129145
REMARK minimizedRMSD -1
REMARK  1 active torsions:
REMARK  status: ('A' for Active; 'I' for Inactive)
REMARK    1  A    between atoms: C1_2  and  C2_3 
ROOT
ATOM      1  C2  UNL d   1      -0.278  -2.667   0.613  0.00  0.00    -0.073 A 
ATOM      2  C3  UNL d   1       1.007  -3.198   0.459  0.00  0.00    -0.002 A 
ATOM      3  C4  UNL d   1       2.058  -2.745   1.257  0.00  0.00     0.004 A 
ATOM      4  C5  UNL d   1       1.834  -1.763   2.221  0.00  0.00    -0.004 A 
ATOM      5  C6  UNL d   1       0.554  -1.228   2.399  0.00  0.00    -0.075 A 
ATOM      6  C7  UNL d   1       0.297  -0.169   3.431  0.00  0.00     0.076 C 
ATOM      7  C8  UNL d   1      -0.495  -1.686   1.592  0.00  0.00     0.001 A 
ENDROOT
BRANCH   1   8
ATOM      8  C1  UNL d   1      -1.417  -3.158  -0.242  0.00  0.00     0.053 C 
ATOM      9  C   UNL d   1      -2.307  -4.140   0.503  0.00  0.00     0.018 C 
ENDBRANCH   1   8
TORSDOF 1
ENDMDL
