MODEL 1
REMARK minimizedAffinity -4.39971399
REMARK minimizedRMSD -1
REMARK  0 active torsions:
REMARK  status: ('A' for Active; 'I' for Inactive)
ROOT
ATOM      1  C2' OXE d   1       1.872   1.761  -0.941  0.00  0.00     0.078 C 
ATOM      2  C1' OXE d   1       1.372  -0.034  -3.041  0.00  0.00     0.078 C 
ATOM      3  C1  OXE d   1       0.858  -0.395  -1.670  0.00  0.00    -0.078 A 
ATOM      4  C2  OXE d   1       1.147   0.467  -0.639  0.00  0.00    -0.078 A 
ATOM      5  C3  OXE d   1       0.650   0.209   0.635  0.00  0.00     0.003 A 
ATOM      6  C4  OXE d   1      -0.010  -0.995   0.908  0.00  0.00    -0.002 A 
ATOM      7  C5  OXE d   1      -0.281  -1.905  -0.120  0.00  0.00    -0.002 A 
ATOM      8  C6  OXE d   1       0.108  -1.601  -1.419  0.00  0.00     0.003 A 
ENDROOT
TORSDOF 0
ENDMDL
