MODEL 1
REMARK minimizedAffinity -4.53155613
REMARK minimizedRMSD -1
REMARK  0 active torsions:
REMARK  status: ('A' for Active; 'I' for Inactive)
ROOT
ATOM      1  C2' OXE d   1       0.385  -1.802   0.441  0.00  0.00     0.078 C 
ATOM      2  C1' OXE d   1       2.385  -2.207  -1.487  0.00  0.00     0.078 C 
ATOM      3  C1  OXE d   1       1.812  -0.819  -1.348  0.00  0.00    -0.078 A 
ATOM      4  C2  OXE d   1       0.801  -0.640  -0.434  0.00  0.00    -0.078 A 
ATOM      5  C3  OXE d   1       0.276   0.632  -0.228  0.00  0.00     0.003 A 
ATOM      6  C4  OXE d   1       0.659   1.700  -1.048  0.00  0.00    -0.002 A 
ATOM      7  C5  OXE d   1       1.659   1.530  -2.012  0.00  0.00    -0.002 A 
ATOM      8  C6  OXE d   1       2.274   0.291  -2.145  0.00  0.00     0.003 A 
ENDROOT
TORSDOF 0
ENDMDL
