MODEL 1
REMARK minimizedAffinity -4.00957155
REMARK minimizedRMSD -1
REMARK  0 active torsions:
REMARK  status: ('A' for Active; 'I' for Inactive)
ROOT
ATOM      1  C2' OXE d   1       0.770  -2.649  -1.418  0.00  0.00     0.078 C 
ATOM      2  C1' OXE d   1       1.732  -0.474  -2.908  0.00  0.00     0.078 C 
ATOM      3  C1  OXE d   1       1.249  -0.206  -1.505  0.00  0.00    -0.078 A 
ATOM      4  C2  OXE d   1       0.737  -1.268  -0.800  0.00  0.00    -0.078 A 
ATOM      5  C3  OXE d   1       0.328  -1.087   0.519  0.00  0.00     0.003 A 
ATOM      6  C4  OXE d   1       0.290   0.195   1.080  0.00  0.00    -0.002 A 
ATOM      7  C5  OXE d   1       0.771   1.297   0.364  0.00  0.00    -0.002 A 
ATOM      8  C6  OXE d   1       1.292   1.107  -0.911  0.00  0.00     0.003 A 
ENDROOT
TORSDOF 0
ENDMDL
