MODEL 1
REMARK minimizedAffinity -2.96670556
REMARK minimizedRMSD -1
REMARK  0 active torsions:
REMARK  status: ('A' for Active; 'I' for Inactive)
ROOT
ATOM      1  C2' OXE d   1      -0.121  -1.755   1.431  0.00  0.00     0.078 C 
ATOM      2  C1' OXE d   1      -1.338   0.771   1.577  0.00  0.00     0.078 C 
ATOM      3  C1  OXE d   1      -0.417   0.499   0.413  0.00  0.00    -0.078 A 
ATOM      4  C2  OXE d   1       0.211  -0.722   0.376  0.00  0.00    -0.078 A 
ATOM      5  C3  OXE d   1       1.028  -1.044  -0.704  0.00  0.00     0.003 A 
ATOM      6  C4  OXE d   1       1.337  -0.080  -1.671  0.00  0.00    -0.002 A 
ATOM      7  C5  OXE d   1       0.740   1.184  -1.630  0.00  0.00    -0.002 A 
ATOM      8  C6  OXE d   1      -0.171   1.475  -0.620  0.00  0.00     0.003 A 
ENDROOT
TORSDOF 0
ENDMDL
