MODEL 1
REMARK minimizedAffinity -4.00433207
REMARK minimizedRMSD -1
REMARK  0 active torsions:
REMARK  status: ('A' for Active; 'I' for Inactive)
ROOT
ATOM      1  C2' OXE d   1       1.034   0.966   0.909  0.00  0.00     0.078 C 
ATOM      2  C1' OXE d   1       3.041   1.099  -1.049  0.00  0.00     0.078 C 
ATOM      3  C1  OXE d   1       1.894   0.146  -1.280  0.00  0.00    -0.078 A 
ATOM      4  C2  OXE d   1       0.941   0.054  -0.295  0.00  0.00    -0.078 A 
ATOM      5  C3  OXE d   1      -0.166  -0.769  -0.482  0.00  0.00     0.003 A 
ATOM      6  C4  OXE d   1      -0.239  -1.617  -1.594  0.00  0.00    -0.002 A 
ATOM      7  C5  OXE d   1       0.741  -1.568  -2.590  0.00  0.00    -0.002 A 
ATOM      8  C6  OXE d   1       1.790  -0.663  -2.469  0.00  0.00     0.003 A 
ENDROOT
TORSDOF 0
ENDMDL
