MODEL 1
REMARK minimizedAffinity -4.40634251
REMARK minimizedRMSD -1
REMARK  0 active torsions:
REMARK  status: ('A' for Active; 'I' for Inactive)
ROOT
ATOM      1  C2' OXE d   1       0.466  -2.695  -1.404  0.00  0.00     0.078 C 
ATOM      2  C1' OXE d   1       1.895  -0.601  -2.609  0.00  0.00     0.078 C 
ATOM      3  C1  OXE d   1       1.197  -0.316  -1.302  0.00  0.00    -0.078 A 
ATOM      4  C2  OXE d   1       0.461  -1.333  -0.744  0.00  0.00    -0.078 A 
ATOM      5  C3  OXE d   1      -0.158  -1.140   0.488  0.00  0.00     0.003 A 
ATOM      6  C4  OXE d   1      -0.166   0.125   1.087  0.00  0.00    -0.002 A 
ATOM      7  C5  OXE d   1       0.544   1.186   0.514  0.00  0.00    -0.002 A 
ATOM      8  C6  OXE d   1       1.264   0.971  -0.656  0.00  0.00     0.003 A 
ENDROOT
TORSDOF 0
ENDMDL
