MODEL 1
REMARK minimizedAffinity -5.18502092
REMARK minimizedRMSD -1
REMARK  0 active torsions:
REMARK  status: ('A' for Active; 'I' for Inactive)
ROOT
ATOM      1  C2' OXE d   1       1.582  -0.692  -2.710  0.00  0.00     0.078 C 
ATOM      2  C1' OXE d   1       0.642  -2.835  -1.160  0.00  0.00     0.078 C 
ATOM      3  C1  OXE d   1       0.519  -1.445  -0.587  0.00  0.00    -0.078 A 
ATOM      4  C2  OXE d   1       1.025  -0.407  -1.332  0.00  0.00    -0.078 A 
ATOM      5  C3  OXE d   1       0.888   0.901  -0.875  0.00  0.00     0.003 A 
ATOM      6  C4  OXE d   1       0.380   1.154   0.405  0.00  0.00    -0.002 A 
ATOM      7  C5  OXE d   1      -0.104   0.108   1.197  0.00  0.00    -0.002 A 
ATOM      8  C6  OXE d   1      -0.081  -1.190   0.699  0.00  0.00     0.003 A 
ENDROOT
TORSDOF 0
ENDMDL
