MODEL 1
REMARK minimizedAffinity -4.06265354
REMARK minimizedRMSD -1
REMARK  0 active torsions:
REMARK  status: ('A' for Active; 'I' for Inactive)
ROOT
ATOM      1  C2' OXE d   1       1.933   0.677  -1.875  0.00  0.00     0.078 C 
ATOM      2  C1' OXE d   1       1.095   2.707  -0.128  0.00  0.00     0.078 C 
ATOM      3  C1  OXE d   1       0.396   1.373  -0.043  0.00  0.00    -0.078 A 
ATOM      4  C2  OXE d   1       0.781   0.400  -0.933  0.00  0.00    -0.078 A 
ATOM      5  C3  OXE d   1       0.208  -0.866  -0.862  0.00  0.00     0.003 A 
ATOM      6  C4  OXE d   1      -0.864  -1.110   0.005  0.00  0.00    -0.002 A 
ATOM      7  C5  OXE d   1      -1.299  -0.121   0.894  0.00  0.00    -0.002 A 
ATOM      8  C6  OXE d   1      -0.652   1.110   0.912  0.00  0.00     0.003 A 
ENDROOT
TORSDOF 0
ENDMDL
