MODEL 1
REMARK minimizedAffinity -4.56525946
REMARK minimizedRMSD -1
REMARK  0 active torsions:
REMARK  status: ('A' for Active; 'I' for Inactive)
ROOT
ATOM      1  C2' OXE d   1       1.353   0.387  -2.606  0.00  0.00     0.078 C 
ATOM      2  C1' OXE d   1       1.192   2.404  -0.660  0.00  0.00     0.078 C 
ATOM      3  C1  OXE d   1       0.626   1.049  -0.317  0.00  0.00    -0.078 A 
ATOM      4  C2  OXE d   1       0.667   0.081  -1.292  0.00  0.00    -0.078 A 
ATOM      5  C3  OXE d   1       0.208  -1.202  -1.009  0.00  0.00     0.003 A 
ATOM      6  C4  OXE d   1      -0.434  -1.474   0.205  0.00  0.00    -0.002 A 
ATOM      7  C5  OXE d   1      -0.522  -0.492   1.197  0.00  0.00    -0.002 A 
ATOM      8  C6  OXE d   1       0.040   0.760   0.969  0.00  0.00     0.003 A 
ENDROOT
TORSDOF 0
ENDMDL
