MODEL 1
REMARK minimizedAffinity -5.6307292
REMARK minimizedRMSD -1
REMARK  0 active torsions:
REMARK  status: ('A' for Active; 'I' for Inactive)
ROOT
ATOM      1  C2' OXE d   1       1.097   1.757   0.099  0.00  0.00     0.078 C 
ATOM      2  C1' OXE d   1      -0.375  -0.583   0.585  0.00  0.00     0.078 C 
ATOM      3  C1  OXE d   1       0.524  -0.557  -0.626  0.00  0.00    -0.078 A 
ATOM      4  C2  OXE d   1       1.205   0.609  -0.882  0.00  0.00    -0.078 A 
ATOM      5  C3  OXE d   1       2.089   0.669  -1.955  0.00  0.00     0.003 A 
ATOM      6  C4  OXE d   1       2.176  -0.393  -2.862  0.00  0.00    -0.002 A 
ATOM      7  C5  OXE d   1       1.461  -1.575  -2.642  0.00  0.00    -0.002 A 
ATOM      8  C6  OXE d   1       0.665  -1.689  -1.508  0.00  0.00     0.003 A 
ENDROOT
TORSDOF 0
ENDMDL
