MODEL 1
REMARK minimizedAffinity -2.49266887
REMARK minimizedRMSD -1
REMARK  0 active torsions:
REMARK  status: ('A' for Active; 'I' for Inactive)
ROOT
ATOM      1  C2' OXE d   1      -2.153   2.415   2.744  0.00  0.00     0.078 C 
ATOM      2  C1' OXE d   1      -3.077  -0.187   2.234  0.00  0.00     0.078 C 
ATOM      3  C1  OXE d   1      -1.708   0.186   1.723  0.00  0.00    -0.078 A 
ATOM      4  C2  OXE d   1      -1.283   1.476   1.936  0.00  0.00    -0.078 A 
ATOM      5  C3  OXE d   1      -0.006   1.856   1.533  0.00  0.00     0.003 A 
ATOM      6  C4  OXE d   1       0.788   0.985   0.778  0.00  0.00    -0.002 A 
ATOM      7  C5  OXE d   1       0.358  -0.320   0.515  0.00  0.00    -0.002 A 
ATOM      8  C6  OXE d   1      -0.867  -0.748   1.016  0.00  0.00     0.003 A 
ENDROOT
TORSDOF 0
ENDMDL
