MODEL 1
REMARK minimizedAffinity -3.63285661
REMARK minimizedRMSD -1
REMARK  0 active torsions:
REMARK  status: ('A' for Active; 'I' for Inactive)
ROOT
ATOM      1  C2' OXE d   1      -0.526   0.255   1.227  0.00  0.00     0.078 C 
ATOM      2  C1' OXE d   1       0.064  -2.385   0.477  0.00  0.00     0.078 C 
ATOM      3  C1  OXE d   1       0.735  -1.270  -0.286  0.00  0.00    -0.078 A 
ATOM      4  C2  OXE d   1       0.405   0.019   0.058  0.00  0.00    -0.078 A 
ATOM      5  C3  OXE d   1       1.037   1.084  -0.577  0.00  0.00     0.003 A 
ATOM      6  C4  OXE d   1       1.889   0.858  -1.664  0.00  0.00    -0.002 A 
ATOM      7  C5  OXE d   1       2.209  -0.447  -2.056  0.00  0.00    -0.002 A 
ATOM      8  C6  OXE d   1       1.674  -1.520  -1.351  0.00  0.00     0.003 A 
ENDROOT
TORSDOF 0
ENDMDL
