MODEL 1
REMARK minimizedAffinity -4.33507109
REMARK minimizedRMSD -1
REMARK  0 active torsions:
REMARK  status: ('A' for Active; 'I' for Inactive)
ROOT
ATOM      1  C2' OXE d   1      -0.197  -1.027   0.713  0.00  0.00     0.078 C 
ATOM      2  C1' OXE d   1       1.037  -3.104  -0.716  0.00  0.00     0.078 C 
ATOM      3  C1  OXE d   1       1.428  -1.687  -1.056  0.00  0.00    -0.078 A 
ATOM      4  C2  OXE d   1       0.785  -0.675  -0.384  0.00  0.00    -0.078 A 
ATOM      5  C3  OXE d   1       1.147   0.648  -0.620  0.00  0.00     0.003 A 
ATOM      6  C4  OXE d   1       2.049   0.964  -1.643  0.00  0.00    -0.002 A 
ATOM      7  C5  OXE d   1       2.685  -0.049  -2.367  0.00  0.00    -0.002 A 
ATOM      8  C6  OXE d   1       2.419  -1.378  -2.057  0.00  0.00     0.003 A 
ENDROOT
TORSDOF 0
ENDMDL
