MODEL 1
REMARK minimizedAffinity -5.33921242
REMARK minimizedRMSD -1
REMARK  0 active torsions:
REMARK  status: ('A' for Active; 'I' for Inactive)
ROOT
ATOM      1  C2' OXE d   1       1.175   1.792  -0.634  0.00  0.00     0.078 C 
ATOM      2  C1' OXE d   1      -0.466   0.305   1.092  0.00  0.00     0.078 C 
ATOM      3  C1  OXE d   1       0.449  -0.454   0.163  0.00  0.00    -0.078 A 
ATOM      4  C2  OXE d   1       1.215   0.281  -0.710  0.00  0.00    -0.078 A 
ATOM      5  C3  OXE d   1       2.116  -0.367  -1.550  0.00  0.00     0.003 A 
ATOM      6  C4  OXE d   1       2.139  -1.765  -1.621  0.00  0.00    -0.002 A 
ATOM      7  C5  OXE d   1       1.339  -2.533  -0.768  0.00  0.00    -0.002 A 
ATOM      8  C6  OXE d   1       0.522  -1.894   0.157  0.00  0.00     0.003 A 
ENDROOT
TORSDOF 0
ENDMDL
