MODEL 1
REMARK minimizedAffinity 0.269809008
REMARK minimizedRMSD -1
REMARK  0 active torsions:
REMARK  status: ('A' for Active; 'I' for Inactive)
ROOT
ATOM      1  C2' OXE d   1       0.759   2.906   0.013  0.00  0.00     0.078 C 
ATOM      2  C1' OXE d   1       2.043   0.793  -1.315  0.00  0.00     0.078 C 
ATOM      3  C1  OXE d   1       0.949   0.447  -0.337  0.00  0.00    -0.078 A 
ATOM      4  C2  OXE d   1       0.358   1.484   0.343  0.00  0.00    -0.078 A 
ATOM      5  C3  OXE d   1      -0.695   1.225   1.217  0.00  0.00     0.003 A 
ATOM      6  C4  OXE d   1      -1.053  -0.094   1.524  0.00  0.00    -0.002 A 
ATOM      7  C5  OXE d   1      -0.436  -1.167   0.872  0.00  0.00    -0.002 A 
ATOM      8  C6  OXE d   1       0.535  -0.913  -0.090  0.00  0.00     0.003 A 
ENDROOT
TORSDOF 0
ENDMDL
