MODEL 1
REMARK minimizedAffinity -5.72507524
REMARK minimizedRMSD -1
REMARK  0 active torsions:
REMARK  status: ('A' for Active; 'I' for Inactive)
ROOT
ATOM      1  C2' OXE d   1       1.111  -2.973  -1.487  0.00  0.00     0.078 C 
ATOM      2  C1' OXE d   1       1.814  -0.691  -2.964  0.00  0.00     0.078 C 
ATOM      3  C1  OXE d   1       1.038  -0.491  -1.686  0.00  0.00    -0.078 A 
ATOM      4  C2  OXE d   1       0.658  -1.616  -0.994  0.00  0.00    -0.078 A 
ATOM      5  C3  OXE d   1      -0.012  -1.485   0.219  0.00  0.00     0.003 A 
ATOM      6  C4  OXE d   1      -0.437  -0.227   0.662  0.00  0.00    -0.002 A 
ATOM      7  C5  OXE d   1      -0.095   0.929  -0.048  0.00  0.00    -0.002 A 
ATOM      8  C6  OXE d   1       0.677   0.818  -1.199  0.00  0.00     0.003 A 
ENDROOT
TORSDOF 0
ENDMDL
