MODEL 1
REMARK minimizedAffinity -0.079914324
REMARK minimizedRMSD -1
REMARK  0 active torsions:
REMARK  status: ('A' for Active; 'I' for Inactive)
ROOT
ATOM      1  C   UNL d   1       1.370   0.722   0.242  0.00  0.00     0.020 A 
ATOM      2  C1  UNL d   1       0.565   1.141  -0.817  0.00  0.00     0.020 A 
ATOM      3  C2  UNL d   1      -0.638   0.484  -1.081  0.00  0.00     0.034 A 
ATOM      4  C3  UNL d   1      -1.041  -0.595  -0.285  0.00  0.00     0.017 A 
ATOM      5  C4  UNL d   1      -0.233  -1.014   0.778  0.00  0.00     0.017 A 
ATOM      6  C5  UNL d   1       0.972  -0.353   1.038  0.00  0.00     0.034 A 
ATOM      7 Cl   UNL d   1      -0.663  -2.337   1.803  0.00  0.00    -0.070 Cl
ATOM      8 Cl1  UNL d   1      -2.542  -1.360  -0.669  0.00  0.00    -0.070 Cl
ENDROOT
TORSDOF 0
ENDMDL
