MODEL 1
REMARK minimizedAffinity -1.13975585
REMARK minimizedRMSD -1
REMARK  0 active torsions:
REMARK  status: ('A' for Active; 'I' for Inactive)
ROOT
ATOM      1  C   UNL d   1       1.197  -0.158   0.554  0.00  0.00     0.020 A 
ATOM      2  C1  UNL d   1       0.316  -0.964   1.274  0.00  0.00     0.020 A 
ATOM      3  C2  UNL d   1      -0.998  -1.131   0.831  0.00  0.00     0.034 A 
ATOM      4  C3  UNL d   1      -1.434  -0.491  -0.335  0.00  0.00     0.017 A 
ATOM      5  C4  UNL d   1      -0.548   0.317  -1.057  0.00  0.00     0.017 A 
ATOM      6  C5  UNL d   1       0.766   0.481  -0.609  0.00  0.00     0.034 A 
ATOM      7 Cl   UNL d   1      -1.013   1.139  -2.505  0.00  0.00    -0.070 Cl
ATOM      8 Cl1  UNL d   1      -3.072  -0.742  -0.825  0.00  0.00    -0.070 Cl
ENDROOT
TORSDOF 0
ENDMDL
