MODEL 1
REMARK minimizedAffinity -1.29317391
REMARK minimizedRMSD -1
REMARK  0 active torsions:
REMARK  status: ('A' for Active; 'I' for Inactive)
ROOT
ATOM      1  C   UNL d   1       1.324  -0.661   0.677  0.00  0.00     0.020 A 
ATOM      2  C1  UNL d   1       0.338  -1.426   1.297  0.00  0.00     0.020 A 
ATOM      3  C2  UNL d   1      -0.941  -1.501   0.741  0.00  0.00     0.034 A 
ATOM      4  C3  UNL d   1      -1.237  -0.809  -0.439  0.00  0.00     0.017 A 
ATOM      5  C4  UNL d   1      -0.246  -0.041  -1.061  0.00  0.00     0.017 A 
ATOM      6  C5  UNL d   1       1.033   0.030  -0.500  0.00  0.00     0.034 A 
ATOM      7 Cl   UNL d   1      -0.536   0.841  -2.519  0.00  0.00    -0.070 Cl
ATOM      8 Cl1  UNL d   1      -2.839  -0.948  -1.070  0.00  0.00    -0.070 Cl
ENDROOT
TORSDOF 0
ENDMDL
