MODEL 1
REMARK minimizedAffinity -1.01388526
REMARK minimizedRMSD -1
REMARK  0 active torsions:
REMARK  status: ('A' for Active; 'I' for Inactive)
ROOT
ATOM      1  C   UNL d   1      -0.834  -0.520  -0.897  0.00  0.00     0.020 A 
ATOM      2  C1  UNL d   1       0.046  -0.058  -1.874  0.00  0.00     0.020 A 
ATOM      3  C2  UNL d   1       1.169   0.687  -1.507  0.00  0.00     0.034 A 
ATOM      4  C3  UNL d   1       1.413   0.972  -0.158  0.00  0.00     0.017 A 
ATOM      5  C4  UNL d   1       0.529   0.507   0.822  0.00  0.00     0.017 A 
ATOM      6  C5  UNL d   1      -0.593  -0.238   0.448  0.00  0.00     0.034 A 
ATOM      7 Cl   UNL d   1       0.764   0.819   2.506  0.00  0.00    -0.070 Cl
ATOM      8 Cl1  UNL d   1       2.821   1.898   0.225  0.00  0.00    -0.070 Cl
ENDROOT
TORSDOF 0
ENDMDL
