MODEL 1
REMARK minimizedAffinity 0.48694855
REMARK minimizedRMSD -1
REMARK  0 active torsions:
REMARK  status: ('A' for Active; 'I' for Inactive)
ROOT
ATOM      1  C   UNL d   1      -2.405  -0.153  -1.564  0.00  0.00     0.020 A 
ATOM      2  C1  UNL d   1      -1.592   0.937  -1.871  0.00  0.00     0.020 A 
ATOM      3  C2  UNL d   1      -0.412   1.150  -1.155  0.00  0.00     0.034 A 
ATOM      4  C3  UNL d   1      -0.042   0.273  -0.130  0.00  0.00     0.017 A 
ATOM      5  C4  UNL d   1      -0.859  -0.821   0.178  0.00  0.00     0.017 A 
ATOM      6  C5  UNL d   1      -2.040  -1.030  -0.542  0.00  0.00     0.034 A 
ATOM      7 Cl   UNL d   1      -0.469  -1.947   1.430  0.00  0.00    -0.070 Cl
ATOM      8 Cl1  UNL d   1       1.431   0.598   0.713  0.00  0.00    -0.070 Cl
ENDROOT
TORSDOF 0
ENDMDL
