MODEL 1
REMARK minimizedAffinity -2.31465507
REMARK minimizedRMSD -1
REMARK  0 active torsions:
REMARK  status: ('A' for Active; 'I' for Inactive)
ROOT
ATOM      1  C   UNL d   1      -1.364   0.248  -2.036  0.00  0.00     0.020 A 
ATOM      2  C1  UNL d   1      -2.135  -0.817  -1.572  0.00  0.00     0.020 A 
ATOM      3  C2  UNL d   1      -1.721  -1.542  -0.453  0.00  0.00     0.034 A 
ATOM      4  C3  UNL d   1      -0.534  -1.204   0.206  0.00  0.00     0.017 A 
ATOM      5  C4  UNL d   1       0.239  -0.134  -0.260  0.00  0.00     0.017 A 
ATOM      6  C5  UNL d   1      -0.179   0.589  -1.381  0.00  0.00     0.034 A 
ATOM      7 Cl   UNL d   1       1.716   0.343   0.501  0.00  0.00    -0.070 Cl
ATOM      8 Cl1  UNL d   1      -0.084  -2.144   1.584  0.00  0.00    -0.070 Cl
ENDROOT
TORSDOF 0
ENDMDL
