MODEL 1
REMARK minimizedAffinity -1.9411124
REMARK minimizedRMSD -1
REMARK  0 active torsions:
REMARK  status: ('A' for Active; 'I' for Inactive)
ROOT
ATOM      1  C   UNL d   1      -1.807   0.496  -1.803  0.00  0.00     0.020 A 
ATOM      2  C1  UNL d   1      -2.250  -0.790  -1.496  0.00  0.00     0.020 A 
ATOM      3  C2  UNL d   1      -1.615  -1.527  -0.494  0.00  0.00     0.034 A 
ATOM      4  C3  UNL d   1      -0.533  -0.978   0.205  0.00  0.00     0.017 A 
ATOM      5  C4  UNL d   1      -0.089   0.313  -0.104  0.00  0.00     0.017 A 
ATOM      6  C5  UNL d   1      -0.729   1.046  -1.108  0.00  0.00     0.034 A 
ATOM      7 Cl   UNL d   1       1.239   1.057   0.715  0.00  0.00    -0.070 Cl
ATOM      8 Cl1  UNL d   1       0.205  -1.945   1.432  0.00  0.00    -0.070 Cl
ENDROOT
TORSDOF 0
ENDMDL
