MODEL 1
REMARK minimizedAffinity -2.74479413
REMARK minimizedRMSD -1
REMARK  0 active torsions:
REMARK  status: ('A' for Active; 'I' for Inactive)
ROOT
ATOM      1  C   UNL d   1      -0.088  -1.515   0.992  0.00  0.00     0.020 A 
ATOM      2  C1  UNL d   1       0.968  -0.705   0.574  0.00  0.00     0.020 A 
ATOM      3  C2  UNL d   1       0.884  -0.018  -0.639  0.00  0.00     0.034 A 
ATOM      4  C3  UNL d   1      -0.258  -0.141  -1.439  0.00  0.00     0.017 A 
ATOM      5  C4  UNL d   1      -1.317  -0.954  -1.019  0.00  0.00     0.017 A 
ATOM      6  C5  UNL d   1      -1.228  -1.639   0.197  0.00  0.00     0.034 A 
ATOM      7 Cl   UNL d   1      -2.758  -1.154  -1.952  0.00  0.00    -0.070 Cl
ATOM      8 Cl1  UNL d   1      -0.295   0.737  -2.927  0.00  0.00    -0.070 Cl
ENDROOT
TORSDOF 0
ENDMDL
