MODEL 1
REMARK minimizedAffinity -0.688797534
REMARK minimizedRMSD -1
REMARK  0 active torsions:
REMARK  status: ('A' for Active; 'I' for Inactive)
ROOT
ATOM      1  C   UNL d   1      -2.161  -0.602  -1.535  0.00  0.00     0.020 A 
ATOM      2  C1  UNL d   1      -1.378   0.405  -2.098  0.00  0.00     0.020 A 
ATOM      3  C2  UNL d   1      -0.153   0.743  -1.520  0.00  0.00     0.034 A 
ATOM      4  C3  UNL d   1       0.293   0.074  -0.374  0.00  0.00     0.017 A 
ATOM      5  C4  UNL d   1      -0.494  -0.937   0.191  0.00  0.00     0.017 A 
ATOM      6  C5  UNL d   1      -1.720  -1.271  -0.393  0.00  0.00     0.034 A 
ATOM      7 Cl   UNL d   1      -0.010  -1.807   1.604  0.00  0.00    -0.070 Cl
ATOM      8 Cl1  UNL d   1       1.818   0.544   0.288  0.00  0.00    -0.070 Cl
ENDROOT
TORSDOF 0
ENDMDL
