MODEL 1
REMARK minimizedAffinity 0.136231214
REMARK minimizedRMSD -1
REMARK  0 active torsions:
REMARK  status: ('A' for Active; 'I' for Inactive)
ROOT
ATOM      1  C   UNL d   1      -2.587  -2.993  -0.361  0.00  0.00     0.020 A 
ATOM      2  C1  UNL d   1      -2.794  -1.962  -1.277  0.00  0.00     0.020 A 
ATOM      3  C2  UNL d   1      -1.877  -0.913  -1.365  0.00  0.00     0.034 A 
ATOM      4  C3  UNL d   1      -0.749  -0.892  -0.537  0.00  0.00     0.017 A 
ATOM      5  C4  UNL d   1      -0.542  -1.927   0.382  0.00  0.00     0.017 A 
ATOM      6  C5  UNL d   1      -1.464  -2.976   0.466  0.00  0.00     0.034 A 
ATOM      7 Cl   UNL d   1       0.826  -1.971   1.437  0.00  0.00    -0.070 Cl
ATOM      8 Cl1  UNL d   1       0.344   0.437  -0.700  0.00  0.00    -0.070 Cl
ENDROOT
TORSDOF 0
ENDMDL
