MODEL 1
REMARK minimizedAffinity 1.59727943
REMARK minimizedRMSD -1
REMARK  0 active torsions:
REMARK  status: ('A' for Active; 'I' for Inactive)
ROOT
ATOM      1  C   UNL d   1      -2.372   0.689   0.135  0.00  0.00     0.020 A 
ATOM      2  C1  UNL d   1      -1.177   1.391  -0.020  0.00  0.00     0.020 A 
ATOM      3  C2  UNL d   1      -0.381   1.174  -1.147  0.00  0.00     0.034 A 
ATOM      4  C3  UNL d   1      -0.779   0.253  -2.123  0.00  0.00     0.017 A 
ATOM      5  C4  UNL d   1      -1.979  -0.451  -1.967  0.00  0.00     0.017 A 
ATOM      6  C5  UNL d   1      -2.772  -0.229  -0.836  0.00  0.00     0.034 A 
ATOM      7 Cl   UNL d   1      -2.536  -1.603  -3.128  0.00  0.00    -0.070 Cl
ATOM      8 Cl1  UNL d   1       0.253   0.036  -3.491  0.00  0.00    -0.070 Cl
ENDROOT
TORSDOF 0
ENDMDL
