MODEL 1
REMARK minimizedAffinity -5.14866447
REMARK minimizedRMSD -1
REMARK  0 active torsions:
REMARK  status: ('A' for Active; 'I' for Inactive)
ROOT
ATOM      1  C   UNL d   1      -1.992  -2.260  -0.044  0.00  0.00     0.020 A 
ATOM      2  C1  UNL d   1      -1.859  -1.168  -0.900  0.00  0.00     0.020 A 
ATOM      3  C2  UNL d   1      -0.721  -0.362  -0.831  0.00  0.00     0.034 A 
ATOM      4  C3  UNL d   1       0.288  -0.646   0.097  0.00  0.00     0.017 A 
ATOM      5  C4  UNL d   1       0.153  -1.743   0.956  0.00  0.00     0.017 A 
ATOM      6  C5  UNL d   1      -0.988  -2.547   0.882  0.00  0.00     0.034 A 
ATOM      7 Cl   UNL d   1       1.356  -2.157   2.126  0.00  0.00    -0.070 Cl
ATOM      8 Cl1  UNL d   1       1.668   0.393   0.127  0.00  0.00    -0.070 Cl
ENDROOT
TORSDOF 0
ENDMDL
