MODEL 1
REMARK minimizedAffinity 1.94903648
REMARK minimizedRMSD -1
REMARK  0 active torsions:
REMARK  status: ('A' for Active; 'I' for Inactive)
ROOT
ATOM      1  C   UNL d   1      -1.511   0.270  -1.981  0.00  0.00     0.020 A 
ATOM      2  C1  UNL d   1      -2.103  -0.707  -1.182  0.00  0.00     0.020 A 
ATOM      3  C2  UNL d   1      -1.424  -1.205  -0.068  0.00  0.00     0.034 A 
ATOM      4  C3  UNL d   1      -0.148  -0.726   0.250  0.00  0.00     0.017 A 
ATOM      5  C4  UNL d   1       0.446   0.255  -0.552  0.00  0.00     0.017 A 
ATOM      6  C5  UNL d   1      -0.239   0.750  -1.666  0.00  0.00     0.034 A 
ATOM      7 Cl   UNL d   1       2.017   0.895  -0.223  0.00  0.00    -0.070 Cl
ATOM      8 Cl1  UNL d   1       0.634  -1.386   1.642  0.00  0.00    -0.070 Cl
ENDROOT
TORSDOF 0
ENDMDL
