MODEL 1
REMARK minimizedAffinity -1.62084401
REMARK minimizedRMSD -1
REMARK  0 active torsions:
REMARK  status: ('A' for Active; 'I' for Inactive)
ROOT
ATOM      1  C   UNL d   1       2.531   2.733   1.259  0.00  0.00     0.020 A 
ATOM      2  C1  UNL d   1       1.838   3.519   0.338  0.00  0.00     0.020 A 
ATOM      3  C2  UNL d   1       0.822   2.955  -0.435  0.00  0.00     0.034 A 
ATOM      4  C3  UNL d   1       0.494   1.602  -0.290  0.00  0.00     0.017 A 
ATOM      5  C4  UNL d   1       1.190   0.814   0.634  0.00  0.00     0.017 A 
ATOM      6  C5  UNL d   1       2.207   1.384   1.406  0.00  0.00     0.034 A 
ATOM      7 Cl   UNL d   1       0.843  -0.863   0.869  0.00  0.00    -0.070 Cl
ATOM      8 Cl1  UNL d   1      -0.774   0.972  -1.280  0.00  0.00    -0.070 Cl
ENDROOT
TORSDOF 0
ENDMDL
