MODEL 1
REMARK minimizedAffinity -0.328918427
REMARK minimizedRMSD -1
REMARK  0 active torsions:
REMARK  status: ('A' for Active; 'I' for Inactive)
ROOT
ATOM      1  C   UNL d   1      -0.245  -0.358   1.212  0.00  0.00     0.020 A 
ATOM      2  C1  UNL d   1       0.138  -0.476  -0.123  0.00  0.00     0.020 A 
ATOM      3  C2  UNL d   1       1.312   0.133  -0.570  0.00  0.00     0.034 A 
ATOM      4  C3  UNL d   1       2.108   0.864   0.320  0.00  0.00     0.017 A 
ATOM      5  C4  UNL d   1       1.723   0.982   1.660  0.00  0.00     0.017 A 
ATOM      6  C5  UNL d   1       0.546   0.370   2.102  0.00  0.00     0.034 A 
ATOM      7 Cl   UNL d   1       2.653   1.867   2.817  0.00  0.00    -0.070 Cl
ATOM      8 Cl1  UNL d   1       3.548   1.590  -0.301  0.00  0.00    -0.070 Cl
ENDROOT
TORSDOF 0
ENDMDL
