MODEL 1
REMARK minimizedAffinity -5.51800108
REMARK minimizedRMSD -1
REMARK  0 active torsions:
REMARK  status: ('A' for Active; 'I' for Inactive)
ROOT
ATOM      1  C1  BNZ d   1      -1.566   0.020   1.930  0.00  0.00     0.000 A 
ATOM      2  C2  BNZ d   1      -2.715   0.327   2.608  0.00  0.00     0.000 A 
ATOM      3  C3  BNZ d   1      -2.952   1.601   3.043  0.00  0.00     0.000 A 
ATOM      4  C4  BNZ d   1      -2.023   2.556   2.835  0.00  0.00     0.000 A 
ATOM      5  C5  BNZ d   1      -0.855   2.260   2.161  0.00  0.00     0.000 A 
ATOM      6  C6  BNZ d   1      -0.637   0.986   1.690  0.00  0.00     0.000 A 
ENDROOT
TORSDOF 0
ENDMDL
