MODEL 1
REMARK minimizedAffinity -1.34788394
REMARK minimizedRMSD -1
REMARK  0 active torsions:
REMARK  status: ('A' for Active; 'I' for Inactive)
ROOT
ATOM      1  C1  BNZ d   1      -0.506   2.436   1.611  0.00  0.00     0.000 A 
ATOM      2  C2  BNZ d   1      -1.850   2.549   1.848  0.00  0.00     0.000 A 
ATOM      3  C3  BNZ d   1      -2.609   1.445   2.117  0.00  0.00     0.000 A 
ATOM      4  C4  BNZ d   1      -2.032   0.226   2.109  0.00  0.00     0.000 A 
ATOM      5  C5  BNZ d   1      -0.680   0.094   1.862  0.00  0.00     0.000 A 
ATOM      6  C6  BNZ d   1       0.088   1.211   1.630  0.00  0.00     0.000 A 
ENDROOT
TORSDOF 0
ENDMDL
