MODEL 1
REMARK minimizedAffinity -4.22393703
REMARK minimizedRMSD -1
REMARK  0 active torsions:
REMARK  status: ('A' for Active; 'I' for Inactive)
ROOT
ATOM      1  C1  BNZ d   1      -2.609   1.011   2.844  0.00  0.00     0.000 A 
ATOM      2  C2  BNZ d   1      -1.553   1.882   2.804  0.00  0.00     0.000 A 
ATOM      3  C3  BNZ d   1      -0.314   1.461   2.407  0.00  0.00     0.000 A 
ATOM      4  C4  BNZ d   1      -0.125   0.165   2.090  0.00  0.00     0.000 A 
ATOM      5  C5  BNZ d   1      -1.178  -0.727   2.134  0.00  0.00     0.000 A 
ATOM      6  C6  BNZ d   1      -2.432  -0.292   2.497  0.00  0.00     0.000 A 
ENDROOT
TORSDOF 0
ENDMDL
