MODEL 1
REMARK minimizedAffinity -1.20007062
REMARK minimizedRMSD -1
REMARK  0 active torsions:
REMARK  status: ('A' for Active; 'I' for Inactive)
ROOT
ATOM      1  C1  BNZ d   1      -1.472   2.806   2.246  0.00  0.00     0.000 A 
ATOM      2  C2  BNZ d   1      -0.561   2.108   1.499  0.00  0.00     0.000 A 
ATOM      3  C3  BNZ d   1      -0.728   0.773   1.260  0.00  0.00     0.000 A 
ATOM      4  C4  BNZ d   1      -1.783   0.129   1.800  0.00  0.00     0.000 A 
ATOM      5  C5  BNZ d   1      -2.706   0.817   2.562  0.00  0.00     0.000 A 
ATOM      6  C6  BNZ d   1      -2.555   2.169   2.769  0.00  0.00     0.000 A 
ENDROOT
TORSDOF 0
ENDMDL
