MODEL 1
REMARK minimizedAffinity -1.2828635
REMARK minimizedRMSD -1
REMARK  0 active torsions:
REMARK  status: ('A' for Active; 'I' for Inactive)
ROOT
ATOM      1  C1  BNZ d   1       0.096   0.571   1.159  0.00  0.00     0.000 A 
ATOM      2  C2  BNZ d   1      -0.153   1.882   1.466  0.00  0.00     0.000 A 
ATOM      3  C3  BNZ d   1      -1.248   2.232   2.205  0.00  0.00     0.000 A 
ATOM      4  C4  BNZ d   1      -2.113   1.276   2.602  0.00  0.00     0.000 A 
ATOM      5  C5  BNZ d   1      -1.880  -0.049   2.293  0.00  0.00     0.000 A 
ATOM      6  C6  BNZ d   1      -0.756  -0.402   1.582  0.00  0.00     0.000 A 
ENDROOT
TORSDOF 0
ENDMDL
