MODEL 1
REMARK minimizedAffinity -3.8465147
REMARK minimizedRMSD -1
REMARK  0 active torsions:
REMARK  status: ('A' for Active; 'I' for Inactive)
ROOT
ATOM      1  C1  BNZ d   1      -1.724  -0.330   2.133  0.00  0.00     0.000 A 
ATOM      2  C2  BNZ d   1      -0.600  -0.683   1.435  0.00  0.00     0.000 A 
ATOM      3  C3  BNZ d   1       0.288   0.266   1.012  0.00  0.00     0.000 A 
ATOM      4  C4  BNZ d   1       0.032   1.568   1.252  0.00  0.00     0.000 A 
ATOM      5  C5  BNZ d   1      -1.101   1.941   1.947  0.00  0.00     0.000 A 
ATOM      6  C6  BNZ d   1      -1.973   0.980   2.405  0.00  0.00     0.000 A 
ENDROOT
TORSDOF 0
ENDMDL
