MODEL 1
REMARK minimizedAffinity -3.62636113
REMARK minimizedRMSD -1
REMARK  0 active torsions:
REMARK  status: ('A' for Active; 'I' for Inactive)
ROOT
ATOM      1  C1  BNZ d   1      -1.598   2.312   2.219  0.00  0.00     0.000 A 
ATOM      2  C2  BNZ d   1      -1.666   0.987   1.879  0.00  0.00     0.000 A 
ATOM      3  C3  BNZ d   1      -0.788   0.450   0.978  0.00  0.00     0.000 A 
ATOM      4  C4  BNZ d   1       0.128   1.246   0.391  0.00  0.00     0.000 A 
ATOM      5  C5  BNZ d   1       0.203   2.586   0.717  0.00  0.00     0.000 A 
ATOM      6  C6  BNZ d   1      -0.657   3.114   1.652  0.00  0.00     0.000 A 
ENDROOT
TORSDOF 0
ENDMDL
