MODEL 1
REMARK minimizedAffinity -4.55838585
REMARK minimizedRMSD -1
REMARK  0 active torsions:
REMARK  status: ('A' for Active; 'I' for Inactive)
ROOT
ATOM      1  C1  BNZ d   1      -2.074   1.239   1.850  0.00  0.00     0.000 A 
ATOM      2  C2  BNZ d   1      -1.510   0.157   1.227  0.00  0.00     0.000 A 
ATOM      3  C3  BNZ d   1      -0.167   0.115   0.977  0.00  0.00     0.000 A 
ATOM      4  C4  BNZ d   1       0.604   1.169   1.314  0.00  0.00     0.000 A 
ATOM      5  C5  BNZ d   1       0.049   2.271   1.934  0.00  0.00     0.000 A 
ATOM      6  C6  BNZ d   1      -1.297   2.294   2.219  0.00  0.00     0.000 A 
ENDROOT
TORSDOF 0
ENDMDL
