MODEL 1
REMARK minimizedAffinity -0.658712387
REMARK minimizedRMSD -1
REMARK  0 active torsions:
REMARK  status: ('A' for Active; 'I' for Inactive)
ROOT
ATOM      1  C1  BNZ d   1      -1.457   0.154   2.635  0.00  0.00     0.000 A 
ATOM      2  C2  BNZ d   1      -0.523  -0.457   1.842  0.00  0.00     0.000 A 
ATOM      3  C3  BNZ d   1       0.209   0.263   0.940  0.00  0.00     0.000 A 
ATOM      4  C4  BNZ d   1      -0.023   1.585   0.803  0.00  0.00     0.000 A 
ATOM      5  C5  BNZ d   1      -0.968   2.214   1.588  0.00  0.00     0.000 A 
ATOM      6  C6  BNZ d   1      -1.675   1.493   2.523  0.00  0.00     0.000 A 
ENDROOT
TORSDOF 0
ENDMDL
