MODEL 1
REMARK minimizedAffinity -4.95395994
REMARK minimizedRMSD -1
REMARK  0 active torsions:
REMARK  status: ('A' for Active; 'I' for Inactive)
ROOT
ATOM      1  C1  BNZ d   1      -0.351   2.637   1.425  0.00  0.00     0.000 A 
ATOM      2  C2  BNZ d   1       0.400   1.810   0.632  0.00  0.00     0.000 A 
ATOM      3  C3  BNZ d   1       0.113   0.477   0.542  0.00  0.00     0.000 A 
ATOM      4  C4  BNZ d   1      -0.898  -0.035   1.274  0.00  0.00     0.000 A 
ATOM      5  C5  BNZ d   1      -1.658   0.784   2.085  0.00  0.00     0.000 A 
ATOM      6  C6  BNZ d   1      -1.391   2.132   2.143  0.00  0.00     0.000 A 
ENDROOT
TORSDOF 0
ENDMDL
