MODEL 1
REMARK minimizedAffinity -3.19852233
REMARK minimizedRMSD -1
REMARK  0 active torsions:
REMARK  status: ('A' for Active; 'I' for Inactive)
ROOT
ATOM      1  C1  BNZ d   1       0.658   1.194   1.095  0.00  0.00     0.000 A 
ATOM      2  C2  BNZ d   1       0.102   2.313   1.656  0.00  0.00     0.000 A 
ATOM      3  C3  BNZ d   1      -1.117   2.255   2.272  0.00  0.00     0.000 A 
ATOM      4  C4  BNZ d   1      -1.795   1.089   2.292  0.00  0.00     0.000 A 
ATOM      5  C5  BNZ d   1      -1.252  -0.045   1.722  0.00  0.00     0.000 A 
ATOM      6  C6  BNZ d   1      -0.008   0.008   1.137  0.00  0.00     0.000 A 
ENDROOT
TORSDOF 0
ENDMDL
