MODEL 1
REMARK minimizedAffinity 0.42016679
REMARK minimizedRMSD -1
REMARK  0 active torsions:
REMARK  status: ('A' for Active; 'I' for Inactive)
ROOT
ATOM      1  C1  BNZ d   1      -0.174   1.277   1.329  0.00  0.00     0.000 A 
ATOM      2  C2  BNZ d   1      -1.150   0.886   2.206  0.00  0.00     0.000 A 
ATOM      3  C3  BNZ d   1      -2.086   1.775   2.653  0.00  0.00     0.000 A 
ATOM      4  C4  BNZ d   1      -2.022   3.062   2.255  0.00  0.00     0.000 A 
ATOM      5  C5  BNZ d   1      -1.039   3.474   1.377  0.00  0.00     0.000 A 
ATOM      6  C6  BNZ d   1      -0.121   2.567   0.899  0.00  0.00     0.000 A 
ENDROOT
TORSDOF 0
ENDMDL
