MODEL 1
REMARK minimizedAffinity -0.403176308
REMARK minimizedRMSD -1
REMARK  0 active torsions:
REMARK  status: ('A' for Active; 'I' for Inactive)
ROOT
ATOM      1  C1  BNZ d   1       0.765   1.638   0.716  0.00  0.00     0.000 A 
ATOM      2  C2  BNZ d   1       1.824   1.512  -0.144  0.00  0.00     0.000 A 
ATOM      3  C3  BNZ d   1       2.606   0.391  -0.131  0.00  0.00     0.000 A 
ATOM      4  C4  BNZ d   1       2.354  -0.584   0.766  0.00  0.00     0.000 A 
ATOM      5  C5  BNZ d   1       1.296  -0.467   1.646  0.00  0.00     0.000 A 
ATOM      6  C6  BNZ d   1       0.487   0.645   1.604  0.00  0.00     0.000 A 
ENDROOT
TORSDOF 0
ENDMDL
