MODEL 1
REMARK minimizedAffinity -2.41218901
REMARK minimizedRMSD -1
REMARK  0 active torsions:
REMARK  status: ('A' for Active; 'I' for Inactive)
ROOT
ATOM      1  C1  BNZ d   1       0.139   2.299   1.002  0.00  0.00     0.000 A 
ATOM      2  C2  BNZ d   1       1.372   1.978   0.502  0.00  0.00     0.000 A 
ATOM      3  C3  BNZ d   1       2.121   0.985   1.068  0.00  0.00     0.000 A 
ATOM      4  C4  BNZ d   1       1.654   0.342   2.158  0.00  0.00     0.000 A 
ATOM      5  C5  BNZ d   1       0.416   0.661   2.681  0.00  0.00     0.000 A 
ATOM      6  C6  BNZ d   1      -0.352   1.634   2.084  0.00  0.00     0.000 A 
ENDROOT
TORSDOF 0
ENDMDL
