MODEL 1
REMARK minimizedAffinity -4.41489506
REMARK minimizedRMSD -1
REMARK  0 active torsions:
REMARK  status: ('A' for Active; 'I' for Inactive)
ROOT
ATOM      1  C1  BNZ d   1      -1.151   2.578   2.234  0.00  0.00     0.000 A 
ATOM      2  C2  BNZ d   1      -0.129   2.052   1.491  0.00  0.00     0.000 A 
ATOM      3  C3  BNZ d   1      -0.128   0.732   1.136  0.00  0.00     0.000 A 
ATOM      4  C4  BNZ d   1      -1.128  -0.068   1.558  0.00  0.00     0.000 A 
ATOM      5  C5  BNZ d   1      -2.162   0.445   2.316  0.00  0.00     0.000 A 
ATOM      6  C6  BNZ d   1      -2.179   1.782   2.638  0.00  0.00     0.000 A 
ENDROOT
TORSDOF 0
ENDMDL
