MODEL 1
REMARK minimizedAffinity -3.95755267
REMARK minimizedRMSD -1
REMARK  1 active torsions:
REMARK  status: ('A' for Active; 'I' for Inactive)
REMARK    1  A    between atoms: C1_2  and  C2_3 
ROOT
ATOM      1  C2  UNL d   1       0.003   0.148   0.294  0.00  0.00    -0.076 A 
ATOM      2  C3  UNL d   1      -1.054   1.056   0.108  0.00  0.00     0.004 A 
ATOM      3  C4  UNL d   1      -0.815   2.425   0.008  0.00  0.00    -0.003 A 
ATOM      4  C5  UNL d   1       0.486   2.909   0.093  0.00  0.00     0.000 A 
ATOM      5  C6  UNL d   1       1.549   2.021   0.260  0.00  0.00     0.000 A 
ATOM      6  C7  UNL d   1       1.326   0.636   0.345  0.00  0.00    -0.073 A 
ATOM      7  C8  UNL d   1       2.508  -0.275   0.531  0.00  0.00     0.078 C 
ENDROOT
BRANCH   1   8
ATOM      8  C1  UNL d   1      -0.320  -1.324   0.422  0.00  0.00     0.053 C 
ATOM      9  C   UNL d   1      -0.452  -2.011  -0.928  0.00  0.00     0.018 C 
ENDBRANCH   1   8
TORSDOF 1
ENDMDL
