MODEL 1
REMARK minimizedAffinity -5.46958447
REMARK minimizedRMSD -1
REMARK  1 active torsions:
REMARK  status: ('A' for Active; 'I' for Inactive)
REMARK    1  A    between atoms: C1_2  and  C2_3 
ROOT
ATOM      1  C2  UNL d   1       0.139   0.252   0.239  0.00  0.00    -0.076 A 
ATOM      2  C3  UNL d   1       1.259   0.899  -0.311  0.00  0.00     0.004 A 
ATOM      3  C4  UNL d   1       1.293   2.286  -0.444  0.00  0.00    -0.003 A 
ATOM      4  C5  UNL d   1       0.207   3.049  -0.028  0.00  0.00     0.000 A 
ATOM      5  C6  UNL d   1      -0.906   2.425   0.536  0.00  0.00     0.000 A 
ATOM      6  C7  UNL d   1      -0.949   1.029   0.692  0.00  0.00    -0.073 A 
ATOM      7  C8  UNL d   1      -2.176   0.408   1.301  0.00  0.00     0.078 C 
ENDROOT
BRANCH   1   8
ATOM      8  C1  UNL d   1       0.148  -1.257   0.333  0.00  0.00     0.053 C 
ATOM      9  C   UNL d   1      -0.214  -1.926  -0.984  0.00  0.00     0.018 C 
ENDBRANCH   1   8
TORSDOF 1
ENDMDL
