MODEL 1
REMARK minimizedAffinity -4.44024611
REMARK minimizedRMSD -1
REMARK  1 active torsions:
REMARK  status: ('A' for Active; 'I' for Inactive)
REMARK    1  A    between atoms: C1_2  and  C2_3 
ROOT
ATOM      1  C2  UNL d   1      -0.170   0.652   0.389  0.00  0.00    -0.076 A 
ATOM      2  C3  UNL d   1       0.411  -0.605   0.631  0.00  0.00     0.004 A 
ATOM      3  C4  UNL d   1       1.789  -0.741   0.786  0.00  0.00    -0.003 A 
ATOM      4  C5  UNL d   1       2.610   0.378   0.700  0.00  0.00     0.000 A 
ATOM      5  C6  UNL d   1       2.050   1.635   0.478  0.00  0.00     0.000 A 
ATOM      6  C7  UNL d   1       0.660   1.792   0.336  0.00  0.00    -0.073 A 
ATOM      7  C8  UNL d   1       0.110   3.171   0.091  0.00  0.00     0.078 C 
ENDROOT
BRANCH   1   8
ATOM      8  C1  UNL d   1      -1.668   0.734   0.203  0.00  0.00     0.053 C 
ATOM      9  C   UNL d   1      -2.431  -0.020   1.281  0.00  0.00     0.018 C 
ENDBRANCH   1   8
TORSDOF 1
ENDMDL
