MODEL 1
REMARK minimizedAffinity -0.415669382
REMARK minimizedRMSD -1
REMARK  1 active torsions:
REMARK  status: ('A' for Active; 'I' for Inactive)
REMARK    1  A    between atoms: C1_2  and  C2_3 
ROOT
ATOM      1  C2  UNL d   1       0.029  -0.987  -0.049  0.00  0.00    -0.076 A 
ATOM      2  C3  UNL d   1       1.425  -0.897  -0.186  0.00  0.00     0.004 A 
ATOM      3  C4  UNL d   1       2.079   0.330  -0.080  0.00  0.00    -0.003 A 
ATOM      4  C5  UNL d   1       1.347   1.486   0.165  0.00  0.00     0.000 A 
ATOM      5  C6  UNL d   1      -0.037   1.413   0.321  0.00  0.00     0.000 A 
ATOM      6  C7  UNL d   1      -0.710   0.182   0.234  0.00  0.00    -0.073 A 
ATOM      7  C8  UNL d   1      -2.204   0.163   0.405  0.00  0.00     0.078 C 
ENDROOT
BRANCH   1   8
ATOM      8  C1  UNL d   1      -0.628  -2.340  -0.200  0.00  0.00     0.053 C 
ATOM      9  C   UNL d   1      -0.635  -2.826  -1.641  0.00  0.00     0.018 C 
ENDBRANCH   1   8
TORSDOF 1
ENDMDL
