MODEL 1
REMARK minimizedAffinity -1.5336982
REMARK minimizedRMSD -1
REMARK  1 active torsions:
REMARK  status: ('A' for Active; 'I' for Inactive)
REMARK    1  A    between atoms: C1_2  and  C2_3 
ROOT
ATOM      1  C2  UNL d   1       0.149   1.069   0.754  0.00  0.00    -0.076 A 
ATOM      2  C3  UNL d   1       1.252   0.762  -0.062  0.00  0.00     0.004 A 
ATOM      3  C4  UNL d   1       2.249   1.705  -0.305  0.00  0.00    -0.003 A 
ATOM      4  C5  UNL d   1       2.161   2.970   0.264  0.00  0.00     0.000 A 
ATOM      5  C6  UNL d   1       1.083   3.286   1.091  0.00  0.00     0.000 A 
ATOM      6  C7  UNL d   1       0.077   2.342   1.359  0.00  0.00    -0.073 A 
ATOM      7  C8  UNL d   1      -1.066   2.739   2.253  0.00  0.00     0.078 C 
ENDROOT
BRANCH   1   8
ATOM      8  C1  UNL d   1      -0.915   0.015   0.960  0.00  0.00     0.053 C 
ATOM      9  C   UNL d   1      -0.776  -1.150  -0.007  0.00  0.00     0.018 C 
ENDBRANCH   1   8
TORSDOF 1
ENDMDL
