MODEL 1
REMARK minimizedAffinity -5.16910315
REMARK minimizedRMSD -1
REMARK  1 active torsions:
REMARK  status: ('A' for Active; 'I' for Inactive)
REMARK    1  A    between atoms: C1_2  and  C2_3 
ROOT
ATOM      1  C2  UNL d   1       0.297   0.133   0.077  0.00  0.00    -0.076 A 
ATOM      2  C3  UNL d   1      -1.042   0.533   0.231  0.00  0.00     0.004 A 
ATOM      3  C4  UNL d   1      -1.393   1.882   0.228  0.00  0.00    -0.003 A 
ATOM      4  C5  UNL d   1      -0.411   2.853   0.070  0.00  0.00     0.000 A 
ATOM      5  C6  UNL d   1       0.920   2.475  -0.102  0.00  0.00     0.000 A 
ATOM      6  C7  UNL d   1       1.289   1.119  -0.118  0.00  0.00    -0.073 A 
ATOM      7  C8  UNL d   1       2.740   0.767  -0.301  0.00  0.00     0.078 C 
ENDROOT
BRANCH   1   8
ATOM      8  C1  UNL d   1       0.622  -1.343   0.115  0.00  0.00     0.053 C 
ATOM      9  C   UNL d   1      -0.132  -2.133  -0.943  0.00  0.00     0.018 C 
ENDBRANCH   1   8
TORSDOF 1
ENDMDL
