MODEL 1
REMARK minimizedAffinity -4.55902433
REMARK minimizedRMSD -1
REMARK  1 active torsions:
REMARK  status: ('A' for Active; 'I' for Inactive)
REMARK    1  A    between atoms: C1_2  and  C2_3 
ROOT
ATOM      1  C2  UNL d   1       0.002   0.068   0.143  0.00  0.00    -0.076 A 
ATOM      2  C3  UNL d   1      -1.360   0.227   0.451  0.00  0.00     0.004 A 
ATOM      3  C4  UNL d   1      -1.915   1.495   0.616  0.00  0.00    -0.003 A 
ATOM      4  C5  UNL d   1      -1.117   2.625   0.475  0.00  0.00     0.000 A 
ATOM      5  C6  UNL d   1       0.233   2.486   0.152  0.00  0.00     0.000 A 
ATOM      6  C7  UNL d   1       0.804   1.216  -0.034  0.00  0.00    -0.073 A 
ATOM      7  C8  UNL d   1       2.266   1.125  -0.375  0.00  0.00     0.078 C 
ENDROOT
BRANCH   1   8
ATOM      8  C1  UNL d   1       0.554  -1.332   0.003  0.00  0.00     0.053 C 
ATOM      9  C   UNL d   1      -0.375  -2.250  -0.777  0.00  0.00     0.018 C 
ENDBRANCH   1   8
TORSDOF 1
ENDMDL
