MODEL 1
REMARK minimizedAffinity -5.71868658
REMARK minimizedRMSD -1
REMARK  1 active torsions:
REMARK  status: ('A' for Active; 'I' for Inactive)
REMARK    1  A    between atoms: C1_2  and  C2_3 
ROOT
ATOM      1  C2  UNL d   1       0.144   0.158   0.274  0.00  0.00    -0.076 A 
ATOM      2  C3  UNL d   1      -1.226   0.471   0.326  0.00  0.00     0.004 A 
ATOM      3  C4  UNL d   1      -1.663   1.792   0.237  0.00  0.00    -0.003 A 
ATOM      4  C5  UNL d   1      -0.738   2.820   0.093  0.00  0.00     0.000 A 
ATOM      5  C6  UNL d   1       0.623   2.526   0.021  0.00  0.00     0.000 A 
ATOM      6  C7  UNL d   1       1.080   1.198   0.093  0.00  0.00    -0.073 A 
ATOM      7  C8  UNL d   1       2.559   0.939   0.017  0.00  0.00     0.078 C 
ENDROOT
BRANCH   1   8
ATOM      8  C1  UNL d   1       0.560  -1.290   0.403  0.00  0.00     0.053 C 
ATOM      9  C   UNL d   1      -0.295  -2.220  -0.443  0.00  0.00     0.018 C 
ENDBRANCH   1   8
TORSDOF 1
ENDMDL
