MODEL 1
REMARK minimizedAffinity -3.67789388
REMARK minimizedRMSD -1
REMARK  1 active torsions:
REMARK  status: ('A' for Active; 'I' for Inactive)
REMARK    1  A    between atoms: C1_2  and  C2_3 
ROOT
ATOM      1  C2  UNL d   1      -0.156   0.033   0.179  0.00  0.00    -0.076 A 
ATOM      2  C3  UNL d   1       0.758   0.824  -0.538  0.00  0.00     0.004 A 
ATOM      3  C4  UNL d   1       0.637   2.213  -0.567  0.00  0.00    -0.003 A 
ATOM      4  C5  UNL d   1      -0.399   2.833   0.122  0.00  0.00     0.000 A 
ATOM      5  C6  UNL d   1      -1.305   2.064   0.854  0.00  0.00     0.000 A 
ATOM      6  C7  UNL d   1      -1.187   0.665   0.906  0.00  0.00    -0.073 A 
ATOM      7  C8  UNL d   1      -2.195  -0.115   1.705  0.00  0.00     0.078 C 
ENDROOT
BRANCH   1   8
ATOM      8  C1  UNL d   1       0.010  -1.469   0.152  0.00  0.00     0.053 C 
ATOM      9  C   UNL d   1      -0.022  -2.033  -1.261  0.00  0.00     0.018 C 
ENDBRANCH   1   8
TORSDOF 1
ENDMDL
