MODEL 1
REMARK minimizedAffinity -1.27641642
REMARK minimizedRMSD -1
REMARK  1 active torsions:
REMARK  status: ('A' for Active; 'I' for Inactive)
REMARK    1  A    between atoms: C1_2  and  C2_3 
ROOT
ATOM      1  C2  UNL d   1       0.249   1.180  -0.305  0.00  0.00    -0.076 A 
ATOM      2  C3  UNL d   1      -0.515   0.000  -0.341  0.00  0.00     0.004 A 
ATOM      3  C4  UNL d   1      -1.628  -0.159   0.482  0.00  0.00    -0.003 A 
ATOM      4  C5  UNL d   1      -1.997   0.859   1.354  0.00  0.00     0.000 A 
ATOM      5  C6  UNL d   1      -1.261   2.043   1.391  0.00  0.00     0.000 A 
ATOM      6  C7  UNL d   1      -0.145   2.226   0.556  0.00  0.00    -0.073 A 
ATOM      7  C8  UNL d   1       0.616   3.521   0.642  0.00  0.00     0.078 C 
ENDROOT
BRANCH   1   8
ATOM      8  C1  UNL d   1       1.462   1.285  -1.201  0.00  0.00     0.053 C 
ATOM      9  C   UNL d   1       2.758   0.976  -0.466  0.00  0.00     0.018 C 
ENDBRANCH   1   8
TORSDOF 1
ENDMDL
