MODEL 1
REMARK minimizedAffinity -4.14007807
REMARK minimizedRMSD -1
REMARK  1 active torsions:
REMARK  status: ('A' for Active; 'I' for Inactive)
REMARK    1  A    between atoms: C1_2  and  C2_3 
ROOT
ATOM      1  C2  UNL d   1       0.780   1.309   0.068  0.00  0.00    -0.076 A 
ATOM      2  C3  UNL d   1       2.136   0.941   0.121  0.00  0.00     0.004 A 
ATOM      3  C4  UNL d   1       2.528  -0.275   0.677  0.00  0.00    -0.003 A 
ATOM      4  C5  UNL d   1       1.571  -1.143   1.190  0.00  0.00     0.000 A 
ATOM      5  C6  UNL d   1       0.220  -0.803   1.130  0.00  0.00     0.000 A 
ATOM      6  C7  UNL d   1      -0.194   0.412   0.558  0.00  0.00    -0.073 A 
ATOM      7  C8  UNL d   1      -1.663   0.732   0.525  0.00  0.00     0.078 C 
ENDROOT
BRANCH   1   8
ATOM      8  C1  UNL d   1       0.416   2.653  -0.522  0.00  0.00     0.053 C 
ATOM      9  C   UNL d   1       0.307   3.743   0.533  0.00  0.00     0.018 C 
ENDBRANCH   1   8
TORSDOF 1
ENDMDL
