MODEL 1
REMARK minimizedAffinity -3.19724059
REMARK minimizedRMSD -1
REMARK  0 active torsions:
REMARK  status: ('A' for Active; 'I' for Inactive)
ROOT
ATOM      1  C   UNL d   1      -1.338   0.125  -1.184  0.00  0.00    -0.002 A 
ATOM      2  C1  UNL d   1      -1.592  -0.298   0.113  0.00  0.00     0.010 A 
ATOM      3  C2  UNL d   1      -0.708   0.015   1.147  0.00  0.00     0.041 A 
ATOM      4  C3  UNL d   1       0.445   0.770   0.854  0.00  0.00    -0.075 A 
ATOM      5  S   UNL d   1       1.667   1.273   1.961  0.00  0.00     0.015 SA
ATOM      6  C4  UNL d   1       2.554   2.063   0.738  0.00  0.00     0.022 A 
ATOM      7  C5  UNL d   1       1.947   1.955  -0.491  0.00  0.00     0.026 A 
ATOM      8  C6  UNL d   1       0.721   1.209  -0.444  0.00  0.00    -0.082 A 
ATOM      9  C7  UNL d   1      -0.194   0.874  -1.472  0.00  0.00     0.045 A 
ENDROOT
TORSDOF 0
ENDMDL
