MODEL 1
REMARK minimizedAffinity -1.92259932
REMARK minimizedRMSD -1
REMARK  0 active torsions:
REMARK  status: ('A' for Active; 'I' for Inactive)
ROOT
ATOM      1  C   UNL d   1      -2.308  -0.814  -1.400  0.00  0.00    -0.002 A 
ATOM      2  C1  UNL d   1      -2.765  -0.465  -0.137  0.00  0.00     0.010 A 
ATOM      3  C2  UNL d   1      -1.902   0.111   0.797  0.00  0.00     0.041 A 
ATOM      4  C3  UNL d   1      -0.558   0.334   0.436  0.00  0.00    -0.075 A 
ATOM      5  S   UNL d   1       0.679   1.026   1.416  0.00  0.00     0.015 SA
ATOM      6  C4  UNL d   1       1.844   0.876   0.181  0.00  0.00     0.022 A 
ATOM      7  C5  UNL d   1       1.319   0.313  -0.958  0.00  0.00     0.026 A 
ATOM      8  C6  UNL d   1      -0.075  -0.008  -0.830  0.00  0.00    -0.082 A 
ATOM      9  C7  UNL d   1      -0.975  -0.591  -1.754  0.00  0.00     0.045 A 
ENDROOT
TORSDOF 0
ENDMDL
