MODEL 1
REMARK minimizedAffinity -2.37956238
REMARK minimizedRMSD -1
REMARK  0 active torsions:
REMARK  status: ('A' for Active; 'I' for Inactive)
ROOT
ATOM      1  C   UNL d   1      -3.315  -1.552   1.063  0.00  0.00    -0.002 A 
ATOM      2  C1  UNL d   1      -3.618  -1.536  -0.291  0.00  0.00     0.010 A 
ATOM      3  C2  UNL d   1      -2.732  -0.971  -1.210  0.00  0.00     0.041 A 
ATOM      4  C3  UNL d   1      -1.523  -0.419  -0.742  0.00  0.00    -0.075 A 
ATOM      5  S   UNL d   1      -0.286   0.325  -1.684  0.00  0.00     0.015 SA
ATOM      6  C4  UNL d   1       0.674   0.638  -0.311  0.00  0.00     0.022 A 
ATOM      7  C5  UNL d   1       0.081   0.193   0.846  0.00  0.00     0.026 A 
ATOM      8  C6  UNL d   1      -1.196  -0.424   0.617  0.00  0.00    -0.082 A 
ATOM      9  C7  UNL d   1      -2.115  -1.003   1.524  0.00  0.00     0.045 A 
ENDROOT
TORSDOF 0
ENDMDL
