MODEL 1
REMARK minimizedAffinity -3.51502419
REMARK minimizedRMSD -1
REMARK  0 active torsions:
REMARK  status: ('A' for Active; 'I' for Inactive)
ROOT
ATOM      1  C   UNL d   1       0.729  -1.760   1.413  0.00  0.00    -0.002 A 
ATOM      2  C1  UNL d   1       1.403  -0.872   0.586  0.00  0.00     0.010 A 
ATOM      3  C2  UNL d   1       0.700  -0.055  -0.301  0.00  0.00     0.041 A 
ATOM      4  C3  UNL d   1      -0.706  -0.144  -0.342  0.00  0.00    -0.075 A 
ATOM      5  S   UNL d   1      -1.776   0.760  -1.348  0.00  0.00     0.015 SA
ATOM      6  C4  UNL d   1      -3.152  -0.011  -0.703  0.00  0.00     0.022 A 
ATOM      7  C5  UNL d   1      -2.822  -0.938   0.257  0.00  0.00     0.026 A 
ATOM      8  C6  UNL d   1      -1.407  -1.029   0.481  0.00  0.00    -0.082 A 
ATOM      9  C7  UNL d   1      -0.665  -1.845   1.369  0.00  0.00     0.045 A 
ENDROOT
TORSDOF 0
ENDMDL
