MODEL 1
REMARK minimizedAffinity -0.360646248
REMARK minimizedRMSD -1
REMARK  0 active torsions:
REMARK  status: ('A' for Active; 'I' for Inactive)
ROOT
ATOM      1  C   UNL d   1      -1.843  -2.337   1.970  0.00  0.00    -0.002 A 
ATOM      2  C1  UNL d   1      -2.613  -1.541   1.134  0.00  0.00     0.010 A 
ATOM      3  C2  UNL d   1      -2.021  -0.533   0.370  0.00  0.00     0.041 A 
ATOM      4  C3  UNL d   1      -0.629  -0.337   0.461  0.00  0.00    -0.075 A 
ATOM      5  S   UNL d   1       0.313   0.836  -0.381  0.00  0.00     0.015 SA
ATOM      6  C4  UNL d   1       1.759   0.308   0.349  0.00  0.00     0.022 A 
ATOM      7  C5  UNL d   1       1.547  -0.737   1.217  0.00  0.00     0.026 A 
ATOM      8  C6  UNL d   1       0.167  -1.126   1.296  0.00  0.00    -0.082 A 
ATOM      9  C7  UNL d   1      -0.462  -2.139   2.058  0.00  0.00     0.045 A 
ENDROOT
TORSDOF 0
ENDMDL
