MODEL 1
REMARK minimizedAffinity -4.4982605
REMARK minimizedRMSD -1
REMARK  0 active torsions:
REMARK  status: ('A' for Active; 'I' for Inactive)
ROOT
ATOM      1  C   UNL d   1      -3.249  -0.927   0.227  0.00  0.00    -0.002 A 
ATOM      2  C1  UNL d   1      -2.858   0.116  -0.600  0.00  0.00     0.010 A 
ATOM      3  C2  UNL d   1      -1.513   0.482  -0.694  0.00  0.00     0.041 A 
ATOM      4  C3  UNL d   1      -0.560  -0.226   0.064  0.00  0.00    -0.075 A 
ATOM      5  S   UNL d   1       1.142   0.045   0.108  0.00  0.00     0.015 SA
ATOM      6  C4  UNL d   1       1.390  -1.218   1.225  0.00  0.00     0.022 A 
ATOM      7  C5  UNL d   1       0.213  -1.842   1.567  0.00  0.00     0.026 A 
ATOM      8  C6  UNL d   1      -0.930  -1.281   0.903  0.00  0.00    -0.082 A 
ATOM      9  C7  UNL d   1      -2.300  -1.627   0.977  0.00  0.00     0.045 A 
ENDROOT
TORSDOF 0
ENDMDL
