MODEL 1
REMARK minimizedAffinity 6.23885298
REMARK minimizedRMSD -1
REMARK  0 active torsions:
REMARK  status: ('A' for Active; 'I' for Inactive)
ROOT
ATOM      1  C   UNL d   1      -0.611  -2.058   2.106  0.00  0.00    -0.002 A 
ATOM      2  C1  UNL d   1      -1.742  -1.291   1.867  0.00  0.00     0.010 A 
ATOM      3  C2  UNL d   1      -1.716  -0.262   0.924  0.00  0.00     0.041 A 
ATOM      4  C3  UNL d   1      -0.522  -0.015   0.216  0.00  0.00    -0.075 A 
ATOM      5  S   UNL d   1      -0.257   1.191  -0.986  0.00  0.00     0.015 SA
ATOM      6  C4  UNL d   1       1.364   0.716  -1.212  0.00  0.00     0.022 A 
ATOM      7  C5  UNL d   1       1.711  -0.336  -0.397  0.00  0.00     0.026 A 
ATOM      8  C6  UNL d   1       0.630  -0.775   0.439  0.00  0.00    -0.082 A 
ATOM      9  C7  UNL d   1       0.571  -1.811   1.402  0.00  0.00     0.045 A 
ENDROOT
TORSDOF 0
ENDMDL
