MODEL 1
REMARK minimizedAffinity -5.12142658
REMARK minimizedRMSD -1
REMARK  2 active torsions:
REMARK  status: ('A' for Active; 'I' for Inactive)
REMARK    1  A    between atoms: C1_2  and  C2_3 
REMARK    2  A    between atoms: C2_3  and  C3_4 
ROOT
ATOM      1  C3  UNL d   1      -0.197   0.243   0.366  0.00  0.00    -0.075 A 
ATOM      2  C4  UNL d   1       0.627   1.303  -0.038  0.00  0.00     0.002 A 
ATOM      3  C5  UNL d   1       1.477   1.161  -1.135  0.00  0.00     0.002 A 
ATOM      4  C6  UNL d   1       1.520  -0.043  -1.835  0.00  0.00    -0.004 A 
ATOM      5  C7  UNL d   1       0.718  -1.108  -1.432  0.00  0.00     0.002 A 
ATOM      6  C8  UNL d   1      -0.136  -0.967  -0.337  0.00  0.00     0.002 A 
ENDROOT
BRANCH   1   7
ATOM      7  C2  UNL d   1      -1.140   0.400   1.535  0.00  0.00     0.056 C 
BRANCH   7   8
ATOM      8  C1  UNL d   1      -2.554  -0.129   1.272  0.00  0.00     0.007 C 
ATOM      9  C   UNL d   1      -3.645   0.876   1.614  0.00  0.00     0.009 C 
ENDBRANCH   7   8
ENDBRANCH   1   7
TORSDOF 2
ENDMDL
