MODEL 1
REMARK minimizedAffinity 4.01993942
REMARK minimizedRMSD -1
REMARK  2 active torsions:
REMARK  status: ('A' for Active; 'I' for Inactive)
REMARK    1  A    between atoms: C1_2  and  C2_3 
REMARK    2  A    between atoms: C2_3  and  C3_4 
ROOT
ATOM      1  C3  UNL d   1       0.398   1.017   1.717  0.00  0.00    -0.075 A 
ATOM      2  C4  UNL d   1       1.376   1.976   1.419  0.00  0.00     0.002 A 
ATOM      3  C5  UNL d   1       2.236   2.444   2.414  0.00  0.00     0.002 A 
ATOM      4  C6  UNL d   1       2.122   1.968   3.718  0.00  0.00    -0.004 A 
ATOM      5  C7  UNL d   1       1.142   1.027   4.029  0.00  0.00     0.002 A 
ATOM      6  C8  UNL d   1       0.284   0.554   3.035  0.00  0.00     0.002 A 
ENDROOT
BRANCH   1   7
ATOM      7  C2  UNL d   1      -0.516   0.484   0.639  0.00  0.00     0.056 C 
BRANCH   7   8
ATOM      8  C1  UNL d   1       0.198  -0.355  -0.425  0.00  0.00     0.007 C 
ATOM      9  C   UNL d   1      -0.066  -1.849  -0.288  0.00  0.00     0.009 C 
ENDBRANCH   7   8
ENDBRANCH   1   7
TORSDOF 2
ENDMDL
