MODEL 1
REMARK minimizedAffinity -0.864826381
REMARK minimizedRMSD -1
REMARK  2 active torsions:
REMARK  status: ('A' for Active; 'I' for Inactive)
REMARK    1  A    between atoms: C1_2  and  C2_3 
REMARK    2  A    between atoms: C2_3  and  C3_4 
ROOT
ATOM      1  C3  UNL d   1       1.608   0.774  -1.058  0.00  0.00    -0.075 A 
ATOM      2  C4  UNL d   1       0.653   0.359  -0.118  0.00  0.00     0.002 A 
ATOM      3  C5  UNL d   1      -0.165  -0.741  -0.377  0.00  0.00     0.002 A 
ATOM      4  C6  UNL d   1      -0.047  -1.433  -1.581  0.00  0.00    -0.004 A 
ATOM      5  C7  UNL d   1       0.886  -1.019  -2.529  0.00  0.00     0.002 A 
ATOM      6  C8  UNL d   1       1.709   0.079  -2.270  0.00  0.00     0.002 A 
ENDROOT
BRANCH   1   7
ATOM      7  C2  UNL d   1       2.516   1.945  -0.771  0.00  0.00     0.056 C 
BRANCH   7   8
ATOM      8  C1  UNL d   1       3.727   1.596   0.101  0.00  0.00     0.007 C 
ATOM      9  C   UNL d   1       4.954   1.195  -0.707  0.00  0.00     0.009 C 
ENDBRANCH   7   8
ENDBRANCH   1   7
TORSDOF 2
ENDMDL
