MODEL 1
REMARK minimizedAffinity -3.47531891
REMARK minimizedRMSD -1
REMARK  2 active torsions:
REMARK  status: ('A' for Active; 'I' for Inactive)
REMARK    1  A    between atoms: C1_2  and  C2_3 
REMARK    2  A    between atoms: C2_3  and  C3_4 
ROOT
ATOM      1  C3  UNL d   1       1.749   1.952   1.669  0.00  0.00    -0.075 A 
ATOM      2  C4  UNL d   1       2.452   3.037   2.211  0.00  0.00     0.002 A 
ATOM      3  C5  UNL d   1       2.664   3.127   3.587  0.00  0.00     0.002 A 
ATOM      4  C6  UNL d   1       2.167   2.142   4.438  0.00  0.00    -0.004 A 
ATOM      5  C7  UNL d   1       1.453   1.068   3.911  0.00  0.00     0.002 A 
ATOM      6  C8  UNL d   1       1.243   0.973   2.535  0.00  0.00     0.002 A 
ENDROOT
BRANCH   1   7
ATOM      7  C2  UNL d   1       1.542   1.832   0.178  0.00  0.00     0.056 C 
BRANCH   7   8
ATOM      8  C1  UNL d   1       0.481   0.803  -0.225  0.00  0.00     0.007 C 
ATOM      9  C   UNL d   1       0.712   0.211  -1.608  0.00  0.00     0.009 C 
ENDBRANCH   7   8
ENDBRANCH   1   7
TORSDOF 2
ENDMDL
