MODEL 1
REMARK minimizedAffinity -4.36297941
REMARK minimizedRMSD -1
REMARK  2 active torsions:
REMARK  status: ('A' for Active; 'I' for Inactive)
REMARK    1  A    between atoms: C1_2  and  C2_3 
REMARK    2  A    between atoms: C2_3  and  C3_4 
ROOT
ATOM      1  C3  UNL d   1      -0.364  -0.311   0.393  0.00  0.00    -0.075 A 
ATOM      2  C4  UNL d   1      -0.122  -1.653   0.063  0.00  0.00     0.002 A 
ATOM      3  C5  UNL d   1       0.464  -1.986  -1.159  0.00  0.00     0.002 A 
ATOM      4  C6  UNL d   1       0.804  -0.987  -2.068  0.00  0.00    -0.004 A 
ATOM      5  C7  UNL d   1       0.553   0.348  -1.756  0.00  0.00     0.002 A 
ATOM      6  C8  UNL d   1      -0.028   0.685  -0.533  0.00  0.00     0.002 A 
ENDROOT
BRANCH   1   7
ATOM      7  C2  UNL d   1      -0.970   0.058   1.726  0.00  0.00     0.056 C 
BRANCH   7   8
ATOM      8  C1  UNL d   1      -2.390   0.628   1.629  0.00  0.00     0.007 C 
ATOM      9  C   UNL d   1      -2.778   1.480   2.830  0.00  0.00     0.009 C 
ENDBRANCH   7   8
ENDBRANCH   1   7
TORSDOF 2
ENDMDL
