MODEL 1
REMARK minimizedAffinity 0.297406584
REMARK minimizedRMSD -1
REMARK  2 active torsions:
REMARK  status: ('A' for Active; 'I' for Inactive)
REMARK    1  A    between atoms: C1_2  and  C2_3 
REMARK    2  A    between atoms: C2_3  and  C3_4 
ROOT
ATOM      1  C3  UNL d   1       0.024   0.593   1.511  0.00  0.00    -0.075 A 
ATOM      2  C4  UNL d   1       0.950   1.417   0.856  0.00  0.00     0.002 A 
ATOM      3  C5  UNL d   1       1.907   2.126   1.584  0.00  0.00     0.002 A 
ATOM      4  C6  UNL d   1       1.943   2.028   2.973  0.00  0.00    -0.004 A 
ATOM      5  C7  UNL d   1       1.017   1.226   3.635  0.00  0.00     0.002 A 
ATOM      6  C8  UNL d   1       0.061   0.512   2.910  0.00  0.00     0.002 A 
ENDROOT
BRANCH   1   7
ATOM      7  C2  UNL d   1      -0.995  -0.199   0.727  0.00  0.00     0.056 C 
BRANCH   7   8
ATOM      8  C1  UNL d   1      -0.670  -1.692   0.612  0.00  0.00     0.007 C 
ATOM      9  C   UNL d   1       0.009  -2.059  -0.701  0.00  0.00     0.009 C 
ENDBRANCH   7   8
ENDBRANCH   1   7
TORSDOF 2
ENDMDL
