MODEL 1
REMARK minimizedAffinity -3.74769354
REMARK minimizedRMSD -1
REMARK  2 active torsions:
REMARK  status: ('A' for Active; 'I' for Inactive)
REMARK    1  A    between atoms: C1_2  and  C2_3 
REMARK    2  A    between atoms: C2_3  and  C3_4 
ROOT
ATOM      1  C3  UNL d   1      -0.602  -0.535   0.408  0.00  0.00    -0.075 A 
ATOM      2  C4  UNL d   1       0.061   0.358  -0.446  0.00  0.00     0.002 A 
ATOM      3  C5  UNL d   1       0.914  -0.116  -1.443  0.00  0.00     0.002 A 
ATOM      4  C6  UNL d   1       1.123  -1.485  -1.592  0.00  0.00    -0.004 A 
ATOM      5  C7  UNL d   1       0.482  -2.381  -0.738  0.00  0.00     0.002 A 
ATOM      6  C8  UNL d   1      -0.376  -1.909   0.257  0.00  0.00     0.002 A 
ENDROOT
BRANCH   1   7
ATOM      7  C2  UNL d   1      -1.549  -0.029   1.470  0.00  0.00     0.056 C 
BRANCH   7   8
ATOM      8  C1  UNL d   1      -3.027  -0.293   1.164  0.00  0.00     0.007 C 
ATOM      9  C   UNL d   1      -3.966   0.706   1.827  0.00  0.00     0.009 C 
ENDBRANCH   7   8
ENDBRANCH   1   7
TORSDOF 2
ENDMDL
