MODEL 1
REMARK minimizedAffinity -2.32234621
REMARK minimizedRMSD -1
REMARK  2 active torsions:
REMARK  status: ('A' for Active; 'I' for Inactive)
REMARK    1  A    between atoms: C1_2  and  C2_3 
REMARK    2  A    between atoms: C2_3  and  C3_4 
ROOT
ATOM      1  C3  UNL d   1      -2.146  -0.225   1.177  0.00  0.00    -0.075 A 
ATOM      2  C4  UNL d   1      -3.003  -1.315   1.387  0.00  0.00     0.002 A 
ATOM      3  C5  UNL d   1      -4.358  -1.111   1.649  0.00  0.00     0.002 A 
ATOM      4  C6  UNL d   1      -4.870   0.183   1.713  0.00  0.00    -0.004 A 
ATOM      5  C7  UNL d   1      -4.025   1.273   1.522  0.00  0.00     0.002 A 
ATOM      6  C8  UNL d   1      -2.670   1.072   1.256  0.00  0.00     0.002 A 
ENDROOT
BRANCH   1   7
ATOM      7  C2  UNL d   1      -0.684  -0.441   0.864  0.00  0.00     0.056 C 
BRANCH   7   8
ATOM      8  C1  UNL d   1      -0.370  -1.816   0.267  0.00  0.00     0.007 C 
ATOM      9  C   UNL d   1       0.038  -1.756  -1.199  0.00  0.00     0.009 C 
ENDBRANCH   7   8
ENDBRANCH   1   7
TORSDOF 2
ENDMDL
