MODEL 1
REMARK minimizedAffinity -2.38303566
REMARK minimizedRMSD -1
REMARK  2 active torsions:
REMARK  status: ('A' for Active; 'I' for Inactive)
REMARK    1  A    between atoms: C1_2  and  C2_3 
REMARK    2  A    between atoms: C2_3  and  C3_4 
ROOT
ATOM      1  C3  UNL d   1       0.486   0.583   1.157  0.00  0.00    -0.075 A 
ATOM      2  C4  UNL d   1       1.315   1.495   0.487  0.00  0.00     0.002 A 
ATOM      3  C5  UNL d   1       2.273   2.227   1.188  0.00  0.00     0.002 A 
ATOM      4  C6  UNL d   1       2.408   2.066   2.565  0.00  0.00    -0.004 A 
ATOM      5  C7  UNL d   1       1.579   1.175   3.243  0.00  0.00     0.002 A 
ATOM      6  C8  UNL d   1       0.622   0.438   2.544  0.00  0.00     0.002 A 
ENDROOT
BRANCH   1   7
ATOM      7  C2  UNL d   1      -0.534  -0.234   0.400  0.00  0.00     0.056 C 
BRANCH   7   8
ATOM      8  C1  UNL d   1      -0.080  -0.654  -1.002  0.00  0.00     0.007 C 
ATOM      9  C   UNL d   1       0.261  -2.135  -1.104  0.00  0.00     0.009 C 
ENDBRANCH   7   8
ENDBRANCH   1   7
TORSDOF 2
ENDMDL
