MODEL 1
REMARK minimizedAffinity -3.17110562
REMARK minimizedRMSD -1
REMARK  2 active torsions:
REMARK  status: ('A' for Active; 'I' for Inactive)
REMARK    1  A    between atoms: C1_2  and  C2_3 
REMARK    2  A    between atoms: C2_3  and  C3_4 
ROOT
ATOM      1  C3  UNL d   1       0.132   0.193  -0.062  0.00  0.00    -0.075 A 
ATOM      2  C4  UNL d   1      -0.041  -0.768  -1.068  0.00  0.00     0.002 A 
ATOM      3  C5  UNL d   1       0.879  -0.874  -2.112  0.00  0.00     0.002 A 
ATOM      4  C6  UNL d   1       1.974  -0.015  -2.169  0.00  0.00    -0.004 A 
ATOM      5  C7  UNL d   1       2.146   0.955  -1.184  0.00  0.00     0.002 A 
ATOM      6  C8  UNL d   1       1.230   1.060  -0.136  0.00  0.00     0.002 A 
ENDROOT
BRANCH   1   7
ATOM      7  C2  UNL d   1      -0.843   0.293   1.087  0.00  0.00     0.056 C 
BRANCH   7   8
ATOM      8  C1  UNL d   1      -2.180  -0.411   0.833  0.00  0.00     0.007 C 
ATOM      9  C   UNL d   1      -3.286   0.043   1.776  0.00  0.00     0.009 C 
ENDBRANCH   7   8
ENDBRANCH   1   7
TORSDOF 2
ENDMDL
