MODEL 1
REMARK minimizedAffinity -2.46926999
REMARK minimizedRMSD -1
REMARK  2 active torsions:
REMARK  status: ('A' for Active; 'I' for Inactive)
REMARK    1  A    between atoms: C1_2  and  C2_3 
REMARK    2  A    between atoms: C2_3  and  C3_4 
ROOT
ATOM      1  C3  UNL d   1       0.196   0.554   1.572  0.00  0.00    -0.075 A 
ATOM      2  C4  UNL d   1       0.874   1.502   0.792  0.00  0.00     0.002 A 
ATOM      3  C5  UNL d   1       1.830   2.340   1.367  0.00  0.00     0.002 A 
ATOM      4  C6  UNL d   1       2.112   2.249   2.728  0.00  0.00    -0.004 A 
ATOM      5  C7  UNL d   1       1.434   1.322   3.516  0.00  0.00     0.002 A 
ATOM      6  C8  UNL d   1       0.480   0.479   2.942  0.00  0.00     0.002 A 
ENDROOT
BRANCH   1   7
ATOM      7  C2  UNL d   1      -0.818  -0.376   0.950  0.00  0.00     0.056 C 
BRANCH   7   8
ATOM      8  C1  UNL d   1      -0.208  -1.631   0.318  0.00  0.00     0.007 C 
ATOM      9  C   UNL d   1       0.043  -1.490  -1.177  0.00  0.00     0.009 C 
ENDBRANCH   7   8
ENDBRANCH   1   7
TORSDOF 2
ENDMDL
