MODEL 1
REMARK minimizedAffinity -4.50109768
REMARK minimizedRMSD -1
REMARK  2 active torsions:
REMARK  status: ('A' for Active; 'I' for Inactive)
REMARK    1  A    between atoms: C1_2  and  C2_3 
REMARK    2  A    between atoms: C2_3  and  C3_4 
ROOT
ATOM      1  C3  UNL d   1       0.498   1.029   1.613  0.00  0.00    -0.075 A 
ATOM      2  C4  UNL d   1      -0.436   0.008   1.386  0.00  0.00     0.002 A 
ATOM      3  C5  UNL d   1      -0.661  -0.472   0.096  0.00  0.00     0.002 A 
ATOM      4  C6  UNL d   1       0.036   0.067  -0.983  0.00  0.00    -0.004 A 
ATOM      5  C7  UNL d   1       0.955   1.093  -0.772  0.00  0.00     0.002 A 
ATOM      6  C8  UNL d   1       1.185   1.573   0.519  0.00  0.00     0.002 A 
ENDROOT
BRANCH   1   7
ATOM      7  C2  UNL d   1       0.768   1.534   3.010  0.00  0.00     0.056 C 
BRANCH   7   8
ATOM      8  C1  UNL d   1       2.236   1.882   3.276  0.00  0.00     0.007 C 
ATOM      9  C   UNL d   1       2.509   3.380   3.269  0.00  0.00     0.009 C 
ENDBRANCH   7   8
ENDBRANCH   1   7
TORSDOF 2
ENDMDL
