MODEL 1
REMARK minimizedAffinity -5.43211651
REMARK minimizedRMSD -1
REMARK  2 active torsions:
REMARK  status: ('A' for Active; 'I' for Inactive)
REMARK    1  A    between atoms: C1_2  and  C2_3 
REMARK    2  A    between atoms: C2_3  and  C3_4 
ROOT
ATOM      1  C3  UNL d   1       0.141   0.135  -0.039  0.00  0.00    -0.075 A 
ATOM      2  C4  UNL d   1       0.217  -0.907  -0.974  0.00  0.00     0.002 A 
ATOM      3  C5  UNL d   1       1.096  -0.828  -2.054  0.00  0.00     0.002 A 
ATOM      4  C6  UNL d   1       1.901   0.297  -2.219  0.00  0.00    -0.004 A 
ATOM      5  C7  UNL d   1       1.823   1.346  -1.306  0.00  0.00     0.002 A 
ATOM      6  C8  UNL d   1       0.947   1.267  -0.221  0.00  0.00     0.002 A 
ENDROOT
BRANCH   1   7
ATOM      7  C2  UNL d   1      -0.787   0.042   1.149  0.00  0.00     0.056 C 
BRANCH   7   8
ATOM      8  C1  UNL d   1      -2.211  -0.399   0.794  0.00  0.00     0.007 C 
ATOM      9  C   UNL d   1      -3.286   0.455   1.454  0.00  0.00     0.009 C 
ENDBRANCH   7   8
ENDBRANCH   1   7
TORSDOF 2
ENDMDL
