MODEL 1
REMARK minimizedAffinity -5.63438082
REMARK minimizedRMSD -1
REMARK  2 active torsions:
REMARK  status: ('A' for Active; 'I' for Inactive)
REMARK    1  A    between atoms: C1_2  and  C2_3 
REMARK    2  A    between atoms: C2_3  and  C3_4 
ROOT
ATOM      1  C3  UNL d   1      -1.276   0.756   2.507  0.00  0.00    -0.075 A 
ATOM      2  C4  UNL d   1      -1.796   1.697   3.408  0.00  0.00     0.002 A 
ATOM      3  C5  UNL d   1      -3.172   1.913   3.491  0.00  0.00     0.002 A 
ATOM      4  C6  UNL d   1      -4.043   1.201   2.669  0.00  0.00    -0.004 A 
ATOM      5  C7  UNL d   1      -3.536   0.277   1.758  0.00  0.00     0.002 A 
ATOM      6  C8  UNL d   1      -2.160   0.055   1.676  0.00  0.00     0.002 A 
ENDROOT
BRANCH   1   7
ATOM      7  C2  UNL d   1       0.210   0.496   2.433  0.00  0.00     0.056 C 
BRANCH   7   8
ATOM      8  C1  UNL d   1       0.975   0.887   3.701  0.00  0.00     0.007 C 
ATOM      9  C   UNL d   1       1.981   2.008   3.474  0.00  0.00     0.009 C 
ENDBRANCH   7   8
ENDBRANCH   1   7
TORSDOF 2
ENDMDL
