MODEL 1
REMARK minimizedAffinity 16.2919178
REMARK minimizedRMSD -1
REMARK  0 active torsions:
REMARK  status: ('A' for Active; 'I' for Inactive)
ROOT
ATOM      1  C   UNL d   1      -3.746   1.198   5.992  0.00  0.00    -0.002 A 
ATOM      2  C1  UNL d   1      -4.162   1.839   4.834  0.00  0.00     0.010 A 
ATOM      3  C2  UNL d   1      -4.373   1.116   3.658  0.00  0.00     0.041 A 
ATOM      4  C3  UNL d   1      -4.158  -0.276   3.666  0.00  0.00    -0.075 A 
ATOM      5  S   UNL d   1      -4.354  -1.366   2.345  0.00  0.00     0.015 SA
ATOM      6  C4  UNL d   1      -3.890  -2.708   3.286  0.00  0.00     0.022 A 
ATOM      7  C5  UNL d   1      -3.590  -2.352   4.580  0.00  0.00     0.026 A 
ATOM      8  C6  UNL d   1      -3.740  -0.944   4.820  0.00  0.00    -0.082 A 
ATOM      9  C7  UNL d   1      -3.534  -0.183   5.996  0.00  0.00     0.045 A 
ENDROOT
TORSDOF 0
ENDMDL
