MODEL 1
REMARK minimizedAffinity 16.8862896
REMARK minimizedRMSD -1
REMARK  0 active torsions:
REMARK  status: ('A' for Active; 'I' for Inactive)
ROOT
ATOM      1  C   UNL d   1      -3.372  -0.327   3.965  0.00  0.00    -0.002 A 
ATOM      2  C1  UNL d   1      -3.012  -0.104   5.286  0.00  0.00     0.010 A 
ATOM      3  C2  UNL d   1      -3.528   0.987   5.989  0.00  0.00     0.041 A 
ATOM      4  C3  UNL d   1      -4.421   1.858   5.335  0.00  0.00    -0.075 A 
ATOM      5  S   UNL d   1      -5.179   3.258   5.996  0.00  0.00     0.015 SA
ATOM      6  C4  UNL d   1      -6.000   3.593   4.540  0.00  0.00     0.022 A 
ATOM      7  C5  UNL d   1      -5.714   2.669   3.563  0.00  0.00     0.026 A 
ATOM      8  C6  UNL d   1      -4.800   1.654   4.005  0.00  0.00    -0.082 A 
ATOM      9  C7  UNL d   1      -4.259   0.539   3.319  0.00  0.00     0.045 A 
ENDROOT
TORSDOF 0
ENDMDL
