MODEL 1
REMARK minimizedAffinity 24.1477661
REMARK minimizedRMSD -1
REMARK  0 active torsions:
REMARK  status: ('A' for Active; 'I' for Inactive)
ROOT
ATOM      1  C   UNL d   1      -3.595  -2.637  -6.000  0.00  0.00    -0.002 A 
ATOM      2  C1  UNL d   1      -4.556  -3.423  -5.381  0.00  0.00     0.010 A 
ATOM      3  C2  UNL d   1      -4.242  -4.161  -4.238  0.00  0.00     0.041 A 
ATOM      4  C3  UNL d   1      -2.933  -4.093  -3.721  0.00  0.00    -0.075 A 
ATOM      5  S   UNL d   1      -2.320  -4.909  -2.332  0.00  0.00     0.015 SA
ATOM      6  C4  UNL d   1      -0.768  -4.232  -2.526  0.00  0.00     0.022 A 
ATOM      7  C5  UNL d   1      -0.701  -3.402  -3.620  0.00  0.00     0.026 A 
ATOM      8  C6  UNL d   1      -1.948  -3.307  -4.326  0.00  0.00    -0.082 A 
ATOM      9  C7  UNL d   1      -2.297  -2.572  -5.484  0.00  0.00     0.045 A 
ENDROOT
TORSDOF 0
ENDMDL
