MODEL 1
REMARK minimizedAffinity 18.8513432
REMARK minimizedRMSD -1
REMARK  0 active torsions:
REMARK  status: ('A' for Active; 'I' for Inactive)
ROOT
ATOM      1  C   UNL d   1       0.871  -1.651  -2.646  0.00  0.00    -0.002 A 
ATOM      2  C1  UNL d   1       0.569  -2.997  -2.792  0.00  0.00     0.010 A 
ATOM      3  C2  UNL d   1       1.205  -3.957  -2.003  0.00  0.00     0.041 A 
ATOM      4  C3  UNL d   1       2.158  -3.538  -1.054  0.00  0.00    -0.075 A 
ATOM      5  S   UNL d   1       3.063  -4.535   0.022  0.00  0.00     0.015 SA
ATOM      6  C4  UNL d   1       3.871  -3.198   0.701  0.00  0.00     0.022 A 
ATOM      7  C5  UNL d   1       3.474  -2.011   0.132  0.00  0.00     0.026 A 
ATOM      8  C6  UNL d   1       2.479  -2.187  -0.889  0.00  0.00    -0.082 A 
ATOM      9  C7  UNL d   1       1.818  -1.238  -1.705  0.00  0.00     0.045 A 
ENDROOT
TORSDOF 0
ENDMDL
