MODEL 1
REMARK minimizedAffinity 24.7751408
REMARK minimizedRMSD -1
REMARK  0 active torsions:
REMARK  status: ('A' for Active; 'I' for Inactive)
ROOT
ATOM      1  C   UNL d   1      -4.374  -2.782   3.843  0.00  0.00    -0.002 A 
ATOM      2  C1  UNL d   1      -4.165  -2.674   5.210  0.00  0.00     0.010 A 
ATOM      3  C2  UNL d   1      -3.808  -1.450   5.779  0.00  0.00     0.041 A 
ATOM      4  C3  UNL d   1      -3.666  -0.325   4.943  0.00  0.00    -0.075 A 
ATOM      5  S   UNL d   1      -3.237   1.276   5.418  0.00  0.00     0.015 SA
ATOM      6  C4  UNL d   1      -3.323   1.854   3.816  0.00  0.00     0.022 A 
ATOM      7  C5  UNL d   1      -3.668   0.863   2.928  0.00  0.00     0.026 A 
ATOM      8  C6  UNL d   1      -3.872  -0.409   3.563  0.00  0.00    -0.082 A 
ATOM      9  C7  UNL d   1      -4.232  -1.665   3.016  0.00  0.00     0.045 A 
ENDROOT
TORSDOF 0
ENDMDL
