MODEL 1
REMARK minimizedAffinity 16.5617638
REMARK minimizedRMSD -1
REMARK  0 active torsions:
REMARK  status: ('A' for Active; 'I' for Inactive)
ROOT
ATOM      1  C   UNL d   1      -2.946   6.000  -4.098  0.00  0.00    -0.002 A 
ATOM      2  C1  UNL d   1      -3.497   5.724  -5.341  0.00  0.00     0.010 A 
ATOM      3  C2  UNL d   1      -3.203   4.529  -6.000  0.00  0.00     0.041 A 
ATOM      4  C3  UNL d   1      -2.338   3.605  -5.381  0.00  0.00    -0.075 A 
ATOM      5  S   UNL d   1      -1.835   2.076  -5.999  0.00  0.00     0.015 SA
ATOM      6  C4  UNL d   1      -0.878   1.752  -4.627  0.00  0.00     0.022 A 
ATOM      7  C5  UNL d   1      -0.928   2.775  -3.710  0.00  0.00     0.026 A 
ATOM      8  C6  UNL d   1      -1.771   3.860  -4.129  0.00  0.00    -0.082 A 
ATOM      9  C7  UNL d   1      -2.088   5.081  -3.487  0.00  0.00     0.045 A 
ENDROOT
TORSDOF 0
ENDMDL
