MODEL 1
REMARK minimizedAffinity 26.0387039
REMARK minimizedRMSD -1
REMARK  0 active torsions:
REMARK  status: ('A' for Active; 'I' for Inactive)
ROOT
ATOM      1  C   UNL d   1      -2.551   0.738   1.879  0.00  0.00    -0.002 A 
ATOM      2  C1  UNL d   1      -2.528   0.548   3.253  0.00  0.00     0.010 A 
ATOM      3  C2  UNL d   1      -3.396  -0.363   3.858  0.00  0.00     0.041 A 
ATOM      4  C3  UNL d   1      -4.295  -1.088   3.051  0.00  0.00    -0.075 A 
ATOM      5  S   UNL d   1      -5.449  -2.257   3.572  0.00  0.00     0.015 SA
ATOM      6  C4  UNL d   1      -5.999  -2.532   1.983  0.00  0.00     0.022 A 
ATOM      7  C5  UNL d   1      -5.330  -1.759   1.064  0.00  0.00     0.026 A 
ATOM      8  C6  UNL d   1      -4.336  -0.914   1.665  0.00  0.00    -0.082 A 
ATOM      9  C7  UNL d   1      -3.444   0.018   1.081  0.00  0.00     0.045 A 
ENDROOT
TORSDOF 0
ENDMDL
