MODEL 1
REMARK minimizedAffinity 14.468811
REMARK minimizedRMSD -1
REMARK  0 active torsions:
REMARK  status: ('A' for Active; 'I' for Inactive)
ROOT
ATOM      1  C   UNL d   1       2.393  -2.644  -0.471  0.00  0.00    -0.002 A 
ATOM      2  C1  UNL d   1       1.587  -2.004  -1.402  0.00  0.00     0.010 A 
ATOM      3  C2  UNL d   1       1.751  -0.643  -1.668  0.00  0.00     0.041 A 
ATOM      4  C3  UNL d   1       2.749   0.071  -0.976  0.00  0.00    -0.075 A 
ATOM      5  S   UNL d   1       3.133   1.744  -1.139  0.00  0.00     0.015 SA
ATOM      6  C4  UNL d   1       4.376   1.648   0.023  0.00  0.00     0.022 A 
ATOM      7  C5  UNL d   1       4.509   0.379   0.533  0.00  0.00     0.026 A 
ATOM      8  C6  UNL d   1       3.574  -0.552  -0.035  0.00  0.00    -0.082 A 
ATOM      9  C7  UNL d   1       3.382  -1.932   0.212  0.00  0.00     0.045 A 
ENDROOT
TORSDOF 0
ENDMDL
