MODEL 1
REMARK minimizedAffinity 20.4610825
REMARK minimizedRMSD -1
REMARK  0 active torsions:
REMARK  status: ('A' for Active; 'I' for Inactive)
ROOT
ATOM      1  C   UNL d   1      -5.941  -2.944   3.493  0.00  0.00    -0.002 A 
ATOM      2  C1  UNL d   1      -5.299  -2.965   4.724  0.00  0.00     0.010 A 
ATOM      3  C2  UNL d   1      -4.393  -1.960   5.070  0.00  0.00     0.041 A 
ATOM      4  C3  UNL d   1      -4.142  -0.923   4.150  0.00  0.00    -0.075 A 
ATOM      5  S   UNL d   1      -3.074   0.414   4.358  0.00  0.00     0.015 SA
ATOM      6  C4  UNL d   1      -3.444   1.045   2.818  0.00  0.00     0.022 A 
ATOM      7  C5  UNL d   1      -4.359   0.268   2.149  0.00  0.00     0.026 A 
ATOM      8  C6  UNL d   1      -4.777  -0.879   2.905  0.00  0.00    -0.082 A 
ATOM      9  C7  UNL d   1      -5.689  -1.913   2.584  0.00  0.00     0.045 A 
ENDROOT
TORSDOF 0
ENDMDL
