MODEL 1
REMARK minimizedAffinity 24.8255405
REMARK minimizedRMSD -1
REMARK  0 active torsions:
REMARK  status: ('A' for Active; 'I' for Inactive)
ROOT
ATOM      1  C   UNL d   1      -5.764  -2.968   3.875  0.00  0.00    -0.002 A 
ATOM      2  C1  UNL d   1      -4.851  -2.934   4.919  0.00  0.00     0.010 A 
ATOM      3  C2  UNL d   1      -3.827  -1.985   4.935  0.00  0.00     0.041 A 
ATOM      4  C3  UNL d   1      -3.736  -1.061   3.876  0.00  0.00    -0.075 A 
ATOM      5  S   UNL d   1      -2.566   0.191   3.685  0.00  0.00     0.015 SA
ATOM      6  C4  UNL d   1      -3.252   0.709   2.213  0.00  0.00     0.022 A 
ATOM      7  C5  UNL d   1      -4.347  -0.043   1.861  0.00  0.00     0.026 A 
ATOM      8  C6  UNL d   1      -4.645  -1.076   2.813  0.00  0.00    -0.082 A 
ATOM      9  C7  UNL d   1      -5.671  -2.050   2.825  0.00  0.00     0.045 A 
ENDROOT
TORSDOF 0
ENDMDL
