MODEL 1
REMARK minimizedAffinity 23.2621326
REMARK minimizedRMSD -1
REMARK  0 active torsions:
REMARK  status: ('A' for Active; 'I' for Inactive)
ROOT
ATOM      1  C   UNL d   1       0.942   2.077   2.161  0.00  0.00    -0.002 A 
ATOM      2  C1  UNL d   1       1.185   0.730   1.937  0.00  0.00     0.010 A 
ATOM      3  C2  UNL d   1       0.162  -0.210   2.079  0.00  0.00     0.041 A 
ATOM      4  C3  UNL d   1      -1.123   0.233   2.452  0.00  0.00    -0.075 A 
ATOM      5  S   UNL d   1      -2.529  -0.737   2.685  0.00  0.00     0.015 SA
ATOM      6  C4  UNL d   1      -3.486   0.616   3.086  0.00  0.00     0.022 A 
ATOM      7  C5  UNL d   1      -2.766   1.786   3.049  0.00  0.00     0.026 A 
ATOM      8  C6  UNL d   1      -1.392   1.585   2.682  0.00  0.00    -0.082 A 
ATOM      9  C7  UNL d   1      -0.334   2.513   2.530  0.00  0.00     0.045 A 
ENDROOT
TORSDOF 0
ENDMDL
