MODEL 1
REMARK minimizedAffinity -1.0109359
REMARK minimizedRMSD -1
REMARK  0 active torsions:
REMARK  status: ('A' for Active; 'I' for Inactive)
ROOT
ATOM      1  C1  BNZ d   1       3.888   3.498  -5.898  0.00  0.00     0.000 A 
ATOM      2  C2  BNZ d   1       5.243   3.669  -5.997  0.00  0.00     0.000 A 
ATOM      3  C3  BNZ d   1       5.792   4.921  -5.991  0.00  0.00     0.000 A 
ATOM      4  C4  BNZ d   1       4.985   5.999  -5.926  0.00  0.00     0.000 A 
ATOM      5  C5  BNZ d   1       3.616   5.843  -5.835  0.00  0.00     0.000 A 
ATOM      6  C6  BNZ d   1       3.069   4.581  -5.802  0.00  0.00     0.000 A 
ENDROOT
TORSDOF 0
ENDMDL
