MODEL 1
REMARK minimizedAffinity -3.14886975
REMARK minimizedRMSD -1
REMARK  0 active torsions:
REMARK  status: ('A' for Active; 'I' for Inactive)
ROOT
ATOM      1  C1  BNZ d   1       5.336   2.808  -5.462  0.00  0.00     0.000 A 
ATOM      2  C2  BNZ d   1       4.156   2.391  -4.907  0.00  0.00     0.000 A 
ATOM      3  C3  BNZ d   1       3.083   3.235  -4.829  0.00  0.00     0.000 A 
ATOM      4  C4  BNZ d   1       3.204   4.504  -5.267  0.00  0.00     0.000 A 
ATOM      5  C5  BNZ d   1       4.391   4.943  -5.821  0.00  0.00     0.000 A 
ATOM      6  C6  BNZ d   1       5.456   4.079  -5.934  0.00  0.00     0.000 A 
ENDROOT
TORSDOF 0
ENDMDL
