MODEL 1
REMARK minimizedAffinity -1.55424857
REMARK minimizedRMSD -1
REMARK  0 active torsions:
REMARK  status: ('A' for Active; 'I' for Inactive)
ROOT
ATOM      1  C1  BNZ d   1       4.873   2.733  -5.368  0.00  0.00     0.000 A 
ATOM      2  C2  BNZ d   1       4.871   3.959  -5.978  0.00  0.00     0.000 A 
ATOM      3  C3  BNZ d   1       3.744   4.732  -5.992  0.00  0.00     0.000 A 
ATOM      4  C4  BNZ d   1       2.611   4.262  -5.432  0.00  0.00     0.000 A 
ATOM      5  C5  BNZ d   1       2.594   3.024  -4.821  0.00  0.00     0.000 A 
ATOM      6  C6  BNZ d   1       3.741   2.265  -4.775  0.00  0.00     0.000 A 
ENDROOT
TORSDOF 0
ENDMDL
