MODEL 1
REMARK minimizedAffinity -2.91316366
REMARK minimizedRMSD -1
REMARK  0 active torsions:
REMARK  status: ('A' for Active; 'I' for Inactive)
ROOT
ATOM      1  C1  BNZ d   1       3.221   2.950  -5.227  0.00  0.00     0.000 A 
ATOM      2  C2  BNZ d   1       2.468   4.094  -5.223  0.00  0.00     0.000 A 
ATOM      3  C3  BNZ d   1       3.001   5.285  -5.629  0.00  0.00     0.000 A 
ATOM      4  C4  BNZ d   1       4.297   5.339  -5.999  0.00  0.00     0.000 A 
ATOM      5  C5  BNZ d   1       5.072   4.197  -5.999  0.00  0.00     0.000 A 
ATOM      6  C6  BNZ d   1       4.521   2.992  -5.627  0.00  0.00     0.000 A 
ENDROOT
TORSDOF 0
ENDMDL
