MODEL 1
REMARK minimizedAffinity -1.43784761
REMARK minimizedRMSD -1
REMARK  0 active torsions:
REMARK  status: ('A' for Active; 'I' for Inactive)
ROOT
ATOM      1  C1  BNZ d   1       3.233   3.782  -5.937  0.00  0.00     0.000 A 
ATOM      2  C2  BNZ d   1       3.919   4.965  -6.000  0.00  0.00     0.000 A 
ATOM      3  C3  BNZ d   1       5.282   4.990  -5.901  0.00  0.00     0.000 A 
ATOM      4  C4  BNZ d   1       5.953   3.838  -5.699  0.00  0.00     0.000 A 
ATOM      5  C5  BNZ d   1       5.275   2.637  -5.624  0.00  0.00     0.000 A 
ATOM      6  C6  BNZ d   1       3.906   2.612  -5.763  0.00  0.00     0.000 A 
ENDROOT
TORSDOF 0
ENDMDL
