MODEL 1
REMARK minimizedAffinity -3.77338982
REMARK minimizedRMSD -1
REMARK  0 active torsions:
REMARK  status: ('A' for Active; 'I' for Inactive)
ROOT
ATOM      1  C1  BNZ d   1       4.386   4.362  -5.111  0.00  0.00     0.000 A 
ATOM      2  C2  BNZ d   1       3.368   5.266  -4.960  0.00  0.00     0.000 A 
ATOM      3  C3  BNZ d   1       2.065   4.884  -5.112  0.00  0.00     0.000 A 
ATOM      4  C4  BNZ d   1       1.783   3.610  -5.455  0.00  0.00     0.000 A 
ATOM      5  C5  BNZ d   1       2.799   2.690  -5.621  0.00  0.00     0.000 A 
ATOM      6  C6  BNZ d   1       4.107   3.068  -5.428  0.00  0.00     0.000 A 
ENDROOT
TORSDOF 0
ENDMDL
