MODEL 1
REMARK minimizedAffinity -1.1892786
REMARK minimizedRMSD -1
REMARK  0 active torsions:
REMARK  status: ('A' for Active; 'I' for Inactive)
ROOT
ATOM      1  C1  BNZ d   1       4.133   4.547  -6.000  0.00  0.00     0.000 A 
ATOM      2  C2  BNZ d   1       4.895   3.409  -5.999  0.00  0.00     0.000 A 
ATOM      3  C3  BNZ d   1       4.327   2.186  -5.771  0.00  0.00     0.000 A 
ATOM      4  C4  BNZ d   1       3.007   2.108  -5.505  0.00  0.00     0.000 A 
ATOM      5  C5  BNZ d   1       2.228   3.247  -5.492  0.00  0.00     0.000 A 
ATOM      6  C6  BNZ d   1       2.796   4.471  -5.761  0.00  0.00     0.000 A 
ENDROOT
TORSDOF 0
ENDMDL
