MODEL 1
REMARK minimizedAffinity -2.67982006
REMARK minimizedRMSD -1
REMARK  0 active torsions:
REMARK  status: ('A' for Active; 'I' for Inactive)
ROOT
ATOM      1  C1  BNZ d   1       2.768   3.294  -5.682  0.00  0.00     0.000 A 
ATOM      2  C2  BNZ d   1       1.669   4.112  -5.680  0.00  0.00     0.000 A 
ATOM      3  C3  BNZ d   1       1.801   5.461  -5.858  0.00  0.00     0.000 A 
ATOM      4  C4  BNZ d   1       3.031   5.994  -5.999  0.00  0.00     0.000 A 
ATOM      5  C5  BNZ d   1       4.149   5.184  -5.994  0.00  0.00     0.000 A 
ATOM      6  C6  BNZ d   1       4.010   3.822  -5.853  0.00  0.00     0.000 A 
ENDROOT
TORSDOF 0
ENDMDL
