MODEL 1
REMARK minimizedAffinity -0.258801192
REMARK minimizedRMSD -1
REMARK  0 active torsions:
REMARK  status: ('A' for Active; 'I' for Inactive)
ROOT
ATOM      1  C1  BNZ d   1       3.564   3.306  -4.893  0.00  0.00     0.000 A 
ATOM      2  C2  BNZ d   1       3.131   3.992  -3.790  0.00  0.00     0.000 A 
ATOM      3  C3  BNZ d   1       1.901   4.590  -3.775  0.00  0.00     0.000 A 
ATOM      4  C4  BNZ d   1       1.125   4.535  -4.877  0.00  0.00     0.000 A 
ATOM      5  C5  BNZ d   1       1.552   3.855  -6.000  0.00  0.00     0.000 A 
ATOM      6  C6  BNZ d   1       2.773   3.222  -5.997  0.00  0.00     0.000 A 
ENDROOT
TORSDOF 0
ENDMDL
