MODEL 1
REMARK minimizedAffinity -3.29365659
REMARK minimizedRMSD -1
REMARK  0 active torsions:
REMARK  status: ('A' for Active; 'I' for Inactive)
ROOT
ATOM      1  C1  BNZ d   1       4.433   4.795  -5.999  0.00  0.00     0.000 A 
ATOM      2  C2  BNZ d   1       3.364   5.632  -5.818  0.00  0.00     0.000 A 
ATOM      3  C3  BNZ d   1       2.108   5.131  -5.625  0.00  0.00     0.000 A 
ATOM      4  C4  BNZ d   1       1.914   3.796  -5.654  0.00  0.00     0.000 A 
ATOM      5  C5  BNZ d   1       2.980   2.940  -5.845  0.00  0.00     0.000 A 
ATOM      6  C6  BNZ d   1       4.250   3.447  -6.000  0.00  0.00     0.000 A 
ENDROOT
TORSDOF 0
ENDMDL
