MODEL 1
REMARK minimizedAffinity -2.84714341
REMARK minimizedRMSD -1
REMARK  0 active torsions:
REMARK  status: ('A' for Active; 'I' for Inactive)
ROOT
ATOM      1  C1  BNZ d   1       2.948   4.593  -5.823  0.00  0.00     0.000 A 
ATOM      2  C2  BNZ d   1       4.274   4.891  -5.995  0.00  0.00     0.000 A 
ATOM      3  C3  BNZ d   1       5.218   3.902  -5.999  0.00  0.00     0.000 A 
ATOM      4  C4  BNZ d   1       4.841   2.624  -5.791  0.00  0.00     0.000 A 
ATOM      5  C5  BNZ d   1       3.509   2.309  -5.607  0.00  0.00     0.000 A 
ATOM      6  C6  BNZ d   1       2.557   3.302  -5.642  0.00  0.00     0.000 A 
ENDROOT
TORSDOF 0
ENDMDL
