MODEL 1
REMARK minimizedAffinity -1.34234548
REMARK minimizedRMSD -1
REMARK  0 active torsions:
REMARK  status: ('A' for Active; 'I' for Inactive)
ROOT
ATOM      1  C1  BNZ d   1       2.260   4.515  -3.692  0.00  0.00     0.000 A 
ATOM      2  C2  BNZ d   1       3.301   3.624  -3.706  0.00  0.00     0.000 A 
ATOM      3  C3  BNZ d   1       3.676   3.003  -4.865  0.00  0.00     0.000 A 
ATOM      4  C4  BNZ d   1       2.986   3.243  -5.998  0.00  0.00     0.000 A 
ATOM      5  C5  BNZ d   1       1.929   4.131  -5.999  0.00  0.00     0.000 A 
ATOM      6  C6  BNZ d   1       1.579   4.784  -4.839  0.00  0.00     0.000 A 
ENDROOT
TORSDOF 0
ENDMDL
