MODEL 1
REMARK minimizedAffinity 0.100766532
REMARK minimizedRMSD -1
REMARK  0 active torsions:
REMARK  status: ('A' for Active; 'I' for Inactive)
ROOT
ATOM      1  C   UNL d   1       1.523  -1.516  -0.912  0.00  0.00    -0.002 A 
ATOM      2  C1  UNL d   1       2.048  -1.199   0.333  0.00  0.00     0.010 A 
ATOM      3  C2  UNL d   1       1.225  -0.696   1.343  0.00  0.00     0.041 A 
ATOM      4  C3  UNL d   1      -0.147  -0.518   1.080  0.00  0.00    -0.075 A 
ATOM      5  S   UNL d   1      -1.345   0.082   2.165  0.00  0.00     0.015 SA
ATOM      6  C4  UNL d   1      -2.582  -0.070   1.002  0.00  0.00     0.022 A 
ATOM      7  C5  UNL d   1      -2.110  -0.564  -0.191  0.00  0.00     0.026 A 
ATOM      8  C6  UNL d   1      -0.699  -0.831  -0.166  0.00  0.00    -0.082 A 
ATOM      9  C7  UNL d   1       0.161  -1.338  -1.170  0.00  0.00     0.045 A 
ENDROOT
TORSDOF 0
ENDMDL
