MODEL 1
REMARK minimizedAffinity 3.84120488
REMARK minimizedRMSD -1
REMARK  0 active torsions:
REMARK  status: ('A' for Active; 'I' for Inactive)
ROOT
ATOM      1  C   UNL d   1       2.602  -1.546   6.000  0.00  0.00    -0.002 A 
ATOM      2  C1  UNL d   1       2.693  -0.161   6.000  0.00  0.00     0.010 A 
ATOM      3  C2  UNL d   1       1.782   0.611   5.276  0.00  0.00     0.041 A 
ATOM      4  C3  UNL d   1       0.767  -0.039   4.546  0.00  0.00    -0.075 A 
ATOM      5  S   UNL d   1      -0.460   0.700   3.587  0.00  0.00     0.015 SA
ATOM      6  C4  UNL d   1      -1.134  -0.804   3.155  0.00  0.00     0.022 A 
ATOM      7  C5  UNL d   1      -0.452  -1.856   3.720  0.00  0.00     0.026 A 
ATOM      8  C6  UNL d   1       0.655  -1.432   4.531  0.00  0.00    -0.082 A 
ATOM      9  C7  UNL d   1       1.594  -2.187   5.275  0.00  0.00     0.045 A 
ENDROOT
TORSDOF 0
ENDMDL
