MODEL 1
REMARK minimizedAffinity 11.7550488
REMARK minimizedRMSD -1
REMARK  0 active torsions:
REMARK  status: ('A' for Active; 'I' for Inactive)
ROOT
ATOM      1  C   UNL d   1       0.668  -0.039  -5.371  0.00  0.00    -0.002 A 
ATOM      2  C1  UNL d   1       0.121  -1.296  -5.584  0.00  0.00     0.010 A 
ATOM      3  C2  UNL d   1      -0.601  -1.936  -4.575  0.00  0.00     0.041 A 
ATOM      4  C3  UNL d   1      -0.767  -1.285  -3.337  0.00  0.00    -0.075 A 
ATOM      5  S   UNL d   1      -1.613  -1.876  -1.956  0.00  0.00     0.015 SA
ATOM      6  C4  UNL d   1      -1.269  -0.473  -1.052  0.00  0.00     0.022 A 
ATOM      7  C5  UNL d   1      -0.527   0.435  -1.770  0.00  0.00     0.026 A 
ATOM      8  C6  UNL d   1      -0.226  -0.018  -3.099  0.00  0.00    -0.082 A 
ATOM      9  C7  UNL d   1       0.502   0.605  -4.142  0.00  0.00     0.045 A 
ENDROOT
TORSDOF 0
ENDMDL
