MODEL 1
REMARK minimizedAffinity 8.82428837
REMARK minimizedRMSD -1
REMARK  0 active torsions:
REMARK  status: ('A' for Active; 'I' for Inactive)
ROOT
ATOM      1  C   UNL d   1      -2.517  -0.066   0.246  0.00  0.00    -0.002 A 
ATOM      2  C1  UNL d   1      -2.039  -0.825  -0.812  0.00  0.00     0.010 A 
ATOM      3  C2  UNL d   1      -0.675  -1.100  -0.931  0.00  0.00     0.041 A 
ATOM      4  C3  UNL d   1       0.208  -0.595   0.044  0.00  0.00    -0.075 A 
ATOM      5  S   UNL d   1       1.919  -0.805   0.104  0.00  0.00     0.015 SA
ATOM      6  C4  UNL d   1       2.055   0.107   1.537  0.00  0.00     0.022 A 
ATOM      7  C5  UNL d   1       0.835   0.568   1.973  0.00  0.00     0.026 A 
ATOM      8  C6  UNL d   1      -0.249   0.171   1.120  0.00  0.00    -0.082 A 
ATOM      9  C7  UNL d   1      -1.637   0.433   1.211  0.00  0.00     0.045 A 
ENDROOT
TORSDOF 0
ENDMDL
