MODEL 1
REMARK minimizedAffinity 8.40619278
REMARK minimizedRMSD -1
REMARK  0 active torsions:
REMARK  status: ('A' for Active; 'I' for Inactive)
ROOT
ATOM      1  C   UNL d   1       0.601   0.724   3.137  0.00  0.00    -0.002 A 
ATOM      2  C1  UNL d   1      -0.741   1.073   3.079  0.00  0.00     0.010 A 
ATOM      3  C2  UNL d   1      -1.540   0.649   2.015  0.00  0.00     0.041 A 
ATOM      4  C3  UNL d   1      -0.962  -0.140   1.001  0.00  0.00    -0.075 A 
ATOM      5  S   UNL d   1      -1.747  -0.774  -0.397  0.00  0.00     0.015 SA
ATOM      6  C4  UNL d   1      -0.320  -1.525  -0.950  0.00  0.00     0.022 A 
ATOM      7  C5  UNL d   1       0.739  -1.307  -0.101  0.00  0.00     0.026 A 
ATOM      8  C6  UNL d   1       0.386  -0.506   1.038  0.00  0.00    -0.082 A 
ATOM      9  C7  UNL d   1       1.170  -0.060   2.129  0.00  0.00     0.045 A 
ENDROOT
TORSDOF 0
ENDMDL
