MODEL 1
REMARK minimizedAffinity 4.33790493
REMARK minimizedRMSD -1
REMARK  0 active torsions:
REMARK  status: ('A' for Active; 'I' for Inactive)
ROOT
ATOM      1  C   UNL d   1      -1.641  -1.403   2.694  0.00  0.00    -0.002 A 
ATOM      2  C1  UNL d   1      -2.560  -0.366   2.628  0.00  0.00     0.010 A 
ATOM      3  C2  UNL d   1      -2.130   0.962   2.586  0.00  0.00     0.041 A 
ATOM      4  C3  UNL d   1      -0.747   1.232   2.609  0.00  0.00    -0.075 A 
ATOM      5  S   UNL d   1       0.011   2.780   2.565  0.00  0.00     0.015 SA
ATOM      6  C4  UNL d   1       1.572   2.100   2.631  0.00  0.00     0.022 A 
ATOM      7  C5  UNL d   1       1.535   0.727   2.686  0.00  0.00     0.026 A 
ATOM      8  C6  UNL d   1       0.197   0.204   2.674  0.00  0.00    -0.082 A 
ATOM      9  C7  UNL d   1      -0.270  -1.132   2.717  0.00  0.00     0.045 A 
ENDROOT
TORSDOF 0
ENDMDL
