MODEL 1
REMARK minimizedAffinity 9.73257542
REMARK minimizedRMSD -1
REMARK  0 active torsions:
REMARK  status: ('A' for Active; 'I' for Inactive)
ROOT
ATOM      1  C   UNL d   1      -2.451  -0.579  -0.279  0.00  0.00    -0.002 A 
ATOM      2  C1  UNL d   1      -1.684  -1.453  -1.036  0.00  0.00     0.010 A 
ATOM      3  C2  UNL d   1      -0.301  -1.525  -0.853  0.00  0.00     0.041 A 
ATOM      4  C3  UNL d   1       0.302  -0.698   0.114  0.00  0.00    -0.075 A 
ATOM      5  S   UNL d   1       1.978  -0.616   0.512  0.00  0.00     0.015 SA
ATOM      6  C4  UNL d   1       1.714   0.581   1.697  0.00  0.00     0.022 A 
ATOM      7  C5  UNL d   1       0.386   0.922   1.799  0.00  0.00     0.026 A 
ATOM      8  C6  UNL d   1      -0.449   0.190   0.889  0.00  0.00    -0.082 A 
ATOM      9  C7  UNL d   1      -1.849   0.241   0.679  0.00  0.00     0.045 A 
ENDROOT
TORSDOF 0
ENDMDL
