MODEL 1
REMARK minimizedAffinity 13.8576832
REMARK minimizedRMSD -1
REMARK  0 active torsions:
REMARK  status: ('A' for Active; 'I' for Inactive)
ROOT
ATOM      1  C   UNL d   1      -3.753  -0.481  -0.601  0.00  0.00    -0.002 A 
ATOM      2  C1  UNL d   1      -2.919  -1.435  -1.166  0.00  0.00     0.010 A 
ATOM      3  C2  UNL d   1      -1.554  -1.448  -0.873  0.00  0.00     0.041 A 
ATOM      4  C3  UNL d   1      -1.037  -0.477   0.007  0.00  0.00    -0.075 A 
ATOM      5  S   UNL d   1       0.602  -0.299   0.511  0.00  0.00     0.015 SA
ATOM      6  C4  UNL d   1       0.234   1.047   1.489  0.00  0.00     0.022 A 
ATOM      7  C5  UNL d   1      -1.103   1.367   1.443  0.00  0.00     0.026 A 
ATOM      8  C6  UNL d   1      -1.857   0.494   0.589  0.00  0.00    -0.082 A 
ATOM      9  C7  UNL d   1      -3.236   0.481   0.271  0.00  0.00     0.045 A 
ENDROOT
TORSDOF 0
ENDMDL
