MODEL 1
REMARK minimizedAffinity 13.9893456
REMARK minimizedRMSD -1
REMARK  0 active torsions:
REMARK  status: ('A' for Active; 'I' for Inactive)
ROOT
ATOM      1  C   UNL d   1      -2.664   0.384   0.790  0.00  0.00    -0.002 A 
ATOM      2  C1  UNL d   1      -2.500  -0.283  -0.416  0.00  0.00     0.010 A 
ATOM      3  C2  UNL d   1      -1.225  -0.627  -0.870  0.00  0.00     0.041 A 
ATOM      4  C3  UNL d   1      -0.107  -0.288  -0.082  0.00  0.00    -0.075 A 
ATOM      5  S   UNL d   1       1.550  -0.609  -0.436  0.00  0.00     0.015 SA
ATOM      6  C4  UNL d   1       2.078   0.130   1.006  0.00  0.00     0.022 A 
ATOM      7  C5  UNL d   1       1.030   0.616   1.751  0.00  0.00     0.026 A 
ATOM      8  C6  UNL d   1      -0.247   0.382   1.136  0.00  0.00    -0.082 A 
ATOM      9  C7  UNL d   1      -1.553   0.718   1.568  0.00  0.00     0.045 A 
ENDROOT
TORSDOF 0
ENDMDL
