MODEL 1
REMARK minimizedAffinity 15.4015198
REMARK minimizedRMSD -1
REMARK  0 active torsions:
REMARK  status: ('A' for Active; 'I' for Inactive)
ROOT
ATOM      1  C   UNL d   1      -0.125   1.003   2.841  0.00  0.00    -0.002 A 
ATOM      2  C1  UNL d   1       0.940   0.514   2.098  0.00  0.00     0.010 A 
ATOM      3  C2  UNL d   1       0.719  -0.146   0.888  0.00  0.00     0.041 A 
ATOM      4  C3  UNL d   1      -0.605  -0.308   0.432  0.00  0.00    -0.075 A 
ATOM      5  S   UNL d   1      -1.117  -1.083  -1.020  0.00  0.00     0.015 SA
ATOM      6  C4  UNL d   1      -2.761  -0.783  -0.689  0.00  0.00     0.022 A 
ATOM      7  C5  UNL d   1      -2.934  -0.109   0.497  0.00  0.00     0.026 A 
ATOM      8  C6  UNL d   1      -1.694   0.176   1.163  0.00  0.00    -0.082 A 
ATOM      9  C7  UNL d   1      -1.436   0.841   2.386  0.00  0.00     0.045 A 
ENDROOT
TORSDOF 0
ENDMDL
