MODEL 1
REMARK minimizedAffinity 6.34394217
REMARK minimizedRMSD -1
REMARK  0 active torsions:
REMARK  status: ('A' for Active; 'I' for Inactive)
ROOT
ATOM      1  O1  BZF d   1       4.764   1.391  -2.449  0.00  0.00    -0.204 OA
ATOM      2  C2  BZF d   1       5.119   2.609  -1.902  0.00  0.00     0.174 A 
ATOM      3  C3  BZF d   1       4.438   2.837  -0.761  0.00  0.00    -0.012 A 
ATOM      4  C3A BZF d   1       3.673   1.649  -0.535  0.00  0.00    -0.107 A 
ATOM      5  C4  BZF d   1       2.808   1.262   0.448  0.00  0.00     0.055 A 
ATOM      6  C5  BZF d   1       2.171   0.066   0.335  0.00  0.00    -0.016 A 
ATOM      7  C6  BZF d   1       2.372  -0.763  -0.749  0.00  0.00     0.022 A 
ATOM      8  C7  BZF d   1       3.225  -0.425  -1.746  0.00  0.00     0.029 A 
ATOM      9  C7A BZF d   1       3.895   0.768  -1.619  0.00  0.00     0.058 A 
ENDROOT
TORSDOF 0
ENDMDL
