MODEL 1
REMARK minimizedAffinity 14.7760935
REMARK minimizedRMSD -1
REMARK  0 active torsions:
REMARK  status: ('A' for Active; 'I' for Inactive)
ROOT
ATOM      1  O1  BZF d   1       4.731   2.452  -2.018  0.00  0.00    -0.204 OA
ATOM      2  C2  BZF d   1       4.945   1.645  -0.917  0.00  0.00     0.174 A 
ATOM      3  C3  BZF d   1       5.501   2.347   0.091  0.00  0.00    -0.012 A 
ATOM      4  C3A BZF d   1       5.557   3.698  -0.378  0.00  0.00    -0.107 A 
ATOM      5  C4  BZF d   1       5.994   4.867   0.177  0.00  0.00     0.055 A 
ATOM      6  C5  BZF d   1       5.979   6.000  -0.573  0.00  0.00    -0.016 A 
ATOM      7  C6  BZF d   1       5.541   5.999  -1.881  0.00  0.00     0.022 A 
ATOM      8  C7  BZF d   1       5.094   4.865  -2.473  0.00  0.00     0.029 A 
ATOM      9  C7A BZF d   1       5.076   3.725  -1.707  0.00  0.00     0.058 A 
ENDROOT
TORSDOF 0
ENDMDL
