MODEL 1
REMARK minimizedAffinity 7.03759766
REMARK minimizedRMSD -1
REMARK  0 active torsions:
REMARK  status: ('A' for Active; 'I' for Inactive)
ROOT
ATOM      1  O1  BZF d   1       2.774  -1.614  -0.813  0.00  0.00    -0.204 OA
ATOM      2  C2  BZF d   1       2.945  -1.724  -2.180  0.00  0.00     0.174 A 
ATOM      3  C3  BZF d   1       3.057  -0.505  -2.747  0.00  0.00    -0.012 A 
ATOM      4  C3A BZF d   1       3.042   0.421  -1.656  0.00  0.00    -0.107 A 
ATOM      5  C4  BZF d   1       3.135   1.781  -1.578  0.00  0.00     0.055 A 
ATOM      6  C5  BZF d   1       3.013   2.383  -0.366  0.00  0.00    -0.016 A 
ATOM      7  C6  BZF d   1       2.791   1.656   0.786  0.00  0.00     0.022 A 
ATOM      8  C7  BZF d   1       2.697   0.305   0.759  0.00  0.00     0.029 A 
ATOM      9  C7A BZF d   1       2.853  -0.309  -0.460  0.00  0.00     0.058 A 
ENDROOT
TORSDOF 0
ENDMDL
