MODEL 1
REMARK minimizedAffinity 14.236021
REMARK minimizedRMSD -1
REMARK  0 active torsions:
REMARK  status: ('A' for Active; 'I' for Inactive)
ROOT
ATOM      1  O1  BZF d   1       2.712   3.077   1.847  0.00  0.00    -0.204 OA
ATOM      2  C2  BZF d   1       2.214   2.293   2.869  0.00  0.00     0.174 A 
ATOM      3  C3  BZF d   1       2.047   1.019   2.458  0.00  0.00    -0.012 A 
ATOM      4  C3A BZF d   1       2.555   0.987   1.120  0.00  0.00    -0.107 A 
ATOM      5  C4  BZF d   1       2.678  -0.002   0.186  0.00  0.00     0.055 A 
ATOM      6  C5  BZF d   1       3.147   0.312  -1.050  0.00  0.00    -0.016 A 
ATOM      7  C6  BZF d   1       3.496   1.603  -1.388  0.00  0.00     0.022 A 
ATOM      8  C7  BZF d   1       3.395   2.617  -0.494  0.00  0.00     0.029 A 
ATOM      9  C7A BZF d   1       2.953   2.297   0.767  0.00  0.00     0.058 A 
ENDROOT
TORSDOF 0
ENDMDL
