MODEL 1
REMARK minimizedAffinity 4.49852562
REMARK minimizedRMSD -1
REMARK  0 active torsions:
REMARK  status: ('A' for Active; 'I' for Inactive)
ROOT
ATOM      1  O1  BZF d   1      -1.543   4.027  -0.301  0.00  0.00    -0.204 OA
ATOM      2  C2  BZF d   1      -0.371   4.188   0.412  0.00  0.00     0.174 A 
ATOM      3  C3  BZF d   1      -0.596   4.863   1.558  0.00  0.00    -0.012 A 
ATOM      4  C3A BZF d   1      -2.013   5.061   1.606  0.00  0.00    -0.107 A 
ATOM      5  C4  BZF d   1      -2.848   5.654   2.508  0.00  0.00     0.055 A 
ATOM      6  C5  BZF d   1      -4.173   5.744   2.222  0.00  0.00    -0.016 A 
ATOM      7  C6  BZF d   1      -4.696   5.256   1.043  0.00  0.00     0.022 A 
ATOM      8  C7  BZF d   1      -3.908   4.654   0.119  0.00  0.00     0.029 A 
ATOM      9  C7A BZF d   1      -2.573   4.532   0.420  0.00  0.00     0.058 A 
ENDROOT
TORSDOF 0
ENDMDL
