MODEL 1
REMARK minimizedAffinity -4.96930075
REMARK minimizedRMSD -1
REMARK  0 active torsions:
REMARK  status: ('A' for Active; 'I' for Inactive)
ROOT
ATOM      1  O1  BZF d   1       4.357  -1.436   1.051  0.00  0.00    -0.204 OA
ATOM      2  C2  BZF d   1       2.994  -1.658   1.013  0.00  0.00     0.174 A 
ATOM      3  C3  BZF d   1       2.336  -0.536   0.656  0.00  0.00    -0.012 A 
ATOM      4  C3A BZF d   1       3.358   0.424   0.370  0.00  0.00    -0.107 A 
ATOM      5  C4  BZF d   1       3.333   1.724  -0.049  0.00  0.00     0.055 A 
ATOM      6  C5  BZF d   1       4.505   2.403  -0.163  0.00  0.00    -0.016 A 
ATOM      7  C6  BZF d   1       5.717   1.816   0.138  0.00  0.00     0.022 A 
ATOM      8  C7  BZF d   1       5.791   0.528   0.553  0.00  0.00     0.029 A 
ATOM      9  C7A BZF d   1       4.612  -0.171   0.638  0.00  0.00     0.058 A 
ENDROOT
TORSDOF 0
ENDMDL
