MODEL 1
REMARK minimizedAffinity 11.0707979
REMARK minimizedRMSD -1
REMARK  0 active torsions:
REMARK  status: ('A' for Active; 'I' for Inactive)
ROOT
ATOM      1  O1  BZF d   1       1.541   1.318   3.694  0.00  0.00    -0.204 OA
ATOM      2  C2  BZF d   1       0.849   1.452   4.882  0.00  0.00     0.174 A 
ATOM      3  C3  BZF d   1       1.461   2.338   5.694  0.00  0.00    -0.012 A 
ATOM      4  C3A BZF d   1       2.556   2.854   4.932  0.00  0.00    -0.107 A 
ATOM      5  C4  BZF d   1       3.525   3.781   5.189  0.00  0.00     0.055 A 
ATOM      6  C5  BZF d   1       4.491   4.003   4.259  0.00  0.00    -0.016 A 
ATOM      7  C6  BZF d   1       4.521   3.313   3.065  0.00  0.00     0.022 A 
ATOM      8  C7  BZF d   1       3.578   2.388   2.762  0.00  0.00     0.029 A 
ATOM      9  C7A BZF d   1       2.582   2.185   3.686  0.00  0.00     0.058 A 
ENDROOT
TORSDOF 0
ENDMDL
