MODEL 1
REMARK minimizedAffinity 2.1610086
REMARK minimizedRMSD -1
REMARK  0 active torsions:
REMARK  status: ('A' for Active; 'I' for Inactive)
ROOT
ATOM      1  O1  BZF d   1      -3.472   5.286   2.520  0.00  0.00    -0.204 OA
ATOM      2  C2  BZF d   1      -4.319   4.549   1.715  0.00  0.00     0.174 A 
ATOM      3  C3  BZF d   1      -5.388   4.117   2.413  0.00  0.00    -0.012 A 
ATOM      4  C3A BZF d   1      -5.244   4.692   3.716  0.00  0.00    -0.107 A 
ATOM      5  C4  BZF d   1      -6.000   4.643   4.852  0.00  0.00     0.055 A 
ATOM      6  C5  BZF d   1      -5.543   5.256   5.976  0.00  0.00    -0.016 A 
ATOM      7  C6  BZF d   1      -4.334   5.920   6.000  0.00  0.00     0.022 A 
ATOM      8  C7  BZF d   1      -3.552   6.000   4.896  0.00  0.00     0.029 A 
ATOM      9  C7A BZF d   1      -4.027   5.410   3.750  0.00  0.00     0.058 A 
ENDROOT
TORSDOF 0
ENDMDL
