MODEL 1
REMARK minimizedAffinity 9.70478535
REMARK minimizedRMSD -1
REMARK  0 active torsions:
REMARK  status: ('A' for Active; 'I' for Inactive)
ROOT
ATOM      1  O1  BZF d   1       5.067   2.932   0.270  0.00  0.00    -0.204 OA
ATOM      2  C2  BZF d   1       5.163   3.077   1.640  0.00  0.00     0.174 A 
ATOM      3  C3  BZF d   1       4.257   2.301   2.269  0.00  0.00    -0.012 A 
ATOM      4  C3A BZF d   1       3.612   1.559   1.229  0.00  0.00    -0.107 A 
ATOM      5  C4  BZF d   1       2.630   0.610   1.223  0.00  0.00     0.055 A 
ATOM      6  C5  BZF d   1       2.175   0.137   0.033  0.00  0.00    -0.016 A 
ATOM      7  C6  BZF d   1       2.675   0.595  -1.169  0.00  0.00     0.022 A 
ATOM      8  C7  BZF d   1       3.653   1.532  -1.213  0.00  0.00     0.029 A 
ATOM      9  C7A BZF d   1       4.138   1.987  -0.012  0.00  0.00     0.058 A 
ENDROOT
TORSDOF 0
ENDMDL
