MODEL 1
REMARK minimizedAffinity 14.6638899
REMARK minimizedRMSD -1
REMARK  0 active torsions:
REMARK  status: ('A' for Active; 'I' for Inactive)
ROOT
ATOM      1  O1  BZF d   1       3.320   1.542  -1.647  0.00  0.00    -0.204 OA
ATOM      2  C2  BZF d   1       2.616   0.789  -0.727  0.00  0.00     0.174 A 
ATOM      3  C3  BZF d   1       3.101   0.978   0.518  0.00  0.00    -0.012 A 
ATOM      4  C3A BZF d   1       4.115   1.978   0.378  0.00  0.00    -0.107 A 
ATOM      5  C4  BZF d   1       4.949   2.600   1.264  0.00  0.00     0.055 A 
ATOM      6  C5  BZF d   1       5.875   3.477   0.795  0.00  0.00    -0.016 A 
ATOM      7  C6  BZF d   1       5.999   3.751  -0.551  0.00  0.00     0.022 A 
ATOM      8  C7  BZF d   1       5.191   3.163  -1.467  0.00  0.00     0.029 A 
ATOM      9  C7A BZF d   1       4.232   2.301  -0.993  0.00  0.00     0.058 A 
ENDROOT
TORSDOF 0
ENDMDL
