MODEL 1
REMARK minimizedAffinity 5.37270117
REMARK minimizedRMSD -1
REMARK  0 active torsions:
REMARK  status: ('A' for Active; 'I' for Inactive)
ROOT
ATOM      1  O1  BZF d   1       0.250  -2.423   4.067  0.00  0.00    -0.204 OA
ATOM      2  C2  BZF d   1       0.608  -2.475   5.400  0.00  0.00     0.174 A 
ATOM      3  C3  BZF d   1       0.154  -3.608   5.975  0.00  0.00    -0.012 A 
ATOM      4  C3A BZF d   1      -0.451  -4.351   4.913  0.00  0.00    -0.107 A 
ATOM      5  C4  BZF d   1      -1.067  -5.569   4.851  0.00  0.00     0.055 A 
ATOM      6  C5  BZF d   1      -1.615  -5.973   3.675  0.00  0.00    -0.016 A 
ATOM      7  C6  BZF d   1      -1.570  -5.185   2.544  0.00  0.00     0.022 A 
ATOM      8  C7  BZF d   1      -0.965  -3.972   2.555  0.00  0.00     0.029 A 
ATOM      9  C7A BZF d   1      -0.382  -3.574   3.733  0.00  0.00     0.058 A 
ENDROOT
TORSDOF 0
ENDMDL
