MODEL 1
REMARK minimizedAffinity -4.18560886
REMARK minimizedRMSD -1
REMARK  0 active torsions:
REMARK  status: ('A' for Active; 'I' for Inactive)
ROOT
ATOM      1  O1  BZF d   1       2.663   1.894  -0.602  0.00  0.00    -0.204 OA
ATOM      2  C2  BZF d   1       3.987   1.699  -0.945  0.00  0.00     0.174 A 
ATOM      3  C3  BZF d   1       4.281   0.384  -0.989  0.00  0.00    -0.012 A 
ATOM      4  C3A BZF d   1       3.041  -0.288  -0.744  0.00  0.00    -0.107 A 
ATOM      5  C4  BZF d   1       2.683  -1.604  -0.678  0.00  0.00     0.055 A 
ATOM      6  C5  BZF d   1       1.405  -1.925  -0.347  0.00  0.00    -0.016 A 
ATOM      7  C6  BZF d   1       0.461  -0.957  -0.072  0.00  0.00     0.022 A 
ATOM      8  C7  BZF d   1       0.768   0.362  -0.130  0.00  0.00     0.029 A 
ATOM      9  C7A BZF d   1       2.051   0.690  -0.496  0.00  0.00     0.058 A 
ENDROOT
TORSDOF 0
ENDMDL
