MODEL 1
REMARK minimizedAffinity 1.89045513
REMARK minimizedRMSD -1
REMARK  0 active torsions:
REMARK  status: ('A' for Active; 'I' for Inactive)
ROOT
ATOM      1  C4' PXY d   1      -2.543   0.927  -0.673  0.00  0.00     0.077 C 
ATOM      2  C1' PXY d   1       2.377  -2.083  -0.284  0.00  0.00     0.077 C 
ATOM      3  C1  PXY d   1       1.090  -1.286  -0.376  0.00  0.00    -0.082 A 
ATOM      4  C2  PXY d   1       0.034  -1.815  -0.972  0.00  0.00     0.003 A 
ATOM      5  C3  PXY d   1      -1.127  -1.097  -1.092  0.00  0.00     0.003 A 
ATOM      6  C4  PXY d   1      -1.226   0.156  -0.549  0.00  0.00    -0.082 A 
ATOM      7  C5  PXY d   1      -0.157   0.699   0.071  0.00  0.00     0.003 A 
ATOM      8  C6  PXY d   1       1.026  -0.031   0.146  0.00  0.00     0.003 A 
ENDROOT
TORSDOF 0
ENDMDL
