MODEL 1
REMARK minimizedAffinity -3.19918585
REMARK minimizedRMSD -1
REMARK  0 active torsions:
REMARK  status: ('A' for Active; 'I' for Inactive)
ROOT
ATOM      1  C4' PXY d   1      -2.431   1.107  -0.457  0.00  0.00     0.077 C 
ATOM      2  C1' PXY d   1       2.694  -1.563  -0.322  0.00  0.00     0.077 C 
ATOM      3  C1  PXY d   1       1.355  -0.853  -0.351  0.00  0.00    -0.082 A 
ATOM      4  C2  PXY d   1       0.246  -1.555  -0.521  0.00  0.00     0.003 A 
ATOM      5  C3  PXY d   1      -0.971  -0.925  -0.581  0.00  0.00     0.003 A 
ATOM      6  C4  PXY d   1      -1.058   0.431  -0.412  0.00  0.00    -0.082 A 
ATOM      7  C5  PXY d   1       0.068   1.152  -0.227  0.00  0.00     0.003 A 
ATOM      8  C6  PXY d   1       1.296   0.499  -0.210  0.00  0.00     0.003 A 
ENDROOT
TORSDOF 0
ENDMDL
