MODEL 1
REMARK minimizedAffinity -4.13313723
REMARK minimizedRMSD -1
REMARK  0 active torsions:
REMARK  status: ('A' for Active; 'I' for Inactive)
ROOT
ATOM      1  C4' PXY d   1      -1.899   1.168  -0.399  0.00  0.00     0.077 C 
ATOM      2  C1' PXY d   1       2.926  -1.650   1.085  0.00  0.00     0.077 C 
ATOM      3  C1  PXY d   1       1.658  -0.920   0.686  0.00  0.00    -0.082 A 
ATOM      4  C2  PXY d   1       1.534   0.370   0.955  0.00  0.00     0.003 A 
ATOM      5  C3  PXY d   1       0.382   1.038   0.630  0.00  0.00     0.003 A 
ATOM      6  C4  PXY d   1      -0.633   0.392  -0.024  0.00  0.00    -0.082 A 
ATOM      7  C5  PXY d   1      -0.510  -0.921  -0.310  0.00  0.00     0.003 A 
ATOM      8  C6  PXY d   1       0.651  -1.591   0.064  0.00  0.00     0.003 A 
ENDROOT
TORSDOF 0
ENDMDL
