MODEL 1
REMARK minimizedAffinity 5.60858774
REMARK minimizedRMSD -1
REMARK  0 active torsions:
REMARK  status: ('A' for Active; 'I' for Inactive)
ROOT
ATOM      1  C4' PXY d   1      -1.211  -3.650   1.547  0.00  0.00     0.077 C 
ATOM      2  C1' PXY d   1       2.521  -0.249  -1.268  0.00  0.00     0.077 C 
ATOM      3  C1  PXY d   1       1.549  -1.152  -0.533  0.00  0.00    -0.082 A 
ATOM      4  C2  PXY d   1       0.307  -0.745  -0.326  0.00  0.00     0.003 A 
ATOM      5  C3  PXY d   1      -0.576  -1.535   0.364  0.00  0.00     0.003 A 
ATOM      6  C4  PXY d   1      -0.198  -2.777   0.802  0.00  0.00    -0.082 A 
ATOM      7  C5  PXY d   1       1.064  -3.203   0.585  0.00  0.00     0.003 A 
ATOM      8  C6  PXY d   1       1.956  -2.369  -0.082  0.00  0.00     0.003 A 
ENDROOT
TORSDOF 0
ENDMDL
