MODEL 1
REMARK minimizedAffinity -4.86336994
REMARK minimizedRMSD -1
REMARK  0 active torsions:
REMARK  status: ('A' for Active; 'I' for Inactive)
ROOT
ATOM      1  C4' PXY d   1      -1.438   0.433  -0.455  0.00  0.00     0.077 C 
ATOM      2  C1' PXY d   1       3.753  -1.574   1.106  0.00  0.00     0.077 C 
ATOM      3  C1  PXY d   1       2.392  -1.055   0.687  0.00  0.00    -0.082 A 
ATOM      4  C2  PXY d   1       1.994   0.140   1.091  0.00  0.00     0.003 A 
ATOM      5  C3  PXY d   1       0.753   0.611   0.747  0.00  0.00     0.003 A 
ATOM      6  C4  PXY d   1      -0.068  -0.127  -0.063  0.00  0.00    -0.082 A 
ATOM      7  C5  PXY d   1       0.335  -1.343  -0.488  0.00  0.00     0.003 A 
ATOM      8  C6  PXY d   1       1.582  -1.821  -0.094  0.00  0.00     0.003 A 
ENDROOT
TORSDOF 0
ENDMDL
