MODEL 1
REMARK minimizedAffinity -2.52938199
REMARK minimizedRMSD -1
REMARK  0 active torsions:
REMARK  status: ('A' for Active; 'I' for Inactive)
ROOT
ATOM      1  C4' PXY d   1       4.067  -0.755   0.642  0.00  0.00     0.077 C 
ATOM      2  C1' PXY d   1      -1.289   0.894  -0.778  0.00  0.00     0.077 C 
ATOM      3  C1  PXY d   1       0.120   0.474  -0.406  0.00  0.00    -0.082 A 
ATOM      4  C2  PXY d   1       0.528  -0.756  -0.673  0.00  0.00     0.003 A 
ATOM      5  C3  PXY d   1       1.787  -1.162  -0.315  0.00  0.00     0.003 A 
ATOM      6  C4  PXY d   1       2.657  -0.284   0.276  0.00  0.00    -0.082 A 
ATOM      7  C5  PXY d   1       2.251   0.976   0.542  0.00  0.00     0.003 A 
ATOM      8  C6  PXY d   1       0.955   1.356   0.207  0.00  0.00     0.003 A 
ENDROOT
TORSDOF 0
ENDMDL
