MODEL 1
REMARK minimizedAffinity -5.31431961
REMARK minimizedRMSD -1
REMARK  0 active torsions:
REMARK  status: ('A' for Active; 'I' for Inactive)
ROOT
ATOM      1  C4' PXY d   1      -1.848   1.151  -0.881  0.00  0.00     0.077 C 
ATOM      2  C1' PXY d   1       3.067  -1.275   0.956  0.00  0.00     0.077 C 
ATOM      3  C1  PXY d   1       1.777  -0.648   0.464  0.00  0.00    -0.082 A 
ATOM      4  C2  PXY d   1       1.497   0.605   0.784  0.00  0.00     0.003 A 
ATOM      5  C3  PXY d   1       0.320   1.179   0.374  0.00  0.00     0.003 A 
ATOM      6  C4  PXY d   1      -0.554   0.479  -0.414  0.00  0.00    -0.082 A 
ATOM      7  C5  PXY d   1      -0.269  -0.796  -0.753  0.00  0.00     0.003 A 
ATOM      8  C6  PXY d   1       0.911  -1.373  -0.293  0.00  0.00     0.003 A 
ENDROOT
TORSDOF 0
ENDMDL
