MODEL 1
REMARK minimizedAffinity 4.60794687
REMARK minimizedRMSD -1
REMARK  0 active torsions:
REMARK  status: ('A' for Active; 'I' for Inactive)
ROOT
ATOM      1  C   UNL d   1      -0.187  -3.445   4.661  0.00  0.00     0.124 A 
ATOM      2  C1  UNL d   1       0.921  -3.266   3.845  0.00  0.00     0.062 A 
ATOM      3  C2  UNL d   1       0.873  -2.363   2.787  0.00  0.00     0.162 A 
ATOM      4  C3  UNL d   1      -0.288  -1.631   2.539  0.00  0.00    -0.034 A 
ATOM      5  C4  UNL d   1      -1.400  -1.818   3.363  0.00  0.00     0.162 A 
ATOM      6  C5  UNL d   1      -1.346  -2.721   4.419  0.00  0.00     0.062 A 
ATOM      7  F   UNL d   1      -2.418  -2.894   5.206  0.00  0.00    -0.097 F 
ATOM      8  F1  UNL d   1      -2.532  -1.130   3.152  0.00  0.00    -0.096 F 
ATOM      9  I   UNL d   1      -0.364  -0.280   0.958  0.00  0.00    -0.060 I 
ATOM     10  F2  UNL d   1       1.959  -2.210   2.015  0.00  0.00    -0.096 F 
ATOM     11  F3  UNL d   1       2.042  -3.965   4.076  0.00  0.00    -0.097 F 
ATOM     12  F4  UNL d   1      -0.138  -4.316   5.677  0.00  0.00    -0.092 F 
ENDROOT
TORSDOF 0
ENDMDL
