MODEL 1
REMARK minimizedAffinity 3.82902193
REMARK minimizedRMSD -1
REMARK  0 active torsions:
REMARK  status: ('A' for Active; 'I' for Inactive)
ROOT
ATOM      1  C   UNL d   1       1.579   0.557   0.365  0.00  0.00     0.124 A 
ATOM      2  C1  UNL d   1       2.443   1.340   1.118  0.00  0.00     0.062 A 
ATOM      3  C2  UNL d   1       3.697   0.854   1.476  0.00  0.00     0.162 A 
ATOM      4  C3  UNL d   1       4.096  -0.423   1.079  0.00  0.00    -0.034 A 
ATOM      5  C4  UNL d   1       3.221  -1.205   0.322  0.00  0.00     0.162 A 
ATOM      6  C5  UNL d   1       1.969  -0.714  -0.032  0.00  0.00     0.062 A 
ATOM      7  F   UNL d   1       1.136  -1.472  -0.760  0.00  0.00    -0.097 F 
ATOM      8  F1  UNL d   1       3.573  -2.437  -0.076  0.00  0.00    -0.096 F 
ATOM      9  I   UNL d   1       5.970  -1.154   1.611  0.00  0.00    -0.060 I 
ATOM     10  F2  UNL d   1       4.511   1.632   2.204  0.00  0.00    -0.096 F 
ATOM     11  F3  UNL d   1       2.068   2.568   1.504  0.00  0.00    -0.097 F 
ATOM     12  F4  UNL d   1       0.372   1.027   0.023  0.00  0.00    -0.092 F 
ENDROOT
TORSDOF 0
ENDMDL
