MODEL 1
REMARK minimizedAffinity 4.04372883
REMARK minimizedRMSD -1
REMARK  0 active torsions:
REMARK  status: ('A' for Active; 'I' for Inactive)
ROOT
ATOM      1  C   UNL d   1       1.173  -2.628   1.989  0.00  0.00     0.124 A 
ATOM      2  C1  UNL d   1      -0.017  -2.226   2.579  0.00  0.00     0.062 A 
ATOM      3  C2  UNL d   1      -0.740  -1.163   2.044  0.00  0.00     0.162 A 
ATOM      4  C3  UNL d   1      -0.275  -0.495   0.911  0.00  0.00    -0.034 A 
ATOM      5  C4  UNL d   1       0.924  -0.905   0.323  0.00  0.00     0.162 A 
ATOM      6  C5  UNL d   1       1.642  -1.968   0.862  0.00  0.00     0.062 A 
ATOM      7  F   UNL d   1       2.792  -2.355   0.290  0.00  0.00    -0.097 F 
ATOM      8  F1  UNL d   1       1.400  -0.285  -0.767  0.00  0.00    -0.096 F 
ATOM      9  I   UNL d   1      -1.352   1.094   0.107  0.00  0.00    -0.060 I 
ATOM     10  F2  UNL d   1      -1.887  -0.796   2.635  0.00  0.00    -0.096 F 
ATOM     11  F3  UNL d   1      -0.472  -2.861   3.668  0.00  0.00    -0.097 F 
ATOM     12  F4  UNL d   1       1.867  -3.650   2.506  0.00  0.00    -0.092 F 
ENDROOT
TORSDOF 0
ENDMDL
