MODEL 1
REMARK minimizedAffinity 10.0521069
REMARK minimizedRMSD -1
REMARK  0 active torsions:
REMARK  status: ('A' for Active; 'I' for Inactive)
ROOT
ATOM      1  C   UNL d   1       0.463  -2.791   3.152  0.00  0.00     0.124 A 
ATOM      2  C1  UNL d   1       1.072  -2.601   1.920  0.00  0.00     0.062 A 
ATOM      3  C2  UNL d   1       0.654  -1.571   1.083  0.00  0.00     0.162 A 
ATOM      4  C3  UNL d   1      -0.379  -0.720   1.476  0.00  0.00    -0.034 A 
ATOM      5  C4  UNL d   1      -0.989  -0.918   2.717  0.00  0.00     0.162 A 
ATOM      6  C5  UNL d   1      -0.567  -1.949   3.549  0.00  0.00     0.062 A 
ATOM      7  F   UNL d   1      -1.157  -2.131   4.740  0.00  0.00    -0.097 F 
ATOM      8  F1  UNL d   1      -1.985  -0.119   3.126  0.00  0.00    -0.096 F 
ATOM      9  I   UNL d   1      -1.008   0.822   0.228  0.00  0.00    -0.060 I 
ATOM     10  F2  UNL d   1       1.261  -1.411  -0.102  0.00  0.00    -0.096 F 
ATOM     11  F3  UNL d   1       2.067  -3.413   1.534  0.00  0.00    -0.097 F 
ATOM     12  F4  UNL d   1       0.866  -3.784   3.955  0.00  0.00    -0.092 F 
ENDROOT
TORSDOF 0
ENDMDL
