MODEL 1
REMARK minimizedAffinity 3.98030329
REMARK minimizedRMSD -1
REMARK  0 active torsions:
REMARK  status: ('A' for Active; 'I' for Inactive)
ROOT
ATOM      1  C   UNL d   1       1.050  -2.582   1.741  0.00  0.00     0.124 A 
ATOM      2  C1  UNL d   1       1.515  -2.010   0.565  0.00  0.00     0.062 A 
ATOM      3  C2  UNL d   1       0.873  -0.899   0.026  0.00  0.00     0.162 A 
ATOM      4  C3  UNL d   1      -0.240  -0.351   0.663  0.00  0.00    -0.034 A 
ATOM      5  C4  UNL d   1      -0.703  -0.933   1.844  0.00  0.00     0.162 A 
ATOM      6  C5  UNL d   1      -0.059  -2.044   2.379  0.00  0.00     0.062 A 
ATOM      7  F   UNL d   1      -0.510  -2.595   3.515  0.00  0.00    -0.097 F 
ATOM      8  F1  UNL d   1      -1.772  -0.432   2.482  0.00  0.00    -0.096 F 
ATOM      9  I   UNL d   1      -1.202   1.310  -0.141  0.00  0.00    -0.060 I 
ATOM     10  F2  UNL d   1       1.345  -0.366  -1.111  0.00  0.00    -0.096 F 
ATOM     11  F3  UNL d   1       2.585  -2.529  -0.054  0.00  0.00    -0.097 F 
ATOM     12  F4  UNL d   1       1.668  -3.652   2.257  0.00  0.00    -0.092 F 
ENDROOT
TORSDOF 0
ENDMDL
