MODEL 1
REMARK minimizedAffinity 6.97763014
REMARK minimizedRMSD -1
REMARK  0 active torsions:
REMARK  status: ('A' for Active; 'I' for Inactive)
ROOT
ATOM      1  C   UNL d   1      -0.225  -1.812   2.582  0.00  0.00     0.124 A 
ATOM      2  C1  UNL d   1      -0.948  -0.864   1.872  0.00  0.00     0.062 A 
ATOM      3  C2  UNL d   1      -0.488  -0.412   0.638  0.00  0.00     0.162 A 
ATOM      4  C3  UNL d   1       0.701  -0.910   0.105  0.00  0.00    -0.034 A 
ATOM      5  C4  UNL d   1       1.423  -1.864   0.826  0.00  0.00     0.162 A 
ATOM      6  C5  UNL d   1       0.959  -2.311   2.058  0.00  0.00     0.062 A 
ATOM      7  F   UNL d   1       1.659  -3.228   2.743  0.00  0.00    -0.097 F 
ATOM      8  F1  UNL d   1       2.571  -2.363   0.343  0.00  0.00    -0.096 F 
ATOM      9  I   UNL d   1       1.393  -0.238  -1.739  0.00  0.00    -0.060 I 
ATOM     10  F2  UNL d   1      -1.207   0.505  -0.026  0.00  0.00    -0.096 F 
ATOM     11  F3  UNL d   1      -2.092  -0.380   2.376  0.00  0.00    -0.097 F 
ATOM     12  F4  UNL d   1      -0.670  -2.244   3.769  0.00  0.00    -0.092 F 
ENDROOT
TORSDOF 0
ENDMDL
