MODEL 1
REMARK minimizedAffinity 8.04983997
REMARK minimizedRMSD -1
REMARK  0 active torsions:
REMARK  status: ('A' for Active; 'I' for Inactive)
ROOT
ATOM      1  C   UNL d   1      -0.309  -0.672   0.595  0.00  0.00     0.124 A 
ATOM      2  C1  UNL d   1       0.357  -1.888   0.654  0.00  0.00     0.062 A 
ATOM      3  C2  UNL d   1       1.703  -1.933   1.005  0.00  0.00     0.162 A 
ATOM      4  C3  UNL d   1       2.393  -0.758   1.301  0.00  0.00    -0.034 A 
ATOM      5  C4  UNL d   1       1.717   0.462   1.238  0.00  0.00     0.162 A 
ATOM      6  C5  UNL d   1       0.371   0.502   0.887  0.00  0.00     0.062 A 
ATOM      7  F   UNL d   1      -0.270   1.678   0.831  0.00  0.00    -0.097 F 
ATOM      8  F1  UNL d   1       2.349   1.612   1.517  0.00  0.00    -0.096 F 
ATOM      9  I   UNL d   1       4.405  -0.821   1.826  0.00  0.00    -0.060 I 
ATOM     10  F2  UNL d   1       2.321  -3.123   1.054  0.00  0.00    -0.096 F 
ATOM     11  F3  UNL d   1      -0.298  -3.024   0.371  0.00  0.00    -0.097 F 
ATOM     12  F4  UNL d   1      -1.604  -0.631   0.256  0.00  0.00    -0.092 F 
ENDROOT
TORSDOF 0
ENDMDL
