MODEL 1
REMARK minimizedAffinity 10.8688021
REMARK minimizedRMSD -1
REMARK  0 active torsions:
REMARK  status: ('A' for Active; 'I' for Inactive)
ROOT
ATOM      1  C   UNL d   1      -2.453   0.414  -0.971  0.00  0.00     0.124 A 
ATOM      2  C1  UNL d   1      -2.515  -0.972  -1.009  0.00  0.00     0.062 A 
ATOM      3  C2  UNL d   1      -1.517  -1.734  -0.408  0.00  0.00     0.162 A 
ATOM      4  C3  UNL d   1      -0.448  -1.112   0.237  0.00  0.00    -0.034 A 
ATOM      5  C4  UNL d   1      -0.392   0.283   0.270  0.00  0.00     0.162 A 
ATOM      6  C5  UNL d   1      -1.392   1.040  -0.332  0.00  0.00     0.062 A 
ATOM      7  F   UNL d   1      -1.331   2.379  -0.294  0.00  0.00    -0.097 F 
ATOM      8  F1  UNL d   1       0.621   0.914   0.882  0.00  0.00    -0.096 F 
ATOM      9  I   UNL d   1       1.046  -2.248   1.136  0.00  0.00    -0.060 I 
ATOM     10  F2  UNL d   1      -1.603  -3.072  -0.461  0.00  0.00    -0.096 F 
ATOM     11  F3  UNL d   1      -3.539  -1.579  -1.626  0.00  0.00    -0.097 F 
ATOM     12  F4  UNL d   1      -3.414   1.145  -1.550  0.00  0.00    -0.092 F 
ENDROOT
TORSDOF 0
ENDMDL
