MODEL 1
REMARK minimizedAffinity 10.2055988
REMARK minimizedRMSD -1
REMARK  0 active torsions:
REMARK  status: ('A' for Active; 'I' for Inactive)
ROOT
ATOM      1  C   UNL d   1      -0.075   0.737   0.515  0.00  0.00     0.124 A 
ATOM      2  C1  UNL d   1      -0.313  -0.629   0.459  0.00  0.00     0.062 A 
ATOM      3  C2  UNL d   1      -1.499  -1.111  -0.088  0.00  0.00     0.162 A 
ATOM      4  C3  UNL d   1      -2.456  -0.227  -0.585  0.00  0.00    -0.034 A 
ATOM      5  C4  UNL d   1      -2.210   1.146  -0.524  0.00  0.00     0.162 A 
ATOM      6  C5  UNL d   1      -1.023   1.623   0.023  0.00  0.00     0.062 A 
ATOM      7  F   UNL d   1      -0.795   2.944   0.076  0.00  0.00    -0.097 F 
ATOM      8  F1  UNL d   1      -3.109   2.025  -0.993  0.00  0.00    -0.096 F 
ATOM      9  I   UNL d   1      -4.230  -0.944  -1.403  0.00  0.00    -0.060 I 
ATOM     10  F2  UNL d   1      -1.702  -2.437  -0.129  0.00  0.00    -0.096 F 
ATOM     11  F3  UNL d   1       0.601  -1.487   0.934  0.00  0.00    -0.097 F 
ATOM     12  F4  UNL d   1       1.066   1.198   1.042  0.00  0.00    -0.092 F 
ENDROOT
TORSDOF 0
ENDMDL
