MODEL 1
REMARK minimizedAffinity 21.2357349
REMARK minimizedRMSD -1
REMARK  0 active torsions:
REMARK  status: ('A' for Active; 'I' for Inactive)
ROOT
ATOM      1  C   UNL d   1      -0.658  -0.544   1.597  0.00  0.00     0.124 A 
ATOM      2  C1  UNL d   1       0.600  -0.966   1.190  0.00  0.00     0.062 A 
ATOM      3  C2  UNL d   1       1.312  -1.885   1.955  0.00  0.00     0.162 A 
ATOM      4  C3  UNL d   1       0.766  -2.390   3.136  0.00  0.00    -0.034 A 
ATOM      5  C4  UNL d   1      -0.499  -1.960   3.539  0.00  0.00     0.162 A 
ATOM      6  C5  UNL d   1      -1.207  -1.041   2.770  0.00  0.00     0.062 A 
ATOM      7  F   UNL d   1      -2.422  -0.635   3.165  0.00  0.00    -0.097 F 
ATOM      8  F1  UNL d   1      -1.054  -2.425   4.668  0.00  0.00    -0.096 F 
ATOM      9  I   UNL d   1       1.827  -3.764   4.283  0.00  0.00    -0.060 I 
ATOM     10  F2  UNL d   1       2.525  -2.275   1.538  0.00  0.00    -0.096 F 
ATOM     11  F3  UNL d   1       1.133  -0.486   0.057  0.00  0.00    -0.097 F 
ATOM     12  F4  UNL d   1      -1.340   0.341   0.859  0.00  0.00    -0.092 F 
ENDROOT
TORSDOF 0
ENDMDL
