MODEL 1
REMARK minimizedAffinity 15.3023643
REMARK minimizedRMSD -1
REMARK  0 active torsions:
REMARK  status: ('A' for Active; 'I' for Inactive)
ROOT
ATOM      1  C   UNL d   1       0.414  -3.160   4.753  0.00  0.00     0.124 A 
ATOM      2  C1  UNL d   1      -0.707  -2.379   4.508  0.00  0.00     0.062 A 
ATOM      3  C2  UNL d   1      -0.794  -1.627   3.340  0.00  0.00     0.162 A 
ATOM      4  C3  UNL d   1       0.243  -1.653   2.407  0.00  0.00    -0.034 A 
ATOM      5  C4  UNL d   1       1.367  -2.440   2.662  0.00  0.00     0.162 A 
ATOM      6  C5  UNL d   1       1.450  -3.189   3.830  0.00  0.00     0.062 A 
ATOM      7  F   UNL d   1       2.534  -3.943   4.066  0.00  0.00    -0.097 F 
ATOM      8  F1  UNL d   1       2.382  -2.487   1.786  0.00  0.00    -0.096 F 
ATOM      9  I   UNL d   1       0.116  -0.529   0.660  0.00  0.00    -0.060 I 
ATOM     10  F2  UNL d   1      -1.889  -0.882   3.129  0.00  0.00    -0.096 F 
ATOM     11  F3  UNL d   1      -1.709  -2.348   5.399  0.00  0.00    -0.097 F 
ATOM     12  F4  UNL d   1       0.496  -3.882   5.878  0.00  0.00    -0.092 F 
ENDROOT
TORSDOF 0
ENDMDL
