MODEL 1
REMARK minimizedAffinity 4.46846867
REMARK minimizedRMSD -1
REMARK  0 active torsions:
REMARK  status: ('A' for Active; 'I' for Inactive)
ROOT
ATOM      1  C   UNL d   1      -0.133  -2.603   3.948  0.00  0.00     0.124 A 
ATOM      2  C1  UNL d   1      -0.957  -1.664   3.342  0.00  0.00     0.062 A 
ATOM      3  C2  UNL d   1      -0.606  -1.113   2.113  0.00  0.00     0.162 A 
ATOM      4  C3  UNL d   1       0.575  -1.502   1.480  0.00  0.00    -0.034 A 
ATOM      5  C4  UNL d   1       1.398  -2.446   2.095  0.00  0.00     0.162 A 
ATOM      6  C5  UNL d   1       1.043  -2.993   3.324  0.00  0.00     0.062 A 
ATOM      7  F   UNL d   1       1.840  -3.900   3.907  0.00  0.00    -0.097 F 
ATOM      8  F1  UNL d   1       2.541  -2.841   1.513  0.00  0.00    -0.096 F 
ATOM      9  I   UNL d   1       1.103  -0.681  -0.359  0.00  0.00    -0.060 I 
ATOM     10  F2  UNL d   1      -1.421  -0.208   1.551  0.00  0.00    -0.096 F 
ATOM     11  F3  UNL d   1      -2.094  -1.284   3.944  0.00  0.00    -0.097 F 
ATOM     12  F4  UNL d   1      -0.473  -3.130   5.131  0.00  0.00    -0.092 F 
ENDROOT
TORSDOF 0
ENDMDL
