MODEL 1
REMARK minimizedAffinity 12.3145885
REMARK minimizedRMSD -1
REMARK  0 active torsions:
REMARK  status: ('A' for Active; 'I' for Inactive)
ROOT
ATOM      1  C   UNL d   1      -3.453  -2.388  -2.576  0.00  0.00     0.124 A 
ATOM      2  C1  UNL d   1      -2.462  -3.319  -2.298  0.00  0.00     0.062 A 
ATOM      3  C2  UNL d   1      -2.071  -4.237  -3.268  0.00  0.00     0.162 A 
ATOM      4  C3  UNL d   1      -2.671  -4.228  -4.528  0.00  0.00    -0.034 A 
ATOM      5  C4  UNL d   1      -3.668  -3.289  -4.800  0.00  0.00     0.162 A 
ATOM      6  C5  UNL d   1      -4.055  -2.374  -3.826  0.00  0.00     0.062 A 
ATOM      7  F   UNL d   1      -5.013  -1.475  -4.097  0.00  0.00    -0.097 F 
ATOM      8  F1  UNL d   1      -4.266  -3.253  -6.000  0.00  0.00    -0.096 F 
ATOM      9  I   UNL d   1      -2.090  -5.599  -5.982  0.00  0.00    -0.060 I 
ATOM     10  F2  UNL d   1      -1.111  -5.125  -2.972  0.00  0.00    -0.096 F 
ATOM     11  F3  UNL d   1      -1.879  -3.336  -1.090  0.00  0.00    -0.097 F 
ATOM     12  F4  UNL d   1      -3.827  -1.507  -1.640  0.00  0.00    -0.092 F 
ENDROOT
TORSDOF 0
ENDMDL
