MODEL 1
REMARK minimizedAffinity 7.18630409
REMARK minimizedRMSD -1
REMARK  0 active torsions:
REMARK  status: ('A' for Active; 'I' for Inactive)
ROOT
ATOM      1  C   UNL d   1      -2.379  -2.376  -5.848  0.00  0.00     0.124 A 
ATOM      2  C1  UNL d   1      -1.987  -3.707  -5.867  0.00  0.00     0.062 A 
ATOM      3  C2  UNL d   1      -2.944  -4.718  -5.909  0.00  0.00     0.162 A 
ATOM      4  C3  UNL d   1      -4.302  -4.400  -5.932  0.00  0.00    -0.034 A 
ATOM      5  C4  UNL d   1      -4.688  -3.059  -5.911  0.00  0.00     0.162 A 
ATOM      6  C5  UNL d   1      -3.728  -2.053  -5.870  0.00  0.00     0.062 A 
ATOM      7  F   UNL d   1      -4.108  -0.767  -5.851  0.00  0.00    -0.097 F 
ATOM      8  F1  UNL d   1      -5.985  -2.718  -5.933  0.00  0.00    -0.096 F 
ATOM      9  I   UNL d   1      -5.736  -5.907  -5.995  0.00  0.00    -0.060 I 
ATOM     10  F2  UNL d   1      -2.537  -5.996  -5.927  0.00  0.00    -0.096 F 
ATOM     11  F3  UNL d   1      -0.684  -4.022  -5.845  0.00  0.00    -0.097 F 
ATOM     12  F4  UNL d   1      -1.456  -1.406  -5.807  0.00  0.00    -0.092 F 
ENDROOT
TORSDOF 0
ENDMDL
