MODEL 1
REMARK minimizedAffinity 3.77393508
REMARK minimizedRMSD -1
REMARK  1 active torsions:
REMARK  status: ('A' for Active; 'I' for Inactive)
REMARK    1  A    between atoms: N_2  and  C1_3 
ROOT
ATOM      1  C1  UNL d   1       1.970   4.428  -0.943  0.00  0.00     0.143 A 
ATOM      2  C2  UNL d   1       1.759   4.141   0.410  0.00  0.00    -0.057 A 
ATOM      3  C3  UNL d   1       1.422   2.850   0.834  0.00  0.00     0.033 A 
ATOM      4  C4  UNL d   1       1.262   1.826  -0.093  0.00  0.00    -0.042 A 
ATOM      5  C5  UNL d   1       1.442   2.094  -1.446  0.00  0.00     0.033 A 
ATOM      6  C6  UNL d   1       1.785   3.384  -1.863  0.00  0.00    -0.057 A 
ENDROOT
BRANCH   1   7
ATOM      7  N   UNL d   1       2.210   5.712  -1.437  0.00  0.00    -0.732 N 
ATOM      8  C   UNL d   1       3.410   5.999  -2.193  0.00  0.00     0.284 C 
ATOM      9  H3  UNL d   1       1.370   6.148  -1.810  0.00  0.00     0.395 HD
ENDBRANCH   1   7
TORSDOF 1
ENDMDL
