MODEL 1
REMARK minimizedAffinity -3.15494347
REMARK minimizedRMSD -1
REMARK  1 active torsions:
REMARK  status: ('A' for Active; 'I' for Inactive)
REMARK    1  A    between atoms: N_2  and  C1_3 
ROOT
ATOM      1  C1  UNL d   1       1.207   3.125  -0.974  0.00  0.00     0.143 A 
ATOM      2  C2  UNL d   1       1.419   2.018  -1.802  0.00  0.00    -0.057 A 
ATOM      3  C3  UNL d   1       1.239   0.712  -1.328  0.00  0.00     0.033 A 
ATOM      4  C4  UNL d   1       0.871   0.490  -0.005  0.00  0.00    -0.042 A 
ATOM      5  C5  UNL d   1       0.680   1.575   0.842  0.00  0.00     0.033 A 
ATOM      6  C6  UNL d   1       0.854   2.877   0.362  0.00  0.00    -0.057 A 
ENDROOT
BRANCH   1   7
ATOM      7  N   UNL d   1       1.465   4.444  -1.357  0.00  0.00    -0.732 N 
ATOM      8  C   UNL d   1       1.566   5.493  -0.366  0.00  0.00     0.284 C 
ATOM      9  H3  UNL d   1       2.160   4.504  -2.098  0.00  0.00     0.395 HD
ENDBRANCH   1   7
TORSDOF 1
ENDMDL
