MODEL 1
REMARK minimizedAffinity 0.627133965
REMARK minimizedRMSD -1
REMARK  1 active torsions:
REMARK  status: ('A' for Active; 'I' for Inactive)
REMARK    1  A    between atoms: N_2  and  C1_3 
ROOT
ATOM      1  C1  UNL d   1       1.199   3.914  -0.627  0.00  0.00     0.143 A 
ATOM      2  C2  UNL d   1       1.231   3.329  -1.897  0.00  0.00    -0.057 A 
ATOM      3  C3  UNL d   1       1.204   1.939  -2.057  0.00  0.00     0.033 A 
ATOM      4  C4  UNL d   1       1.175   1.105  -0.944  0.00  0.00    -0.042 A 
ATOM      5  C5  UNL d   1       1.169   1.664   0.329  0.00  0.00     0.033 A 
ATOM      6  C6  UNL d   1       1.189   3.054   0.482  0.00  0.00    -0.057 A 
ENDROOT
BRANCH   1   7
ATOM      7  N   UNL d   1       1.323   5.287  -0.399  0.00  0.00    -0.732 N 
ATOM      8  C   UNL d   1       2.533   5.990  -0.769  0.00  0.00     0.284 C 
ATOM      9  H3  UNL d   1       0.466   5.794  -0.611  0.00  0.00     0.395 HD
ENDBRANCH   1   7
TORSDOF 1
ENDMDL
