MODEL 1
REMARK minimizedAffinity -2.81954646
REMARK minimizedRMSD -1
REMARK  1 active torsions:
REMARK  status: ('A' for Active; 'I' for Inactive)
REMARK    1  A    between atoms: N_2  and  C1_3 
ROOT
ATOM      1  C1  UNL d   1       1.730   3.731  -0.601  0.00  0.00     0.143 A 
ATOM      2  C2  UNL d   1       1.849   2.742   0.382  0.00  0.00    -0.057 A 
ATOM      3  C3  UNL d   1       1.756   1.383   0.059  0.00  0.00     0.033 A 
ATOM      4  C4  UNL d   1       1.513   0.988  -1.252  0.00  0.00    -0.042 A 
ATOM      5  C5  UNL d   1       1.368   1.954  -2.241  0.00  0.00     0.033 A 
ATOM      6  C6  UNL d   1       1.468   3.309  -1.914  0.00  0.00    -0.057 A 
ENDROOT
BRANCH   1   7
ATOM      7  N   UNL d   1       1.715   5.101  -0.328  0.00  0.00    -0.732 N 
ATOM      8  C   UNL d   1       2.629   5.997  -1.003  0.00  0.00     0.284 C 
ATOM      9  H3  UNL d   1       0.771   5.466  -0.230  0.00  0.00     0.395 HD
ENDBRANCH   1   7
TORSDOF 1
ENDMDL
