MODEL 1
REMARK minimizedAffinity -0.932796538
REMARK minimizedRMSD -1
REMARK  1 active torsions:
REMARK  status: ('A' for Active; 'I' for Inactive)
REMARK    1  A    between atoms: N_2  and  C1_3 
ROOT
ATOM      1  C1  UNL d   1       1.235   3.738  -1.475  0.00  0.00     0.143 A 
ATOM      2  C2  UNL d   1       0.895   2.681  -2.326  0.00  0.00    -0.057 A 
ATOM      3  C3  UNL d   1       0.587   1.413  -1.820  0.00  0.00     0.033 A 
ATOM      4  C4  UNL d   1       0.641   1.171  -0.452  0.00  0.00    -0.042 A 
ATOM      5  C5  UNL d   1       1.000   2.200   0.411  0.00  0.00     0.033 A 
ATOM      6  C6  UNL d   1       1.301   3.467  -0.100  0.00  0.00    -0.057 A 
ENDROOT
BRANCH   1   7
ATOM      7  N   UNL d   1       1.648   4.996  -1.923  0.00  0.00    -0.732 N 
ATOM      8  C   UNL d   1       2.103   5.999  -0.986  0.00  0.00     0.284 C 
ATOM      9  H3  UNL d   1       2.201   4.942  -2.776  0.00  0.00     0.395 HD
ENDBRANCH   1   7
TORSDOF 1
ENDMDL
