MODEL 1
REMARK minimizedAffinity -3.11918926
REMARK minimizedRMSD -1
REMARK  1 active torsions:
REMARK  status: ('A' for Active; 'I' for Inactive)
REMARK    1  A    between atoms: N_2  and  C1_3 
ROOT
ATOM      1  C1  UNL d   1       0.810   2.582  -0.215  0.00  0.00     0.143 A 
ATOM      2  C2  UNL d   1       1.043   2.194  -1.538  0.00  0.00    -0.057 A 
ATOM      3  C3  UNL d   1       1.128   0.842  -1.894  0.00  0.00     0.033 A 
ATOM      4  C4  UNL d   1       1.010  -0.148  -0.924  0.00  0.00    -0.042 A 
ATOM      5  C5  UNL d   1       0.803   0.216   0.402  0.00  0.00     0.033 A 
ATOM      6  C6  UNL d   1       0.712   1.567   0.750  0.00  0.00    -0.057 A 
ENDROOT
BRANCH   1   7
ATOM      7  N   UNL d   1       0.814   3.910   0.218  0.00  0.00    -0.732 N 
ATOM      8  C   UNL d   1       1.532   4.925  -0.522  0.00  0.00     0.284 C 
ATOM      9  H3  UNL d   1      -0.097   4.210   0.558  0.00  0.00     0.395 HD
ENDBRANCH   1   7
TORSDOF 1
ENDMDL
