MODEL 1
REMARK minimizedAffinity -1.88130319
REMARK minimizedRMSD -1
REMARK  1 active torsions:
REMARK  status: ('A' for Active; 'I' for Inactive)
REMARK    1  A    between atoms: N_2  and  C1_3 
ROOT
ATOM      1  C1  UNL d   1       1.121   3.248  -0.659  0.00  0.00     0.143 A 
ATOM      2  C2  UNL d   1       0.406   2.993  -1.834  0.00  0.00    -0.057 A 
ATOM      3  C3  UNL d   1       0.362   1.710  -2.393  0.00  0.00     0.033 A 
ATOM      4  C4  UNL d   1       1.058   0.662  -1.800  0.00  0.00    -0.042 A 
ATOM      5  C5  UNL d   1       1.795   0.898  -0.645  0.00  0.00     0.033 A 
ATOM      6  C6  UNL d   1       1.830   2.179  -0.088  0.00  0.00    -0.057 A 
ENDROOT
BRANCH   1   7
ATOM      7  N   UNL d   1       1.284   4.521  -0.108  0.00  0.00    -0.732 N 
ATOM      8  C   UNL d   1       1.971   5.560  -0.845  0.00  0.00     0.284 C 
ATOM      9  H3  UNL d   1       0.453   4.841   0.385  0.00  0.00     0.395 HD
ENDBRANCH   1   7
TORSDOF 1
ENDMDL
