MODEL 1
REMARK minimizedAffinity 0.323584467
REMARK minimizedRMSD -1
REMARK  1 active torsions:
REMARK  status: ('A' for Active; 'I' for Inactive)
REMARK    1  A    between atoms: N_2  and  C1_3 
ROOT
ATOM      1  C1  UNL d   1       2.521   0.789  -0.205  0.00  0.00     0.143 A 
ATOM      2  C2  UNL d   1       2.049  -0.397  -0.776  0.00  0.00    -0.057 A 
ATOM      3  C3  UNL d   1       1.127  -0.380  -1.830  0.00  0.00     0.033 A 
ATOM      4  C4  UNL d   1       0.638   0.829  -2.313  0.00  0.00    -0.042 A 
ATOM      5  C5  UNL d   1       1.074   2.020  -1.744  0.00  0.00     0.033 A 
ATOM      6  C6  UNL d   1       2.000   1.996  -0.697  0.00  0.00    -0.057 A 
ENDROOT
BRANCH   1   7
ATOM      7  N   UNL d   1       3.362   0.836   0.909  0.00  0.00    -0.732 N 
ATOM      8  C   UNL d   1       2.986   1.590   2.086  0.00  0.00     0.284 C 
ATOM      9  H3  UNL d   1       3.788  -0.066   1.112  0.00  0.00     0.395 HD
ENDBRANCH   1   7
TORSDOF 1
ENDMDL
