MODEL 1
REMARK minimizedAffinity 1.68426156
REMARK minimizedRMSD -1
REMARK  1 active torsions:
REMARK  status: ('A' for Active; 'I' for Inactive)
REMARK    1  A    between atoms: N_2  and  C1_3 
ROOT
ATOM      1  C1  UNL d   1       1.596   3.049   0.425  0.00  0.00     0.143 A 
ATOM      2  C2  UNL d   1       1.652   2.202  -0.688  0.00  0.00    -0.057 A 
ATOM      3  C3  UNL d   1       1.644   2.715  -1.991  0.00  0.00     0.033 A 
ATOM      4  C4  UNL d   1       1.552   4.086  -2.205  0.00  0.00    -0.042 A 
ATOM      5  C5  UNL d   1       1.470   4.944  -1.115  0.00  0.00     0.033 A 
ATOM      6  C6  UNL d   1       1.484   4.427   0.184  0.00  0.00    -0.057 A 
ENDROOT
BRANCH   1   7
ATOM      7  N   UNL d   1       1.500   2.596   1.743  0.00  0.00    -0.732 N 
ATOM      8  C   UNL d   1       2.418   1.597   2.248  0.00  0.00     0.284 C 
ATOM      9  H3  UNL d   1       1.302   3.348   2.399  0.00  0.00     0.395 HD
ENDBRANCH   1   7
TORSDOF 1
ENDMDL
