MODEL 1
REMARK minimizedAffinity 4.19653749
REMARK minimizedRMSD -1
REMARK  1 active torsions:
REMARK  status: ('A' for Active; 'I' for Inactive)
REMARK    1  A    between atoms: N_2  and  C1_3 
ROOT
ATOM      1  C1  UNL d   1       1.405   3.620  -0.413  0.00  0.00     0.143 A 
ATOM      2  C2  UNL d   1       1.511   3.264  -1.762  0.00  0.00    -0.057 A 
ATOM      3  C3  UNL d   1       1.541   1.922  -2.159  0.00  0.00     0.033 A 
ATOM      4  C4  UNL d   1       1.495   0.908  -1.208  0.00  0.00    -0.042 A 
ATOM      5  C5  UNL d   1       1.415   1.238   0.140  0.00  0.00     0.033 A 
ATOM      6  C6  UNL d   1       1.379   2.580   0.530  0.00  0.00    -0.057 A 
ENDROOT
BRANCH   1   7
ATOM      7  N   UNL d   1       1.469   4.936   0.052  0.00  0.00    -0.732 N 
ATOM      8  C   UNL d   1       1.943   5.999  -0.808  0.00  0.00     0.284 C 
ATOM      9  H3  UNL d   1       0.662   5.187   0.618  0.00  0.00     0.395 HD
ENDBRANCH   1   7
TORSDOF 1
ENDMDL
