MODEL 1
REMARK minimizedAffinity 6.56592989
REMARK minimizedRMSD -1
REMARK  1 active torsions:
REMARK  status: ('A' for Active; 'I' for Inactive)
REMARK    1  A    between atoms: N_2  and  C1_3 
ROOT
ATOM      1  C1  UNL d   1      -2.290  -4.363  -4.162  0.00  0.00     0.143 A 
ATOM      2  C2  UNL d   1      -2.229  -5.424  -3.253  0.00  0.00    -0.057 A 
ATOM      3  C3  UNL d   1      -1.884  -5.213  -1.912  0.00  0.00     0.033 A 
ATOM      4  C4  UNL d   1      -1.565  -3.936  -1.463  0.00  0.00    -0.042 A 
ATOM      5  C5  UNL d   1      -1.595  -2.870  -2.355  0.00  0.00     0.033 A 
ATOM      6  C6  UNL d   1      -1.947  -3.086  -3.690  0.00  0.00    -0.057 A 
ENDROOT
BRANCH   1   7
ATOM      7  N   UNL d   1      -2.530  -4.522  -5.529  0.00  0.00    -0.732 N 
ATOM      8  C   UNL d   1      -3.779  -5.084  -5.997  0.00  0.00     0.284 C 
ATOM      9  H3  UNL d   1      -2.199  -3.731  -6.076  0.00  0.00     0.395 HD
ENDBRANCH   1   7
TORSDOF 1
ENDMDL
