MODEL 1
REMARK minimizedAffinity 19.4828911
REMARK minimizedRMSD -1
REMARK  0 active torsions:
REMARK  status: ('A' for Active; 'I' for Inactive)
ROOT
ATOM      1  C   UNL d   1       2.730   1.268   0.140  0.00  0.00     0.124 A 
ATOM      2  C1  UNL d   1       1.539   1.839   0.565  0.00  0.00     0.062 A 
ATOM      3  C2  UNL d   1       1.074   1.609   1.857  0.00  0.00     0.162 A 
ATOM      4  C3  UNL d   1       1.801   0.804   2.733  0.00  0.00    -0.034 A 
ATOM      5  C4  UNL d   1       2.998   0.232   2.298  0.00  0.00     0.162 A 
ATOM      6  C5  UNL d   1       3.459   0.465   1.006  0.00  0.00     0.062 A 
ATOM      7  F   UNL d   1       4.610  -0.088   0.597  0.00  0.00    -0.097 F 
ATOM      8  F1  UNL d   1       3.723  -0.547   3.115  0.00  0.00    -0.096 F 
ATOM      9  I   UNL d   1       1.110   0.457   4.665  0.00  0.00    -0.060 I 
ATOM     10  F2  UNL d   1      -0.080   2.173   2.241  0.00  0.00    -0.096 F 
ATOM     11  F3  UNL d   1       0.833   2.614  -0.270  0.00  0.00    -0.097 F 
ATOM     12  F4  UNL d   1       3.175   1.491  -1.104  0.00  0.00    -0.092 F 
ENDROOT
TORSDOF 0
ENDMDL
