MODEL 1
REMARK minimizedAffinity 33.7118874
REMARK minimizedRMSD -1
REMARK  0 active torsions:
REMARK  status: ('A' for Active; 'I' for Inactive)
ROOT
ATOM      1  C   UNL d   1      -4.788  -4.101  -3.029  0.00  0.00     0.124 A 
ATOM      2  C1  UNL d   1      -4.446  -3.556  -4.259  0.00  0.00     0.062 A 
ATOM      3  C2  UNL d   1      -3.192  -3.803  -4.809  0.00  0.00     0.162 A 
ATOM      4  C3  UNL d   1      -2.270  -4.600  -4.131  0.00  0.00    -0.034 A 
ATOM      5  C4  UNL d   1      -2.621  -5.144  -2.894  0.00  0.00     0.162 A 
ATOM      6  C5  UNL d   1      -3.875  -4.894  -2.348  0.00  0.00     0.062 A 
ATOM      7  F   UNL d   1      -4.204  -5.421  -1.159  0.00  0.00    -0.097 F 
ATOM      8  F1  UNL d   1      -1.758  -5.915  -2.215  0.00  0.00    -0.096 F 
ATOM      9  I   UNL d   1      -0.393  -4.972  -4.951  0.00  0.00    -0.060 I 
ATOM     10  F2  UNL d   1      -2.888  -3.264  -5.999  0.00  0.00    -0.096 F 
ATOM     11  F3  UNL d   1      -5.325  -2.788  -4.918  0.00  0.00    -0.097 F 
ATOM     12  F4  UNL d   1      -5.995  -3.860  -2.501  0.00  0.00    -0.092 F 
ENDROOT
TORSDOF 0
ENDMDL
