MODEL 1
REMARK minimizedAffinity 21.1226292
REMARK minimizedRMSD -1
REMARK  0 active torsions:
REMARK  status: ('A' for Active; 'I' for Inactive)
ROOT
ATOM      1  C   UNL d   1       1.603   0.997   2.965  0.00  0.00     0.124 A 
ATOM      2  C1  UNL d   1       2.601   0.182   2.450  0.00  0.00     0.062 A 
ATOM      3  C2  UNL d   1       3.016   0.333   1.130  0.00  0.00     0.162 A 
ATOM      4  C3  UNL d   1       2.433   1.304   0.315  0.00  0.00    -0.034 A 
ATOM      5  C4  UNL d   1       1.429   2.119   0.841  0.00  0.00     0.162 A 
ATOM      6  C5  UNL d   1       1.018   1.965   2.161  0.00  0.00     0.062 A 
ATOM      7  F   UNL d   1       0.054   2.753   2.657  0.00  0.00    -0.097 F 
ATOM      8  F1  UNL d   1       0.848   3.063   0.086  0.00  0.00    -0.096 F 
ATOM      9  I   UNL d   1       3.050   1.532  -1.659  0.00  0.00    -0.060 I 
ATOM     10  F2  UNL d   1       3.983  -0.469   0.658  0.00  0.00    -0.096 F 
ATOM     11  F3  UNL d   1       3.167  -0.754   3.225  0.00  0.00    -0.097 F 
ATOM     12  F4  UNL d   1       1.205   0.849   4.236  0.00  0.00    -0.092 F 
ENDROOT
TORSDOF 0
ENDMDL
