MODEL 1
REMARK minimizedAffinity 16.1635723
REMARK minimizedRMSD -1
REMARK  0 active torsions:
REMARK  status: ('A' for Active; 'I' for Inactive)
ROOT
ATOM      1  C   UNL d   1       2.308   0.408   2.979  0.00  0.00     0.124 A 
ATOM      2  C1  UNL d   1       3.402  -0.221   2.400  0.00  0.00     0.062 A 
ATOM      3  C2  UNL d   1       3.824   0.141   1.124  0.00  0.00     0.162 A 
ATOM      4  C3  UNL d   1       3.153   1.140   0.418  0.00  0.00    -0.034 A 
ATOM      5  C4  UNL d   1       2.053   1.768   1.007  0.00  0.00     0.162 A 
ATOM      6  C5  UNL d   1       1.635   1.402   2.282  0.00  0.00     0.062 A 
ATOM      7  F   UNL d   1       0.579   2.011   2.840  0.00  0.00    -0.097 F 
ATOM      8  F1  UNL d   1       1.385   2.732   0.356  0.00  0.00    -0.096 F 
ATOM      9  I   UNL d   1       3.781   1.685  -1.489  0.00  0.00    -0.060 I 
ATOM     10  F2  UNL d   1       4.883  -0.484   0.590  0.00  0.00    -0.096 F 
ATOM     11  F3  UNL d   1       4.053  -1.182   3.071  0.00  0.00    -0.097 F 
ATOM     12  F4  UNL d   1       1.904   0.056   4.206  0.00  0.00    -0.092 F 
ENDROOT
TORSDOF 0
ENDMDL
