MODEL 1
REMARK minimizedAffinity 19.932045
REMARK minimizedRMSD -1
REMARK  0 active torsions:
REMARK  status: ('A' for Active; 'I' for Inactive)
ROOT
ATOM      1  C   UNL d   1      -1.518  -5.994   0.428  0.00  0.00     0.124 A 
ATOM      2  C1  UNL d   1      -1.526  -5.995  -0.960  0.00  0.00     0.062 A 
ATOM      3  C2  UNL d   1      -2.733  -5.995  -1.653  0.00  0.00     0.162 A 
ATOM      4  C3  UNL d   1      -3.943  -5.993  -0.959  0.00  0.00    -0.034 A 
ATOM      5  C4  UNL d   1      -3.927  -5.993   0.437  0.00  0.00     0.162 A 
ATOM      6  C5  UNL d   1      -2.718  -5.993   1.125  0.00  0.00     0.062 A 
ATOM      7  F   UNL d   1      -2.712  -5.993   2.466  0.00  0.00    -0.097 F 
ATOM      8  F1  UNL d   1      -5.072  -5.991   1.136  0.00  0.00    -0.096 F 
ATOM      9  I   UNL d   1      -5.750  -5.993  -1.991  0.00  0.00    -0.060 I 
ATOM     10  F2  UNL d   1      -2.711  -5.995  -2.994  0.00  0.00    -0.096 F 
ATOM     11  F3  UNL d   1      -0.368  -5.997  -1.635  0.00  0.00    -0.097 F 
ATOM     12  F4  UNL d   1      -0.355  -5.995   1.093  0.00  0.00    -0.092 F 
ENDROOT
TORSDOF 0
ENDMDL
