MODEL 1
REMARK minimizedAffinity 26.4071484
REMARK minimizedRMSD -1
REMARK  0 active torsions:
REMARK  status: ('A' for Active; 'I' for Inactive)
ROOT
ATOM      1  C   UNL d   1      -5.079  -4.117  -3.963  0.00  0.00     0.124 A 
ATOM      2  C1  UNL d   1      -5.077  -5.022  -2.910  0.00  0.00     0.062 A 
ATOM      3  C2  UNL d   1      -4.125  -4.919  -1.900  0.00  0.00     0.162 A 
ATOM      4  C3  UNL d   1      -3.167  -3.906  -1.937  0.00  0.00    -0.034 A 
ATOM      5  C4  UNL d   1      -3.175  -3.000  -2.999  0.00  0.00     0.162 A 
ATOM      6  C5  UNL d   1      -4.129  -3.107  -4.006  0.00  0.00     0.062 A 
ATOM      7  F   UNL d   1      -4.129  -2.232  -5.022  0.00  0.00    -0.097 F 
ATOM      8  F1  UNL d   1      -2.268  -2.014  -3.065  0.00  0.00    -0.096 F 
ATOM      9  I   UNL d   1      -1.742  -3.749  -0.429  0.00  0.00    -0.060 I 
ATOM     10  F2  UNL d   1      -4.147  -5.808  -0.895  0.00  0.00    -0.096 F 
ATOM     11  F3  UNL d   1      -5.994  -6.000  -2.866  0.00  0.00    -0.097 F 
ATOM     12  F4  UNL d   1      -5.996  -4.219  -4.934  0.00  0.00    -0.092 F 
ENDROOT
TORSDOF 0
ENDMDL
