MODEL 1
REMARK minimizedAffinity 26.270462
REMARK minimizedRMSD -1
REMARK  0 active torsions:
REMARK  status: ('A' for Active; 'I' for Inactive)
ROOT
ATOM      1  C   UNL d   1       3.640   1.410  -4.401  0.00  0.00     0.124 A 
ATOM      2  C1  UNL d   1       2.715   2.445  -4.404  0.00  0.00     0.062 A 
ATOM      3  C2  UNL d   1       2.269   2.988  -3.202  0.00  0.00     0.162 A 
ATOM      4  C3  UNL d   1       2.746   2.497  -1.987  0.00  0.00    -0.034 A 
ATOM      5  C4  UNL d   1       3.675   1.454  -1.992  0.00  0.00     0.162 A 
ATOM      6  C5  UNL d   1       4.118   0.915  -3.196  0.00  0.00     0.062 A 
ATOM      7  F   UNL d   1       5.011  -0.085  -3.191  0.00  0.00    -0.097 F 
ATOM      8  F1  UNL d   1       4.155   0.958  -0.842  0.00  0.00    -0.096 F 
ATOM      9  I   UNL d   1       2.081   3.305  -0.189  0.00  0.00    -0.060 I 
ATOM     10  F2  UNL d   1       1.375   3.988  -3.235  0.00  0.00    -0.096 F 
ATOM     11  F3  UNL d   1       2.251   2.924  -5.566  0.00  0.00    -0.097 F 
ATOM     12  F4  UNL d   1       4.067   0.889  -5.558  0.00  0.00    -0.092 F 
ENDROOT
TORSDOF 0
ENDMDL
