MODEL 1
REMARK minimizedAffinity 31.7030296
REMARK minimizedRMSD -1
REMARK  0 active torsions:
REMARK  status: ('A' for Active; 'I' for Inactive)
ROOT
ATOM      1  C   UNL d   1       3.759   2.041  -4.824  0.00  0.00     0.124 A 
ATOM      2  C1  UNL d   1       4.258   1.430  -3.682  0.00  0.00     0.062 A 
ATOM      3  C2  UNL d   1       3.612   1.595  -2.461  0.00  0.00     0.162 A 
ATOM      4  C3  UNL d   1       2.459   2.375  -2.374  0.00  0.00    -0.034 A 
ATOM      5  C4  UNL d   1       1.963   2.988  -3.527  0.00  0.00     0.162 A 
ATOM      6  C5  UNL d   1       2.613   2.819  -4.745  0.00  0.00     0.062 A 
ATOM      7  F   UNL d   1       2.129   3.411  -5.847  0.00  0.00    -0.097 F 
ATOM      8  F1  UNL d   1       0.857   3.744  -3.479  0.00  0.00    -0.096 F 
ATOM      9  I   UNL d   1       1.490   2.624  -0.549  0.00  0.00    -0.060 I 
ATOM     10  F2  UNL d   1       4.116   0.992  -1.374  0.00  0.00    -0.096 F 
ATOM     11  F3  UNL d   1       5.366   0.678  -3.756  0.00  0.00    -0.097 F 
ATOM     12  F4  UNL d   1       4.383   1.882  -5.998  0.00  0.00    -0.092 F 
ENDROOT
TORSDOF 0
ENDMDL
