MODEL 1
REMARK minimizedAffinity 14.6049681
REMARK minimizedRMSD -1
REMARK  0 active torsions:
REMARK  status: ('A' for Active; 'I' for Inactive)
ROOT
ATOM      1  C   UNL d   1       0.773   0.398   4.009  0.00  0.00     0.124 A 
ATOM      2  C1  UNL d   1      -0.076   1.313   3.402  0.00  0.00     0.062 A 
ATOM      3  C2  UNL d   1       0.447   2.432   2.759  0.00  0.00     0.162 A 
ATOM      4  C3  UNL d   1       1.825   2.641   2.719  0.00  0.00    -0.034 A 
ATOM      5  C4  UNL d   1       2.672   1.716   3.333  0.00  0.00     0.162 A 
ATOM      6  C5  UNL d   1       2.145   0.600   3.974  0.00  0.00     0.062 A 
ATOM      7  F   UNL d   1       2.966  -0.284   4.560  0.00  0.00    -0.097 F 
ATOM      8  F1  UNL d   1       4.002   1.886   3.313  0.00  0.00    -0.096 F 
ATOM      9  I   UNL d   1       2.610   4.312   1.759  0.00  0.00    -0.060 I 
ATOM     10  F2  UNL d   1      -0.396   3.300   2.180  0.00  0.00    -0.096 F 
ATOM     11  F3  UNL d   1      -1.402   1.121   3.435  0.00  0.00    -0.097 F 
ATOM     12  F4  UNL d   1       0.267  -0.677   4.628  0.00  0.00    -0.092 F 
ENDROOT
TORSDOF 0
ENDMDL
