MODEL 1
REMARK minimizedAffinity 38.1331482
REMARK minimizedRMSD -1
REMARK  0 active torsions:
REMARK  status: ('A' for Active; 'I' for Inactive)
ROOT
ATOM      1  C   UNL d   1      -4.699  -4.311  -3.077  0.00  0.00     0.124 A 
ATOM      2  C1  UNL d   1      -4.945  -5.166  -2.011  0.00  0.00     0.062 A 
ATOM      3  C2  UNL d   1      -4.104  -5.161  -0.902  0.00  0.00     0.162 A 
ATOM      4  C3  UNL d   1      -3.009  -4.297  -0.852  0.00  0.00    -0.034 A 
ATOM      5  C4  UNL d   1      -2.768  -3.442  -1.929  0.00  0.00     0.162 A 
ATOM      6  C5  UNL d   1      -3.611  -3.451  -3.035  0.00  0.00     0.062 A 
ATOM      7  F   UNL d   1      -3.372  -2.625  -4.064  0.00  0.00    -0.097 F 
ATOM      8  F1  UNL d   1      -1.725  -2.599  -1.914  0.00  0.00    -0.096 F 
ATOM      9  I   UNL d   1      -1.750  -4.287   0.805  0.00  0.00    -0.060 I 
ATOM     10  F2  UNL d   1      -4.366  -5.997   0.114  0.00  0.00    -0.096 F 
ATOM     11  F3  UNL d   1      -5.994  -5.999  -2.050  0.00  0.00    -0.097 F 
ATOM     12  F4  UNL d   1      -5.509  -4.319  -4.144  0.00  0.00    -0.092 F 
ENDROOT
TORSDOF 0
ENDMDL
