MODEL 1
REMARK minimizedAffinity 32.2211304
REMARK minimizedRMSD -1
REMARK  0 active torsions:
REMARK  status: ('A' for Active; 'I' for Inactive)
ROOT
ATOM      1  C   UNL d   1      -2.190  -2.684  -1.521  0.00  0.00     0.124 A 
ATOM      2  C1  UNL d   1      -3.004  -3.763  -1.835  0.00  0.00     0.062 A 
ATOM      3  C2  UNL d   1      -3.316  -4.711  -0.865  0.00  0.00     0.162 A 
ATOM      4  C3  UNL d   1      -2.813  -4.584   0.430  0.00  0.00    -0.034 A 
ATOM      5  C4  UNL d   1      -1.993  -3.497   0.738  0.00  0.00     0.162 A 
ATOM      6  C5  UNL d   1      -1.685  -2.552  -0.235  0.00  0.00     0.062 A 
ATOM      7  F   UNL d   1      -0.898  -1.510   0.071  0.00  0.00    -0.097 F 
ATOM      8  F1  UNL d   1      -1.493  -3.344   1.973  0.00  0.00    -0.096 F 
ATOM      9  I   UNL d   1      -3.275  -6.000   1.883  0.00  0.00    -0.060 I 
ATOM     10  F2  UNL d   1      -4.105  -5.743  -1.197  0.00  0.00    -0.096 F 
ATOM     11  F3  UNL d   1      -3.493  -3.893  -3.077  0.00  0.00    -0.097 F 
ATOM     12  F4  UNL d   1      -1.891  -1.773  -2.457  0.00  0.00    -0.092 F 
ENDROOT
TORSDOF 0
ENDMDL
