MODEL 1
REMARK minimizedAffinity 23.8484287
REMARK minimizedRMSD -1
REMARK  0 active torsions:
REMARK  status: ('A' for Active; 'I' for Inactive)
ROOT
ATOM      1  C   UNL d   1      -1.596  -1.972  -1.801  0.00  0.00     0.124 A 
ATOM      2  C1  UNL d   1      -2.541  -2.911  -2.188  0.00  0.00     0.062 A 
ATOM      3  C2  UNL d   1      -2.998  -3.861  -1.278  0.00  0.00     0.162 A 
ATOM      4  C3  UNL d   1      -2.510  -3.875   0.029  0.00  0.00    -0.034 A 
ATOM      5  C4  UNL d   1      -1.558  -2.927   0.410  0.00  0.00     0.162 A 
ATOM      6  C5  UNL d   1      -1.105  -1.980  -0.503  0.00  0.00     0.062 A 
ATOM      7  F   UNL d   1      -0.192  -1.073  -0.127  0.00  0.00    -0.097 F 
ATOM      8  F1  UNL d   1      -1.068  -2.913   1.659  0.00  0.00    -0.096 F 
ATOM      9  I   UNL d   1      -3.189  -5.293   1.392  0.00  0.00    -0.060 I 
ATOM     10  F2  UNL d   1      -3.911  -4.757  -1.680  0.00  0.00    -0.096 F 
ATOM     11  F3  UNL d   1      -3.016  -2.905  -3.442  0.00  0.00    -0.097 F 
ATOM     12  F4  UNL d   1      -1.158  -1.060  -2.678  0.00  0.00    -0.092 F 
ENDROOT
TORSDOF 0
ENDMDL
