MODEL 1
REMARK minimizedAffinity 16.5396233
REMARK minimizedRMSD -1
REMARK  0 active torsions:
REMARK  status: ('A' for Active; 'I' for Inactive)
ROOT
ATOM      1  C   UNL d   1      -1.506  -1.180   0.718  0.00  0.00     0.124 A 
ATOM      2  C1  UNL d   1      -2.216  -1.999  -0.148  0.00  0.00     0.062 A 
ATOM      3  C2  UNL d   1      -2.245  -3.376   0.055  0.00  0.00     0.162 A 
ATOM      4  C3  UNL d   1      -1.562  -3.942   1.131  0.00  0.00    -0.034 A 
ATOM      5  C4  UNL d   1      -0.849  -3.112   1.998  0.00  0.00     0.162 A 
ATOM      6  C5  UNL d   1      -0.823  -1.737   1.790  0.00  0.00     0.062 A 
ATOM      7  F   UNL d   1      -0.136  -0.947   2.628  0.00  0.00    -0.097 F 
ATOM      8  F1  UNL d   1      -0.180  -3.623   3.042  0.00  0.00    -0.096 F 
ATOM      9  I   UNL d   1      -1.602  -6.000   1.440  0.00  0.00    -0.060 I 
ATOM     10  F2  UNL d   1      -2.940  -4.143  -0.798  0.00  0.00    -0.096 F 
ATOM     11  F3  UNL d   1      -2.877  -1.463  -1.185  0.00  0.00    -0.097 F 
ATOM     12  F4  UNL d   1      -1.479   0.144   0.519  0.00  0.00    -0.092 F 
ENDROOT
TORSDOF 0
ENDMDL
