MODEL 1
REMARK minimizedAffinity 13.9078836
REMARK minimizedRMSD -1
REMARK  0 active torsions:
REMARK  status: ('A' for Active; 'I' for Inactive)
ROOT
ATOM      1  C   UNL d   1      -0.345  -2.797  -0.906  0.00  0.00     0.124 A 
ATOM      2  C1  UNL d   1       0.725  -3.080  -1.745  0.00  0.00     0.062 A 
ATOM      3  C2  UNL d   1       0.536  -3.144  -3.122  0.00  0.00     0.162 A 
ATOM      4  C3  UNL d   1      -0.728  -2.924  -3.671  0.00  0.00    -0.034 A 
ATOM      5  C4  UNL d   1      -1.799  -2.642  -2.821  0.00  0.00     0.162 A 
ATOM      6  C5  UNL d   1      -1.605  -2.579  -1.445  0.00  0.00     0.062 A 
ATOM      7  F   UNL d   1      -2.639  -2.306  -0.636  0.00  0.00    -0.097 F 
ATOM      8  F1  UNL d   1      -3.027  -2.426  -3.314  0.00  0.00    -0.096 F 
ATOM      9  I   UNL d   1      -1.014  -3.020  -5.730  0.00  0.00    -0.060 I 
ATOM     10  F2  UNL d   1       1.587  -3.418  -3.909  0.00  0.00    -0.096 F 
ATOM     11  F3  UNL d   1       1.943  -3.292  -1.227  0.00  0.00    -0.097 F 
ATOM     12  F4  UNL d   1      -0.161  -2.737   0.419  0.00  0.00    -0.092 F 
ENDROOT
TORSDOF 0
ENDMDL
