MODEL 1
REMARK minimizedAffinity 16.0363121
REMARK minimizedRMSD -1
REMARK  0 active torsions:
REMARK  status: ('A' for Active; 'I' for Inactive)
ROOT
ATOM      1  C   UNL d   1       4.925   1.494   0.734  0.00  0.00     0.124 A 
ATOM      2  C1  UNL d   1       3.809   2.319   0.751  0.00  0.00     0.062 A 
ATOM      3  C2  UNL d   1       2.690   1.969   1.501  0.00  0.00     0.162 A 
ATOM      4  C3  UNL d   1       2.681   0.787   2.242  0.00  0.00    -0.034 A 
ATOM      5  C4  UNL d   1       3.807  -0.038   2.220  0.00  0.00     0.162 A 
ATOM      6  C5  UNL d   1       4.923   0.316   1.469  0.00  0.00     0.062 A 
ATOM      7  F   UNL d   1       6.000  -0.482   1.454  0.00  0.00    -0.097 F 
ATOM      8  F1  UNL d   1       3.833  -1.181   2.921  0.00  0.00    -0.096 F 
ATOM      9  I   UNL d   1       1.010   0.260   3.365  0.00  0.00    -0.060 I 
ATOM     10  F2  UNL d   1       1.625   2.785   1.498  0.00  0.00    -0.096 F 
ATOM     11  F3  UNL d   1       3.808   3.457   0.041  0.00  0.00    -0.097 F 
ATOM     12  F4  UNL d   1       5.999   1.833   0.011  0.00  0.00    -0.092 F 
ENDROOT
TORSDOF 0
ENDMDL
