MODEL 1
REMARK minimizedAffinity 21.497776
REMARK minimizedRMSD -1
REMARK  0 active torsions:
REMARK  status: ('A' for Active; 'I' for Inactive)
ROOT
ATOM      1  C   UNL d   1       1.227   0.909   4.029  0.00  0.00     0.124 A 
ATOM      2  C1  UNL d   1       0.649   1.854   3.192  0.00  0.00     0.062 A 
ATOM      3  C2  UNL d   1       1.254   2.182   1.982  0.00  0.00     0.162 A 
ATOM      4  C3  UNL d   1       2.446   1.563   1.602  0.00  0.00    -0.034 A 
ATOM      5  C4  UNL d   1       3.021   0.615   2.449  0.00  0.00     0.162 A 
ATOM      6  C5  UNL d   1       2.412   0.291   3.657  0.00  0.00     0.062 A 
ATOM      7  F   UNL d   1       2.972  -0.622   4.464  0.00  0.00    -0.097 F 
ATOM      8  F1  UNL d   1       4.166   0.002   2.114  0.00  0.00    -0.096 F 
ATOM      9  I   UNL d   1       3.355   2.051  -0.206  0.00  0.00    -0.060 I 
ATOM     10  F2  UNL d   1       0.674   3.098   1.193  0.00  0.00    -0.096 F 
ATOM     11  F3  UNL d   1      -0.496   2.453   3.549  0.00  0.00    -0.097 F 
ATOM     12  F4  UNL d   1       0.642   0.597   5.192  0.00  0.00    -0.092 F 
ENDROOT
TORSDOF 0
ENDMDL
