MODEL 1
REMARK minimizedAffinity 29.129797
REMARK minimizedRMSD -1
REMARK  0 active torsions:
REMARK  status: ('A' for Active; 'I' for Inactive)
ROOT
ATOM      1  C   UNL d   1      -1.295  -2.737   0.757  0.00  0.00     0.124 A 
ATOM      2  C1  UNL d   1      -2.076  -2.491  -0.363  0.00  0.00     0.062 A 
ATOM      3  C2  UNL d   1      -3.027  -3.421  -0.772  0.00  0.00     0.162 A 
ATOM      4  C3  UNL d   1      -3.204  -4.607  -0.060  0.00  0.00    -0.034 A 
ATOM      5  C4  UNL d   1      -2.414  -4.848   1.066  0.00  0.00     0.162 A 
ATOM      6  C5  UNL d   1      -1.465  -3.915   1.471  0.00  0.00     0.062 A 
ATOM      7  F   UNL d   1      -0.711  -4.155   2.554  0.00  0.00    -0.097 F 
ATOM      8  F1  UNL d   1      -2.558  -5.978   1.775  0.00  0.00    -0.096 F 
ATOM      9  I   UNL d   1      -4.625  -6.000  -0.668  0.00  0.00    -0.060 I 
ATOM     10  F2  UNL d   1      -3.767  -3.156  -1.859  0.00  0.00    -0.096 F 
ATOM     11  F3  UNL d   1      -1.913  -1.353  -1.055  0.00  0.00    -0.097 F 
ATOM     12  F4  UNL d   1      -0.380  -1.841   1.148  0.00  0.00    -0.092 F 
ENDROOT
TORSDOF 0
ENDMDL
