MODEL 1
REMARK minimizedAffinity 16.9018059
REMARK minimizedRMSD -1
REMARK  0 active torsions:
REMARK  status: ('A' for Active; 'I' for Inactive)
ROOT
ATOM      1  C   UNL d   1       3.777   0.411   0.972  0.00  0.00     0.124 A 
ATOM      2  C1  UNL d   1       4.087  -0.463   2.005  0.00  0.00     0.062 A 
ATOM      3  C2  UNL d   1       3.268  -0.538   3.128  0.00  0.00     0.162 A 
ATOM      4  C3  UNL d   1       2.130   0.263   3.224  0.00  0.00    -0.034 A 
ATOM      5  C4  UNL d   1       1.825   1.140   2.182  0.00  0.00     0.162 A 
ATOM      6  C5  UNL d   1       2.647   1.211   1.062  0.00  0.00     0.062 A 
ATOM      7  F   UNL d   1       2.346   2.056   0.065  0.00  0.00    -0.097 F 
ATOM      8  F1  UNL d   1       0.739   1.924   2.241  0.00  0.00    -0.096 F 
ATOM      9  I   UNL d   1       0.903   0.153   4.901  0.00  0.00    -0.060 I 
ATOM     10  F2  UNL d   1       3.592  -1.391   4.111  0.00  0.00    -0.096 F 
ATOM     11  F3  UNL d   1       5.179  -1.236   1.922  0.00  0.00    -0.097 F 
ATOM     12  F4  UNL d   1       4.567   0.482  -0.106  0.00  0.00    -0.092 F 
ENDROOT
TORSDOF 0
ENDMDL
