MODEL 1
REMARK minimizedAffinity 17.5263748
REMARK minimizedRMSD -1
REMARK  1 active torsions:
REMARK  status: ('A' for Active; 'I' for Inactive)
REMARK    1  A    between atoms: N_2  and  C1_3 
ROOT
ATOM      1  C1  UNL d   1      -0.675  -3.126  -1.861  0.00  0.00     0.143 A 
ATOM      2  C2  UNL d   1      -0.351  -4.284  -1.146  0.00  0.00    -0.057 A 
ATOM      3  C3  UNL d   1      -0.275  -4.278   0.252  0.00  0.00     0.033 A 
ATOM      4  C4  UNL d   1      -0.495  -3.101   0.960  0.00  0.00    -0.042 A 
ATOM      5  C5  UNL d   1      -0.794  -1.932   0.270  0.00  0.00     0.033 A 
ATOM      6  C6  UNL d   1      -0.875  -1.947  -1.126  0.00  0.00    -0.057 A 
ENDROOT
BRANCH   1   7
ATOM      7  N   UNL d   1      -0.669  -3.045  -3.256  0.00  0.00    -0.732 N 
ATOM      8  C   UNL d   1      -1.310  -1.939  -3.933  0.00  0.00     0.284 C 
ATOM      9  H3  UNL d   1       0.227  -3.316  -3.656  0.00  0.00     0.395 HD
ENDBRANCH   1   7
TORSDOF 1
ENDMDL
