MODEL 1
REMARK minimizedAffinity 11.2871675
REMARK minimizedRMSD -1
REMARK  1 active torsions:
REMARK  status: ('A' for Active; 'I' for Inactive)
REMARK    1  A    between atoms: N_2  and  C1_3 
ROOT
ATOM      1  C1  UNL d   1      -2.541  -0.727   1.574  0.00  0.00     0.143 A 
ATOM      2  C2  UNL d   1      -2.441   0.668   1.595  0.00  0.00    -0.057 A 
ATOM      3  C3  UNL d   1      -2.462   1.380   2.800  0.00  0.00     0.033 A 
ATOM      4  C4  UNL d   1      -2.614   0.708   4.009  0.00  0.00    -0.042 A 
ATOM      5  C5  UNL d   1      -2.741  -0.677   4.010  0.00  0.00     0.033 A 
ATOM      6  C6  UNL d   1      -2.712  -1.382   2.804  0.00  0.00    -0.057 A 
ENDROOT
BRANCH   1   7
ATOM      7  N   UNL d   1      -2.626  -1.484   0.403  0.00  0.00    -0.732 N 
ATOM      8  C   UNL d   1      -1.689  -1.273  -0.680  0.00  0.00     0.284 C 
ATOM      9  H3  UNL d   1      -2.835  -2.462   0.586  0.00  0.00     0.395 HD
ENDBRANCH   1   7
TORSDOF 1
ENDMDL
