MODEL 1
REMARK minimizedAffinity 11.1510143
REMARK minimizedRMSD -1
REMARK  1 active torsions:
REMARK  status: ('A' for Active; 'I' for Inactive)
REMARK    1  A    between atoms: N_2  and  C1_3 
ROOT
ATOM      1  C1  UNL d   1      -3.532   2.984  -5.414  0.00  0.00     0.143 A 
ATOM      2  C2  UNL d   1      -3.372   2.072  -4.365  0.00  0.00    -0.057 A 
ATOM      3  C3  UNL d   1      -2.101   1.731  -3.886  0.00  0.00     0.033 A 
ATOM      4  C4  UNL d   1      -0.962   2.276  -4.470  0.00  0.00    -0.042 A 
ATOM      5  C5  UNL d   1      -1.096   3.165  -5.531  0.00  0.00     0.033 A 
ATOM      6  C6  UNL d   1      -2.369   3.507  -6.000  0.00  0.00    -0.057 A 
ENDROOT
BRANCH   1   7
ATOM      7  N   UNL d   1      -4.764   3.288  -5.999  0.00  0.00    -0.732 N 
ATOM      8  C   UNL d   1      -5.456   4.514  -5.664  0.00  0.00     0.284 C 
ATOM      9  H3  UNL d   1      -4.793   3.051  -6.989  0.00  0.00     0.395 HD
ENDBRANCH   1   7
TORSDOF 1
ENDMDL
