MODEL 1
REMARK minimizedAffinity 8.33079243
REMARK minimizedRMSD -1
REMARK  1 active torsions:
REMARK  status: ('A' for Active; 'I' for Inactive)
REMARK    1  A    between atoms: N_2  and  C1_3 
ROOT
ATOM      1  C1  UNL d   1       5.345   1.490   1.230  0.00  0.00     0.143 A 
ATOM      2  C2  UNL d   1       4.204   2.222   1.576  0.00  0.00    -0.057 A 
ATOM      3  C3  UNL d   1       3.707   3.230   0.741  0.00  0.00     0.033 A 
ATOM      4  C4  UNL d   1       4.361   3.545  -0.445  0.00  0.00    -0.042 A 
ATOM      5  C5  UNL d   1       5.512   2.847  -0.797  0.00  0.00     0.033 A 
ATOM      6  C6  UNL d   1       5.999   1.837   0.038  0.00  0.00    -0.057 A 
ENDROOT
BRANCH   1   7
ATOM      7  N   UNL d   1       5.944   0.544   2.065  0.00  0.00    -0.732 N 
ATOM      8  C   UNL d   1       5.250   0.046   3.233  0.00  0.00     0.284 C 
ATOM      9  H3  UNL d   1       6.446  -0.171   1.543  0.00  0.00     0.395 HD
ENDBRANCH   1   7
TORSDOF 1
ENDMDL
