MODEL 1
REMARK minimizedAffinity 3.48227
REMARK minimizedRMSD -1
REMARK  1 active torsions:
REMARK  status: ('A' for Active; 'I' for Inactive)
REMARK    1  A    between atoms: N_2  and  C1_3 
ROOT
ATOM      1  C1  UNL d   1       3.772   1.917   3.548  0.00  0.00     0.143 A 
ATOM      2  C2  UNL d   1       4.600   0.825   3.266  0.00  0.00    -0.057 A 
ATOM      3  C3  UNL d   1       4.989   0.528   1.954  0.00  0.00     0.033 A 
ATOM      4  C4  UNL d   1       4.531   1.304   0.894  0.00  0.00    -0.042 A 
ATOM      5  C5  UNL d   1       3.688   2.380   1.148  0.00  0.00     0.033 A 
ATOM      6  C6  UNL d   1       3.308   2.675   2.461  0.00  0.00    -0.057 A 
ENDROOT
BRANCH   1   7
ATOM      7  N   UNL d   1       3.271   2.206   4.819  0.00  0.00    -0.732 N 
ATOM      8  C   UNL d   1       4.023   3.033   5.738  0.00  0.00     0.284 C 
ATOM      9  H3  UNL d   1       2.272   2.399   4.808  0.00  0.00     0.395 HD
ENDBRANCH   1   7
TORSDOF 1
ENDMDL
