MODEL 1
REMARK minimizedAffinity 13.8199749
REMARK minimizedRMSD -1
REMARK  1 active torsions:
REMARK  status: ('A' for Active; 'I' for Inactive)
REMARK    1  A    between atoms: N_2  and  C1_3 
ROOT
ATOM      1  C1  UNL d   1       4.257   2.202   3.307  0.00  0.00     0.143 A 
ATOM      2  C2  UNL d   1       5.282   1.257   3.193  0.00  0.00    -0.057 A 
ATOM      3  C3  UNL d   1       5.912   1.014   1.966  0.00  0.00     0.033 A 
ATOM      4  C4  UNL d   1       5.507   1.694   0.822  0.00  0.00    -0.042 A 
ATOM      5  C5  UNL d   1       4.473   2.620   0.907  0.00  0.00     0.033 A 
ATOM      6  C6  UNL d   1       3.853   2.863   2.136  0.00  0.00    -0.057 A 
ENDROOT
BRANCH   1   7
ATOM      7  N   UNL d   1       3.525   2.418   4.477  0.00  0.00    -0.732 N 
ATOM      8  C   UNL d   1       4.101   3.157   5.581  0.00  0.00     0.284 C 
ATOM      9  H3  UNL d   1       2.551   2.643   4.290  0.00  0.00     0.395 HD
ENDBRANCH   1   7
TORSDOF 1
ENDMDL
