MODEL 1
REMARK minimizedAffinity 15.2957554
REMARK minimizedRMSD -1
REMARK  1 active torsions:
REMARK  status: ('A' for Active; 'I' for Inactive)
REMARK    1  A    between atoms: N_2  and  C1_3 
ROOT
ATOM      1  C1  UNL d   1       3.537  -0.053  -2.377  0.00  0.00     0.143 A 
ATOM      2  C2  UNL d   1       4.330  -1.149  -2.733  0.00  0.00    -0.057 A 
ATOM      3  C3  UNL d   1       5.554  -0.976  -3.389  0.00  0.00     0.033 A 
ATOM      4  C4  UNL d   1       5.996   0.299  -3.727  0.00  0.00    -0.042 A 
ATOM      5  C5  UNL d   1       5.213   1.401  -3.405  0.00  0.00     0.033 A 
ATOM      6  C6  UNL d   1       3.993   1.223  -2.744  0.00  0.00    -0.057 A 
ENDROOT
BRANCH   1   7
ATOM      7  N   UNL d   1       2.264  -0.164  -1.812  0.00  0.00    -0.732 N 
ATOM      8  C   UNL d   1       1.144  -0.628  -2.603  0.00  0.00     0.284 C 
ATOM      9  H3  UNL d   1       2.290  -0.541  -0.867  0.00  0.00     0.395 HD
ENDBRANCH   1   7
TORSDOF 1
ENDMDL
