MODEL 1
REMARK minimizedAffinity 10.2366734
REMARK minimizedRMSD -1
REMARK  1 active torsions:
REMARK  status: ('A' for Active; 'I' for Inactive)
REMARK    1  A    between atoms: N_2  and  C1_3 
ROOT
ATOM      1  C1  UNL d   1       4.199   1.904   3.437  0.00  0.00     0.143 A 
ATOM      2  C2  UNL d   1       3.672   2.608   2.349  0.00  0.00    -0.057 A 
ATOM      3  C3  UNL d   1       4.278   2.556   1.088  0.00  0.00     0.033 A 
ATOM      4  C4  UNL d   1       5.443   1.819   0.899  0.00  0.00    -0.042 A 
ATOM      5  C5  UNL d   1       5.998   1.131   1.972  0.00  0.00     0.033 A 
ATOM      6  C6  UNL d   1       5.385   1.182   3.227  0.00  0.00    -0.057 A 
ENDROOT
BRANCH   1   7
ATOM      7  N   UNL d   1       3.699   1.994   4.738  0.00  0.00    -0.732 N 
ATOM      8  C   UNL d   1       4.029   3.126   5.577  0.00  0.00     0.284 C 
ATOM      9  H3  UNL d   1       2.728   1.698   4.802  0.00  0.00     0.395 HD
ENDBRANCH   1   7
TORSDOF 1
ENDMDL
