MODEL 1
REMARK minimizedAffinity 1.60632169
REMARK minimizedRMSD -1
REMARK  1 active torsions:
REMARK  status: ('A' for Active; 'I' for Inactive)
REMARK    1  A    between atoms: N_2  and  C1_3 
ROOT
ATOM      1  C1  UNL d   1      -4.245   5.080  -1.202  0.00  0.00     0.143 A 
ATOM      2  C2  UNL d   1      -5.144   6.000  -0.651  0.00  0.00    -0.057 A 
ATOM      3  C3  UNL d   1      -5.999   5.640   0.398  0.00  0.00     0.033 A 
ATOM      4  C4  UNL d   1      -5.990   4.341   0.897  0.00  0.00    -0.042 A 
ATOM      5  C5  UNL d   1      -5.122   3.404   0.347  0.00  0.00     0.033 A 
ATOM      6  C6  UNL d   1      -4.266   3.771  -0.695  0.00  0.00    -0.057 A 
ENDROOT
BRANCH   1   7
ATOM      7  N   UNL d   1      -3.439   5.349  -2.311  0.00  0.00    -0.732 N 
ATOM      8  C   UNL d   1      -3.989   5.999  -3.481  0.00  0.00     0.284 C 
ATOM      9  H3  UNL d   1      -2.514   5.680  -2.048  0.00  0.00     0.395 HD
ENDBRANCH   1   7
TORSDOF 1
ENDMDL
