MODEL 1
REMARK minimizedAffinity 6.68145275
REMARK minimizedRMSD -1
REMARK  1 active torsions:
REMARK  status: ('A' for Active; 'I' for Inactive)
REMARK    1  A    between atoms: N_2  and  C1_3 
ROOT
ATOM      1  C1  UNL d   1       4.875   3.211   0.962  0.00  0.00     0.143 A 
ATOM      2  C2  UNL d   1       5.670   2.179   0.451  0.00  0.00    -0.057 A 
ATOM      3  C3  UNL d   1       5.995   1.060   1.228  0.00  0.00     0.033 A 
ATOM      4  C4  UNL d   1       5.554   0.968   2.544  0.00  0.00    -0.042 A 
ATOM      5  C5  UNL d   1       4.784   1.994   3.081  0.00  0.00     0.033 A 
ATOM      6  C6  UNL d   1       4.457   3.105   2.297  0.00  0.00    -0.057 A 
ENDROOT
BRANCH   1   7
ATOM      7  N   UNL d   1       4.599   4.394   0.272  0.00  0.00    -0.732 N 
ATOM      8  C   UNL d   1       5.540   5.493   0.288  0.00  0.00     0.284 C 
ATOM      9  H3  UNL d   1       4.174   4.223  -0.637  0.00  0.00     0.395 HD
ENDBRANCH   1   7
TORSDOF 1
ENDMDL
