MODEL 1
REMARK minimizedAffinity 3.80435801
REMARK minimizedRMSD -1
REMARK  1 active torsions:
REMARK  status: ('A' for Active; 'I' for Inactive)
REMARK    1  A    between atoms: N_2  and  C1_3 
ROOT
ATOM      1  C1  UNL d   1      -0.780  -3.853   1.479  0.00  0.00     0.143 A 
ATOM      2  C2  UNL d   1      -0.793  -3.373   0.165  0.00  0.00    -0.057 A 
ATOM      3  C3  UNL d   1      -1.575  -2.270  -0.198  0.00  0.00     0.033 A 
ATOM      4  C4  UNL d   1      -2.385  -1.644   0.744  0.00  0.00    -0.042 A 
ATOM      5  C5  UNL d   1      -2.407  -2.119   2.050  0.00  0.00     0.033 A 
ATOM      6  C6  UNL d   1      -1.618  -3.216   2.408  0.00  0.00    -0.057 A 
ENDROOT
BRANCH   1   7
ATOM      7  N   UNL d   1      -0.099  -5.005   1.880  0.00  0.00    -0.732 N 
ATOM      8  C   UNL d   1      -0.749  -5.991   2.716  0.00  0.00     0.284 C 
ATOM      9  H3  UNL d   1       0.467  -5.401   1.133  0.00  0.00     0.395 HD
ENDBRANCH   1   7
TORSDOF 1
ENDMDL
