MODEL 1
REMARK minimizedAffinity 13.768281
REMARK minimizedRMSD -1
REMARK  1 active torsions:
REMARK  status: ('A' for Active; 'I' for Inactive)
REMARK    1  A    between atoms: N_2  and  C1_3 
ROOT
ATOM      1  C1  UNL d   1       4.973   3.511   0.375  0.00  0.00     0.143 A 
ATOM      2  C2  UNL d   1       5.872   2.510  -0.010  0.00  0.00    -0.057 A 
ATOM      3  C3  UNL d   1       6.000   1.327   0.728  0.00  0.00     0.033 A 
ATOM      4  C4  UNL d   1       5.250   1.136   1.884  0.00  0.00    -0.042 A 
ATOM      5  C5  UNL d   1       4.369   2.128   2.299  0.00  0.00     0.033 A 
ATOM      6  C6  UNL d   1       4.240   3.305   1.554  0.00  0.00    -0.057 A 
ENDROOT
BRANCH   1   7
ATOM      7  N   UNL d   1       4.871   4.751  -0.260  0.00  0.00    -0.732 N 
ATOM      8  C   UNL d   1       4.896   5.978   0.508  0.00  0.00     0.284 C 
ATOM      9  H3  UNL d   1       5.407   4.790  -1.124  0.00  0.00     0.395 HD
ENDBRANCH   1   7
TORSDOF 1
ENDMDL
