MODEL 1
REMARK minimizedAffinity 11.8239717
REMARK minimizedRMSD -1
REMARK  1 active torsions:
REMARK  status: ('A' for Active; 'I' for Inactive)
REMARK    1  A    between atoms: N_2  and  C1_3 
ROOT
ATOM      1  C1  UNL d   1       4.761   3.184   1.182  0.00  0.00     0.143 A 
ATOM      2  C2  UNL d   1       4.459   4.513   1.499  0.00  0.00    -0.057 A 
ATOM      3  C3  UNL d   1       4.891   5.569   0.687  0.00  0.00     0.033 A 
ATOM      4  C4  UNL d   1       5.660   5.315  -0.443  0.00  0.00    -0.042 A 
ATOM      5  C5  UNL d   1       5.994   4.004  -0.764  0.00  0.00     0.033 A 
ATOM      6  C6  UNL d   1       5.554   2.953   0.047  0.00  0.00    -0.057 A 
ENDROOT
BRANCH   1   7
ATOM      7  N   UNL d   1       4.445   2.098   2.002  0.00  0.00    -0.732 N 
ATOM      8  C   UNL d   1       5.481   1.397   2.730  0.00  0.00     0.284 C 
ATOM      9  H3  UNL d   1       3.592   2.249   2.535  0.00  0.00     0.395 HD
ENDBRANCH   1   7
TORSDOF 1
ENDMDL
