MODEL 1
REMARK minimizedAffinity 7.63292408
REMARK minimizedRMSD -1
REMARK  1 active torsions:
REMARK  status: ('A' for Active; 'I' for Inactive)
REMARK    1  A    between atoms: N_2  and  C1_3 
ROOT
ATOM      1  C1  UNL d   1       4.814   2.984   0.842  0.00  0.00     0.143 A 
ATOM      2  C2  UNL d   1       5.692   1.936   0.547  0.00  0.00    -0.057 A 
ATOM      3  C3  UNL d   1       5.986   0.947   1.492  0.00  0.00     0.033 A 
ATOM      4  C4  UNL d   1       5.427   1.004   2.765  0.00  0.00    -0.042 A 
ATOM      5  C5  UNL d   1       4.571   2.051   3.089  0.00  0.00     0.033 A 
ATOM      6  C6  UNL d   1       4.276   3.032   2.138  0.00  0.00    -0.057 A 
ENDROOT
BRANCH   1   7
ATOM      7  N   UNL d   1       4.558   4.052  -0.022  0.00  0.00    -0.732 N 
ATOM      8  C   UNL d   1       4.987   5.392   0.316  0.00  0.00     0.284 C 
ATOM      9  H3  UNL d   1       4.699   3.804  -0.998  0.00  0.00     0.395 HD
ENDBRANCH   1   7
TORSDOF 1
ENDMDL
