MODEL 1
REMARK minimizedAffinity 6.96556568
REMARK minimizedRMSD -1
REMARK  1 active torsions:
REMARK  status: ('A' for Active; 'I' for Inactive)
REMARK    1  A    between atoms: N_2  and  C1_3 
ROOT
ATOM      1  C1  UNL d   1      -2.229  -2.091  -0.595  0.00  0.00     0.143 A 
ATOM      2  C2  UNL d   1      -2.079  -1.449   0.639  0.00  0.00    -0.057 A 
ATOM      3  C3  UNL d   1      -1.538  -2.117   1.744  0.00  0.00     0.033 A 
ATOM      4  C4  UNL d   1      -1.165  -3.453   1.642  0.00  0.00    -0.042 A 
ATOM      5  C5  UNL d   1      -1.329  -4.119   0.432  0.00  0.00     0.033 A 
ATOM      6  C6  UNL d   1      -1.863  -3.444  -0.669  0.00  0.00    -0.057 A 
ENDROOT
BRANCH   1   7
ATOM      7  N   UNL d   1      -2.851  -1.510  -1.703  0.00  0.00    -0.732 N 
ATOM      8  C   UNL d   1      -3.931  -0.563  -1.530  0.00  0.00     0.284 C 
ATOM      9  H3  UNL d   1      -2.188  -1.256  -2.432  0.00  0.00     0.395 HD
ENDBRANCH   1   7
TORSDOF 1
ENDMDL
