MODEL 1
REMARK minimizedAffinity 7.56810427
REMARK minimizedRMSD -1
REMARK  1 active torsions:
REMARK  status: ('A' for Active; 'I' for Inactive)
REMARK    1  A    between atoms: N_2  and  C1_3 
ROOT
ATOM      1  C1  UNL d   1      -3.569  -0.072   5.790  0.00  0.00     0.143 A 
ATOM      2  C2  UNL d   1      -4.820  -0.692   5.883  0.00  0.00    -0.057 A 
ATOM      3  C3  UNL d   1      -5.998   0.060   5.972  0.00  0.00     0.033 A 
ATOM      4  C4  UNL d   1      -5.943   1.449   6.000  0.00  0.00    -0.042 A 
ATOM      5  C5  UNL d   1      -4.709   2.086   5.935  0.00  0.00     0.033 A 
ATOM      6  C6  UNL d   1      -3.537   1.331   5.839  0.00  0.00    -0.057 A 
ENDROOT
BRANCH   1   7
ATOM      7  N   UNL d   1      -2.356  -0.764   5.799  0.00  0.00    -0.732 N 
ATOM      8  C   UNL d   1      -2.161  -1.920   4.951  0.00  0.00     0.284 C 
ATOM      9  H3  UNL d   1      -1.553  -0.140   5.842  0.00  0.00     0.395 HD
ENDBRANCH   1   7
TORSDOF 1
ENDMDL
