MODEL 1
REMARK minimizedAffinity 5.47674751
REMARK minimizedRMSD -1
REMARK  1 active torsions:
REMARK  status: ('A' for Active; 'I' for Inactive)
REMARK    1  A    between atoms: N_2  and  C1_3 
ROOT
ATOM      1  C1  UNL d   1      -0.838  -3.453   0.224  0.00  0.00     0.143 A 
ATOM      2  C2  UNL d   1      -0.688  -2.667  -0.924  0.00  0.00    -0.057 A 
ATOM      3  C3  UNL d   1      -1.522  -1.569  -1.165  0.00  0.00     0.033 A 
ATOM      4  C4  UNL d   1      -2.542  -1.253  -0.274  0.00  0.00    -0.042 A 
ATOM      5  C5  UNL d   1      -2.726  -2.036   0.861  0.00  0.00     0.033 A 
ATOM      6  C6  UNL d   1      -1.885  -3.128   1.099  0.00  0.00    -0.057 A 
ENDROOT
BRANCH   1   7
ATOM      7  N   UNL d   1      -0.104  -4.617   0.471  0.00  0.00    -0.732 N 
ATOM      8  C   UNL d   1      -0.577  -5.900  -0.002  0.00  0.00     0.284 C 
ATOM      9  H3  UNL d   1       0.897  -4.475   0.359  0.00  0.00     0.395 HD
ENDBRANCH   1   7
TORSDOF 1
ENDMDL
