MODEL 1
REMARK minimizedAffinity 6.08275604
REMARK minimizedRMSD -1
REMARK  0 active torsions:
REMARK  status: ('A' for Active; 'I' for Inactive)
ROOT
ATOM      1  N1  IND d   1      -2.122   1.882  -3.764  0.00  0.00    -0.196 N 
ATOM      2  C2  IND d   1      -2.476   0.571  -3.927  0.00  0.00     0.054 A 
ATOM      3  C3  IND d   1      -1.393  -0.228  -3.795  0.00  0.00    -0.031 A 
ATOM      4  C4  IND d   1       1.036   0.391  -3.209  0.00  0.00     0.051 A 
ATOM      5  C5  IND d   1       1.853   1.467  -3.003  0.00  0.00    -0.031 A 
ATOM      6  C6  IND d   1       1.378   2.762  -3.038  0.00  0.00     0.015 A 
ATOM      7  C7  IND d   1       0.058   3.030  -3.271  0.00  0.00    -0.016 A 
ATOM      8  C8  IND d   1      -0.774   1.940  -3.487  0.00  0.00    -0.047 A 
ATOM      9  C9  IND d   1      -0.289   0.626  -3.495  0.00  0.00    -0.096 A 
ATOM     10  HN1 IND d   1      -2.652   2.556  -3.824  0.00  0.00     0.298 HD
ENDROOT
TORSDOF 0
ENDMDL
