MODEL 1
REMARK minimizedAffinity 8.11339378
REMARK minimizedRMSD -1
REMARK  0 active torsions:
REMARK  status: ('A' for Active; 'I' for Inactive)
ROOT
ATOM      1  N1  IND d   1      -0.883  -5.625   0.105  0.00  0.00    -0.196 N 
ATOM      2  C2  IND d   1      -1.779  -5.784   1.124  0.00  0.00     0.054 A 
ATOM      3  C3  IND d   1      -1.130  -5.989   2.293  0.00  0.00    -0.031 A 
ATOM      4  C4  IND d   1       1.397  -6.000   2.780  0.00  0.00     0.051 A 
ATOM      5  C5  IND d   1       2.614  -5.934   2.161  0.00  0.00    -0.031 A 
ATOM      6  C6  IND d   1       2.730  -5.756   0.798  0.00  0.00     0.015 A 
ATOM      7  C7  IND d   1       1.628  -5.624   0.000  0.00  0.00    -0.016 A 
ATOM      8  C8  IND d   1       0.391  -5.698   0.625  0.00  0.00    -0.047 A 
ATOM      9  C9  IND d   1       0.267  -5.921   2.002  0.00  0.00    -0.096 A 
ATOM     10  HN1 IND d   1      -1.081  -5.500  -0.723  0.00  0.00     0.298 HD
ENDROOT
TORSDOF 0
ENDMDL
