MODEL 1
REMARK minimizedAffinity 8.70366383
REMARK minimizedRMSD -1
REMARK  0 active torsions:
REMARK  status: ('A' for Active; 'I' for Inactive)
ROOT
ATOM      1  N1  IND d   1       3.769   0.437  -4.703  0.00  0.00    -0.196 N 
ATOM      2  C2  IND d   1       3.791  -0.561  -3.769  0.00  0.00     0.054 A 
ATOM      3  C3  IND d   1       2.917  -0.292  -2.773  0.00  0.00    -0.031 A 
ATOM      4  C4  IND d   1       1.277   1.676  -2.523  0.00  0.00     0.051 A 
ATOM      5  C5  IND d   1       0.916   2.859  -3.106  0.00  0.00    -0.031 A 
ATOM      6  C6  IND d   1       1.498   3.302  -4.276  0.00  0.00     0.015 A 
ATOM      7  C7  IND d   1       2.459   2.571  -4.916  0.00  0.00    -0.016 A 
ATOM      8  C8  IND d   1       2.832   1.373  -4.323  0.00  0.00    -0.047 A 
ATOM      9  C9  IND d   1       2.275   0.938  -3.114  0.00  0.00    -0.096 A 
ATOM     10  HN1 IND d   1       4.258   0.474  -5.409  0.00  0.00     0.298 HD
ENDROOT
TORSDOF 0
ENDMDL
