MODEL 1
REMARK minimizedAffinity 15.6836777
REMARK minimizedRMSD -1
REMARK  0 active torsions:
REMARK  status: ('A' for Active; 'I' for Inactive)
ROOT
ATOM      1  N1  IND d   1      -3.281   0.794  -3.540  0.00  0.00    -0.196 N 
ATOM      2  C2  IND d   1      -3.085   1.646  -4.591  0.00  0.00     0.054 A 
ATOM      3  C3  IND d   1      -1.999   2.421  -4.372  0.00  0.00    -0.031 A 
ATOM      4  C4  IND d   1      -0.336   2.390  -2.407  0.00  0.00     0.051 A 
ATOM      5  C5  IND d   1      -0.119   1.809  -1.189  0.00  0.00    -0.031 A 
ATOM      6  C6  IND d   1      -0.960   0.839  -0.683  0.00  0.00     0.015 A 
ATOM      7  C7  IND d   1      -2.048   0.403  -1.385  0.00  0.00    -0.016 A 
ATOM      8  C8  IND d   1      -2.276   0.995  -2.619  0.00  0.00    -0.047 A 
ATOM      9  C9  IND d   1      -1.450   2.011  -3.119  0.00  0.00    -0.096 A 
ATOM     10  HN1 IND d   1      -3.923   0.227  -3.466  0.00  0.00     0.298 HD
ENDROOT
TORSDOF 0
ENDMDL
