MODEL 1
REMARK minimizedAffinity 7.78738117
REMARK minimizedRMSD -1
REMARK  0 active torsions:
REMARK  status: ('A' for Active; 'I' for Inactive)
ROOT
ATOM      1  N1  IND d   1      -1.504  -6.000   0.365  0.00  0.00    -0.196 N 
ATOM      2  C2  IND d   1      -2.602  -5.191   0.269  0.00  0.00     0.054 A 
ATOM      3  C3  IND d   1      -2.549  -4.213   1.200  0.00  0.00    -0.031 A 
ATOM      4  C4  IND d   1      -0.704  -3.688   2.917  0.00  0.00     0.051 A 
ATOM      5  C5  IND d   1       0.477  -4.167   3.410  0.00  0.00    -0.031 A 
ATOM      6  C6  IND d   1       1.071  -5.304   2.901  0.00  0.00     0.015 A 
ATOM      7  C7  IND d   1       0.510  -6.000   1.868  0.00  0.00    -0.016 A 
ATOM      8  C8  IND d   1      -0.693  -5.520   1.370  0.00  0.00    -0.047 A 
ATOM      9  C9  IND d   1      -1.322  -4.391   1.911  0.00  0.00    -0.096 A 
ATOM     10  HN1 IND d   1      -1.346  -6.692  -0.120  0.00  0.00     0.298 HD
ENDROOT
TORSDOF 0
ENDMDL
