MODEL 1
REMARK minimizedAffinity 2.69881248
REMARK minimizedRMSD -1
REMARK  0 active torsions:
REMARK  status: ('A' for Active; 'I' for Inactive)
ROOT
ATOM      1  N1  IND d   1      -2.413   1.794  -3.685  0.00  0.00    -0.196 N 
ATOM      2  C2  IND d   1      -2.978   0.607  -4.060  0.00  0.00     0.054 A 
ATOM      3  C3  IND d   1      -2.040  -0.365  -4.113  0.00  0.00    -0.031 A 
ATOM      4  C4  IND d   1       0.465  -0.254  -3.528  0.00  0.00     0.051 A 
ATOM      5  C5  IND d   1       1.450   0.623  -3.172  0.00  0.00    -0.031 A 
ATOM      6  C6  IND d   1       1.192   1.963  -2.962  0.00  0.00     0.015 A 
ATOM      7  C7  IND d   1      -0.068   2.474  -3.090  0.00  0.00    -0.016 A 
ATOM      8  C8  IND d   1      -1.070   1.587  -3.458  0.00  0.00    -0.047 A 
ATOM      9  C9  IND d   1      -0.807   0.235  -3.714  0.00  0.00    -0.096 A 
ATOM     10  HN1 IND d   1      -2.826   2.543  -3.605  0.00  0.00     0.298 HD
ENDROOT
TORSDOF 0
ENDMDL
