MODEL 1
REMARK minimizedAffinity 4.56704903
REMARK minimizedRMSD -1
REMARK  0 active torsions:
REMARK  status: ('A' for Active; 'I' for Inactive)
ROOT
ATOM      1  N1  IND d   1      -1.322   1.111  -1.357  0.00  0.00    -0.196 N 
ATOM      2  C2  IND d   1      -2.235   1.137  -0.341  0.00  0.00     0.054 A 
ATOM      3  C3  IND d   1      -1.611   1.287   0.849  0.00  0.00    -0.031 A 
ATOM      4  C4  IND d   1       0.893   1.614   1.352  0.00  0.00     0.051 A 
ATOM      5  C5  IND d   1       2.120   1.626   0.751  0.00  0.00    -0.031 A 
ATOM      6  C6  IND d   1       2.265   1.466  -0.612  0.00  0.00     0.015 A 
ATOM      7  C7  IND d   1       1.183   1.299  -1.429  0.00  0.00    -0.016 A 
ATOM      8  C8  IND d   1      -0.064   1.280  -0.821  0.00  0.00    -0.047 A 
ATOM      9  C9  IND d   1      -0.215   1.399   0.566  0.00  0.00    -0.096 A 
ATOM     10  HN1 IND d   1      -1.502   1.007  -2.192  0.00  0.00     0.298 HD
ENDROOT
TORSDOF 0
ENDMDL
