MODEL 1
REMARK minimizedAffinity 4.89775896
REMARK minimizedRMSD -1
REMARK  0 active torsions:
REMARK  status: ('A' for Active; 'I' for Inactive)
ROOT
ATOM      1  N1  IND d   1      -2.711   1.975   1.147  0.00  0.00    -0.196 N 
ATOM      2  C2  IND d   1      -1.483   1.717   0.605  0.00  0.00     0.054 A 
ATOM      3  C3  IND d   1      -1.494   0.530  -0.041  0.00  0.00    -0.031 A 
ATOM      4  C4  IND d   1      -3.444  -1.107  -0.422  0.00  0.00     0.051 A 
ATOM      5  C5  IND d   1      -4.751  -1.322  -0.086  0.00  0.00    -0.031 A 
ATOM      6  C6  IND d   1      -5.461  -0.429   0.691  0.00  0.00     0.015 A 
ATOM      7  C7  IND d   1      -4.890   0.722   1.154  0.00  0.00    -0.016 A 
ATOM      8  C8  IND d   1      -3.560   0.940   0.821  0.00  0.00    -0.047 A 
ATOM      9  C9  IND d   1      -2.823   0.017   0.068  0.00  0.00    -0.096 A 
ATOM     10  HN1 IND d   1      -2.919   2.667   1.613  0.00  0.00     0.298 HD
ENDROOT
TORSDOF 0
ENDMDL
