MODEL 1
REMARK minimizedAffinity 11.0937624
REMARK minimizedRMSD -1
REMARK  0 active torsions:
REMARK  status: ('A' for Active; 'I' for Inactive)
ROOT
ATOM      1  N1  IND d   1      -0.105   2.329  -2.454  0.00  0.00    -0.196 N 
ATOM      2  C2  IND d   1       1.105   2.794  -2.887  0.00  0.00     0.054 A 
ATOM      3  C3  IND d   1       1.104   2.929  -4.232  0.00  0.00    -0.031 A 
ATOM      4  C4  IND d   1      -0.807   2.541  -5.912  0.00  0.00     0.051 A 
ATOM      5  C5  IND d   1      -2.091   2.078  -5.996  0.00  0.00    -0.031 A 
ATOM      6  C6  IND d   1      -2.793   1.670  -4.881  0.00  0.00     0.015 A 
ATOM      7  C7  IND d   1      -2.239   1.720  -3.633  0.00  0.00    -0.016 A 
ATOM      8  C8  IND d   1      -0.934   2.182  -3.545  0.00  0.00    -0.047 A 
ATOM      9  C9  IND d   1      -0.202   2.558  -4.678  0.00  0.00    -0.096 A 
ATOM     10  HN1 IND d   1      -0.314   2.157  -1.638  0.00  0.00     0.298 HD
ENDROOT
TORSDOF 0
ENDMDL
