MODEL 1
REMARK minimizedAffinity 16.5763378
REMARK minimizedRMSD -1
REMARK  0 active torsions:
REMARK  status: ('A' for Active; 'I' for Inactive)
ROOT
ATOM      1  N1  IND d   1       3.137  -5.519   0.466  0.00  0.00    -0.196 N 
ATOM      2  C2  IND d   1       4.012  -4.533   0.829  0.00  0.00     0.054 A 
ATOM      3  C3  IND d   1       3.413  -3.659   1.669  0.00  0.00    -0.031 A 
ATOM      4  C4  IND d   1       1.037  -3.708   2.659  0.00  0.00     0.051 A 
ATOM      5  C5  IND d   1      -0.144  -4.393   2.593  0.00  0.00    -0.031 A 
ATOM      6  C6  IND d   1      -0.293  -5.513   1.800  0.00  0.00     0.015 A 
ATOM      7  C7  IND d   1       0.740  -5.998   1.050  0.00  0.00    -0.016 A 
ATOM      8  C8  IND d   1       1.938  -5.300   1.109  0.00  0.00    -0.047 A 
ATOM      9  C9  IND d   1       2.084  -4.139   1.878  0.00  0.00    -0.096 A 
ATOM     10  HN1 IND d   1       3.307  -6.166  -0.074  0.00  0.00     0.298 HD
ENDROOT
TORSDOF 0
ENDMDL
