MODEL 1
REMARK minimizedAffinity 3.86595893
REMARK minimizedRMSD -1
REMARK  0 active torsions:
REMARK  status: ('A' for Active; 'I' for Inactive)
ROOT
ATOM      1  N1  IND d   1      -3.303   0.612  -3.099  0.00  0.00    -0.196 N 
ATOM      2  C2  IND d   1      -2.714   1.481  -3.975  0.00  0.00     0.054 A 
ATOM      3  C3  IND d   1      -1.615   2.038  -3.418  0.00  0.00    -0.031 A 
ATOM      4  C4  IND d   1      -0.542   1.592  -1.120  0.00  0.00     0.051 A 
ATOM      5  C5  IND d   1      -0.739   0.908   0.046  0.00  0.00    -0.031 A 
ATOM      6  C6  IND d   1      -1.821   0.070   0.226  0.00  0.00     0.015 A 
ATOM      7  C7  IND d   1      -2.744  -0.123  -0.762  0.00  0.00    -0.016 A 
ATOM      8  C8  IND d   1      -2.552   0.576  -1.945  0.00  0.00    -0.047 A 
ATOM      9  C9  IND d   1      -1.479   1.460  -2.118  0.00  0.00    -0.096 A 
ATOM     10  HN1 IND d   1      -4.022   0.163  -3.245  0.00  0.00     0.298 HD
ENDROOT
TORSDOF 0
ENDMDL
