MODEL 1
REMARK minimizedAffinity 12.3760605
REMARK minimizedRMSD -1
REMARK  0 active torsions:
REMARK  status: ('A' for Active; 'I' for Inactive)
ROOT
ATOM      1  N1  IND d   1      -5.998   2.427   5.987  0.00  0.00    -0.196 N 
ATOM      2  C2  IND d   1      -5.012   1.480   5.962  0.00  0.00     0.054 A 
ATOM      3  C3  IND d   1      -3.796   2.069   5.920  0.00  0.00    -0.031 A 
ATOM      4  C4  IND d   1      -3.185   4.569   5.986  0.00  0.00     0.051 A 
ATOM      5  C5  IND d   1      -3.745   5.815   5.973  0.00  0.00    -0.031 A 
ATOM      6  C6  IND d   1      -5.113   6.000   5.967  0.00  0.00     0.015 A 
ATOM      7  C7  IND d   1      -5.975   4.940   5.985  0.00  0.00    -0.016 A 
ATOM      8  C8  IND d   1      -5.409   3.673   5.991  0.00  0.00    -0.047 A 
ATOM      9  C9  IND d   1      -4.023   3.479   5.954  0.00  0.00    -0.096 A 
ATOM     10  HN1 IND d   1      -6.843   2.271   5.998  0.00  0.00     0.298 HD
ENDROOT
TORSDOF 0
ENDMDL
