MODEL 1
REMARK minimizedAffinity 9.71891022
REMARK minimizedRMSD -1
REMARK  0 active torsions:
REMARK  status: ('A' for Active; 'I' for Inactive)
ROOT
ATOM      1  N1  IND d   1       1.662  -5.981   0.391  0.00  0.00    -0.196 N 
ATOM      2  C2  IND d   1       2.395  -5.955   1.545  0.00  0.00     0.054 A 
ATOM      3  C3  IND d   1       1.576  -5.920   2.620  0.00  0.00    -0.031 A 
ATOM      4  C4  IND d   1      -0.995  -5.999   2.723  0.00  0.00     0.051 A 
ATOM      5  C5  IND d   1      -2.105  -5.990   1.926  0.00  0.00    -0.031 A 
ATOM      6  C6  IND d   1      -2.015  -5.979   0.549  0.00  0.00     0.015 A 
ATOM      7  C7  IND d   1      -0.805  -5.990  -0.085  0.00  0.00    -0.016 A 
ATOM      8  C8  IND d   1       0.325  -5.992   0.720  0.00  0.00    -0.047 A 
ATOM      9  C9  IND d   1       0.240  -5.959   2.118  0.00  0.00    -0.096 A 
ATOM     10  HN1 IND d   1       1.983  -5.988  -0.407  0.00  0.00     0.298 HD
ENDROOT
TORSDOF 0
ENDMDL
