MODEL 1
REMARK minimizedAffinity 8.44562054
REMARK minimizedRMSD -1
REMARK  0 active torsions:
REMARK  status: ('A' for Active; 'I' for Inactive)
ROOT
ATOM      1  N1  IND d   1       1.597   2.472  -1.586  0.00  0.00    -0.196 N 
ATOM      2  C2  IND d   1       2.327   1.456  -1.036  0.00  0.00     0.054 A 
ATOM      3  C3  IND d   1       3.240   1.000  -1.922  0.00  0.00    -0.031 A 
ATOM      4  C4  IND d   1       3.780   1.842  -4.294  0.00  0.00     0.051 A 
ATOM      5  C5  IND d   1       3.355   2.727  -5.246  0.00  0.00    -0.031 A 
ATOM      6  C6  IND d   1       2.304   3.591  -5.020  0.00  0.00     0.015 A 
ATOM      7  C7  IND d   1       1.641   3.611  -3.825  0.00  0.00    -0.016 A 
ATOM      8  C8  IND d   1       2.065   2.709  -2.859  0.00  0.00    -0.047 A 
ATOM      9  C9  IND d   1       3.104   1.800  -3.097  0.00  0.00    -0.096 A 
ATOM     10  HN1 IND d   1       0.953   2.893  -1.201  0.00  0.00     0.298 HD
ENDROOT
TORSDOF 0
ENDMDL
