MODEL 1
REMARK minimizedAffinity -0.893467009
REMARK minimizedRMSD -1
REMARK  0 active torsions:
REMARK  status: ('A' for Active; 'I' for Inactive)
ROOT
ATOM      1  N1  IND d   1       1.814  -1.564   2.479  0.00  0.00    -0.196 N 
ATOM      2  C2  IND d   1       0.578  -1.230   1.999  0.00  0.00     0.054 A 
ATOM      3  C3  IND d   1       0.646  -0.088   1.278  0.00  0.00    -0.031 A 
ATOM      4  C4  IND d   1       2.697   1.345   0.673  0.00  0.00     0.051 A 
ATOM      5  C5  IND d   1       4.037   1.462   0.912  0.00  0.00    -0.031 A 
ATOM      6  C6  IND d   1       4.720   0.557   1.699  0.00  0.00     0.015 A 
ATOM      7  C7  IND d   1       4.086  -0.510   2.270  0.00  0.00    -0.016 A 
ATOM      8  C8  IND d   1       2.723  -0.629   2.035  0.00  0.00    -0.047 A 
ATOM      9  C9  IND d   1       2.017   0.310   1.272  0.00  0.00    -0.096 A 
ATOM     10  HN1 IND d   1       1.993  -2.243   2.974  0.00  0.00     0.298 HD
ENDROOT
TORSDOF 0
ENDMDL
