MODEL 1
REMARK minimizedAffinity -4.28287983
REMARK minimizedRMSD -1
REMARK  0 active torsions:
REMARK  status: ('A' for Active; 'I' for Inactive)
ROOT
ATOM      1  C   UNL d   1      -3.587   3.267   4.610  0.00  0.00    -0.002 A 
ATOM      2  C1  UNL d   1      -2.207   3.115   4.615  0.00  0.00     0.010 A 
ATOM      3  C2  UNL d   1      -1.591   2.195   3.764  0.00  0.00     0.041 A 
ATOM      4  C3  UNL d   1      -2.393   1.425   2.898  0.00  0.00    -0.075 A 
ATOM      5  S   UNL d   1      -1.858   0.237   1.768  0.00  0.00     0.015 SA
ATOM      6  C4  UNL d   1      -3.448  -0.095   1.252  0.00  0.00     0.022 A 
ATOM      7  C5  UNL d   1      -4.377   0.672   1.915  0.00  0.00     0.026 A 
ATOM      8  C6  UNL d   1      -3.784   1.561   2.875  0.00  0.00    -0.082 A 
ATOM      9  C7  UNL d   1      -4.378   2.501   3.750  0.00  0.00     0.045 A 
ENDROOT
TORSDOF 0
ENDMDL
