MODEL 1
REMARK minimizedAffinity 1.3047626
REMARK minimizedRMSD -1
REMARK  0 active torsions:
REMARK  status: ('A' for Active; 'I' for Inactive)
ROOT
ATOM      1  C   UNL d   1       3.084  -2.962  -2.108  0.00  0.00    -0.002 A 
ATOM      2  C1  UNL d   1       1.999  -3.458  -1.400  0.00  0.00     0.010 A 
ATOM      3  C2  UNL d   1       1.071  -2.589  -0.823  0.00  0.00     0.041 A 
ATOM      4  C3  UNL d   1       1.252  -1.200  -0.973  0.00  0.00    -0.075 A 
ATOM      5  S   UNL d   1       0.243   0.053  -0.354  0.00  0.00     0.015 SA
ATOM      6  C4  UNL d   1       1.228   1.276  -1.016  0.00  0.00     0.022 A 
ATOM      7  C5  UNL d   1       2.305   0.759  -1.696  0.00  0.00     0.026 A 
ATOM      8  C6  UNL d   1       2.336  -0.677  -1.683  0.00  0.00    -0.082 A 
ATOM      9  C7  UNL d   1       3.261  -1.583  -2.255  0.00  0.00     0.045 A 
ENDROOT
TORSDOF 0
ENDMDL
