MODEL 1
REMARK minimizedAffinity 6.60119629
REMARK minimizedRMSD -1
REMARK  0 active torsions:
REMARK  status: ('A' for Active; 'I' for Inactive)
ROOT
ATOM      1  C   UNL d   1      -0.362   1.054   0.736  0.00  0.00    -0.002 A 
ATOM      2  C1  UNL d   1       0.744   1.496   0.024  0.00  0.00     0.010 A 
ATOM      3  C2  UNL d   1       1.570   0.588  -0.640  0.00  0.00     0.041 A 
ATOM      4  C3  UNL d   1       1.261  -0.786  -0.578  0.00  0.00    -0.075 A 
ATOM      5  S   UNL d   1       2.130  -2.080  -1.314  0.00  0.00     0.015 SA
ATOM      6  C4  UNL d   1       1.052  -3.250  -0.702  0.00  0.00     0.022 A 
ATOM      7  C5  UNL d   1       0.049  -2.684   0.048  0.00  0.00     0.026 A 
ATOM      8  C6  UNL d   1       0.152  -1.255   0.132  0.00  0.00    -0.082 A 
ATOM      9  C7  UNL d   1      -0.665  -0.309   0.796  0.00  0.00     0.045 A 
ENDROOT
TORSDOF 0
ENDMDL
