MODEL 1
REMARK minimizedAffinity -4.52873468
REMARK minimizedRMSD -1
REMARK  0 active torsions:
REMARK  status: ('A' for Active; 'I' for Inactive)
ROOT
ATOM      1  C   UNL d   1       0.915   0.376  -2.071  0.00  0.00    -0.002 A 
ATOM      2  C1  UNL d   1       0.805  -0.990  -2.288  0.00  0.00     0.010 A 
ATOM      3  C2  UNL d   1       0.428  -1.846  -1.251  0.00  0.00     0.041 A 
ATOM      4  C3  UNL d   1       0.159  -1.300   0.020  0.00  0.00    -0.075 A 
ATOM      5  S   UNL d   1      -0.320  -2.155   1.438  0.00  0.00     0.015 SA
ATOM      6  C4  UNL d   1      -0.391  -0.727   2.365  0.00  0.00     0.022 A 
ATOM      7  C5  UNL d   1      -0.060   0.385   1.627  0.00  0.00     0.026 A 
ATOM      8  C6  UNL d   1       0.262   0.073   0.263  0.00  0.00    -0.082 A 
ATOM      9  C7  UNL d   1       0.647   0.914  -0.809  0.00  0.00     0.045 A 
ENDROOT
TORSDOF 0
ENDMDL
