MODEL 1
REMARK minimizedAffinity 4.98101759
REMARK minimizedRMSD -1
REMARK  0 active torsions:
REMARK  status: ('A' for Active; 'I' for Inactive)
ROOT
ATOM      1  C   UNL d   1       1.443  -0.840  -1.511  0.00  0.00    -0.002 A 
ATOM      2  C1  UNL d   1       2.569  -0.063  -1.743  0.00  0.00     0.010 A 
ATOM      3  C2  UNL d   1       2.953   0.922  -0.831  0.00  0.00     0.041 A 
ATOM      4  C3  UNL d   1       2.179   1.114   0.330  0.00  0.00    -0.075 A 
ATOM      5  S   UNL d   1       2.458   2.260   1.588  0.00  0.00     0.015 SA
ATOM      6  C4  UNL d   1       1.089   1.744   2.463  0.00  0.00     0.022 A 
ATOM      7  C5  UNL d   1       0.424   0.723   1.826  0.00  0.00     0.026 A 
ATOM      8  C6  UNL d   1       1.041   0.343   0.587  0.00  0.00    -0.082 A 
ATOM      9  C7  UNL d   1       0.678  -0.647  -0.358  0.00  0.00     0.045 A 
ENDROOT
TORSDOF 0
ENDMDL
