MODEL 1
REMARK minimizedAffinity 0.188590124
REMARK minimizedRMSD -1
REMARK  0 active torsions:
REMARK  status: ('A' for Active; 'I' for Inactive)
ROOT
ATOM      1  C   UNL d   1      -1.272   0.252   1.809  0.00  0.00    -0.002 A 
ATOM      2  C1  UNL d   1      -0.544   1.429   1.701  0.00  0.00     0.010 A 
ATOM      3  C2  UNL d   1       0.401   1.590   0.685  0.00  0.00     0.041 A 
ATOM      4  C3  UNL d   1       0.602   0.538  -0.231  0.00  0.00    -0.075 A 
ATOM      5  S   UNL d   1       1.704   0.511  -1.556  0.00  0.00     0.015 SA
ATOM      6  C4  UNL d   1       1.234  -1.063  -2.011  0.00  0.00     0.022 A 
ATOM      7  C5  UNL d   1       0.262  -1.570  -1.183  0.00  0.00     0.026 A 
ATOM      8  C6  UNL d   1      -0.119  -0.656  -0.144  0.00  0.00    -0.082 A 
ATOM      9  C7  UNL d   1      -1.069  -0.788   0.898  0.00  0.00     0.045 A 
ENDROOT
TORSDOF 0
ENDMDL
