MODEL 1
REMARK minimizedAffinity -4.11667061
REMARK minimizedRMSD -1
REMARK  0 active torsions:
REMARK  status: ('A' for Active; 'I' for Inactive)
ROOT
ATOM      1  C   UNL d   1      -1.296  -0.296   0.650  0.00  0.00    -0.002 A 
ATOM      2  C1  UNL d   1      -0.531   0.702   1.237  0.00  0.00     0.010 A 
ATOM      3  C2  UNL d   1       0.584   1.223   0.577  0.00  0.00     0.041 A 
ATOM      4  C3  UNL d   1       0.918   0.721  -0.696  0.00  0.00    -0.075 A 
ATOM      5  S   UNL d   1       2.239   1.208  -1.692  0.00  0.00     0.015 SA
ATOM      6  C4  UNL d   1       1.818   0.103  -2.919  0.00  0.00     0.022 A 
ATOM      7  C5  UNL d   1       0.700  -0.628  -2.594  0.00  0.00     0.026 A 
ATOM      8  C6  UNL d   1       0.163  -0.284  -1.308  0.00  0.00    -0.082 A 
ATOM      9  C7  UNL d   1      -0.961  -0.792  -0.612  0.00  0.00     0.045 A 
ENDROOT
TORSDOF 0
ENDMDL
