MODEL 1
REMARK minimizedAffinity -1.48034954
REMARK minimizedRMSD -1
REMARK  0 active torsions:
REMARK  status: ('A' for Active; 'I' for Inactive)
ROOT
ATOM      1  C   UNL d   1      -3.007   4.615  -5.666  0.00  0.00    -0.002 A 
ATOM      2  C1  UNL d   1      -4.347   4.915  -5.867  0.00  0.00     0.010 A 
ATOM      3  C2  UNL d   1      -5.294   3.895  -5.982  0.00  0.00     0.041 A 
ATOM      4  C3  UNL d   1      -4.867   2.555  -5.889  0.00  0.00    -0.075 A 
ATOM      5  S   UNL d   1      -5.847   1.142  -5.999  0.00  0.00     0.015 SA
ATOM      6  C4  UNL d   1      -4.511   0.107  -5.781  0.00  0.00     0.022 A 
ATOM      7  C5  UNL d   1      -3.337   0.806  -5.626  0.00  0.00     0.026 A 
ATOM      8  C6  UNL d   1      -3.523   2.229  -5.686  0.00  0.00    -0.082 A 
ATOM      9  C7  UNL d   1      -2.588   3.286  -5.574  0.00  0.00     0.045 A 
ENDROOT
TORSDOF 0
ENDMDL
