MODEL 1
REMARK minimizedAffinity -3.53033209
REMARK minimizedRMSD -1
REMARK  0 active torsions:
REMARK  status: ('A' for Active; 'I' for Inactive)
ROOT
ATOM      1  C   UNL d   1       1.831   0.759  -2.248  0.00  0.00    -0.002 A 
ATOM      2  C1  UNL d   1       1.471  -0.548  -2.540  0.00  0.00     0.010 A 
ATOM      3  C2  UNL d   1       0.657  -1.273  -1.668  0.00  0.00     0.041 A 
ATOM      4  C3  UNL d   1       0.204  -0.654  -0.486  0.00  0.00    -0.075 A 
ATOM      5  S   UNL d   1      -0.803  -1.346   0.730  0.00  0.00     0.015 SA
ATOM      6  C4  UNL d   1      -0.780   0.078   1.666  0.00  0.00     0.022 A 
ATOM      7  C5  UNL d   1      -0.027   1.068   1.080  0.00  0.00     0.026 A 
ATOM      8  C6  UNL d   1       0.553   0.663  -0.170  0.00  0.00    -0.082 A 
ATOM      9  C7  UNL d   1       1.381   1.370  -1.075  0.00  0.00     0.045 A 
ENDROOT
TORSDOF 0
ENDMDL
