MODEL 1
REMARK minimizedAffinity -4.38558102
REMARK minimizedRMSD -1
REMARK  0 active torsions:
REMARK  status: ('A' for Active; 'I' for Inactive)
ROOT
ATOM      1  C   UNL d   1       2.304  -0.045  -2.693  0.00  0.00    -0.002 A 
ATOM      2  C1  UNL d   1       1.522  -1.187  -2.593  0.00  0.00     0.010 A 
ATOM      3  C2  UNL d   1       0.650  -1.358  -1.516  0.00  0.00     0.041 A 
ATOM      4  C3  UNL d   1       0.573  -0.350  -0.534  0.00  0.00    -0.075 A 
ATOM      5  S   UNL d   1      -0.425  -0.343   0.872  0.00  0.00     0.015 SA
ATOM      6  C4  UNL d   1       0.162   1.178   1.371  0.00  0.00     0.022 A 
ATOM      7  C5  UNL d   1       1.098   1.681   0.499  0.00  0.00     0.026 A 
ATOM      8  C6  UNL d   1       1.350   0.809  -0.614  0.00  0.00    -0.082 A 
ATOM      9  C7  UNL d   1       2.225   0.952  -1.717  0.00  0.00     0.045 A 
ENDROOT
TORSDOF 0
ENDMDL
