MODEL 1
REMARK minimizedAffinity -4.06937456
REMARK minimizedRMSD -1
REMARK  0 active torsions:
REMARK  status: ('A' for Active; 'I' for Inactive)
ROOT
ATOM      1  C   UNL d   1       0.369  -0.740  -1.502  0.00  0.00     0.078 C 
ATOM      2  C1  UNL d   1       0.159  -0.400  -0.057  0.00  0.00    -0.077 A 
ATOM      3  C2  UNL d   1       1.139   0.285   0.673  0.00  0.00    -0.001 A 
ATOM      4  C3  UNL d   1       0.933   0.587   2.020  0.00  0.00     0.003 A 
ATOM      5  C4  UNL d   1      -0.251   0.207   2.650  0.00  0.00    -0.005 A 
ATOM      6  C5  UNL d   1      -1.230  -0.476   1.932  0.00  0.00     0.003 A 
ATOM      7  C6  UNL d   1      -1.027  -0.779   0.585  0.00  0.00    -0.001 A 
ENDROOT
TORSDOF 0
ENDMDL
