MODEL 1
REMARK minimizedAffinity -4.83281898
REMARK minimizedRMSD -1
REMARK  0 active torsions:
REMARK  status: ('A' for Active; 'I' for Inactive)
ROOT
ATOM      1  C   UNL d   1       0.092  -0.400  -1.257  0.00  0.00     0.078 C 
ATOM      2  C1  UNL d   1      -0.098  -0.388   0.230  0.00  0.00    -0.077 A 
ATOM      3  C2  UNL d   1      -1.302  -0.811   0.806  0.00  0.00    -0.001 A 
ATOM      4  C3  UNL d   1      -1.469  -0.786   2.192  0.00  0.00     0.003 A 
ATOM      5  C4  UNL d   1      -0.437  -0.337   3.013  0.00  0.00    -0.005 A 
ATOM      6  C5  UNL d   1       0.764   0.088   2.449  0.00  0.00     0.003 A 
ATOM      7  C6  UNL d   1       0.933   0.063   1.063  0.00  0.00    -0.001 A 
ENDROOT
TORSDOF 0
ENDMDL
