MODEL 1
REMARK minimizedAffinity -2.49153566
REMARK minimizedRMSD -1
REMARK  0 active torsions:
REMARK  status: ('A' for Active; 'I' for Inactive)
ROOT
ATOM      1  C   UNL d   1      -0.401  -0.379   3.067  0.00  0.00     0.078 C 
ATOM      2  C1  UNL d   1      -0.333  -0.366   1.569  0.00  0.00    -0.077 A 
ATOM      3  C2  UNL d   1      -1.483  -0.159   0.797  0.00  0.00    -0.001 A 
ATOM      4  C3  UNL d   1      -1.407  -0.159  -0.597  0.00  0.00     0.003 A 
ATOM      5  C4  UNL d   1      -0.183  -0.367  -1.231  0.00  0.00    -0.005 A 
ATOM      6  C5  UNL d   1       0.966  -0.576  -0.471  0.00  0.00     0.003 A 
ATOM      7  C6  UNL d   1       0.892  -0.576   0.923  0.00  0.00    -0.001 A 
ENDROOT
TORSDOF 0
ENDMDL
