MODEL 1
REMARK minimizedAffinity -2.94408798
REMARK minimizedRMSD -1
REMARK  0 active torsions:
REMARK  status: ('A' for Active; 'I' for Inactive)
ROOT
ATOM      1  C   UNL d   1       0.125  -0.042   1.522  0.00  0.00     0.078 C 
ATOM      2  C1  UNL d   1       0.319  -0.448   0.091  0.00  0.00    -0.077 A 
ATOM      3  C2  UNL d   1       0.199   0.486  -0.946  0.00  0.00    -0.001 A 
ATOM      4  C3  UNL d   1       0.372   0.093  -2.274  0.00  0.00     0.003 A 
ATOM      5  C4  UNL d   1       0.667  -1.235  -2.577  0.00  0.00    -0.005 A 
ATOM      6  C5  UNL d   1       0.786  -2.171  -1.553  0.00  0.00     0.003 A 
ATOM      7  C6  UNL d   1       0.613  -1.780  -0.224  0.00  0.00    -0.001 A 
ENDROOT
TORSDOF 0
ENDMDL
