MODEL 1
REMARK minimizedAffinity -3.00951576
REMARK minimizedRMSD -1
REMARK  0 active torsions:
REMARK  status: ('A' for Active; 'I' for Inactive)
ROOT
ATOM      1  C   UNL d   1      -0.136   0.273   3.222  0.00  0.00     0.078 C 
ATOM      2  C1  UNL d   1       0.041   0.016   1.755  0.00  0.00    -0.077 A 
ATOM      3  C2  UNL d   1      -0.941   0.397   0.832  0.00  0.00    -0.001 A 
ATOM      4  C3  UNL d   1      -0.767   0.144  -0.529  0.00  0.00     0.003 A 
ATOM      5  C4  UNL d   1       0.388  -0.494  -0.980  0.00  0.00    -0.005 A 
ATOM      6  C5  UNL d   1       1.369  -0.879  -0.069  0.00  0.00     0.003 A 
ATOM      7  C6  UNL d   1       1.197  -0.626   1.293  0.00  0.00    -0.001 A 
ENDROOT
TORSDOF 0
ENDMDL
