MODEL 1
REMARK minimizedAffinity -3.27895904
REMARK minimizedRMSD -1
REMARK  0 active torsions:
REMARK  status: ('A' for Active; 'I' for Inactive)
ROOT
ATOM      1  C   UNL d   1       0.416  -0.255  -0.929  0.00  0.00     0.078 C 
ATOM      2  C1  UNL d   1      -0.033  -0.183   0.500  0.00  0.00    -0.077 A 
ATOM      3  C2  UNL d   1       0.876  -0.353   1.551  0.00  0.00    -0.001 A 
ATOM      4  C3  UNL d   1       0.441  -0.294   2.876  0.00  0.00     0.003 A 
ATOM      5  C4  UNL d   1      -0.903  -0.065   3.162  0.00  0.00    -0.005 A 
ATOM      6  C5  UNL d   1      -1.815   0.103   2.123  0.00  0.00     0.003 A 
ATOM      7  C6  UNL d   1      -1.383   0.044   0.797  0.00  0.00    -0.001 A 
ENDROOT
TORSDOF 0
ENDMDL
