MODEL 1
REMARK minimizedAffinity -4.5943284
REMARK minimizedRMSD -1
REMARK  0 active torsions:
REMARK  status: ('A' for Active; 'I' for Inactive)
ROOT
ATOM      1  C   UNL d   1      -0.405  -1.010   2.997  0.00  0.00     0.078 C 
ATOM      2  C1  UNL d   1      -0.076  -0.451   1.645  0.00  0.00    -0.077 A 
ATOM      3  C2  UNL d   1       1.198   0.058   1.365  0.00  0.00    -0.001 A 
ATOM      4  C3  UNL d   1       1.488   0.584   0.105  0.00  0.00     0.003 A 
ATOM      5  C4  UNL d   1       0.508   0.607  -0.885  0.00  0.00    -0.005 A 
ATOM      6  C5  UNL d   1      -0.764   0.105  -0.616  0.00  0.00     0.003 A 
ATOM      7  C6  UNL d   1      -1.055  -0.421   0.644  0.00  0.00    -0.001 A 
ENDROOT
TORSDOF 0
ENDMDL
