MODEL 1
REMARK minimizedAffinity -3.53692603
REMARK minimizedRMSD -1
REMARK  0 active torsions:
REMARK  status: ('A' for Active; 'I' for Inactive)
ROOT
ATOM      1  C   UNL d   1      -0.015   0.093   3.031  0.00  0.00     0.078 C 
ATOM      2  C1  UNL d   1       0.117  -0.091   1.549  0.00  0.00    -0.077 A 
ATOM      3  C2  UNL d   1      -0.921   0.272   0.682  0.00  0.00    -0.001 A 
ATOM      4  C3  UNL d   1      -0.789   0.086  -0.695  0.00  0.00     0.003 A 
ATOM      5  C4  UNL d   1       0.380  -0.465  -1.217  0.00  0.00    -0.005 A 
ATOM      6  C5  UNL d   1       1.418  -0.831  -0.363  0.00  0.00     0.003 A 
ATOM      7  C6  UNL d   1       1.287  -0.645   1.015  0.00  0.00    -0.001 A 
ENDROOT
TORSDOF 0
ENDMDL
