MODEL 1
REMARK minimizedAffinity -4.01241255
REMARK minimizedRMSD -1
REMARK  0 active torsions:
REMARK  status: ('A' for Active; 'I' for Inactive)
ROOT
ATOM      1  C   UNL d   1       0.514   0.008  -1.566  0.00  0.00     0.078 C 
ATOM      2  C1  UNL d   1       0.237  -0.172  -0.104  0.00  0.00    -0.077 A 
ATOM      3  C2  UNL d   1       1.006   0.488   0.863  0.00  0.00    -0.001 A 
ATOM      4  C3  UNL d   1       0.743   0.304   2.221  0.00  0.00     0.003 A 
ATOM      5  C4  UNL d   1      -0.288  -0.541   2.626  0.00  0.00    -0.005 A 
ATOM      6  C5  UNL d   1      -1.057  -1.204   1.672  0.00  0.00     0.003 A 
ATOM      7  C6  UNL d   1      -0.796  -1.021   0.313  0.00  0.00    -0.001 A 
ENDROOT
TORSDOF 0
ENDMDL
