MODEL 1
REMARK minimizedAffinity -5.00682449
REMARK minimizedRMSD -1
REMARK  0 active torsions:
REMARK  status: ('A' for Active; 'I' for Inactive)
ROOT
ATOM      1  C   UNL d   1       0.076  -0.001  -1.420  0.00  0.00     0.078 C 
ATOM      2  C1  UNL d   1      -0.071  -0.057   0.072  0.00  0.00    -0.077 A 
ATOM      3  C2  UNL d   1       0.741   0.722   0.906  0.00  0.00    -0.001 A 
ATOM      4  C3  UNL d   1       0.600   0.652   2.292  0.00  0.00     0.003 A 
ATOM      5  C4  UNL d   1      -0.351  -0.195   2.858  0.00  0.00    -0.005 A 
ATOM      6  C5  UNL d   1      -1.161  -0.976   2.036  0.00  0.00     0.003 A 
ATOM      7  C6  UNL d   1      -1.022  -0.908   0.649  0.00  0.00    -0.001 A 
ENDROOT
TORSDOF 0
ENDMDL
