MODEL 1
REMARK minimizedAffinity -4.84100246
REMARK minimizedRMSD -1
REMARK  0 active torsions:
REMARK  status: ('A' for Active; 'I' for Inactive)
ROOT
ATOM      1  C   UNL d   1       0.174  -0.221   1.729  0.00  0.00     0.078 C 
ATOM      2  C1  UNL d   1       0.419  -0.312   0.252  0.00  0.00    -0.077 A 
ATOM      3  C2  UNL d   1       0.411   0.835  -0.552  0.00  0.00    -0.001 A 
ATOM      4  C3  UNL d   1       0.630   0.734  -1.927  0.00  0.00     0.003 A 
ATOM      5  C4  UNL d   1       0.858  -0.510  -2.510  0.00  0.00    -0.005 A 
ATOM      6  C5  UNL d   1       0.865  -1.657  -1.719  0.00  0.00     0.003 A 
ATOM      7  C6  UNL d   1       0.646  -1.559  -0.344  0.00  0.00    -0.001 A 
ENDROOT
TORSDOF 0
ENDMDL
