MODEL 1
REMARK minimizedAffinity -3.91191244
REMARK minimizedRMSD -1
REMARK  0 active torsions:
REMARK  status: ('A' for Active; 'I' for Inactive)
ROOT
ATOM      1  C   UNL d   1       0.180  -1.584   1.652  0.00  0.00     0.078 C 
ATOM      2  C1  UNL d   1      -0.210  -0.761   0.461  0.00  0.00    -0.077 A 
ATOM      3  C2  UNL d   1       0.681  -0.560  -0.600  0.00  0.00    -0.001 A 
ATOM      4  C3  UNL d   1       0.308   0.217  -1.698  0.00  0.00     0.003 A 
ATOM      5  C4  UNL d   1      -0.956   0.801  -1.745  0.00  0.00    -0.005 A 
ATOM      6  C5  UNL d   1      -1.849   0.608  -0.693  0.00  0.00     0.003 A 
ATOM      7  C6  UNL d   1      -1.478  -0.168   0.406  0.00  0.00    -0.001 A 
ENDROOT
TORSDOF 0
ENDMDL
