MODEL 1
REMARK minimizedAffinity -3.36241651
REMARK minimizedRMSD -1
REMARK  0 active torsions:
REMARK  status: ('A' for Active; 'I' for Inactive)
ROOT
ATOM      1  C   UNL d   1       0.401   0.374   2.819  0.00  0.00     0.078 C 
ATOM      2  C1  UNL d   1       0.464   0.071   1.352  0.00  0.00    -0.077 A 
ATOM      3  C2  UNL d   1       1.528   0.530   0.566  0.00  0.00    -0.001 A 
ATOM      4  C3  UNL d   1       1.569   0.249  -0.801  0.00  0.00     0.003 A 
ATOM      5  C4  UNL d   1       0.548  -0.492  -1.394  0.00  0.00    -0.005 A 
ATOM      6  C5  UNL d   1      -0.516  -0.951  -0.620  0.00  0.00     0.003 A 
ATOM      7  C6  UNL d   1      -0.559  -0.670   0.747  0.00  0.00    -0.001 A 
ENDROOT
TORSDOF 0
ENDMDL
