MODEL 1
REMARK minimizedAffinity -4.23978615
REMARK minimizedRMSD -1
REMARK  0 active torsions:
REMARK  status: ('A' for Active; 'I' for Inactive)
ROOT
ATOM      1  C   UNL d   1      -0.076  -0.017   1.831  0.00  0.00     0.078 C 
ATOM      2  C1  UNL d   1       0.146  -0.337   0.383  0.00  0.00    -0.077 A 
ATOM      3  C2  UNL d   1       0.100   0.666  -0.593  0.00  0.00    -0.001 A 
ATOM      4  C3  UNL d   1       0.299   0.352  -1.939  0.00  0.00     0.003 A 
ATOM      5  C4  UNL d   1       0.544  -0.965  -2.321  0.00  0.00    -0.005 A 
ATOM      6  C5  UNL d   1       0.590  -1.971  -1.357  0.00  0.00     0.003 A 
ATOM      7  C6  UNL d   1       0.391  -1.658  -0.011  0.00  0.00    -0.001 A 
ENDROOT
TORSDOF 0
ENDMDL
