MODEL 1
REMARK minimizedAffinity -4.9036932
REMARK minimizedRMSD -1
REMARK  0 active torsions:
REMARK  status: ('A' for Active; 'I' for Inactive)
ROOT
ATOM      1  C   UNL d   1      -2.897   0.732   2.225  0.00  0.00     0.078 C 
ATOM      2  C1  UNL d   1      -1.486   0.412   1.833  0.00  0.00    -0.077 A 
ATOM      3  C2  UNL d   1      -0.547   0.001   2.787  0.00  0.00    -0.001 A 
ATOM      4  C3  UNL d   1       0.765  -0.284   2.409  0.00  0.00     0.003 A 
ATOM      5  C4  UNL d   1       1.152  -0.161   1.076  0.00  0.00    -0.005 A 
ATOM      6  C5  UNL d   1       0.226   0.249   0.119  0.00  0.00     0.003 A 
ATOM      7  C6  UNL d   1      -1.088   0.535   0.496  0.00  0.00    -0.001 A 
ENDROOT
TORSDOF 0
ENDMDL
