MODEL 1
REMARK minimizedAffinity -2.22289586
REMARK minimizedRMSD -1
REMARK  0 active torsions:
REMARK  status: ('A' for Active; 'I' for Inactive)
ROOT
ATOM      1  C   UNL d   1       0.272   0.761  -1.428  0.00  0.00     0.078 C 
ATOM      2  C1  UNL d   1       0.289   0.271  -0.011  0.00  0.00    -0.077 A 
ATOM      3  C2  UNL d   1       0.141  -1.090   0.283  0.00  0.00    -0.001 A 
ATOM      4  C3  UNL d   1       0.149  -1.531   1.608  0.00  0.00     0.003 A 
ATOM      5  C4  UNL d   1       0.303  -0.618   2.648  0.00  0.00    -0.005 A 
ATOM      6  C5  UNL d   1       0.449   0.739   2.366  0.00  0.00     0.003 A 
ATOM      7  C6  UNL d   1       0.441   1.182   1.042  0.00  0.00    -0.001 A 
ENDROOT
TORSDOF 0
ENDMDL
