MODEL 1
REMARK minimizedAffinity -2.71961403
REMARK minimizedRMSD -1
REMARK  0 active torsions:
REMARK  status: ('A' for Active; 'I' for Inactive)
ROOT
ATOM      1  C   UNL d   1       1.072  -1.792  -3.882  0.00  0.00     0.078 C 
ATOM      2  C1  UNL d   1       0.842  -1.156  -2.544  0.00  0.00    -0.077 A 
ATOM      3  C2  UNL d   1       0.626  -1.938  -1.402  0.00  0.00    -0.001 A 
ATOM      4  C3  UNL d   1       0.404  -1.333  -0.164  0.00  0.00     0.003 A 
ATOM      5  C4  UNL d   1       0.395   0.057  -0.056  0.00  0.00    -0.005 A 
ATOM      6  C5  UNL d   1       0.607   0.843  -1.187  0.00  0.00     0.003 A 
ATOM      7  C6  UNL d   1       0.829   0.239  -2.425  0.00  0.00    -0.001 A 
ENDROOT
TORSDOF 0
ENDMDL
