MODEL 1
REMARK minimizedAffinity -3.50063467
REMARK minimizedRMSD -1
REMARK  0 active torsions:
REMARK  status: ('A' for Active; 'I' for Inactive)
ROOT
ATOM      1  C   UNL d   1       0.120   0.056  -1.558  0.00  0.00     0.078 C 
ATOM      2  C1  UNL d   1      -0.306   0.026  -0.121  0.00  0.00    -0.077 A 
ATOM      3  C2  UNL d   1       0.631  -0.137   0.906  0.00  0.00    -0.001 A 
ATOM      4  C3  UNL d   1       0.219  -0.173   2.239  0.00  0.00     0.003 A 
ATOM      5  C4  UNL d   1      -1.132  -0.048   2.558  0.00  0.00    -0.005 A 
ATOM      6  C5  UNL d   1      -2.072   0.113   1.542  0.00  0.00     0.003 A 
ATOM      7  C6  UNL d   1      -1.662   0.149   0.209  0.00  0.00    -0.001 A 
ENDROOT
TORSDOF 0
ENDMDL
