MODEL 1
REMARK minimizedAffinity -2.84659672
REMARK minimizedRMSD -1
REMARK  0 active torsions:
REMARK  status: ('A' for Active; 'I' for Inactive)
ROOT
ATOM      1  C   UNL d   1       2.643   4.668  -1.644  0.00  0.00     0.078 C 
ATOM      2  C1  UNL d   1       3.805   4.858  -2.572  0.00  0.00    -0.077 A 
ATOM      3  C2  UNL d   1       3.921   4.104  -3.746  0.00  0.00    -0.001 A 
ATOM      4  C3  UNL d   1       5.014   4.285  -4.597  0.00  0.00     0.003 A 
ATOM      5  C4  UNL d   1       5.999   5.219  -4.281  0.00  0.00    -0.005 A 
ATOM      6  C5  UNL d   1       5.893   5.972  -3.114  0.00  0.00     0.003 A 
ATOM      7  C6  UNL d   1       4.802   5.793  -2.262  0.00  0.00    -0.001 A 
ENDROOT
TORSDOF 0
ENDMDL
