MODEL 1
REMARK minimizedAffinity -3.03671026
REMARK minimizedRMSD -1
REMARK  0 active torsions:
REMARK  status: ('A' for Active; 'I' for Inactive)
ROOT
ATOM      1  C   UNL d   1       6.000   6.000  -1.119  0.00  0.00     0.078 C 
ATOM      2  C1  UNL d   1       5.299   5.380  -2.290  0.00  0.00    -0.077 A 
ATOM      3  C2  UNL d   1       3.954   5.000  -2.208  0.00  0.00    -0.001 A 
ATOM      4  C3  UNL d   1       3.317   4.415  -3.303  0.00  0.00     0.003 A 
ATOM      5  C4  UNL d   1       4.017   4.204  -4.489  0.00  0.00    -0.005 A 
ATOM      6  C5  UNL d   1       5.357   4.576  -4.580  0.00  0.00     0.003 A 
ATOM      7  C6  UNL d   1       5.995   5.161  -3.486  0.00  0.00    -0.001 A 
ENDROOT
TORSDOF 0
ENDMDL
