MODEL 1
REMARK minimizedAffinity -0.983400643
REMARK minimizedRMSD -1
REMARK  0 active torsions:
REMARK  status: ('A' for Active; 'I' for Inactive)
ROOT
ATOM      1  C   UNL d   1       6.000   1.860  -5.170  0.00  0.00     0.078 C 
ATOM      2  C1  UNL d   1       5.625   3.300  -4.986  0.00  0.00    -0.077 A 
ATOM      3  C2  UNL d   1       4.918   3.993  -5.976  0.00  0.00    -0.001 A 
ATOM      4  C3  UNL d   1       4.584   5.336  -5.796  0.00  0.00     0.003 A 
ATOM      5  C4  UNL d   1       4.953   5.998  -4.626  0.00  0.00    -0.005 A 
ATOM      6  C5  UNL d   1       5.658   5.317  -3.636  0.00  0.00     0.003 A 
ATOM      7  C6  UNL d   1       5.993   3.974  -3.815  0.00  0.00    -0.001 A 
ENDROOT
TORSDOF 0
ENDMDL
