MODEL 1
REMARK minimizedAffinity -2.64869142
REMARK minimizedRMSD -1
REMARK  0 active torsions:
REMARK  status: ('A' for Active; 'I' for Inactive)
ROOT
ATOM      1  C   UNL d   1       2.590   4.499  -1.915  0.00  0.00     0.078 C 
ATOM      2  C1  UNL d   1       3.768   4.397  -2.837  0.00  0.00    -0.077 A 
ATOM      3  C2  UNL d   1       3.769   3.495  -3.908  0.00  0.00    -0.001 A 
ATOM      4  C3  UNL d   1       4.876   3.404  -4.753  0.00  0.00     0.003 A 
ATOM      5  C4  UNL d   1       5.991   4.212  -4.536  0.00  0.00    -0.005 A 
ATOM      6  C5  UNL d   1       6.000   5.111  -3.471  0.00  0.00     0.003 A 
ATOM      7  C6  UNL d   1       4.893   5.203  -2.625  0.00  0.00    -0.001 A 
ENDROOT
TORSDOF 0
ENDMDL
