MODEL 1
REMARK minimizedAffinity -3.0906415
REMARK minimizedRMSD -1
REMARK  0 active torsions:
REMARK  status: ('A' for Active; 'I' for Inactive)
ROOT
ATOM      1  C   UNL d   1       5.255   3.543  -5.999  0.00  0.00     0.078 C 
ATOM      2  C1  UNL d   1       5.045   4.248  -4.693  0.00  0.00    -0.077 A 
ATOM      3  C2  UNL d   1       3.896   4.018  -3.926  0.00  0.00    -0.001 A 
ATOM      4  C3  UNL d   1       3.709   4.689  -2.716  0.00  0.00     0.003 A 
ATOM      5  C4  UNL d   1       4.665   5.595  -2.264  0.00  0.00    -0.005 A 
ATOM      6  C5  UNL d   1       5.810   5.833  -3.021  0.00  0.00     0.003 A 
ATOM      7  C6  UNL d   1       5.999   5.163  -4.231  0.00  0.00    -0.001 A 
ENDROOT
TORSDOF 0
ENDMDL
