MODEL 1
REMARK minimizedAffinity -0.341862619
REMARK minimizedRMSD -1
REMARK  0 active torsions:
REMARK  status: ('A' for Active; 'I' for Inactive)
ROOT
ATOM      1  C   UNL d   1       6.000   6.000  -1.497  0.00  0.00     0.078 C 
ATOM      2  C1  UNL d   1       4.863   5.522  -2.350  0.00  0.00    -0.077 A 
ATOM      3  C2  UNL d   1       3.936   4.593  -1.862  0.00  0.00    -0.001 A 
ATOM      4  C3  UNL d   1       2.888   4.150  -2.671  0.00  0.00     0.003 A 
ATOM      5  C4  UNL d   1       2.759   4.628  -3.973  0.00  0.00    -0.005 A 
ATOM      6  C5  UNL d   1       3.679   5.550  -4.469  0.00  0.00     0.003 A 
ATOM      7  C6  UNL d   1       4.727   5.995  -3.661  0.00  0.00    -0.001 A 
ENDROOT
TORSDOF 0
ENDMDL
