MODEL 1
REMARK minimizedAffinity 0.133081242
REMARK minimizedRMSD -1
REMARK  0 active torsions:
REMARK  status: ('A' for Active; 'I' for Inactive)
ROOT
ATOM      1  C   UNL d   1       5.999   5.999  -1.317  0.00  0.00     0.078 C 
ATOM      2  C1  UNL d   1       5.274   5.245  -2.392  0.00  0.00    -0.077 A 
ATOM      3  C2  UNL d   1       3.875   5.202  -2.425  0.00  0.00    -0.001 A 
ATOM      4  C3  UNL d   1       3.214   4.488  -3.426  0.00  0.00     0.003 A 
ATOM      5  C4  UNL d   1       3.945   3.811  -4.401  0.00  0.00    -0.005 A 
ATOM      6  C5  UNL d   1       5.337   3.846  -4.375  0.00  0.00     0.003 A 
ATOM      7  C6  UNL d   1       6.000   4.559  -3.375  0.00  0.00    -0.001 A 
ENDROOT
TORSDOF 0
ENDMDL
