MODEL 1
REMARK minimizedAffinity -3.08633089
REMARK minimizedRMSD -1
REMARK  0 active torsions:
REMARK  status: ('A' for Active; 'I' for Inactive)
ROOT
ATOM      1  C   UNL d   1       5.959   3.508  -5.721  0.00  0.00     0.078 C 
ATOM      2  C1  UNL d   1       5.321   4.123  -4.511  0.00  0.00    -0.077 A 
ATOM      3  C2  UNL d   1       5.999   5.081  -3.747  0.00  0.00    -0.001 A 
ATOM      4  C3  UNL d   1       5.397   5.638  -2.618  0.00  0.00     0.003 A 
ATOM      5  C4  UNL d   1       4.115   5.244  -2.242  0.00  0.00    -0.005 A 
ATOM      6  C5  UNL d   1       3.433   4.290  -2.995  0.00  0.00     0.003 A 
ATOM      7  C6  UNL d   1       4.033   3.731  -4.124  0.00  0.00    -0.001 A 
ENDROOT
TORSDOF 0
ENDMDL
