MODEL 1
REMARK minimizedAffinity 0.657345891
REMARK minimizedRMSD -1
REMARK  0 active torsions:
REMARK  status: ('A' for Active; 'I' for Inactive)
ROOT
ATOM      1  C   UNL d   1       2.844   4.124  -1.506  0.00  0.00     0.078 C 
ATOM      2  C1  UNL d   1       3.936   4.606  -2.413  0.00  0.00    -0.077 A 
ATOM      3  C2  UNL d   1       4.048   4.129  -3.725  0.00  0.00    -0.001 A 
ATOM      4  C3  UNL d   1       5.076   4.580  -4.555  0.00  0.00     0.003 A 
ATOM      5  C4  UNL d   1       6.000   5.509  -4.083  0.00  0.00    -0.005 A 
ATOM      6  C5  UNL d   1       5.898   5.989  -2.778  0.00  0.00     0.003 A 
ATOM      7  C6  UNL d   1       4.871   5.539  -1.947  0.00  0.00    -0.001 A 
ENDROOT
TORSDOF 0
ENDMDL
