MODEL 1
REMARK minimizedAffinity -1.51497447
REMARK minimizedRMSD -1
REMARK  0 active torsions:
REMARK  status: ('A' for Active; 'I' for Inactive)
ROOT
ATOM      1  C   UNL d   1       2.482   5.212  -1.346  0.00  0.00     0.078 C 
ATOM      2  C1  UNL d   1       3.715   5.229  -2.199  0.00  0.00    -0.077 A 
ATOM      3  C2  UNL d   1       4.837   5.981  -1.831  0.00  0.00    -0.001 A 
ATOM      4  C3  UNL d   1       5.974   5.995  -2.640  0.00  0.00     0.003 A 
ATOM      5  C4  UNL d   1       6.000   5.260  -3.823  0.00  0.00    -0.005 A 
ATOM      6  C5  UNL d   1       4.887   4.510  -4.199  0.00  0.00     0.003 A 
ATOM      7  C6  UNL d   1       3.749   4.495  -3.391  0.00  0.00    -0.001 A 
ENDROOT
TORSDOF 0
ENDMDL
