MODEL 1
REMARK minimizedAffinity 2.55556154
REMARK minimizedRMSD -1
REMARK  0 active torsions:
REMARK  status: ('A' for Active; 'I' for Inactive)
ROOT
ATOM      1  C   UNL d   1       2.253   4.119  -2.862  0.00  0.00     0.078 C 
ATOM      2  C1  UNL d   1       3.553   4.783  -3.207  0.00  0.00    -0.077 A 
ATOM      3  C2  UNL d   1       3.794   5.268  -4.498  0.00  0.00    -0.001 A 
ATOM      4  C3  UNL d   1       5.013   5.874  -4.808  0.00  0.00     0.003 A 
ATOM      5  C4  UNL d   1       6.000   6.000  -3.832  0.00  0.00    -0.005 A 
ATOM      6  C5  UNL d   1       5.769   5.518  -2.545  0.00  0.00     0.003 A 
ATOM      7  C6  UNL d   1       4.551   4.912  -2.233  0.00  0.00    -0.001 A 
ENDROOT
TORSDOF 0
ENDMDL
