MODEL 1
REMARK minimizedAffinity -3.09394193
REMARK minimizedRMSD -1
REMARK  0 active torsions:
REMARK  status: ('A' for Active; 'I' for Inactive)
ROOT
ATOM      1  C   UNL d   1       5.998   5.934  -1.377  0.00  0.00     0.078 C 
ATOM      2  C1  UNL d   1       5.287   5.027  -2.336  0.00  0.00    -0.077 A 
ATOM      3  C2  UNL d   1       6.000   4.250  -3.258  0.00  0.00    -0.001 A 
ATOM      4  C3  UNL d   1       5.324   3.418  -4.151  0.00  0.00     0.003 A 
ATOM      5  C4  UNL d   1       3.932   3.354  -4.132  0.00  0.00    -0.005 A 
ATOM      6  C5  UNL d   1       3.214   4.124  -3.220  0.00  0.00     0.003 A 
ATOM      7  C6  UNL d   1       3.888   4.958  -2.326  0.00  0.00    -0.001 A 
ENDROOT
TORSDOF 0
ENDMDL
