MODEL 1
REMARK minimizedAffinity -3.63970518
REMARK minimizedRMSD -1
REMARK  0 active torsions:
REMARK  status: ('A' for Active; 'I' for Inactive)
ROOT
ATOM      1  C   UNL d   1       5.883   5.973  -2.164  0.00  0.00     0.078 C 
ATOM      2  C1  UNL d   1       5.540   5.377  -3.497  0.00  0.00    -0.077 A 
ATOM      3  C2  UNL d   1       4.773   4.209  -3.588  0.00  0.00    -0.001 A 
ATOM      4  C3  UNL d   1       4.469   3.660  -4.835  0.00  0.00     0.003 A 
ATOM      5  C4  UNL d   1       4.929   4.271  -5.999  0.00  0.00    -0.005 A 
ATOM      6  C5  UNL d   1       5.694   5.433  -5.918  0.00  0.00     0.003 A 
ATOM      7  C6  UNL d   1       5.999   5.983  -4.672  0.00  0.00    -0.001 A 
ENDROOT
TORSDOF 0
ENDMDL
