MODEL 1
REMARK minimizedAffinity -3.82926178
REMARK minimizedRMSD -1
REMARK  0 active torsions:
REMARK  status: ('A' for Active; 'I' for Inactive)
ROOT
ATOM      1  C   UNL d   1       4.892   4.859  -6.000  0.00  0.00     0.078 C 
ATOM      2  C1  UNL d   1       4.951   5.022  -4.510  0.00  0.00    -0.077 A 
ATOM      3  C2  UNL d   1       4.022   4.387  -3.677  0.00  0.00    -0.001 A 
ATOM      4  C3  UNL d   1       4.083   4.556  -2.293  0.00  0.00     0.003 A 
ATOM      5  C4  UNL d   1       5.071   5.361  -1.730  0.00  0.00    -0.005 A 
ATOM      6  C5  UNL d   1       5.999   5.999  -2.551  0.00  0.00     0.003 A 
ATOM      7  C6  UNL d   1       5.939   5.832  -3.935  0.00  0.00    -0.001 A 
ENDROOT
TORSDOF 0
ENDMDL
