MODEL 1
REMARK minimizedAffinity 3.93469453
REMARK minimizedRMSD -1
REMARK  0 active torsions:
REMARK  status: ('A' for Active; 'I' for Inactive)
ROOT
ATOM      1  C   UNL d   1       6.000   6.000  -1.112  0.00  0.00     0.078 C 
ATOM      2  C1  UNL d   1       5.239   5.229  -2.149  0.00  0.00    -0.077 A 
ATOM      3  C2  UNL d   1       3.974   5.651  -2.577  0.00  0.00    -0.001 A 
ATOM      4  C3  UNL d   1       3.273   4.919  -3.536  0.00  0.00     0.003 A 
ATOM      5  C4  UNL d   1       3.828   3.760  -4.075  0.00  0.00    -0.005 A 
ATOM      6  C5  UNL d   1       5.085   3.331  -3.654  0.00  0.00     0.003 A 
ATOM      7  C6  UNL d   1       5.787   4.062  -2.695  0.00  0.00    -0.001 A 
ENDROOT
TORSDOF 0
ENDMDL
