MODEL 1
REMARK minimizedAffinity 3.28230762
REMARK minimizedRMSD -1
REMARK  0 active torsions:
REMARK  status: ('A' for Active; 'I' for Inactive)
ROOT
ATOM      1  C   UNL d   1       2.617   4.858  -0.853  0.00  0.00     0.078 C 
ATOM      2  C1  UNL d   1       3.653   5.260  -1.861  0.00  0.00    -0.077 A 
ATOM      3  C2  UNL d   1       3.365   5.259  -3.231  0.00  0.00    -0.001 A 
ATOM      4  C3  UNL d   1       4.342   5.626  -4.158  0.00  0.00     0.003 A 
ATOM      5  C4  UNL d   1       5.613   5.997  -3.725  0.00  0.00    -0.005 A 
ATOM      6  C5  UNL d   1       5.910   5.999  -2.363  0.00  0.00     0.003 A 
ATOM      7  C6  UNL d   1       4.934   5.632  -1.435  0.00  0.00    -0.001 A 
ENDROOT
TORSDOF 0
ENDMDL
