MODEL 1
REMARK minimizedAffinity -1.4393909
REMARK minimizedRMSD -1
REMARK  0 active torsions:
REMARK  status: ('A' for Active; 'I' for Inactive)
ROOT
ATOM      1  C   UNL d   1       2.358   4.505  -1.888  0.00  0.00     0.078 C 
ATOM      2  C1  UNL d   1       3.619   4.530  -2.698  0.00  0.00    -0.077 A 
ATOM      3  C2  UNL d   1       3.730   3.789  -3.882  0.00  0.00    -0.001 A 
ATOM      4  C3  UNL d   1       4.914   3.814  -4.621  0.00  0.00     0.003 A 
ATOM      5  C4  UNL d   1       5.996   4.576  -4.184  0.00  0.00    -0.005 A 
ATOM      6  C5  UNL d   1       5.896   5.314  -3.007  0.00  0.00     0.003 A 
ATOM      7  C6  UNL d   1       4.713   5.291  -2.266  0.00  0.00    -0.001 A 
ENDROOT
TORSDOF 0
ENDMDL
