MODEL 1
REMARK minimizedAffinity -3.71329737
REMARK minimizedRMSD -1
REMARK  0 active torsions:
REMARK  status: ('A' for Active; 'I' for Inactive)
ROOT
ATOM      1  C   UNL d   1      -1.073   0.274   0.366  0.00  0.00     0.078 C 
ATOM      2  C1  UNL d   1       0.238  -0.177  -0.206  0.00  0.00    -0.077 A 
ATOM      3  C2  UNL d   1       0.477  -1.528  -0.482  0.00  0.00    -0.001 A 
ATOM      4  C3  UNL d   1       1.706  -1.935  -1.005  0.00  0.00     0.003 A 
ATOM      5  C4  UNL d   1       2.705  -0.996  -1.254  0.00  0.00    -0.005 A 
ATOM      6  C5  UNL d   1       2.477   0.351  -0.980  0.00  0.00     0.003 A 
ATOM      7  C6  UNL d   1       1.249   0.759  -0.457  0.00  0.00    -0.001 A 
ENDROOT
TORSDOF 0
ENDMDL
