MODEL 1
REMARK minimizedAffinity -5.00831699
REMARK minimizedRMSD -1
REMARK  0 active torsions:
REMARK  status: ('A' for Active; 'I' for Inactive)
ROOT
ATOM      1  C   UNL d   1      -4.237  -1.650   2.590  0.00  0.00     0.078 C 
ATOM      2  C1  UNL d   1      -3.317  -0.467   2.641  0.00  0.00    -0.077 A 
ATOM      3  C2  UNL d   1      -2.590  -0.069   1.513  0.00  0.00    -0.001 A 
ATOM      4  C3  UNL d   1      -1.729   1.028   1.578  0.00  0.00     0.003 A 
ATOM      5  C4  UNL d   1      -1.587   1.736   2.770  0.00  0.00    -0.005 A 
ATOM      6  C5  UNL d   1      -2.305   1.346   3.899  0.00  0.00     0.003 A 
ATOM      7  C6  UNL d   1      -3.166   0.249   3.836  0.00  0.00    -0.001 A 
ENDROOT
TORSDOF 0
ENDMDL
