MODEL 1
REMARK minimizedAffinity -3.84103107
REMARK minimizedRMSD -1
REMARK  0 active torsions:
REMARK  status: ('A' for Active; 'I' for Inactive)
ROOT
ATOM      1  C   UNL d   1      -5.582  -3.569   3.365  0.00  0.00     0.078 C 
ATOM      2  C1  UNL d   1      -4.695  -2.373   3.547  0.00  0.00    -0.077 A 
ATOM      3  C2  UNL d   1      -4.174  -1.687   2.444  0.00  0.00    -0.001 A 
ATOM      4  C3  UNL d   1      -3.342  -0.582   2.629  0.00  0.00     0.003 A 
ATOM      5  C4  UNL d   1      -3.023  -0.154   3.916  0.00  0.00    -0.005 A 
ATOM      6  C5  UNL d   1      -3.535  -0.832   5.020  0.00  0.00     0.003 A 
ATOM      7  C6  UNL d   1      -4.367  -1.937   4.837  0.00  0.00    -0.001 A 
ENDROOT
TORSDOF 0
ENDMDL
