MODEL 1
REMARK minimizedAffinity -3.43021011
REMARK minimizedRMSD -1
REMARK  0 active torsions:
REMARK  status: ('A' for Active; 'I' for Inactive)
ROOT
ATOM      1  C   UNL d   1      -1.041   0.811  -0.154  0.00  0.00     0.078 C 
ATOM      2  C1  UNL d   1       0.293   0.451  -0.736  0.00  0.00    -0.077 A 
ATOM      3  C2  UNL d   1       1.120   1.429  -1.302  0.00  0.00    -0.001 A 
ATOM      4  C3  UNL d   1       2.355   1.079  -1.849  0.00  0.00     0.003 A 
ATOM      5  C4  UNL d   1       2.774  -0.250  -1.837  0.00  0.00    -0.005 A 
ATOM      6  C5  UNL d   1       1.957  -1.231  -1.279  0.00  0.00     0.003 A 
ATOM      7  C6  UNL d   1       0.721  -0.882  -0.731  0.00  0.00    -0.001 A 
ENDROOT
TORSDOF 0
ENDMDL
