MODEL 1
REMARK minimizedAffinity -2.98804617
REMARK minimizedRMSD -1
REMARK  0 active torsions:
REMARK  status: ('A' for Active; 'I' for Inactive)
ROOT
ATOM      1  C   UNL d   1      -1.136   0.247  -0.108  0.00  0.00     0.078 C 
ATOM      2  C1  UNL d   1      -1.544   0.373   1.329  0.00  0.00    -0.077 A 
ATOM      3  C2  UNL d   1      -1.211   1.510   2.077  0.00  0.00    -0.001 A 
ATOM      4  C3  UNL d   1      -1.589   1.609   3.417  0.00  0.00     0.003 A 
ATOM      5  C4  UNL d   1      -2.301   0.575   4.021  0.00  0.00    -0.005 A 
ATOM      6  C5  UNL d   1      -2.634  -0.561   3.286  0.00  0.00     0.003 A 
ATOM      7  C6  UNL d   1      -2.257  -0.662   1.946  0.00  0.00    -0.001 A 
ENDROOT
TORSDOF 0
ENDMDL
