MODEL 1
REMARK minimizedAffinity 7.28031683
REMARK minimizedRMSD -1
REMARK  0 active torsions:
REMARK  status: ('A' for Active; 'I' for Inactive)
ROOT
ATOM      1  C   UNL d   1       1.894  -0.004  -1.234  0.00  0.00     0.078 C 
ATOM      2  C1  UNL d   1       0.678  -0.881  -1.256  0.00  0.00    -0.077 A 
ATOM      3  C2  UNL d   1      -0.520  -0.468  -0.661  0.00  0.00    -0.001 A 
ATOM      4  C3  UNL d   1      -1.642  -1.298  -0.681  0.00  0.00     0.003 A 
ATOM      5  C4  UNL d   1      -1.576  -2.548  -1.294  0.00  0.00    -0.005 A 
ATOM      6  C5  UNL d   1      -0.388  -2.968  -1.888  0.00  0.00     0.003 A 
ATOM      7  C6  UNL d   1       0.735  -2.139  -1.869  0.00  0.00    -0.001 A 
ENDROOT
TORSDOF 0
ENDMDL
