MODEL 1
REMARK minimizedAffinity -4.70977211
REMARK minimizedRMSD -1
REMARK  0 active torsions:
REMARK  status: ('A' for Active; 'I' for Inactive)
ROOT
ATOM      1  C   UNL d   1       0.753  -1.988  -0.728  0.00  0.00     0.078 C 
ATOM      2  C1  UNL d   1       0.913  -0.504  -0.582  0.00  0.00    -0.077 A 
ATOM      3  C2  UNL d   1      -0.158   0.364  -0.830  0.00  0.00    -0.001 A 
ATOM      4  C3  UNL d   1       0.008   1.744  -0.700  0.00  0.00     0.003 A 
ATOM      5  C4  UNL d   1       1.242   2.268  -0.323  0.00  0.00    -0.005 A 
ATOM      6  C5  UNL d   1       2.314   1.413  -0.077  0.00  0.00     0.003 A 
ATOM      7  C6  UNL d   1       2.150   0.033  -0.206  0.00  0.00    -0.001 A 
ENDROOT
TORSDOF 0
ENDMDL
