MODEL 1
REMARK minimizedAffinity 2.03404522
REMARK minimizedRMSD -1
REMARK  0 active torsions:
REMARK  status: ('A' for Active; 'I' for Inactive)
ROOT
ATOM      1  C   UNL d   1      -3.752  -2.470   4.536  0.00  0.00     0.078 C 
ATOM      2  C1  UNL d   1      -3.188  -1.305   3.778  0.00  0.00    -0.077 A 
ATOM      3  C2  UNL d   1      -3.246  -0.008   4.302  0.00  0.00    -0.001 A 
ATOM      4  C3  UNL d   1      -2.726   1.068   3.581  0.00  0.00     0.003 A 
ATOM      5  C4  UNL d   1      -2.147   0.858   2.331  0.00  0.00    -0.005 A 
ATOM      6  C5  UNL d   1      -2.087  -0.429   1.800  0.00  0.00     0.003 A 
ATOM      7  C6  UNL d   1      -2.606  -1.506   2.520  0.00  0.00    -0.001 A 
ENDROOT
TORSDOF 0
ENDMDL
