MODEL 1
REMARK minimizedAffinity 0.382049978
REMARK minimizedRMSD -1
REMARK  0 active torsions:
REMARK  status: ('A' for Active; 'I' for Inactive)
ROOT
ATOM      1  C   UNL d   1       2.405  -1.597  -0.547  0.00  0.00     0.078 C 
ATOM      2  C1  UNL d   1       2.035  -0.470  -1.464  0.00  0.00    -0.077 A 
ATOM      3  C2  UNL d   1       2.710  -0.274  -2.675  0.00  0.00    -0.001 A 
ATOM      4  C3  UNL d   1       2.361   0.785  -3.514  0.00  0.00     0.003 A 
ATOM      5  C4  UNL d   1       1.337   1.658  -3.151  0.00  0.00    -0.005 A 
ATOM      6  C5  UNL d   1       0.661   1.473  -1.947  0.00  0.00     0.003 A 
ATOM      7  C6  UNL d   1       1.009   0.414  -1.106  0.00  0.00    -0.001 A 
ENDROOT
TORSDOF 0
ENDMDL
