MODEL 1
REMARK minimizedAffinity -0.469609469
REMARK minimizedRMSD -1
REMARK  0 active torsions:
REMARK  status: ('A' for Active; 'I' for Inactive)
ROOT
ATOM      1  C   UNL d   1      -3.745   1.397   3.967  0.00  0.00     0.078 C 
ATOM      2  C1  UNL d   1      -3.062   1.740   2.677  0.00  0.00    -0.077 A 
ATOM      3  C2  UNL d   1      -2.145   2.795   2.605  0.00  0.00    -0.001 A 
ATOM      4  C3  UNL d   1      -1.523   3.110   1.395  0.00  0.00     0.003 A 
ATOM      5  C4  UNL d   1      -1.814   2.375   0.248  0.00  0.00    -0.005 A 
ATOM      6  C5  UNL d   1      -2.727   1.324   0.309  0.00  0.00     0.003 A 
ATOM      7  C6  UNL d   1      -3.349   1.008   1.518  0.00  0.00    -0.001 A 
ENDROOT
TORSDOF 0
ENDMDL
