MODEL 1
REMARK minimizedAffinity -2.23396111
REMARK minimizedRMSD -1
REMARK  0 active torsions:
REMARK  status: ('A' for Active; 'I' for Inactive)
ROOT
ATOM      1  C   UNL d   1      -0.061   0.020  -0.157  0.00  0.00     0.078 C 
ATOM      2  C1  UNL d   1       0.830   0.208  -1.348  0.00  0.00    -0.077 A 
ATOM      3  C2  UNL d   1       0.797   1.393  -2.094  0.00  0.00    -0.001 A 
ATOM      4  C3  UNL d   1       1.625   1.550  -3.206  0.00  0.00     0.003 A 
ATOM      5  C4  UNL d   1       2.492   0.526  -3.584  0.00  0.00    -0.005 A 
ATOM      6  C5  UNL d   1       2.530  -0.657  -2.850  0.00  0.00     0.003 A 
ATOM      7  C6  UNL d   1       1.703  -0.816  -1.737  0.00  0.00    -0.001 A 
ENDROOT
TORSDOF 0
ENDMDL
