MODEL 1
REMARK minimizedAffinity -2.16610289
REMARK minimizedRMSD -1
REMARK  0 active torsions:
REMARK  status: ('A' for Active; 'I' for Inactive)
ROOT
ATOM      1  C   UNL d   1      -1.415   0.161   0.317  0.00  0.00     0.078 C 
ATOM      2  C1  UNL d   1      -0.107  -0.304  -0.250  0.00  0.00    -0.077 A 
ATOM      3  C2  UNL d   1       0.184  -1.668  -0.366  0.00  0.00    -0.001 A 
ATOM      4  C3  UNL d   1       1.410  -2.087  -0.887  0.00  0.00     0.003 A 
ATOM      5  C4  UNL d   1       2.354  -1.147  -1.296  0.00  0.00    -0.005 A 
ATOM      6  C5  UNL d   1       2.074   0.213  -1.183  0.00  0.00     0.003 A 
ATOM      7  C6  UNL d   1       0.849   0.633  -0.662  0.00  0.00    -0.001 A 
ENDROOT
TORSDOF 0
ENDMDL
