MODEL 1
REMARK minimizedAffinity -4.47269058
REMARK minimizedRMSD -1
REMARK  0 active torsions:
REMARK  status: ('A' for Active; 'I' for Inactive)
ROOT
ATOM      1  C   UNL d   1      -1.549   0.523   0.391  0.00  0.00     0.078 C 
ATOM      2  C1  UNL d   1      -0.248   0.270  -0.309  0.00  0.00    -0.077 A 
ATOM      3  C2  UNL d   1       0.401  -0.967  -0.201  0.00  0.00    -0.001 A 
ATOM      4  C3  UNL d   1       1.617  -1.185  -0.850  0.00  0.00     0.003 A 
ATOM      5  C4  UNL d   1       2.196  -0.172  -1.611  0.00  0.00    -0.005 A 
ATOM      6  C5  UNL d   1       1.559   1.063  -1.723  0.00  0.00     0.003 A 
ATOM      7  C6  UNL d   1       0.343   1.283  -1.074  0.00  0.00    -0.001 A 
ENDROOT
TORSDOF 0
ENDMDL
