MODEL 1
REMARK minimizedAffinity -1.75475669
REMARK minimizedRMSD -1
REMARK  0 active torsions:
REMARK  status: ('A' for Active; 'I' for Inactive)
ROOT
ATOM      1  C   UNL d   1       1.815  -1.485  -1.497  0.00  0.00     0.078 C 
ATOM      2  C1  UNL d   1       0.773  -0.581  -0.908  0.00  0.00    -0.077 A 
ATOM      3  C2  UNL d   1      -0.017  -0.998   0.170  0.00  0.00    -0.001 A 
ATOM      4  C3  UNL d   1      -0.990  -0.150   0.702  0.00  0.00     0.003 A 
ATOM      5  C4  UNL d   1      -1.183   1.119   0.161  0.00  0.00    -0.005 A 
ATOM      6  C5  UNL d   1      -0.403   1.542  -0.914  0.00  0.00     0.003 A 
ATOM      7  C6  UNL d   1       0.571   0.695  -1.447  0.00  0.00    -0.001 A 
ENDROOT
TORSDOF 0
ENDMDL
