MODEL 1
REMARK minimizedAffinity 5.59145832
REMARK minimizedRMSD -1
REMARK  1 active torsions:
REMARK  status: ('A' for Active; 'I' for Inactive)
REMARK    1  A    between atoms: C1_2  and  C2_3 
ROOT
ATOM      1  C2  UNL d   1      -3.363   1.090   3.668  0.00  0.00    -0.077 A 
ATOM      2  C3  UNL d   1      -2.791   0.929   4.938  0.00  0.00     0.002 A 
ATOM      3  C4  UNL d   1      -3.187   1.745   6.000  0.00  0.00     0.002 A 
ATOM      4  C5  UNL d   1      -4.159   2.723   5.804  0.00  0.00    -0.004 A 
ATOM      5  C6  UNL d   1      -4.733   2.892   4.544  0.00  0.00     0.002 A 
ATOM      6  C7  UNL d   1      -4.338   2.079   3.482  0.00  0.00     0.002 A 
ENDROOT
BRANCH   1   7
ATOM      7  C1  UNL d   1      -2.973   0.178   2.534  0.00  0.00     0.055 C 
ATOM      8  C   UNL d   1      -1.794  -0.705   2.914  0.00  0.00     0.019 C 
ENDBRANCH   1   7
TORSDOF 1
ENDMDL
