MODEL 1
REMARK minimizedAffinity 8.12668037
REMARK minimizedRMSD -1
REMARK  1 active torsions:
REMARK  status: ('A' for Active; 'I' for Inactive)
REMARK    1  A    between atoms: C1_2  and  C2_3 
ROOT
ATOM      1  C2  UNL d   1       1.602   1.222   0.687  0.00  0.00    -0.077 A 
ATOM      2  C3  UNL d   1       1.568  -0.000   0.001  0.00  0.00     0.002 A 
ATOM      3  C4  UNL d   1       1.912  -0.061  -1.351  0.00  0.00     0.002 A 
ATOM      4  C5  UNL d   1       2.296   1.095  -2.027  0.00  0.00    -0.004 A 
ATOM      5  C6  UNL d   1       2.330   2.316  -1.354  0.00  0.00     0.002 A 
ATOM      6  C7  UNL d   1       1.986   2.379  -0.003  0.00  0.00     0.002 A 
ENDROOT
BRANCH   1   7
ATOM      7  C1  UNL d   1       1.278   1.281   2.157  0.00  0.00     0.055 C 
ATOM      8  C   UNL d   1      -0.115   1.845   2.395  0.00  0.00     0.019 C 
ENDBRANCH   1   7
TORSDOF 1
ENDMDL
