MODEL 1
REMARK minimizedAffinity 15.3853359
REMARK minimizedRMSD -1
REMARK  1 active torsions:
REMARK  status: ('A' for Active; 'I' for Inactive)
REMARK    1  A    between atoms: C1_2  and  C2_3 
ROOT
ATOM      1  C2  UNL d   1       2.617   0.338  -1.379  0.00  0.00    -0.077 A 
ATOM      2  C3  UNL d   1       2.997   1.556  -1.958  0.00  0.00     0.002 A 
ATOM      3  C4  UNL d   1       3.853   2.425  -1.279  0.00  0.00     0.002 A 
ATOM      4  C5  UNL d   1       4.340   2.083  -0.019  0.00  0.00    -0.004 A 
ATOM      5  C6  UNL d   1       3.966   0.874   0.567  0.00  0.00     0.002 A 
ATOM      6  C7  UNL d   1       3.109   0.005  -0.110  0.00  0.00     0.002 A 
ENDROOT
BRANCH   1   7
ATOM      7  C1  UNL d   1       1.733  -0.622  -2.131  0.00  0.00     0.055 C 
ATOM      8  C   UNL d   1       2.323  -0.970  -3.490  0.00  0.00     0.019 C 
ENDBRANCH   1   7
TORSDOF 1
ENDMDL
