MODEL 1
REMARK minimizedAffinity 13.9510918
REMARK minimizedRMSD -1
REMARK  1 active torsions:
REMARK  status: ('A' for Active; 'I' for Inactive)
REMARK    1  A    between atoms: C1_2  and  C2_3 
ROOT
ATOM      1  C2  UNL d   1      -0.139   1.179   3.594  0.00  0.00    -0.077 A 
ATOM      2  C3  UNL d   1       1.208   0.791   3.629  0.00  0.00     0.002 A 
ATOM      3  C4  UNL d   1       1.923   0.832   4.828  0.00  0.00     0.002 A 
ATOM      4  C5  UNL d   1       1.299   1.255   6.000  0.00  0.00    -0.004 A 
ATOM      5  C6  UNL d   1      -0.039   1.645   5.974  0.00  0.00     0.002 A 
ATOM      6  C7  UNL d   1      -0.755   1.606   4.777  0.00  0.00     0.002 A 
ENDROOT
BRANCH   1   7
ATOM      7  C1  UNL d   1      -0.925   1.090   2.312  0.00  0.00     0.055 C 
ATOM      8  C   UNL d   1      -2.423   1.062   2.583  0.00  0.00     0.019 C 
ENDBRANCH   1   7
TORSDOF 1
ENDMDL
