MODEL 1
REMARK minimizedAffinity 11.1691456
REMARK minimizedRMSD -1
REMARK  1 active torsions:
REMARK  status: ('A' for Active; 'I' for Inactive)
REMARK    1  A    between atoms: C1_2  and  C2_3 
ROOT
ATOM      1  C2  UNL d   1       2.871  -3.388  -1.277  0.00  0.00    -0.077 A 
ATOM      2  C3  UNL d   1       2.099  -3.791  -2.376  0.00  0.00     0.002 A 
ATOM      3  C4  UNL d   1       1.599  -5.093  -2.448  0.00  0.00     0.002 A 
ATOM      4  C5  UNL d   1       1.862  -6.000  -1.423  0.00  0.00    -0.004 A 
ATOM      5  C6  UNL d   1       2.630  -5.609  -0.327  0.00  0.00     0.002 A 
ATOM      6  C7  UNL d   1       3.132  -4.309  -0.254  0.00  0.00     0.002 A 
ENDROOT
BRANCH   1   7
ATOM      7  C1  UNL d   1       3.369  -1.970  -1.173  0.00  0.00     0.055 C 
ATOM      8  C   UNL d   1       2.453  -1.006  -1.912  0.00  0.00     0.019 C 
ENDBRANCH   1   7
TORSDOF 1
ENDMDL
