MODEL 1
REMARK minimizedAffinity 5.5426774
REMARK minimizedRMSD -1
REMARK  1 active torsions:
REMARK  status: ('A' for Active; 'I' for Inactive)
REMARK    1  A    between atoms: C1_2  and  C2_3 
ROOT
ATOM      1  C2  UNL d   1       4.126   0.444  -1.038  0.00  0.00    -0.077 A 
ATOM      2  C3  UNL d   1       5.056  -0.351  -0.354  0.00  0.00     0.002 A 
ATOM      3  C4  UNL d   1       4.789  -1.700  -0.111  0.00  0.00     0.002 A 
ATOM      4  C5  UNL d   1       3.595  -2.266  -0.552  0.00  0.00    -0.004 A 
ATOM      5  C6  UNL d   1       2.662  -1.483  -1.231  0.00  0.00     0.002 A 
ATOM      6  C7  UNL d   1       2.927  -0.134  -1.474  0.00  0.00     0.002 A 
ENDROOT
BRANCH   1   7
ATOM      7  C1  UNL d   1       4.434   1.886  -1.344  0.00  0.00     0.055 C 
ATOM      8  C   UNL d   1       5.929   2.161  -1.270  0.00  0.00     0.019 C 
ENDBRANCH   1   7
TORSDOF 1
ENDMDL
