MODEL 1
REMARK minimizedAffinity 18.2117424
REMARK minimizedRMSD -1
REMARK  1 active torsions:
REMARK  status: ('A' for Active; 'I' for Inactive)
REMARK    1  A    between atoms: C1_2  and  C2_3 
ROOT
ATOM      1  C2  UNL d   1      -4.015   1.600   3.764  0.00  0.00    -0.077 A 
ATOM      2  C3  UNL d   1      -5.055   2.540   3.744  0.00  0.00     0.002 A 
ATOM      3  C4  UNL d   1      -5.277   3.371   4.844  0.00  0.00     0.002 A 
ATOM      4  C5  UNL d   1      -4.462   3.273   5.969  0.00  0.00    -0.004 A 
ATOM      5  C6  UNL d   1      -3.426   2.340   6.000  0.00  0.00     0.002 A 
ATOM      6  C7  UNL d   1      -3.203   1.508   4.902  0.00  0.00     0.002 A 
ENDROOT
BRANCH   1   7
ATOM      7  C1  UNL d   1      -3.742   0.737   2.560  0.00  0.00     0.055 C 
ATOM      8  C   UNL d   1      -4.472  -0.595   2.657  0.00  0.00     0.019 C 
ENDBRANCH   1   7
TORSDOF 1
ENDMDL
