MODEL 1
REMARK minimizedAffinity 13.8494749
REMARK minimizedRMSD -1
REMARK  1 active torsions:
REMARK  status: ('A' for Active; 'I' for Inactive)
REMARK    1  A    between atoms: C1_2  and  C2_3 
ROOT
ATOM      1  C2  UNL d   1       1.141   4.172   1.264  0.00  0.00    -0.077 A 
ATOM      2  C3  UNL d   1       2.339   3.460   1.417  0.00  0.00     0.002 A 
ATOM      3  C4  UNL d   1       2.344   2.210   2.038  0.00  0.00     0.002 A 
ATOM      4  C5  UNL d   1       1.153   1.659   2.506  0.00  0.00    -0.004 A 
ATOM      5  C6  UNL d   1      -0.044   2.359   2.361  0.00  0.00     0.002 A 
ATOM      6  C7  UNL d   1      -0.050   3.610   1.742  0.00  0.00     0.002 A 
ENDROOT
BRANCH   1   7
ATOM      7  C1  UNL d   1       1.127   5.499   0.551  0.00  0.00     0.055 C 
ATOM      8  C   UNL d   1       1.572   5.354  -0.897  0.00  0.00     0.019 C 
ENDBRANCH   1   7
TORSDOF 1
ENDMDL
