MODEL 1
REMARK minimizedAffinity 8.01034355
REMARK minimizedRMSD -1
REMARK  1 active torsions:
REMARK  status: ('A' for Active; 'I' for Inactive)
REMARK    1  A    between atoms: C1_2  and  C2_3 
ROOT
ATOM      1  C2  UNL d   1       2.975   1.250   0.156  0.00  0.00    -0.077 A 
ATOM      2  C3  UNL d   1       3.974   1.235  -0.828  0.00  0.00     0.002 A 
ATOM      3  C4  UNL d   1       5.061   2.109  -0.744  0.00  0.00     0.002 A 
ATOM      4  C5  UNL d   1       5.160   3.000   0.322  0.00  0.00    -0.004 A 
ATOM      5  C6  UNL d   1       4.170   3.024   1.304  0.00  0.00     0.002 A 
ATOM      6  C7  UNL d   1       3.083   2.152   1.222  0.00  0.00     0.002 A 
ENDROOT
BRANCH   1   7
ATOM      7  C1  UNL d   1       1.828   0.275   0.093  0.00  0.00     0.055 C 
ATOM      8  C   UNL d   1       1.684  -0.322  -1.299  0.00  0.00     0.019 C 
ENDBRANCH   1   7
TORSDOF 1
ENDMDL
