MODEL 1
REMARK minimizedAffinity 5.1023612
REMARK minimizedRMSD -1
REMARK  1 active torsions:
REMARK  status: ('A' for Active; 'I' for Inactive)
REMARK    1  A    between atoms: C1_2  and  C2_3 
ROOT
ATOM      1  C2  UNL d   1       2.977  -3.133  -0.648  0.00  0.00    -0.077 A 
ATOM      2  C3  UNL d   1       2.498  -3.539  -1.901  0.00  0.00     0.002 A 
ATOM      3  C4  UNL d   1       1.659  -2.703  -2.642  0.00  0.00     0.002 A 
ATOM      4  C5  UNL d   1       1.296  -1.456  -2.139  0.00  0.00    -0.004 A 
ATOM      5  C6  UNL d   1       1.765  -1.044  -0.893  0.00  0.00     0.002 A 
ATOM      6  C7  UNL d   1       2.602  -1.878  -0.151  0.00  0.00     0.002 A 
ENDROOT
BRANCH   1   7
ATOM      7  C1  UNL d   1       3.921  -4.012   0.130  0.00  0.00     0.055 C 
ATOM      8  C   UNL d   1       4.020  -5.400  -0.486  0.00  0.00     0.019 C 
ENDBRANCH   1   7
TORSDOF 1
ENDMDL
