MODEL 1
REMARK minimizedAffinity 8.72620869
REMARK minimizedRMSD -1
REMARK  1 active torsions:
REMARK  status: ('A' for Active; 'I' for Inactive)
REMARK    1  A    between atoms: C1_2  and  C2_3 
ROOT
ATOM      1  C2  UNL d   1       2.080  -2.340  -0.481  0.00  0.00    -0.077 A 
ATOM      2  C3  UNL d   1       1.698  -2.606  -1.803  0.00  0.00     0.002 A 
ATOM      3  C4  UNL d   1       1.242  -1.576  -2.628  0.00  0.00     0.002 A 
ATOM      4  C5  UNL d   1       1.168  -0.273  -2.141  0.00  0.00    -0.004 A 
ATOM      5  C6  UNL d   1       1.544   0.002  -0.827  0.00  0.00     0.002 A 
ATOM      6  C7  UNL d   1       1.999  -1.026  -0.001  0.00  0.00     0.002 A 
ENDROOT
BRANCH   1   7
ATOM      7  C1  UNL d   1       2.619  -3.441   0.395  0.00  0.00     0.055 C 
ATOM      8  C   UNL d   1       4.004  -3.880  -0.057  0.00  0.00     0.019 C 
ENDBRANCH   1   7
TORSDOF 1
ENDMDL
