MODEL 1
REMARK minimizedAffinity 10.7186975
REMARK minimizedRMSD -1
REMARK  1 active torsions:
REMARK  status: ('A' for Active; 'I' for Inactive)
REMARK    1  A    between atoms: C1_2  and  C2_3 
ROOT
ATOM      1  C2  UNL d   1       2.238   1.168   0.869  0.00  0.00    -0.077 A 
ATOM      2  C3  UNL d   1       2.145   0.389  -0.294  0.00  0.00     0.002 A 
ATOM      3  C4  UNL d   1       3.229   0.294  -1.168  0.00  0.00     0.002 A 
ATOM      4  C5  UNL d   1       4.414   0.970  -0.888  0.00  0.00    -0.004 A 
ATOM      5  C6  UNL d   1       4.516   1.748   0.264  0.00  0.00     0.002 A 
ATOM      6  C7  UNL d   1       3.433   1.846   1.139  0.00  0.00     0.002 A 
ENDROOT
BRANCH   1   7
ATOM      7  C1  UNL d   1       1.087   1.233   1.838  0.00  0.00     0.055 C 
ATOM      8  C   UNL d   1       1.578   1.267   3.278  0.00  0.00     0.019 C 
ENDBRANCH   1   7
TORSDOF 1
ENDMDL
