MODEL 1
REMARK minimizedAffinity 9.36836624
REMARK minimizedRMSD -1
REMARK  1 active torsions:
REMARK  status: ('A' for Active; 'I' for Inactive)
REMARK    1  A    between atoms: C1_2  and  C2_3 
ROOT
ATOM      1  C2  UNL d   1      -3.752   1.444   3.699  0.00  0.00    -0.077 A 
ATOM      2  C3  UNL d   1      -3.291   1.548   5.019  0.00  0.00     0.002 A 
ATOM      3  C4  UNL d   1      -4.086   2.145   6.000  0.00  0.00     0.002 A 
ATOM      4  C5  UNL d   1      -5.347   2.638   5.672  0.00  0.00    -0.004 A 
ATOM      5  C6  UNL d   1      -5.814   2.541   4.362  0.00  0.00     0.002 A 
ATOM      6  C7  UNL d   1      -5.020   1.946   3.380  0.00  0.00     0.002 A 
ENDROOT
BRANCH   1   7
ATOM      7  C1  UNL d   1      -2.917   0.756   2.651  0.00  0.00     0.055 C 
ATOM      8  C   UNL d   1      -1.591   1.473   2.441  0.00  0.00     0.019 C 
ENDBRANCH   1   7
TORSDOF 1
ENDMDL
