MODEL 1
REMARK minimizedAffinity 0.169243395
REMARK minimizedRMSD -1
REMARK  1 active torsions:
REMARK  status: ('A' for Active; 'I' for Inactive)
REMARK    1  A    between atoms: C1_2  and  C2_3 
ROOT
ATOM      1  C2  UNL d   1      -3.529   4.693  -5.690  0.00  0.00    -0.077 A 
ATOM      2  C3  UNL d   1      -2.200   5.047  -5.960  0.00  0.00     0.002 A 
ATOM      3  C4  UNL d   1      -1.173   4.115  -5.797  0.00  0.00     0.002 A 
ATOM      4  C5  UNL d   1      -1.466   2.822  -5.369  0.00  0.00    -0.004 A 
ATOM      5  C6  UNL d   1      -2.784   2.460  -5.097  0.00  0.00     0.002 A 
ATOM      6  C7  UNL d   1      -3.811   3.391  -5.257  0.00  0.00     0.002 A 
ENDROOT
BRANCH   1   7
ATOM      7  C1  UNL d   1      -4.643   5.682  -5.912  0.00  0.00     0.055 C 
ATOM      8  C   UNL d   1      -5.997   4.989  -5.960  0.00  0.00     0.019 C 
ENDBRANCH   1   7
TORSDOF 1
ENDMDL
