MODEL 1
REMARK minimizedAffinity 0.754681826
REMARK minimizedRMSD -1
REMARK  0 active torsions:
REMARK  status: ('A' for Active; 'I' for Inactive)
ROOT
ATOM      1  C2' OXE d   1      -3.826   0.942   5.999  0.00  0.00     0.078 C 
ATOM      2  C1' OXE d   1      -5.617  -1.200   5.701  0.00  0.00     0.078 C 
ATOM      3  C1  OXE d   1      -4.621  -0.956   4.594  0.00  0.00    -0.078 A 
ATOM      4  C2  OXE d   1      -3.780   0.122   4.728  0.00  0.00    -0.078 A 
ATOM      5  C3  OXE d   1      -2.805   0.360   3.762  0.00  0.00     0.003 A 
ATOM      6  C4  OXE d   1      -2.776  -0.396   2.584  0.00  0.00    -0.002 A 
ATOM      7  C5  OXE d   1      -3.650  -1.475   2.410  0.00  0.00    -0.002 A 
ATOM      8  C6  OXE d   1      -4.548  -1.793   3.423  0.00  0.00     0.003 A 
ENDROOT
TORSDOF 0
ENDMDL
