MODEL 1
REMARK minimizedAffinity 3.33883238
REMARK minimizedRMSD -1
REMARK  0 active torsions:
REMARK  status: ('A' for Active; 'I' for Inactive)
ROOT
ATOM      1  C2' OXE d   1      -5.996  -5.980   5.943  0.00  0.00     0.078 C 
ATOM      2  C1' OXE d   1      -5.998  -3.173   5.998  0.00  0.00     0.078 C 
ATOM      3  C1  OXE d   1      -5.985  -3.850   4.651  0.00  0.00    -0.078 A 
ATOM      4  C2  OXE d   1      -5.936  -5.223   4.633  0.00  0.00    -0.078 A 
ATOM      5  C3  OXE d   1      -5.978  -5.899   3.417  0.00  0.00     0.003 A 
ATOM      6  C4  OXE d   1      -5.913  -5.192   2.211  0.00  0.00    -0.002 A 
ATOM      7  C5  OXE d   1      -5.921  -3.793   2.206  0.00  0.00    -0.002 A 
ATOM      8  C6  OXE d   1      -6.000  -3.108   3.414  0.00  0.00     0.003 A 
ENDROOT
TORSDOF 0
ENDMDL
