MODEL 1
REMARK minimizedAffinity 6.57179737
REMARK minimizedRMSD -1
REMARK  0 active torsions:
REMARK  status: ('A' for Active; 'I' for Inactive)
ROOT
ATOM      1  C2' OXE d   1      -2.846  -4.051   0.048  0.00  0.00     0.078 C 
ATOM      2  C1' OXE d   1      -3.653  -1.480  -0.738  0.00  0.00     0.078 C 
ATOM      3  C1  OXE d   1      -2.548  -1.589   0.282  0.00  0.00    -0.078 A 
ATOM      4  C2  OXE d   1      -2.191  -2.850   0.696  0.00  0.00    -0.078 A 
ATOM      5  C3  OXE d   1      -1.140  -3.010   1.594  0.00  0.00     0.003 A 
ATOM      6  C4  OXE d   1      -0.546  -1.894   2.196  0.00  0.00    -0.002 A 
ATOM      7  C5  OXE d   1      -0.922  -0.600   1.818  0.00  0.00    -0.002 A 
ATOM      8  C6  OXE d   1      -1.889  -0.431   0.834  0.00  0.00     0.003 A 
ENDROOT
TORSDOF 0
ENDMDL
