MODEL 1
REMARK minimizedAffinity -0.0900080875
REMARK minimizedRMSD -1
REMARK  0 active torsions:
REMARK  status: ('A' for Active; 'I' for Inactive)
ROOT
ATOM      1  C2' OXE d   1      -1.482   0.005   4.499  0.00  0.00     0.078 C 
ATOM      2  C1' OXE d   1      -0.423  -1.658   2.501  0.00  0.00     0.078 C 
ATOM      3  C1  OXE d   1      -1.590  -0.775   2.135  0.00  0.00    -0.078 A 
ATOM      4  C2  OXE d   1      -2.131   0.001   3.132  0.00  0.00    -0.078 A 
ATOM      5  C3  OXE d   1      -3.173   0.875   2.835  0.00  0.00     0.003 A 
ATOM      6  C4  OXE d   1      -3.775   0.858   1.571  0.00  0.00    -0.002 A 
ATOM      7  C5  OXE d   1      -3.265   0.046   0.553  0.00  0.00    -0.002 A 
ATOM      8  C6  OXE d   1      -2.148  -0.743   0.806  0.00  0.00     0.003 A 
ENDROOT
TORSDOF 0
ENDMDL
