MODEL 1
REMARK minimizedAffinity 4.97186422
REMARK minimizedRMSD -1
REMARK  0 active torsions:
REMARK  status: ('A' for Active; 'I' for Inactive)
ROOT
ATOM      1  C2' OXE d   1      -5.989  -5.340   6.000  0.00  0.00     0.078 C 
ATOM      2  C1' OXE d   1      -5.957  -2.634   5.253  0.00  0.00     0.078 C 
ATOM      3  C1  OXE d   1      -5.949  -3.667   4.154  0.00  0.00    -0.078 A 
ATOM      4  C2  OXE d   1      -5.917  -4.988   4.529  0.00  0.00    -0.078 A 
ATOM      5  C3  OXE d   1      -5.964  -5.982   3.556  0.00  0.00     0.003 A 
ATOM      6  C4  OXE d   1      -5.887  -5.649   2.198  0.00  0.00    -0.002 A 
ATOM      7  C5  OXE d   1      -5.878  -4.309   1.795  0.00  0.00    -0.002 A 
ATOM      8  C6  OXE d   1      -5.952  -3.308   2.757  0.00  0.00     0.003 A 
ENDROOT
TORSDOF 0
ENDMDL
