MODEL 1
REMARK minimizedAffinity 9.2957201
REMARK minimizedRMSD -1
REMARK  0 active torsions:
REMARK  status: ('A' for Active; 'I' for Inactive)
ROOT
ATOM      1  C2' OXE d   1      -4.577   2.255   4.877  0.00  0.00     0.078 C 
ATOM      2  C1' OXE d   1      -2.777   0.417   5.999  0.00  0.00     0.078 C 
ATOM      3  C1  OXE d   1      -2.679   0.683   4.518  0.00  0.00    -0.078 A 
ATOM      4  C2  OXE d   1      -3.594   1.548   3.969  0.00  0.00    -0.078 A 
ATOM      5  C3  OXE d   1      -3.514   1.870   2.617  0.00  0.00     0.003 A 
ATOM      6  C4  OXE d   1      -2.609   1.204   1.782  0.00  0.00    -0.002 A 
ATOM      7  C5  OXE d   1      -1.694   0.289   2.314  0.00  0.00    -0.002 A 
ATOM      8  C6  OXE d   1      -1.688   0.049   3.684  0.00  0.00     0.003 A 
ENDROOT
TORSDOF 0
ENDMDL
