MODEL 1
REMARK minimizedAffinity -0.355985314
REMARK minimizedRMSD -1
REMARK  0 active torsions:
REMARK  status: ('A' for Active; 'I' for Inactive)
ROOT
ATOM      1  C2' OXE d   1      -5.338  -2.317   5.722  0.00  0.00     0.078 C 
ATOM      2  C1' OXE d   1      -4.914  -3.430   3.180  0.00  0.00     0.078 C 
ATOM      3  C1  OXE d   1      -4.181  -2.156   3.521  0.00  0.00    -0.078 A 
ATOM      4  C2  OXE d   1      -4.430  -1.594   4.750  0.00  0.00    -0.078 A 
ATOM      5  C3  OXE d   1      -3.739  -0.449   5.137  0.00  0.00     0.003 A 
ATOM      6  C4  OXE d   1      -2.910   0.219   4.228  0.00  0.00    -0.002 A 
ATOM      7  C5  OXE d   1      -2.673  -0.315   2.957  0.00  0.00    -0.002 A 
ATOM      8  C6  OXE d   1      -3.266  -1.522   2.605  0.00  0.00     0.003 A 
ENDROOT
TORSDOF 0
ENDMDL
