MODEL 1
REMARK minimizedAffinity 9.07699776
REMARK minimizedRMSD -1
REMARK  0 active torsions:
REMARK  status: ('A' for Active; 'I' for Inactive)
ROOT
ATOM      1  C2' OXE d   1      -4.402  -1.573   2.487  0.00  0.00     0.078 C 
ATOM      2  C1' OXE d   1      -5.017  -2.163   5.162  0.00  0.00     0.078 C 
ATOM      3  C1  OXE d   1      -5.231  -3.246   4.135  0.00  0.00    -0.078 A 
ATOM      4  C2  OXE d   1      -4.972  -2.934   2.822  0.00  0.00    -0.078 A 
ATOM      5  C3  OXE d   1      -5.100  -3.914   1.842  0.00  0.00     0.003 A 
ATOM      6  C4  OXE d   1      -5.638  -5.167   2.159  0.00  0.00    -0.002 A 
ATOM      7  C5  OXE d   1      -5.946  -5.493   3.484  0.00  0.00    -0.002 A 
ATOM      8  C6  OXE d   1      -5.709  -4.561   4.488  0.00  0.00     0.003 A 
ENDROOT
TORSDOF 0
ENDMDL
