MODEL 1
REMARK minimizedAffinity 8.09515476
REMARK minimizedRMSD -1
REMARK  0 active torsions:
REMARK  status: ('A' for Active; 'I' for Inactive)
ROOT
ATOM      1  C2' OXE d   1       1.504   2.162   0.192  0.00  0.00     0.078 C 
ATOM      2  C1' OXE d   1       0.057   4.321  -0.870  0.00  0.00     0.078 C 
ATOM      3  C1  OXE d   1       1.204   3.775  -1.683  0.00  0.00    -0.078 A 
ATOM      4  C2  OXE d   1       1.935   2.749  -1.135  0.00  0.00    -0.078 A 
ATOM      5  C3  OXE d   1       2.969   2.172  -1.867  0.00  0.00     0.003 A 
ATOM      6  C4  OXE d   1       3.368   2.726  -3.089  0.00  0.00    -0.002 A 
ATOM      7  C5  OXE d   1       2.662   3.797  -3.647  0.00  0.00    -0.002 A 
ATOM      8  C6  OXE d   1       1.553   4.304  -2.978  0.00  0.00     0.003 A 
ENDROOT
TORSDOF 0
ENDMDL
