MODEL 1
REMARK minimizedAffinity 2.37841368
REMARK minimizedRMSD -1
REMARK  0 active torsions:
REMARK  status: ('A' for Active; 'I' for Inactive)
ROOT
ATOM      1  C2' OXE d   1      -5.973  -2.687   5.416  0.00  0.00     0.078 C 
ATOM      2  C1' OXE d   1      -5.997  -5.436   5.984  0.00  0.00     0.078 C 
ATOM      3  C1  OXE d   1      -5.957  -5.018   4.535  0.00  0.00    -0.078 A 
ATOM      4  C2  OXE d   1      -5.993  -3.671   4.265  0.00  0.00    -0.078 A 
ATOM      5  C3  OXE d   1      -5.904  -3.229   2.949  0.00  0.00     0.003 A 
ATOM      6  C4  OXE d   1      -5.933  -4.145   1.890  0.00  0.00    -0.002 A 
ATOM      7  C5  OXE d   1      -5.936  -5.521   2.142  0.00  0.00    -0.002 A 
ATOM      8  C6  OXE d   1      -5.906  -5.973   3.456  0.00  0.00     0.003 A 
ENDROOT
TORSDOF 0
ENDMDL
