MODEL 1
REMARK minimizedAffinity 0.658873916
REMARK minimizedRMSD -1
REMARK  0 active torsions:
REMARK  status: ('A' for Active; 'I' for Inactive)
ROOT
ATOM      1  C2' OXE d   1      -2.782   0.834   3.240  0.00  0.00     0.078 C 
ATOM      2  C1' OXE d   1      -3.114  -1.089   1.223  0.00  0.00     0.078 C 
ATOM      3  C1  OXE d   1      -1.930  -1.235   2.146  0.00  0.00    -0.078 A 
ATOM      4  C2  OXE d   1      -1.750  -0.263   3.101  0.00  0.00    -0.078 A 
ATOM      5  C3  OXE d   1      -0.705  -0.379   4.014  0.00  0.00     0.003 A 
ATOM      6  C4  OXE d   1       0.251  -1.392   3.872  0.00  0.00    -0.002 A 
ATOM      7  C5  OXE d   1       0.108  -2.370   2.882  0.00  0.00    -0.002 A 
ATOM      8  C6  OXE d   1      -0.998  -2.330   2.039  0.00  0.00     0.003 A 
ENDROOT
TORSDOF 0
ENDMDL
