MODEL 1
REMARK minimizedAffinity 11.7816887
REMARK minimizedRMSD -1
REMARK  0 active torsions:
REMARK  status: ('A' for Active; 'I' for Inactive)
ROOT
ATOM      1  C2' OXE d   1       2.765   2.127  -2.776  0.00  0.00     0.078 C 
ATOM      2  C1' OXE d   1       1.411   4.331  -3.867  0.00  0.00     0.078 C 
ATOM      3  C1  OXE d   1       2.846   4.113  -4.277  0.00  0.00    -0.078 A 
ATOM      4  C2  OXE d   1       3.515   3.059  -3.703  0.00  0.00    -0.078 A 
ATOM      5  C3  OXE d   1       4.823   2.781  -4.087  0.00  0.00     0.003 A 
ATOM      6  C4  OXE d   1       5.513   3.654  -4.938  0.00  0.00    -0.002 A 
ATOM      7  C5  OXE d   1       4.862   4.756  -5.503  0.00  0.00    -0.002 A 
ATOM      8  C6  OXE d   1       3.519   4.975  -5.217  0.00  0.00     0.003 A 
ENDROOT
TORSDOF 0
ENDMDL
