MODEL 1
REMARK minimizedAffinity 10.9623337
REMARK minimizedRMSD -1
REMARK  0 active torsions:
REMARK  status: ('A' for Active; 'I' for Inactive)
ROOT
ATOM      1  C2' OXE d   1       1.168   2.848  -3.270  0.00  0.00     0.078 C 
ATOM      2  C1' OXE d   1       3.922   3.283  -3.592  0.00  0.00     0.078 C 
ATOM      3  C1  OXE d   1       3.466   2.538  -2.362  0.00  0.00    -0.078 A 
ATOM      4  C2  OXE d   1       2.113   2.370  -2.190  0.00  0.00    -0.078 A 
ATOM      5  C3  OXE d   1       1.642   1.643  -1.101  0.00  0.00     0.003 A 
ATOM      6  C4  OXE d   1       2.523   1.213  -0.101  0.00  0.00    -0.002 A 
ATOM      7  C5  OXE d   1       3.902   1.408  -0.237  0.00  0.00    -0.002 A 
ATOM      8  C6  OXE d   1       4.392   2.030  -1.380  0.00  0.00     0.003 A 
ENDROOT
TORSDOF 0
ENDMDL
