MODEL 1
REMARK minimizedAffinity 7.23139572
REMARK minimizedRMSD -1
REMARK  0 active torsions:
REMARK  status: ('A' for Active; 'I' for Inactive)
ROOT
ATOM      1  C2' OXE d   1       3.234   1.699  -1.731  0.00  0.00     0.078 C 
ATOM      2  C1' OXE d   1       1.634   1.798   0.574  0.00  0.00     0.078 C 
ATOM      3  C1  OXE d   1       2.970   2.498   0.614  0.00  0.00    -0.078 A 
ATOM      4  C2  OXE d   1       3.766   2.404  -0.502  0.00  0.00    -0.078 A 
ATOM      5  C3  OXE d   1       4.984   3.077  -0.538  0.00  0.00     0.003 A 
ATOM      6  C4  OXE d   1       5.474   3.718   0.606  0.00  0.00    -0.002 A 
ATOM      7  C5  OXE d   1       4.696   3.792   1.767  0.00  0.00    -0.002 A 
ATOM      8  C6  OXE d   1       3.427   3.224   1.773  0.00  0.00     0.003 A 
ENDROOT
TORSDOF 0
ENDMDL
