MODEL 1
REMARK minimizedAffinity 8.64202404
REMARK minimizedRMSD -1
REMARK  0 active torsions:
REMARK  status: ('A' for Active; 'I' for Inactive)
ROOT
ATOM      1  C2' OXE d   1      -5.897  -5.717   5.897  0.00  0.00     0.078 C 
ATOM      2  C1' OXE d   1      -4.160  -3.512   5.853  0.00  0.00     0.078 C 
ATOM      3  C1  OXE d   1      -4.425  -4.225   4.551  0.00  0.00    -0.078 A 
ATOM      4  C2  OXE d   1      -5.239  -5.331   4.590  0.00  0.00    -0.078 A 
ATOM      5  C3  OXE d   1      -5.560  -5.993   3.408  0.00  0.00     0.003 A 
ATOM      6  C4  OXE d   1      -4.939  -5.636   2.205  0.00  0.00    -0.002 A 
ATOM      7  C5  OXE d   1      -4.075  -4.537   2.150  0.00  0.00    -0.002 A 
ATOM      8  C6  OXE d   1      -3.841  -3.797   3.304  0.00  0.00     0.003 A 
ENDROOT
TORSDOF 0
ENDMDL
