MODEL 1
REMARK minimizedAffinity 18.1315098
REMARK minimizedRMSD -1
REMARK  0 active torsions:
REMARK  status: ('A' for Active; 'I' for Inactive)
ROOT
ATOM      1  C2' OXE d   1      -5.936  -5.800   5.998  0.00  0.00     0.078 C 
ATOM      2  C1' OXE d   1      -4.347  -3.486   5.994  0.00  0.00     0.078 C 
ATOM      3  C1  OXE d   1      -4.581  -4.181   4.676  0.00  0.00    -0.078 A 
ATOM      4  C2  OXE d   1      -5.321  -5.339   4.694  0.00  0.00    -0.078 A 
ATOM      5  C3  OXE d   1      -5.612  -5.990   3.499  0.00  0.00     0.003 A 
ATOM      6  C4  OXE d   1      -5.031  -5.563   2.299  0.00  0.00    -0.002 A 
ATOM      7  C5  OXE d   1      -4.241  -4.409   2.264  0.00  0.00    -0.002 A 
ATOM      8  C6  OXE d   1      -4.042  -3.684   3.434  0.00  0.00     0.003 A 
ENDROOT
TORSDOF 0
ENDMDL
