MODEL 1
REMARK minimizedAffinity 13.8136148
REMARK minimizedRMSD -1
REMARK  0 active torsions:
REMARK  status: ('A' for Active; 'I' for Inactive)
ROOT
ATOM      1  C2' OXE d   1      -4.013  -2.854   2.905  0.00  0.00     0.078 C 
ATOM      2  C1' OXE d   1      -5.213  -5.024   1.590  0.00  0.00     0.078 C 
ATOM      3  C1  OXE d   1      -5.302  -4.977   3.095  0.00  0.00    -0.078 A 
ATOM      4  C2  OXE d   1      -4.672  -3.936   3.733  0.00  0.00    -0.078 A 
ATOM      5  C3  OXE d   1      -4.769  -3.816   5.117  0.00  0.00     0.003 A 
ATOM      6  C4  OXE d   1      -5.372  -4.827   5.876  0.00  0.00    -0.002 A 
ATOM      7  C5  OXE d   1      -5.985  -5.916   5.248  0.00  0.00    -0.002 A 
ATOM      8  C6  OXE d   1      -5.996  -5.984   3.859  0.00  0.00     0.003 A 
ENDROOT
TORSDOF 0
ENDMDL
