MODEL 1
REMARK minimizedAffinity 10.8818426
REMARK minimizedRMSD -1
REMARK  0 active torsions:
REMARK  status: ('A' for Active; 'I' for Inactive)
ROOT
ATOM      1  C2' OXE d   1      -2.014  -3.272   0.960  0.00  0.00     0.078 C 
ATOM      2  C1' OXE d   1       0.091  -2.157   2.445  0.00  0.00     0.078 C 
ATOM      3  C1  OXE d   1      -1.164  -1.338   2.280  0.00  0.00    -0.078 A 
ATOM      4  C2  OXE d   1      -2.171  -1.872   1.512  0.00  0.00    -0.078 A 
ATOM      5  C3  OXE d   1      -3.372  -1.181   1.373  0.00  0.00     0.003 A 
ATOM      6  C4  OXE d   1      -3.505   0.118   1.879  0.00  0.00    -0.002 A 
ATOM      7  C5  OXE d   1      -2.477   0.696   2.631  0.00  0.00    -0.002 A 
ATOM      8  C6  OXE d   1      -1.318  -0.034   2.875  0.00  0.00     0.003 A 
ENDROOT
TORSDOF 0
ENDMDL
