MODEL 1
REMARK minimizedAffinity 17.744482
REMARK minimizedRMSD -1
REMARK  0 active torsions:
REMARK  status: ('A' for Active; 'I' for Inactive)
ROOT
ATOM      1  C   UNL d   1       0.097   2.250   0.990  0.00  0.00     0.124 A 
ATOM      2  C1  UNL d   1       0.459   0.919   0.832  0.00  0.00     0.062 A 
ATOM      3  C2  UNL d   1       0.568   0.371  -0.443  0.00  0.00     0.162 A 
ATOM      4  C3  UNL d   1       0.315   1.153  -1.570  0.00  0.00    -0.034 A 
ATOM      5  C4  UNL d   1      -0.049   2.490  -1.403  0.00  0.00     0.162 A 
ATOM      6  C5  UNL d   1      -0.157   3.034  -0.127  0.00  0.00     0.062 A 
ATOM      7  F   UNL d   1      -0.507   4.319   0.024  0.00  0.00    -0.097 F 
ATOM      8  F1  UNL d   1      -0.299   3.270  -2.465  0.00  0.00    -0.096 F 
ATOM      9  I   UNL d   1       0.477   0.336  -3.477  0.00  0.00    -0.060 I 
ATOM     10  F2  UNL d   1       0.919  -0.918  -0.566  0.00  0.00    -0.096 F 
ATOM     11  F3  UNL d   1       0.703   0.160   1.909  0.00  0.00    -0.097 F 
ATOM     12  F4  UNL d   1      -0.009   2.775   2.217  0.00  0.00    -0.092 F 
ENDROOT
TORSDOF 0
ENDMDL
