MODEL 1
REMARK minimizedAffinity 9.91928005
REMARK minimizedRMSD -1
REMARK  0 active torsions:
REMARK  status: ('A' for Active; 'I' for Inactive)
ROOT
ATOM      1  C   UNL d   1      -1.091   4.236   0.192  0.00  0.00     0.124 A 
ATOM      2  C1  UNL d   1      -1.385   2.986   0.719  0.00  0.00     0.062 A 
ATOM      3  C2  UNL d   1      -0.707   1.859   0.266  0.00  0.00     0.162 A 
ATOM      4  C3  UNL d   1       0.273   1.975  -0.721  0.00  0.00    -0.034 A 
ATOM      5  C4  UNL d   1       0.562   3.236  -1.247  0.00  0.00     0.162 A 
ATOM      6  C5  UNL d   1      -0.119   4.360  -0.791  0.00  0.00     0.062 A 
ATOM      7  F   UNL d   1       0.166   5.566  -1.302  0.00  0.00    -0.097 F 
ATOM      8  F1  UNL d   1       1.498   3.384  -2.197  0.00  0.00    -0.096 F 
ATOM      9  I   UNL d   1       1.289   0.291  -1.401  0.00  0.00    -0.060 I 
ATOM     10  F2  UNL d   1      -1.011   0.663   0.793  0.00  0.00    -0.096 F 
ATOM     11  F3  UNL d   1      -2.325   2.864   1.667  0.00  0.00    -0.097 F 
ATOM     12  F4  UNL d   1      -1.746   5.320   0.629  0.00  0.00    -0.092 F 
ENDROOT
TORSDOF 0
ENDMDL
