MODEL 1
REMARK minimizedAffinity 16.0323772
REMARK minimizedRMSD -1
REMARK  0 active torsions:
REMARK  status: ('A' for Active; 'I' for Inactive)
ROOT
ATOM      1  C   UNL d   1      -1.019   3.258   0.437  0.00  0.00     0.124 A 
ATOM      2  C1  UNL d   1       0.086   3.176  -0.398  0.00  0.00     0.062 A 
ATOM      3  C2  UNL d   1       0.227   2.099  -1.268  0.00  0.00     0.162 A 
ATOM      4  C3  UNL d   1      -0.740   1.094  -1.307  0.00  0.00    -0.034 A 
ATOM      5  C4  UNL d   1      -1.848   1.183  -0.462  0.00  0.00     0.162 A 
ATOM      6  C5  UNL d   1      -1.985   2.262   0.405  0.00  0.00     0.062 A 
ATOM      7  F   UNL d   1      -3.053   2.339   1.211  0.00  0.00    -0.097 F 
ATOM      8  F1  UNL d   1      -2.796   0.234  -0.474  0.00  0.00    -0.096 F 
ATOM      9  I   UNL d   1      -0.531  -0.519  -2.605  0.00  0.00    -0.060 I 
ATOM     10  F2  UNL d   1       1.305   2.045  -2.064  0.00  0.00    -0.096 F 
ATOM     11  F3  UNL d   1       1.020   4.137  -0.368  0.00  0.00    -0.097 F 
ATOM     12  F4  UNL d   1      -1.153   4.296   1.274  0.00  0.00    -0.092 F 
ENDROOT
TORSDOF 0
ENDMDL
