MODEL 1
REMARK minimizedAffinity 4.8821125
REMARK minimizedRMSD -1
REMARK  0 active torsions:
REMARK  status: ('A' for Active; 'I' for Inactive)
ROOT
ATOM      1  C   UNL d   1      -1.559   3.048   0.690  0.00  0.00     0.124 A 
ATOM      2  C1  UNL d   1      -0.657   2.987  -0.364  0.00  0.00     0.062 A 
ATOM      3  C2  UNL d   1       0.315   1.991  -0.396  0.00  0.00     0.162 A 
ATOM      4  C3  UNL d   1       0.390   1.047   0.628  0.00  0.00    -0.034 A 
ATOM      5  C4  UNL d   1      -0.520   1.115   1.684  0.00  0.00     0.162 A 
ATOM      6  C5  UNL d   1      -1.489   2.112   1.713  0.00  0.00     0.062 A 
ATOM      7  F   UNL d   1      -2.359   2.169   2.731  0.00  0.00    -0.097 F 
ATOM      8  F1  UNL d   1      -0.476   0.223   2.685  0.00  0.00    -0.096 F 
ATOM      9  I   UNL d   1       1.842  -0.444   0.582  0.00  0.00    -0.060 I 
ATOM     10  F2  UNL d   1       1.173   1.956  -1.427  0.00  0.00    -0.096 F 
ATOM     11  F3  UNL d   1      -0.721   3.890  -1.352  0.00  0.00    -0.097 F 
ATOM     12  F4  UNL d   1      -2.492   4.007   0.720  0.00  0.00    -0.092 F 
ENDROOT
TORSDOF 0
ENDMDL
