MODEL 1
REMARK minimizedAffinity 11.0678558
REMARK minimizedRMSD -1
REMARK  0 active torsions:
REMARK  status: ('A' for Active; 'I' for Inactive)
ROOT
ATOM      1  C   UNL d   1      -0.213   2.605  -0.246  0.00  0.00     0.124 A 
ATOM      2  C1  UNL d   1      -1.149   2.718   0.773  0.00  0.00     0.062 A 
ATOM      3  C2  UNL d   1      -1.317   1.682   1.686  0.00  0.00     0.162 A 
ATOM      4  C3  UNL d   1      -0.547   0.523   1.586  0.00  0.00    -0.034 A 
ATOM      5  C4  UNL d   1       0.391   0.416   0.558  0.00  0.00     0.162 A 
ATOM      6  C5  UNL d   1       0.556   1.455  -0.353  0.00  0.00     0.062 A 
ATOM      7  F   UNL d   1       1.460   1.344  -1.337  0.00  0.00    -0.097 F 
ATOM      8  F1  UNL d   1       1.148  -0.684   0.433  0.00  0.00    -0.096 F 
ATOM      9  I   UNL d   1      -0.796  -1.028   2.951  0.00  0.00    -0.060 I 
ATOM     10  F2  UNL d   1      -2.229   1.819   2.661  0.00  0.00    -0.096 F 
ATOM     11  F3  UNL d   1      -1.893   3.829   0.877  0.00  0.00    -0.097 F 
ATOM     12  F4  UNL d   1      -0.054   3.603  -1.125  0.00  0.00    -0.092 F 
ENDROOT
TORSDOF 0
ENDMDL
