MODEL 1
REMARK minimizedAffinity 13.0085087
REMARK minimizedRMSD -1
REMARK  0 active torsions:
REMARK  status: ('A' for Active; 'I' for Inactive)
ROOT
ATOM      1  C   UNL d   1      -0.888   3.068   0.276  0.00  0.00     0.124 A 
ATOM      2  C1  UNL d   1      -0.987   2.074   1.239  0.00  0.00     0.062 A 
ATOM      3  C2  UNL d   1      -0.335   0.858   1.061  0.00  0.00     0.162 A 
ATOM      4  C3  UNL d   1       0.424   0.628  -0.087  0.00  0.00    -0.034 A 
ATOM      5  C4  UNL d   1       0.519   1.632  -1.053  0.00  0.00     0.162 A 
ATOM      6  C5  UNL d   1      -0.135   2.846  -0.869  0.00  0.00     0.062 A 
ATOM      7  F   UNL d   1      -0.038   3.805  -1.801  0.00  0.00    -0.097 F 
ATOM      8  F1  UNL d   1       1.240   1.445  -2.168  0.00  0.00    -0.096 F 
ATOM      9  I   UNL d   1       1.401  -1.189  -0.358  0.00  0.00    -0.060 I 
ATOM     10  F2  UNL d   1      -0.448  -0.084   2.008  0.00  0.00    -0.096 F 
ATOM     11  F3  UNL d   1      -1.714   2.286   2.346  0.00  0.00    -0.097 F 
ATOM     12  F4  UNL d   1      -1.517   4.237   0.450  0.00  0.00    -0.092 F 
ENDROOT
TORSDOF 0
ENDMDL
