MODEL 1
REMARK minimizedAffinity 8.73278618
REMARK minimizedRMSD -1
REMARK  0 active torsions:
REMARK  status: ('A' for Active; 'I' for Inactive)
ROOT
ATOM      1  C   UNL d   1      -0.394  -2.338   2.983  0.00  0.00     0.124 A 
ATOM      2  C1  UNL d   1       0.616  -1.958   2.111  0.00  0.00     0.062 A 
ATOM      3  C2  UNL d   1       0.624  -0.679   1.563  0.00  0.00     0.162 A 
ATOM      4  C3  UNL d   1      -0.383   0.231   1.886  0.00  0.00    -0.034 A 
ATOM      5  C4  UNL d   1      -1.397  -0.159   2.763  0.00  0.00     0.162 A 
ATOM      6  C5  UNL d   1      -1.400  -1.438   3.308  0.00  0.00     0.062 A 
ATOM      7  F   UNL d   1      -2.377  -1.804   4.150  0.00  0.00    -0.097 F 
ATOM      8  F1  UNL d   1      -2.380   0.691   3.095  0.00  0.00    -0.096 F 
ATOM      9  I   UNL d   1      -0.375   2.145   1.069  0.00  0.00    -0.060 I 
ATOM     10  F2  UNL d   1       1.613  -0.338   0.724  0.00  0.00    -0.096 F 
ATOM     11  F3  UNL d   1       1.588  -2.826   1.794  0.00  0.00    -0.097 F 
ATOM     12  F4  UNL d   1      -0.400  -3.570   3.508  0.00  0.00    -0.092 F 
ENDROOT
TORSDOF 0
ENDMDL
