MODEL 1
REMARK minimizedAffinity 10.010973
REMARK minimizedRMSD -1
REMARK  0 active torsions:
REMARK  status: ('A' for Active; 'I' for Inactive)
ROOT
ATOM      1  C   UNL d   1      -0.621   0.313  -2.608  0.00  0.00     0.124 A 
ATOM      2  C1  UNL d   1      -1.661   0.624  -3.472  0.00  0.00     0.062 A 
ATOM      3  C2  UNL d   1      -2.051   1.948  -3.652  0.00  0.00     0.162 A 
ATOM      4  C3  UNL d   1      -1.398   2.972  -2.966  0.00  0.00    -0.034 A 
ATOM      5  C4  UNL d   1      -0.353   2.652  -2.097  0.00  0.00     0.162 A 
ATOM      6  C5  UNL d   1       0.032   1.327  -1.921  0.00  0.00     0.062 A 
ATOM      7  F   UNL d   1       1.037   1.029  -1.086  0.00  0.00    -0.097 F 
ATOM      8  F1  UNL d   1       0.295   3.613  -1.422  0.00  0.00    -0.096 F 
ATOM      9  I   UNL d   1      -1.978   4.954  -3.232  0.00  0.00    -0.060 I 
ATOM     10  F2  UNL d   1      -3.059   2.219  -4.494  0.00  0.00    -0.096 F 
ATOM     11  F3  UNL d   1      -2.294  -0.355  -4.136  0.00  0.00    -0.097 F 
ATOM     12  F4  UNL d   1      -0.249  -0.962  -2.436  0.00  0.00    -0.092 F 
ENDROOT
TORSDOF 0
ENDMDL
