MODEL 1
REMARK minimizedAffinity 14.2643394
REMARK minimizedRMSD -1
REMARK  0 active torsions:
REMARK  status: ('A' for Active; 'I' for Inactive)
ROOT
ATOM      1  C   UNL d   1      -0.284   0.696  -3.244  0.00  0.00     0.124 A 
ATOM      2  C1  UNL d   1       0.233   1.704  -2.442  0.00  0.00     0.062 A 
ATOM      3  C2  UNL d   1      -0.333   1.968  -1.198  0.00  0.00     0.162 A 
ATOM      4  C3  UNL d   1      -1.421   1.220  -0.747  0.00  0.00    -0.034 A 
ATOM      5  C4  UNL d   1      -1.935   0.209  -1.560  0.00  0.00     0.162 A 
ATOM      6  C5  UNL d   1      -1.367  -0.051  -2.802  0.00  0.00     0.062 A 
ATOM      7  F   UNL d   1      -1.867  -1.025  -3.576  0.00  0.00    -0.097 F 
ATOM      8  F1  UNL d   1      -2.981  -0.529  -1.157  0.00  0.00    -0.096 F 
ATOM      9  I   UNL d   1      -2.269   1.611   1.113  0.00  0.00    -0.060 I 
ATOM     10  F2  UNL d   1       0.187   2.948  -0.444  0.00  0.00    -0.096 F 
ATOM     11  F3  UNL d   1       1.279   2.427  -2.867  0.00  0.00    -0.097 F 
ATOM     12  F4  UNL d   1       0.262   0.445  -4.441  0.00  0.00    -0.092 F 
ENDROOT
TORSDOF 0
ENDMDL
