MODEL 1
REMARK minimizedAffinity 15.3972206
REMARK minimizedRMSD -1
REMARK  0 active torsions:
REMARK  status: ('A' for Active; 'I' for Inactive)
ROOT
ATOM      1  C   UNL d   1      -1.105   1.709  -0.384  0.00  0.00     0.124 A 
ATOM      2  C1  UNL d   1      -1.631   0.692  -1.169  0.00  0.00     0.062 A 
ATOM      3  C2  UNL d   1      -1.059   0.393  -2.402  0.00  0.00     0.162 A 
ATOM      4  C3  UNL d   1       0.046   1.111  -2.859  0.00  0.00    -0.034 A 
ATOM      5  C4  UNL d   1       0.568   2.133  -2.065  0.00  0.00     0.162 A 
ATOM      6  C5  UNL d   1      -0.006   2.428  -0.833  0.00  0.00     0.062 A 
ATOM      7  F   UNL d   1       0.503   3.411  -0.076  0.00  0.00    -0.097 F 
ATOM      8  F1  UNL d   1       1.630   2.844  -2.473  0.00  0.00    -0.096 F 
ATOM      9  I   UNL d   1       0.903   0.667  -4.703  0.00  0.00    -0.060 I 
ATOM     10  F2  UNL d   1      -1.588  -0.595  -3.140  0.00  0.00    -0.096 F 
ATOM     11  F3  UNL d   1      -2.693  -0.005  -0.738  0.00  0.00    -0.097 F 
ATOM     12  F4  UNL d   1      -1.657   1.995   0.802  0.00  0.00    -0.092 F 
ENDROOT
TORSDOF 0
ENDMDL
