MODEL 1
REMARK minimizedAffinity 8.66204357
REMARK minimizedRMSD -1
REMARK  0 active torsions:
REMARK  status: ('A' for Active; 'I' for Inactive)
ROOT
ATOM      1  C   UNL d   1       0.326   4.255   0.337  0.00  0.00     0.124 A 
ATOM      2  C1  UNL d   1      -0.206   3.275  -0.488  0.00  0.00     0.062 A 
ATOM      3  C2  UNL d   1      -0.797   2.142   0.062  0.00  0.00     0.162 A 
ATOM      4  C3  UNL d   1      -0.861   1.983   1.447  0.00  0.00    -0.034 A 
ATOM      5  C4  UNL d   1      -0.323   2.974   2.270  0.00  0.00     0.162 A 
ATOM      6  C5  UNL d   1       0.267   4.104   1.715  0.00  0.00     0.062 A 
ATOM      7  F   UNL d   1       0.781   5.051   2.514  0.00  0.00    -0.097 F 
ATOM      8  F1  UNL d   1      -0.368   2.853   3.606  0.00  0.00    -0.096 F 
ATOM      9  I   UNL d   1      -1.745   0.290   2.274  0.00  0.00    -0.060 I 
ATOM     10  F2  UNL d   1      -1.303   1.210  -0.759  0.00  0.00    -0.096 F 
ATOM     11  F3  UNL d   1      -0.149   3.418  -1.820  0.00  0.00    -0.097 F 
ATOM     12  F4  UNL d   1       0.896   5.344  -0.195  0.00  0.00    -0.092 F 
ENDROOT
TORSDOF 0
ENDMDL
