MODEL 1
REMARK minimizedAffinity 11.1928606
REMARK minimizedRMSD -1
REMARK  0 active torsions:
REMARK  status: ('A' for Active; 'I' for Inactive)
ROOT
ATOM      1  C   UNL d   1      -0.163   2.075   1.259  0.00  0.00     0.124 A 
ATOM      2  C1  UNL d   1      -0.300   3.076   0.308  0.00  0.00     0.062 A 
ATOM      3  C2  UNL d   1       0.044   2.833  -1.019  0.00  0.00     0.162 A 
ATOM      4  C3  UNL d   1       0.527   1.582  -1.402  0.00  0.00    -0.034 A 
ATOM      5  C4  UNL d   1       0.662   0.580  -0.440  0.00  0.00     0.162 A 
ATOM      6  C5  UNL d   1       0.318   0.828   0.885  0.00  0.00     0.062 A 
ATOM      7  F   UNL d   1       0.450  -0.140   1.803  0.00  0.00    -0.097 F 
ATOM      8  F1  UNL d   1       1.124  -0.634  -0.775  0.00  0.00    -0.096 F 
ATOM      9  I   UNL d   1       1.041   1.215  -3.385  0.00  0.00    -0.060 I 
ATOM     10  F2  UNL d   1      -0.099   3.819  -1.917  0.00  0.00    -0.096 F 
ATOM     11  F3  UNL d   1      -0.763   4.282   0.668  0.00  0.00    -0.097 F 
ATOM     12  F4  UNL d   1      -0.494   2.312   2.535  0.00  0.00    -0.092 F 
ENDROOT
TORSDOF 0
ENDMDL
