MODEL 1
REMARK minimizedAffinity -0.310850918
REMARK minimizedRMSD -1
REMARK  0 active torsions:
REMARK  status: ('A' for Active; 'I' for Inactive)
ROOT
ATOM      1  O1  BZF d   1       5.465  -4.618  -3.169  0.00  0.00    -0.204 OA
ATOM      2  C2  BZF d   1       4.894  -4.081  -4.307  0.00  0.00     0.174 A 
ATOM      3  C3  BZF d   1       3.712  -3.499  -4.020  0.00  0.00    -0.012 A 
ATOM      4  C3A BZF d   1       3.576  -3.603  -2.600  0.00  0.00    -0.107 A 
ATOM      5  C4  BZF d   1       2.618  -3.194  -1.716  0.00  0.00     0.055 A 
ATOM      6  C5  BZF d   1       2.752  -3.515  -0.402  0.00  0.00    -0.016 A 
ATOM      7  C6  BZF d   1       3.826  -4.247   0.061  0.00  0.00     0.022 A 
ATOM      8  C7  BZF d   1       4.804  -4.669  -0.777  0.00  0.00     0.029 A 
ATOM      9  C7A BZF d   1       4.688  -4.318  -2.100  0.00  0.00     0.058 A 
ENDROOT
TORSDOF 0
ENDMDL
