MODEL 1
REMARK minimizedAffinity -0.174055189
REMARK minimizedRMSD -1
REMARK  0 active torsions:
REMARK  status: ('A' for Active; 'I' for Inactive)
ROOT
ATOM      1  O1  BZF d   1       4.658  -4.724  -0.580  0.00  0.00    -0.204 OA
ATOM      2  C2  BZF d   1       4.023  -4.072   0.459  0.00  0.00     0.174 A 
ATOM      3  C3  BZF d   1       3.015  -3.304  -0.002  0.00  0.00    -0.012 A 
ATOM      4  C3A BZF d   1       2.960  -3.560  -1.409  0.00  0.00    -0.107 A 
ATOM      5  C4  BZF d   1       2.156  -3.106  -2.415  0.00  0.00     0.055 A 
ATOM      6  C5  BZF d   1       2.413  -3.495  -3.692  0.00  0.00    -0.016 A 
ATOM      7  C6  BZF d   1       3.466  -4.332  -3.998  0.00  0.00     0.022 A 
ATOM      8  C7  BZF d   1       4.287  -4.812  -3.033  0.00  0.00     0.029 A 
ATOM      9  C7A BZF d   1       4.011  -4.447  -1.738  0.00  0.00     0.058 A 
ENDROOT
TORSDOF 0
ENDMDL
