MODEL 1
REMARK minimizedAffinity -4.47041512
REMARK minimizedRMSD -1
REMARK  0 active torsions:
REMARK  status: ('A' for Active; 'I' for Inactive)
ROOT
ATOM      1  O1  BZF d   1       3.113  -4.045  -3.823  0.00  0.00    -0.204 OA
ATOM      2  C2  BZF d   1       3.629  -5.264  -3.425  0.00  0.00     0.174 A 
ATOM      3  C3  BZF d   1       3.928  -5.251  -2.110  0.00  0.00    -0.012 A 
ATOM      4  C3A BZF d   1       3.491  -3.973  -1.638  0.00  0.00    -0.107 A 
ATOM      5  C4  BZF d   1       3.501  -3.372  -0.411  0.00  0.00     0.055 A 
ATOM      6  C5  BZF d   1       3.067  -2.089  -0.301  0.00  0.00    -0.016 A 
ATOM      7  C6  BZF d   1       2.621  -1.377  -1.395  0.00  0.00     0.022 A 
ATOM      8  C7  BZF d   1       2.588  -1.932  -2.631  0.00  0.00     0.029 A 
ATOM      9  C7A BZF d   1       2.995  -3.239  -2.740  0.00  0.00     0.058 A 
ENDROOT
TORSDOF 0
ENDMDL
