MODEL 1
REMARK minimizedAffinity -2.41247296
REMARK minimizedRMSD -1
REMARK  0 active torsions:
REMARK  status: ('A' for Active; 'I' for Inactive)
ROOT
ATOM      1  O1  BZF d   1       3.087  -2.820  -0.255  0.00  0.00    -0.204 OA
ATOM      2  C2  BZF d   1       2.163  -1.828  -0.519  0.00  0.00     0.174 A 
ATOM      3  C3  BZF d   1       1.905  -1.754  -1.840  0.00  0.00    -0.012 A 
ATOM      4  C3A BZF d   1       2.649  -2.824  -2.430  0.00  0.00    -0.107 A 
ATOM      5  C4  BZF d   1       2.789  -3.276  -3.711  0.00  0.00     0.055 A 
ATOM      6  C5  BZF d   1       3.649  -4.298  -3.960  0.00  0.00    -0.016 A 
ATOM      7  C6  BZF d   1       4.389  -4.887  -2.955  0.00  0.00     0.022 A 
ATOM      8  C7  BZF d   1       4.280  -4.476  -1.668  0.00  0.00     0.029 A 
ATOM      9  C7A BZF d   1       3.387  -3.465  -1.408  0.00  0.00     0.058 A 
ENDROOT
TORSDOF 0
ENDMDL
