MODEL 1
REMARK minimizedAffinity 3.42415023
REMARK minimizedRMSD -1
REMARK  0 active torsions:
REMARK  status: ('A' for Active; 'I' for Inactive)
ROOT
ATOM      1  O1  BZF d   1       2.739  -0.775  -3.037  0.00  0.00    -0.204 OA
ATOM      2  C2  BZF d   1       2.364  -0.115  -1.882  0.00  0.00     0.174 A 
ATOM      3  C3  BZF d   1       2.308  -0.969  -0.840  0.00  0.00    -0.012 A 
ATOM      4  C3A BZF d   1       2.760  -2.224  -1.357  0.00  0.00    -0.107 A 
ATOM      5  C4  BZF d   1       2.942  -3.458  -0.801  0.00  0.00     0.055 A 
ATOM      6  C5  BZF d   1       3.325  -4.491  -1.597  0.00  0.00    -0.016 A 
ATOM      7  C6  BZF d   1       3.530  -4.327  -2.951  0.00  0.00     0.022 A 
ATOM      8  C7  BZF d   1       3.367  -3.121  -3.547  0.00  0.00     0.029 A 
ATOM      9  C7A BZF d   1       3.012  -2.068  -2.740  0.00  0.00     0.058 A 
ENDROOT
TORSDOF 0
ENDMDL
