MODEL 1
REMARK minimizedAffinity 6.32554913
REMARK minimizedRMSD -1
REMARK  0 active torsions:
REMARK  status: ('A' for Active; 'I' for Inactive)
ROOT
ATOM      1  O1  BZF d   1       5.354  -4.092  -0.516  0.00  0.00    -0.204 OA
ATOM      2  C2  BZF d   1       4.350  -3.724   0.359  0.00  0.00     0.174 A 
ATOM      3  C3  BZF d   1       3.222  -3.412  -0.312  0.00  0.00    -0.012 A 
ATOM      4  C3A BZF d   1       3.514  -3.684  -1.686  0.00  0.00    -0.107 A 
ATOM      5  C4  BZF d   1       2.786  -3.587  -2.837  0.00  0.00     0.055 A 
ATOM      6  C5  BZF d   1       3.389  -3.860  -4.024  0.00  0.00    -0.016 A 
ATOM      7  C6  BZF d   1       4.716  -4.227  -4.097  0.00  0.00     0.022 A 
ATOM      8  C7  BZF d   1       5.477  -4.342  -2.982  0.00  0.00     0.029 A 
ATOM      9  C7A BZF d   1       4.863  -4.099  -1.778  0.00  0.00     0.058 A 
ENDROOT
TORSDOF 0
ENDMDL
