MODEL 1
REMARK minimizedAffinity -2.17847133
REMARK minimizedRMSD -1
REMARK  0 active torsions:
REMARK  status: ('A' for Active; 'I' for Inactive)
ROOT
ATOM      1  O1  BZF d   1       3.395  -3.479  -0.146  0.00  0.00    -0.204 OA
ATOM      2  C2  BZF d   1       4.106  -4.661  -0.060  0.00  0.00     0.174 A 
ATOM      3  C3  BZF d   1       4.299  -5.193  -1.284  0.00  0.00    -0.012 A 
ATOM      4  C3A BZF d   1       3.749  -4.241  -2.199  0.00  0.00    -0.107 A 
ATOM      5  C4  BZF d   1       3.652  -4.195  -3.561  0.00  0.00     0.055 A 
ATOM      6  C5  BZF d   1       2.991  -3.159  -4.141  0.00  0.00    -0.016 A 
ATOM      7  C6  BZF d   1       2.412  -2.156  -3.392  0.00  0.00     0.022 A 
ATOM      8  C7  BZF d   1       2.486  -2.156  -2.039  0.00  0.00     0.029 A 
ATOM      9  C7A BZF d   1       3.181  -3.184  -1.451  0.00  0.00     0.058 A 
ENDROOT
TORSDOF 0
ENDMDL
