MODEL 1
REMARK minimizedAffinity 11.3893414
REMARK minimizedRMSD -1
REMARK  0 active torsions:
REMARK  status: ('A' for Active; 'I' for Inactive)
ROOT
ATOM      1  O1  BZF d   1       4.595  -4.940  -0.710  0.00  0.00    -0.204 OA
ATOM      2  C2  BZF d   1       4.119  -4.220   0.369  0.00  0.00     0.174 A 
ATOM      3  C3  BZF d   1       3.005  -3.538   0.034  0.00  0.00    -0.012 A 
ATOM      4  C3A BZF d   1       2.718  -3.923  -1.314  0.00  0.00    -0.107 A 
ATOM      5  C4  BZF d   1       1.727  -3.594  -2.194  0.00  0.00     0.055 A 
ATOM      6  C5  BZF d   1       1.777  -4.088  -3.459  0.00  0.00    -0.016 A 
ATOM      7  C6  BZF d   1       2.804  -4.908  -3.879  0.00  0.00     0.022 A 
ATOM      8  C7  BZF d   1       3.807  -5.266  -3.040  0.00  0.00     0.029 A 
ATOM      9  C7A BZF d   1       3.742  -4.795  -1.752  0.00  0.00     0.058 A 
ENDROOT
TORSDOF 0
ENDMDL
