MODEL 1
REMARK minimizedAffinity 2.57650328
REMARK minimizedRMSD -1
REMARK  0 active torsions:
REMARK  status: ('A' for Active; 'I' for Inactive)
ROOT
ATOM      1  O1  BZF d   1       2.506  -3.672  -3.456  0.00  0.00    -0.204 OA
ATOM      2  C2  BZF d   1       3.087  -4.462  -4.429  0.00  0.00     0.174 A 
ATOM      3  C3  BZF d   1       4.130  -5.153  -3.924  0.00  0.00    -0.012 A 
ATOM      4  C3A BZF d   1       4.147  -4.841  -2.528  0.00  0.00    -0.107 A 
ATOM      5  C4  BZF d   1       4.940  -5.233  -1.488  0.00  0.00     0.055 A 
ATOM      6  C5  BZF d   1       4.738  -4.687  -0.260  0.00  0.00    -0.016 A 
ATOM      7  C6  BZF d   1       3.756  -3.744  -0.038  0.00  0.00     0.022 A 
ATOM      8  C7  BZF d   1       2.940  -3.327  -1.037  0.00  0.00     0.029 A 
ATOM      9  C7A BZF d   1       3.121  -3.901  -2.271  0.00  0.00     0.058 A 
ENDROOT
TORSDOF 0
ENDMDL
