MODEL 1
REMARK minimizedAffinity 1.95596027
REMARK minimizedRMSD -1
REMARK  0 active torsions:
REMARK  status: ('A' for Active; 'I' for Inactive)
ROOT
ATOM      1  O1  BZF d   1       4.970  -4.601  -0.809  0.00  0.00    -0.204 OA
ATOM      2  C2  BZF d   1       4.087  -4.491   0.248  0.00  0.00     0.174 A 
ATOM      3  C3  BZF d   1       2.846  -4.204  -0.193  0.00  0.00    -0.012 A 
ATOM      4  C3A BZF d   1       2.940  -4.220  -1.620  0.00  0.00    -0.107 A 
ATOM      5  C4  BZF d   1       2.035  -4.022  -2.623  0.00  0.00     0.055 A 
ATOM      6  C5  BZF d   1       2.464  -4.034  -3.912  0.00  0.00    -0.016 A 
ATOM      7  C6  BZF d   1       3.790  -4.235  -4.234  0.00  0.00     0.022 A 
ATOM      8  C7  BZF d   1       4.725  -4.440  -3.274  0.00  0.00     0.029 A 
ATOM      9  C7A BZF d   1       4.288  -4.462  -1.972  0.00  0.00     0.058 A 
ENDROOT
TORSDOF 0
ENDMDL
