MODEL 1
REMARK minimizedAffinity 0.851904929
REMARK minimizedRMSD -1
REMARK  0 active torsions:
REMARK  status: ('A' for Active; 'I' for Inactive)
ROOT
ATOM      1  O1  BZF d   1      -2.545  -3.747   1.452  0.00  0.00    -0.204 OA
ATOM      2  C2  BZF d   1      -2.281  -3.487   2.782  0.00  0.00     0.174 A 
ATOM      3  C3  BZF d   1      -1.034  -2.996   2.935  0.00  0.00    -0.012 A 
ATOM      4  C3A BZF d   1      -0.517  -2.860   1.608  0.00  0.00    -0.107 A 
ATOM      5  C4  BZF d   1       0.669  -2.409   1.104  0.00  0.00     0.055 A 
ATOM      6  C5  BZF d   1       0.885  -2.476  -0.236  0.00  0.00    -0.016 A 
ATOM      7  C6  BZF d   1      -0.059  -2.992  -1.099  0.00  0.00     0.022 A 
ATOM      8  C7  BZF d   1      -1.253  -3.446  -0.646  0.00  0.00     0.029 A 
ATOM      9  C7A BZF d   1      -1.487  -3.350   0.704  0.00  0.00     0.058 A 
ENDROOT
TORSDOF 0
ENDMDL
