MODEL 1
REMARK minimizedAffinity 0.72694695
REMARK minimizedRMSD -1
REMARK  0 active torsions:
REMARK  status: ('A' for Active; 'I' for Inactive)
ROOT
ATOM      1  O1  BZF d   1      -2.928   0.803   3.805  0.00  0.00    -0.204 OA
ATOM      2  C2  BZF d   1      -2.827   2.056   4.378  0.00  0.00     0.174 A 
ATOM      3  C3  BZF d   1      -1.877   2.070   5.335  0.00  0.00    -0.012 A 
ATOM      4  C3A BZF d   1      -1.287   0.767   5.298  0.00  0.00    -0.107 A 
ATOM      5  C4  BZF d   1      -0.277   0.173   6.000  0.00  0.00     0.055 A 
ATOM      6  C5  BZF d   1       0.005  -1.136   5.771  0.00  0.00    -0.016 A 
ATOM      7  C6  BZF d   1      -0.705  -1.883   4.854  0.00  0.00     0.022 A 
ATOM      8  C7  BZF d   1      -1.712  -1.336   4.130  0.00  0.00     0.029 A 
ATOM      9  C7A BZF d   1      -1.978  -0.004   4.334  0.00  0.00     0.058 A 
ENDROOT
TORSDOF 0
ENDMDL
