MODEL 1
REMARK minimizedAffinity 9.48847866
REMARK minimizedRMSD -1
REMARK  0 active torsions:
REMARK  status: ('A' for Active; 'I' for Inactive)
ROOT
ATOM      1  O1  BZF d   1      -1.543  -5.743  -2.725  0.00  0.00    -0.204 OA
ATOM      2  C2  BZF d   1      -1.461  -5.137  -1.486  0.00  0.00     0.174 A 
ATOM      3  C3  BZF d   1      -1.956  -3.883  -1.533  0.00  0.00    -0.012 A 
ATOM      4  C3A BZF d   1      -2.458  -3.727  -2.864  0.00  0.00    -0.107 A 
ATOM      5  C4  BZF d   1      -3.083  -2.703  -3.517  0.00  0.00     0.055 A 
ATOM      6  C5  BZF d   1      -3.378  -2.844  -4.836  0.00  0.00    -0.016 A 
ATOM      7  C6  BZF d   1      -3.059  -3.991  -5.533  0.00  0.00     0.022 A 
ATOM      8  C7  BZF d   1      -2.444  -5.035  -4.927  0.00  0.00     0.029 A 
ATOM      9  C7A BZF d   1      -2.173  -4.909  -3.586  0.00  0.00     0.058 A 
ENDROOT
TORSDOF 0
ENDMDL
