MODEL 1
REMARK minimizedAffinity 8.64343929
REMARK minimizedRMSD -1
REMARK  0 active torsions:
REMARK  status: ('A' for Active; 'I' for Inactive)
ROOT
ATOM      1  O1  BZF d   1       1.692   3.689  -2.992  0.00  0.00    -0.204 OA
ATOM      2  C2  BZF d   1       1.490   2.339  -2.777  0.00  0.00     0.174 A 
ATOM      3  C3  BZF d   1       1.409   2.072  -1.458  0.00  0.00    -0.012 A 
ATOM      4  C3A BZF d   1       1.478   3.346  -0.811  0.00  0.00    -0.107 A 
ATOM      5  C4  BZF d   1       1.434   3.739   0.496  0.00  0.00     0.055 A 
ATOM      6  C5  BZF d   1       1.603   5.053   0.797  0.00  0.00    -0.016 A 
ATOM      7  C6  BZF d   1       1.822   6.000  -0.182  0.00  0.00     0.022 A 
ATOM      8  C7  BZF d   1       1.868   5.659  -1.493  0.00  0.00     0.029 A 
ATOM      9  C7A BZF d   1       1.666   4.336  -1.803  0.00  0.00     0.058 A 
ENDROOT
TORSDOF 0
ENDMDL
