MODEL 1
REMARK minimizedAffinity 0.329120189
REMARK minimizedRMSD -1
REMARK  0 active torsions:
REMARK  status: ('A' for Active; 'I' for Inactive)
ROOT
ATOM      1  O1  BZF d   1      -4.420  -1.314   2.406  0.00  0.00    -0.204 OA
ATOM      2  C2  BZF d   1      -4.855  -0.003   2.374  0.00  0.00     0.174 A 
ATOM      3  C3  BZF d   1      -3.948   0.816   2.944  0.00  0.00    -0.012 A 
ATOM      4  C3A BZF d   1      -2.838  -0.025   3.277  0.00  0.00    -0.107 A 
ATOM      5  C4  BZF d   1      -1.623   0.210   3.854  0.00  0.00     0.055 A 
ATOM      6  C5  BZF d   1      -0.798  -0.840   4.105  0.00  0.00    -0.016 A 
ATOM      7  C6  BZF d   1      -1.158  -2.136   3.798  0.00  0.00     0.022 A 
ATOM      8  C7  BZF d   1      -2.351  -2.418   3.220  0.00  0.00     0.029 A 
ATOM      9  C7A BZF d   1      -3.173  -1.355   2.934  0.00  0.00     0.058 A 
ENDROOT
TORSDOF 0
ENDMDL
