MODEL 1
REMARK minimizedAffinity 2.05348587
REMARK minimizedRMSD -1
REMARK  0 active torsions:
REMARK  status: ('A' for Active; 'I' for Inactive)
ROOT
ATOM      1  O1  BZF d   1       2.212   3.016  -2.854  0.00  0.00    -0.204 OA
ATOM      2  C2  BZF d   1       1.911   1.697  -2.574  0.00  0.00     0.174 A 
ATOM      3  C3  BZF d   1       1.553   1.552  -1.281  0.00  0.00    -0.012 A 
ATOM      4  C3A BZF d   1       1.546   2.877  -0.742  0.00  0.00    -0.107 A 
ATOM      5  C4  BZF d   1       1.255   3.388   0.491  0.00  0.00     0.055 A 
ATOM      6  C5  BZF d   1       1.417   4.719   0.709  0.00  0.00    -0.016 A 
ATOM      7  C6  BZF d   1       1.871   5.567  -0.279  0.00  0.00     0.022 A 
ATOM      8  C7  BZF d   1       2.168   5.108  -1.520  0.00  0.00     0.029 A 
ATOM      9  C7A BZF d   1       1.974   3.769  -1.753  0.00  0.00     0.058 A 
ENDROOT
TORSDOF 0
ENDMDL
