MODEL 1
REMARK minimizedAffinity 4.17855549
REMARK minimizedRMSD -1
REMARK  0 active torsions:
REMARK  status: ('A' for Active; 'I' for Inactive)
ROOT
ATOM      1  O1  BZF d   1       2.658  -0.164  -0.453  0.00  0.00    -0.204 OA
ATOM      2  C2  BZF d   1       2.315   0.109  -1.763  0.00  0.00     0.174 A 
ATOM      3  C3  BZF d   1       1.842   1.367  -1.881  0.00  0.00    -0.012 A 
ATOM      4  C3A BZF d   1       1.978   1.944  -0.579  0.00  0.00    -0.107 A 
ATOM      5  C4  BZF d   1       1.694   3.176  -0.064  0.00  0.00     0.055 A 
ATOM      6  C5  BZF d   1       1.877   3.395   1.265  0.00  0.00    -0.016 A 
ATOM      7  C6  BZF d   1       2.336   2.404   2.107  0.00  0.00     0.022 A 
ATOM      8  C7  BZF d   1       2.636   1.167   1.641  0.00  0.00     0.029 A 
ATOM      9  C7A BZF d   1       2.484   0.953   0.293  0.00  0.00     0.058 A 
ENDROOT
TORSDOF 0
ENDMDL
