MODEL 1
REMARK minimizedAffinity 2.37525845
REMARK minimizedRMSD -1
REMARK  0 active torsions:
REMARK  status: ('A' for Active; 'I' for Inactive)
ROOT
ATOM      1  O1  BZF d   1       0.745   5.647  -1.777  0.00  0.00    -0.204 OA
ATOM      2  C2  BZF d   1       1.635   5.873  -0.744  0.00  0.00     0.174 A 
ATOM      3  C3  BZF d   1       2.288   4.738  -0.419  0.00  0.00    -0.012 A 
ATOM      4  C3A BZF d   1       1.840   3.762  -1.365  0.00  0.00    -0.107 A 
ATOM      5  C4  BZF d   1       2.140   2.445  -1.568  0.00  0.00     0.055 A 
ATOM      6  C5  BZF d   1       1.473   1.757  -2.532  0.00  0.00    -0.016 A 
ATOM      7  C6  BZF d   1       0.499   2.352  -3.306  0.00  0.00     0.022 A 
ATOM      8  C7  BZF d   1       0.171   3.657  -3.145  0.00  0.00     0.029 A 
ATOM      9  C7A BZF d   1       0.866   4.364  -2.194  0.00  0.00     0.058 A 
ENDROOT
TORSDOF 0
ENDMDL
