MODEL 1
REMARK minimizedAffinity 12.4986763
REMARK minimizedRMSD -1
REMARK  0 active torsions:
REMARK  status: ('A' for Active; 'I' for Inactive)
ROOT
ATOM      1  O1  BZF d   1      -0.909  -5.597  -2.604  0.00  0.00    -0.204 OA
ATOM      2  C2  BZF d   1      -1.297  -5.208  -1.337  0.00  0.00     0.174 A 
ATOM      3  C3  BZF d   1      -1.846  -3.977  -1.361  0.00  0.00    -0.012 A 
ATOM      4  C3A BZF d   1      -1.882  -3.608  -2.743  0.00  0.00    -0.107 A 
ATOM      5  C4  BZF d   1      -2.331  -2.503  -3.409  0.00  0.00     0.055 A 
ATOM      6  C5  BZF d   1      -2.152  -2.425  -4.754  0.00  0.00    -0.016 A 
ATOM      7  C6  BZF d   1      -1.526  -3.429  -5.463  0.00  0.00     0.022 A 
ATOM      8  C7  BZF d   1      -1.069  -4.546  -4.847  0.00  0.00     0.029 A 
ATOM      9  C7A BZF d   1      -1.277  -4.643  -3.493  0.00  0.00     0.058 A 
ENDROOT
TORSDOF 0
ENDMDL
