MODEL 1
REMARK minimizedAffinity 2.30471992
REMARK minimizedRMSD -1
REMARK  1 active torsions:
REMARK  status: ('A' for Active; 'I' for Inactive)
REMARK    1  A    between atoms: C3_4  and  O_7 
ROOT
ATOM      1  C   UNL d   1      -1.106   2.039  -0.704  0.00  0.00    -0.033 A 
ATOM      2  C1  UNL d   1       0.249   1.764  -0.899  0.00  0.00     0.039 A 
ATOM      3  C2  UNL d   1       1.153   1.917   0.154  0.00  0.00    -0.080 A 
ATOM      4  C3  UNL d   1       0.690   2.342   1.396  0.00  0.00     0.150 A 
ATOM      5  C4  UNL d   1      -0.659   2.613   1.599  0.00  0.00    -0.007 A 
ATOM      6  C5  UNL d   1      -1.560   2.462   0.546  0.00  0.00     0.039 A 
ENDROOT
BRANCH   4   7
ATOM      7  O   UNL d   1       1.535   2.510   2.452  0.00  0.00    -0.526 OA
ATOM      8  H5  UNL d   1       2.440   2.313   2.157  0.00  0.00     0.418 HD
ENDBRANCH   4   7
TORSDOF 1
ENDMDL
