MODEL 1
REMARK minimizedAffinity 10.6654043
REMARK minimizedRMSD -1
REMARK  1 active torsions:
REMARK  status: ('A' for Active; 'I' for Inactive)
REMARK    1  A    between atoms: C3_4  and  O_7 
ROOT
ATOM      1  C   UNL d   1      -4.833   0.920   3.453  0.00  0.00    -0.033 A 
ATOM      2  C1  UNL d   1      -5.596  -0.069   2.830  0.00  0.00     0.039 A 
ATOM      3  C2  UNL d   1      -5.999  -1.197   3.547  0.00  0.00    -0.080 A 
ATOM      4  C3  UNL d   1      -5.634  -1.323   4.884  0.00  0.00     0.150 A 
ATOM      5  C4  UNL d   1      -4.877  -0.339   5.512  0.00  0.00    -0.007 A 
ATOM      6  C5  UNL d   1      -4.475   0.786   4.794  0.00  0.00     0.039 A 
ENDROOT
BRANCH   4   7
ATOM      7  O   UNL d   1      -6.000  -2.409   5.624  0.00  0.00    -0.526 OA
ATOM      8  H5  UNL d   1      -6.494  -3.019   5.051  0.00  0.00     0.418 HD
ENDBRANCH   4   7
TORSDOF 1
ENDMDL
