MODEL 1
REMARK minimizedAffinity 6.47486258
REMARK minimizedRMSD -1
REMARK  1 active torsions:
REMARK  status: ('A' for Active; 'I' for Inactive)
REMARK    1  A    between atoms: C3_4  and  O_7 
ROOT
ATOM      1  C   UNL d   1       1.114   1.681  -2.189  0.00  0.00    -0.033 A 
ATOM      2  C1  UNL d   1       1.790   0.781  -3.015  0.00  0.00     0.039 A 
ATOM      3  C2  UNL d   1       2.740  -0.088  -2.474  0.00  0.00    -0.080 A 
ATOM      4  C3  UNL d   1       3.003  -0.048  -1.108  0.00  0.00     0.150 A 
ATOM      5  C4  UNL d   1       2.331   0.844  -0.278  0.00  0.00    -0.007 A 
ATOM      6  C5  UNL d   1       1.383   1.711  -0.820  0.00  0.00     0.039 A 
ENDROOT
BRANCH   4   7
ATOM      7  O   UNL d   1       3.925  -0.873  -0.535  0.00  0.00    -0.526 OA
ATOM      8  H5  UNL d   1       4.330  -1.414  -1.233  0.00  0.00     0.418 HD
ENDBRANCH   4   7
TORSDOF 1
ENDMDL
