MODEL 1
REMARK minimizedAffinity 0.126772612
REMARK minimizedRMSD -1
REMARK  1 active torsions:
REMARK  status: ('A' for Active; 'I' for Inactive)
REMARK    1  A    between atoms: C3_4  and  O_7 
ROOT
ATOM      1  C   UNL d   1       1.842  -2.689  -0.298  0.00  0.00    -0.033 A 
ATOM      2  C1  UNL d   1       0.800  -2.229  -1.105  0.00  0.00     0.039 A 
ATOM      3  C2  UNL d   1       0.974  -1.086  -1.888  0.00  0.00    -0.080 A 
ATOM      4  C3  UNL d   1       2.192  -0.414  -1.855  0.00  0.00     0.150 A 
ATOM      5  C4  UNL d   1       3.236  -0.869  -1.056  0.00  0.00    -0.007 A 
ATOM      6  C5  UNL d   1       3.061  -2.010  -0.275  0.00  0.00     0.039 A 
ENDROOT
BRANCH   4   7
ATOM      7  O   UNL d   1       2.407   0.709  -2.598  0.00  0.00    -0.526 OA
ATOM      8  H5  UNL d   1       1.590   0.921  -3.078  0.00  0.00     0.418 HD
ENDBRANCH   4   7
TORSDOF 1
ENDMDL
