MODEL 1
REMARK minimizedAffinity 2.43060088
REMARK minimizedRMSD -1
REMARK  1 active torsions:
REMARK  status: ('A' for Active; 'I' for Inactive)
REMARK    1  A    between atoms: C3_4  and  O_7 
ROOT
ATOM      1  C   UNL d   1       3.080  -0.482  -2.556  0.00  0.00    -0.033 A 
ATOM      2  C1  UNL d   1       4.210  -0.715  -1.771  0.00  0.00     0.039 A 
ATOM      3  C2  UNL d   1       4.271  -1.841  -0.948  0.00  0.00    -0.080 A 
ATOM      4  C3  UNL d   1       3.196  -2.726  -0.921  0.00  0.00     0.150 A 
ATOM      5  C4  UNL d   1       2.069  -2.502  -1.703  0.00  0.00    -0.007 A 
ATOM      6  C5  UNL d   1       2.009  -1.376  -2.524  0.00  0.00     0.039 A 
ENDROOT
BRANCH   4   7
ATOM      7  O   UNL d   1       3.208  -3.836  -0.130  0.00  0.00    -0.526 OA
ATOM      8  H5  UNL d   1       4.038  -3.845   0.376  0.00  0.00     0.418 HD
ENDBRANCH   4   7
TORSDOF 1
ENDMDL
