MODEL 1
REMARK minimizedAffinity -1.87949836
REMARK minimizedRMSD -1
REMARK  1 active torsions:
REMARK  status: ('A' for Active; 'I' for Inactive)
REMARK    1  A    between atoms: C3_4  and  O_7 
ROOT
ATOM      1  C   UNL d   1      -0.452   3.134  -1.143  0.00  0.00    -0.033 A 
ATOM      2  C1  UNL d   1      -0.684   4.019  -0.088  0.00  0.00     0.039 A 
ATOM      3  C2  UNL d   1      -0.162   3.750   1.178  0.00  0.00    -0.080 A 
ATOM      4  C3  UNL d   1       0.589   2.595   1.377  0.00  0.00     0.150 A 
ATOM      5  C4  UNL d   1       0.827   1.711   0.330  0.00  0.00    -0.007 A 
ATOM      6  C5  UNL d   1       0.305   1.981  -0.934  0.00  0.00     0.039 A 
ENDROOT
BRANCH   4   7
ATOM      7  O   UNL d   1       1.115   2.288   2.597  0.00  0.00    -0.526 OA
ATOM      8  H5  UNL d   1       0.845   2.974   3.230  0.00  0.00     0.418 HD
ENDBRANCH   4   7
TORSDOF 1
ENDMDL
