MODEL 1
REMARK minimizedAffinity 5.21681309
REMARK minimizedRMSD -1
REMARK  1 active torsions:
REMARK  status: ('A' for Active; 'I' for Inactive)
REMARK    1  A    between atoms: C3_4  and  O_7 
ROOT
ATOM      1  C   UNL d   1       5.954   5.370  -1.224  0.00  0.00    -0.033 A 
ATOM      2  C1  UNL d   1       5.987   5.973  -2.483  0.00  0.00     0.039 A 
ATOM      3  C2  UNL d   1       4.839   5.995  -3.278  0.00  0.00    -0.080 A 
ATOM      4  C3  UNL d   1       3.667   5.413  -2.803  0.00  0.00     0.150 A 
ATOM      5  C4  UNL d   1       3.627   4.814  -1.548  0.00  0.00    -0.007 A 
ATOM      6  C5  UNL d   1       4.774   4.792  -0.756  0.00  0.00     0.039 A 
ENDROOT
BRANCH   4   7
ATOM      7  O   UNL d   1       2.523   5.406  -3.545  0.00  0.00    -0.526 OA
ATOM      8  H5  UNL d   1       2.708   5.830  -4.399  0.00  0.00     0.418 HD
ENDBRANCH   4   7
TORSDOF 1
ENDMDL
