MODEL 1
REMARK minimizedAffinity -0.0462013595
REMARK minimizedRMSD -1
REMARK  1 active torsions:
REMARK  status: ('A' for Active; 'I' for Inactive)
REMARK    1  A    between atoms: C3_4  and  O_7 
ROOT
ATOM      1  C   UNL d   1       0.167   1.485  -1.288  0.00  0.00    -0.033 A 
ATOM      2  C1  UNL d   1      -0.953   1.886  -0.557  0.00  0.00     0.039 A 
ATOM      3  C2  UNL d   1      -0.810   2.309   0.766  0.00  0.00    -0.080 A 
ATOM      4  C3  UNL d   1       0.456   2.328   1.345  0.00  0.00     0.150 A 
ATOM      5  C4  UNL d   1       1.576   1.934   0.621  0.00  0.00    -0.007 A 
ATOM      6  C5  UNL d   1       1.432   1.510  -0.699  0.00  0.00     0.039 A 
ENDROOT
BRANCH   4   7
ATOM      7  O   UNL d   1       0.644   2.728   2.634  0.00  0.00    -0.526 OA
ATOM      8  H5  UNL d   1      -0.222   2.944   3.019  0.00  0.00     0.418 HD
ENDBRANCH   4   7
TORSDOF 1
ENDMDL
