MODEL 1
REMARK minimizedAffinity -1.15013707
REMARK minimizedRMSD -1
REMARK  1 active torsions:
REMARK  status: ('A' for Active; 'I' for Inactive)
REMARK    1  A    between atoms: C3_4  and  O_7 
ROOT
ATOM      1  C   UNL d   1       3.754  -1.035  -1.345  0.00  0.00    -0.033 A 
ATOM      2  C1  UNL d   1       2.558  -1.396  -1.970  0.00  0.00     0.039 A 
ATOM      3  C2  UNL d   1       1.668  -0.410  -2.401  0.00  0.00    -0.080 A 
ATOM      4  C3  UNL d   1       1.986   0.931  -2.203  0.00  0.00     0.150 A 
ATOM      5  C4  UNL d   1       3.177   1.298  -1.585  0.00  0.00    -0.007 A 
ATOM      6  C5  UNL d   1       4.064   0.312  -1.155  0.00  0.00     0.039 A 
ENDROOT
BRANCH   4   7
ATOM      7  O   UNL d   1       1.146   1.928  -2.602  0.00  0.00    -0.526 OA
ATOM      8  H5  UNL d   1       0.350   1.525  -2.986  0.00  0.00     0.418 HD
ENDBRANCH   4   7
TORSDOF 1
ENDMDL
