MODEL 1
REMARK minimizedAffinity 8.42850304
REMARK minimizedRMSD -1
REMARK  1 active torsions:
REMARK  status: ('A' for Active; 'I' for Inactive)
REMARK    1  A    between atoms: C3_4  and  O_7 
ROOT
ATOM      1  C   UNL d   1       2.510  -0.768  -1.925  0.00  0.00    -0.033 A 
ATOM      2  C1  UNL d   1       2.998   0.536  -2.034  0.00  0.00     0.039 A 
ATOM      3  C2  UNL d   1       2.113   1.616  -2.038  0.00  0.00    -0.080 A 
ATOM      4  C3  UNL d   1       0.745   1.379  -1.931  0.00  0.00     0.150 A 
ATOM      5  C4  UNL d   1       0.253   0.083  -1.818  0.00  0.00    -0.007 A 
ATOM      6  C5  UNL d   1       1.138  -0.994  -1.816  0.00  0.00     0.039 A 
ENDROOT
BRANCH   4   7
ATOM      7  O   UNL d   1      -0.157   2.401  -1.934  0.00  0.00    -0.526 OA
ATOM      8  H5  UNL d   1       0.325   3.237  -2.047  0.00  0.00     0.418 HD
ENDBRANCH   4   7
TORSDOF 1
ENDMDL
