MODEL 1
REMARK minimizedAffinity 0.955418289
REMARK minimizedRMSD -1
REMARK  1 active torsions:
REMARK  status: ('A' for Active; 'I' for Inactive)
REMARK    1  A    between atoms: N_2  and  C1_3 
ROOT
ATOM      1  C1  UNL d   1       1.690   1.114   0.908  0.00  0.00     0.143 A 
ATOM      2  C2  UNL d   1       0.545   0.518   0.370  0.00  0.00    -0.057 A 
ATOM      3  C3  UNL d   1       0.047  -0.689   0.877  0.00  0.00     0.033 A 
ATOM      4  C4  UNL d   1       0.707  -1.338   1.915  0.00  0.00    -0.042 A 
ATOM      5  C5  UNL d   1       1.861  -0.777   2.449  0.00  0.00     0.033 A 
ATOM      6  C6  UNL d   1       2.349   0.431   1.943  0.00  0.00    -0.057 A 
ENDROOT
BRANCH   1   7
ATOM      7  N   UNL d   1       2.290   2.261   0.384  0.00  0.00    -0.732 N 
ATOM      8  C   UNL d   1       1.856   2.805  -0.885  0.00  0.00     0.284 C 
ATOM      9  H3  UNL d   1       2.473   2.964   1.096  0.00  0.00     0.395 HD
ENDBRANCH   1   7
TORSDOF 1
ENDMDL
