MODEL 1
REMARK minimizedAffinity -0.679001272
REMARK minimizedRMSD -1
REMARK  1 active torsions:
REMARK  status: ('A' for Active; 'I' for Inactive)
REMARK    1  A    between atoms: N_2  and  C1_3 
ROOT
ATOM      1  C1  UNL d   1       3.551   5.934  -2.608  0.00  0.00     0.143 A 
ATOM      2  C2  UNL d   1       4.777   5.973  -1.934  0.00  0.00    -0.057 A 
ATOM      3  C3  UNL d   1       5.989   5.981  -2.634  0.00  0.00     0.033 A 
ATOM      4  C4  UNL d   1       5.998   5.921  -4.024  0.00  0.00    -0.042 A 
ATOM      5  C5  UNL d   1       4.792   5.857  -4.713  0.00  0.00     0.033 A 
ATOM      6  C6  UNL d   1       3.584   5.856  -4.009  0.00  0.00    -0.057 A 
ENDROOT
BRANCH   1   7
ATOM      7  N   UNL d   1       2.314   5.824  -1.967  0.00  0.00    -0.732 N 
ATOM      8  C   UNL d   1       1.866   4.552  -1.442  0.00  0.00     0.284 C 
ATOM      9  H3  UNL d   1       2.121   6.616  -1.358  0.00  0.00     0.395 HD
ENDBRANCH   1   7
TORSDOF 1
ENDMDL
