MODEL 1
REMARK minimizedAffinity 0.303929329
REMARK minimizedRMSD -1
REMARK  1 active torsions:
REMARK  status: ('A' for Active; 'I' for Inactive)
REMARK    1  A    between atoms: N_2  and  C1_3 
ROOT
ATOM      1  C1  UNL d   1       1.625  -0.617   2.715  0.00  0.00     0.143 A 
ATOM      2  C2  UNL d   1       1.402  -1.958   3.045  0.00  0.00    -0.057 A 
ATOM      3  C3  UNL d   1       0.590  -2.776   2.250  0.00  0.00     0.033 A 
ATOM      4  C4  UNL d   1      -0.040  -2.256   1.124  0.00  0.00    -0.042 A 
ATOM      5  C5  UNL d   1       0.146  -0.919   0.791  0.00  0.00     0.033 A 
ATOM      6  C6  UNL d   1       0.964  -0.110   1.585  0.00  0.00    -0.057 A 
ENDROOT
BRANCH   1   7
ATOM      7  N   UNL d   1       2.342   0.272   3.519  0.00  0.00    -0.732 N 
ATOM      8  C   UNL d   1       2.158   1.701   3.383  0.00  0.00     0.284 C 
ATOM      9  H3  UNL d   1       2.417  -0.048   4.482  0.00  0.00     0.395 HD
ENDBRANCH   1   7
TORSDOF 1
ENDMDL
