MODEL 1
REMARK minimizedAffinity 1.20716679
REMARK minimizedRMSD -1
REMARK  1 active torsions:
REMARK  status: ('A' for Active; 'I' for Inactive)
REMARK    1  A    between atoms: N_2  and  C1_3 
ROOT
ATOM      1  C1  UNL d   1       1.470  -1.855   3.009  0.00  0.00     0.143 A 
ATOM      2  C2  UNL d   1       0.684  -2.967   3.329  0.00  0.00    -0.057 A 
ATOM      3  C3  UNL d   1       1.222  -4.063   4.014  0.00  0.00     0.033 A 
ATOM      4  C4  UNL d   1       2.568  -4.079   4.365  0.00  0.00    -0.042 A 
ATOM      5  C5  UNL d   1       3.374  -2.995   4.035  0.00  0.00     0.033 A 
ATOM      6  C6  UNL d   1       2.829  -1.900   3.357  0.00  0.00    -0.057 A 
ENDROOT
BRANCH   1   7
ATOM      7  N   UNL d   1       1.017  -0.778   2.243  0.00  0.00    -0.732 N 
ATOM      8  C   UNL d   1       1.939  -0.010   1.433  0.00  0.00     0.284 C 
ATOM      9  H3  UNL d   1       0.127  -0.970   1.790  0.00  0.00     0.395 HD
ENDBRANCH   1   7
TORSDOF 1
ENDMDL
