MODEL 1
REMARK minimizedAffinity -2.18780518
REMARK minimizedRMSD -1
REMARK  1 active torsions:
REMARK  status: ('A' for Active; 'I' for Inactive)
REMARK    1  A    between atoms: C1_2  and  C2_3 
ROOT
ATOM      1  C2  UNL d   1      -3.621   1.170   3.582  0.00  0.00    -0.073 A 
ATOM      2  C3  UNL d   1      -3.344  -0.174   3.310  0.00  0.00    -0.002 A 
ATOM      3  C4  UNL d   1      -2.259  -0.521   2.503  0.00  0.00     0.004 A 
ATOM      4  C5  UNL d   1      -1.437   0.471   1.968  0.00  0.00    -0.004 A 
ATOM      5  C6  UNL d   1      -1.691   1.819   2.238  0.00  0.00    -0.075 A 
ATOM      6  C7  UNL d   1      -0.818   2.898   1.668  0.00  0.00     0.076 C 
ATOM      7  C8  UNL d   1      -2.784   2.159   3.047  0.00  0.00     0.001 A 
ENDROOT
BRANCH   1   8
ATOM      8  C1  UNL d   1      -4.788   1.549   4.458  0.00  0.00     0.053 C 
ATOM      9  C   UNL d   1      -4.405   2.588   5.499  0.00  0.00     0.018 C 
ENDBRANCH   1   8
TORSDOF 1
ENDMDL
