MODEL 1
REMARK minimizedAffinity -1.41292179
REMARK minimizedRMSD -1
REMARK  1 active torsions:
REMARK  status: ('A' for Active; 'I' for Inactive)
REMARK    1  A    between atoms: C1_2  and  C2_3 
ROOT
ATOM      1  C2  UNL d   1      -2.053   1.543   2.596  0.00  0.00    -0.073 A 
ATOM      2  C3  UNL d   1      -2.304   0.167   2.558  0.00  0.00    -0.002 A 
ATOM      3  C4  UNL d   1      -1.447  -0.687   1.862  0.00  0.00     0.004 A 
ATOM      4  C5  UNL d   1      -0.329  -0.175   1.204  0.00  0.00    -0.004 A 
ATOM      5  C6  UNL d   1      -0.055   1.196   1.239  0.00  0.00    -0.075 A 
ATOM      6  C7  UNL d   1       1.142   1.763   0.534  0.00  0.00     0.076 C 
ATOM      7  C8  UNL d   1      -0.922   2.047   1.938  0.00  0.00     0.001 A 
ENDROOT
BRANCH   1   8
ATOM      8  C1  UNL d   1      -2.972   2.468   3.351  0.00  0.00     0.053 C 
ATOM      9  C   UNL d   1      -4.012   1.706   4.157  0.00  0.00     0.018 C 
ENDBRANCH   1   8
TORSDOF 1
ENDMDL
