MODEL 1
REMARK minimizedAffinity -0.126276031
REMARK minimizedRMSD -1
REMARK  1 active torsions:
REMARK  status: ('A' for Active; 'I' for Inactive)
REMARK    1  A    between atoms: C1_2  and  C2_3 
ROOT
ATOM      1  C2  UNL d   1      -1.311   2.371   2.382  0.00  0.00    -0.073 A 
ATOM      2  C3  UNL d   1      -0.129   2.746   1.732  0.00  0.00    -0.002 A 
ATOM      3  C4  UNL d   1       0.766   1.776   1.280  0.00  0.00     0.004 A 
ATOM      4  C5  UNL d   1       0.486   0.422   1.465  0.00  0.00    -0.004 A 
ATOM      5  C6  UNL d   1      -0.695   0.026   2.101  0.00  0.00    -0.075 A 
ATOM      6  C7  UNL d   1      -1.010  -1.426   2.310  0.00  0.00     0.076 C 
ATOM      7  C8  UNL d   1      -1.587   1.007   2.555  0.00  0.00     0.001 A 
ENDROOT
BRANCH   1   8
ATOM      8  C1  UNL d   1      -2.283   3.415   2.866  0.00  0.00     0.053 C 
ATOM      9  C   UNL d   1      -3.433   2.802   3.650  0.00  0.00     0.018 C 
ENDBRANCH   1   8
TORSDOF 1
ENDMDL
