MODEL 1
REMARK minimizedAffinity -5.708354
REMARK minimizedRMSD -1
REMARK  1 active torsions:
REMARK  status: ('A' for Active; 'I' for Inactive)
REMARK    1  A    between atoms: C1_2  and  C2_3 
ROOT
ATOM      1  C2  UNL d   1      -1.061  -0.376   1.593  0.00  0.00    -0.073 A 
ATOM      2  C3  UNL d   1      -0.213   0.635   1.127  0.00  0.00    -0.002 A 
ATOM      3  C4  UNL d   1      -0.482   1.973   1.421  0.00  0.00     0.004 A 
ATOM      4  C5  UNL d   1      -1.595   2.312   2.190  0.00  0.00    -0.004 A 
ATOM      5  C6  UNL d   1      -2.448   1.315   2.675  0.00  0.00    -0.075 A 
ATOM      6  C7  UNL d   1      -3.651   1.664   3.501  0.00  0.00     0.076 C 
ATOM      7  C8  UNL d   1      -2.173  -0.025   2.373  0.00  0.00     0.001 A 
ENDROOT
BRANCH   1   8
ATOM      8  C1  UNL d   1      -0.771  -1.821   1.283  0.00  0.00     0.053 C 
ATOM      9  C   UNL d   1      -0.316  -2.588   2.515  0.00  0.00     0.018 C 
ENDBRANCH   1   8
TORSDOF 1
ENDMDL
