MODEL 1
REMARK minimizedAffinity 0.4946661
REMARK minimizedRMSD -1
REMARK  1 active torsions:
REMARK  status: ('A' for Active; 'I' for Inactive)
REMARK    1  A    between atoms: C1_2  and  C2_3 
ROOT
ATOM      1  C2  UNL d   1      -0.818  -0.850   2.806  0.00  0.00    -0.073 A 
ATOM      2  C3  UNL d   1      -1.811   0.128   2.677  0.00  0.00    -0.002 A 
ATOM      3  C4  UNL d   1      -1.592   1.254   1.882  0.00  0.00     0.004 A 
ATOM      4  C5  UNL d   1      -0.383   1.411   1.205  0.00  0.00    -0.004 A 
ATOM      5  C6  UNL d   1       0.617   0.439   1.313  0.00  0.00    -0.075 A 
ATOM      6  C7  UNL d   1       1.924   0.595   0.593  0.00  0.00     0.076 C 
ATOM      7  C8  UNL d   1       0.391  -0.687   2.115  0.00  0.00     0.001 A 
ENDROOT
BRANCH   1   8
ATOM      8  C1  UNL d   1      -1.053  -2.070   3.658  0.00  0.00     0.053 C 
ATOM      9  C   UNL d   1      -2.420  -2.048   4.323  0.00  0.00     0.018 C 
ENDBRANCH   1   8
TORSDOF 1
ENDMDL
