MODEL 1
REMARK minimizedAffinity -2.39399242
REMARK minimizedRMSD -1
REMARK  1 active torsions:
REMARK  status: ('A' for Active; 'I' for Inactive)
REMARK    1  A    between atoms: C1_2  and  C2_3 
ROOT
ATOM      1  C2  UNL d   1      -0.906   1.869   1.863  0.00  0.00    -0.073 A 
ATOM      2  C3  UNL d   1      -0.547   0.518   1.802  0.00  0.00    -0.002 A 
ATOM      3  C4  UNL d   1      -1.296  -0.442   2.483  0.00  0.00     0.004 A 
ATOM      4  C5  UNL d   1      -2.414  -0.063   3.225  0.00  0.00    -0.004 A 
ATOM      5  C6  UNL d   1      -2.796   1.280   3.289  0.00  0.00    -0.075 A 
ATOM      6  C7  UNL d   1      -3.995   1.705   4.085  0.00  0.00     0.076 C 
ATOM      7  C8  UNL d   1      -2.037   2.239   2.605  0.00  0.00     0.001 A 
ENDROOT
BRANCH   1   8
ATOM      8  C1  UNL d   1      -0.104   2.909   1.124  0.00  0.00     0.053 C 
ATOM      9  C   UNL d   1       0.550   2.342  -0.126  0.00  0.00     0.018 C 
ENDBRANCH   1   8
TORSDOF 1
ENDMDL
