MODEL 1
REMARK minimizedAffinity -2.01140475
REMARK minimizedRMSD -1
REMARK  1 active torsions:
REMARK  status: ('A' for Active; 'I' for Inactive)
REMARK    1  A    between atoms: C1_2  and  C2_3 
ROOT
ATOM      1  C2  UNL d   1      -0.994   0.947   1.914  0.00  0.00    -0.073 A 
ATOM      2  C3  UNL d   1      -1.161  -0.430   1.730  0.00  0.00    -0.002 A 
ATOM      3  C4  UNL d   1      -2.236  -1.095   2.321  0.00  0.00     0.004 A 
ATOM      4  C5  UNL d   1      -3.158  -0.390   3.094  0.00  0.00    -0.004 A 
ATOM      5  C6  UNL d   1      -3.016   0.989   3.279  0.00  0.00    -0.075 A 
ATOM      6  C7  UNL d   1      -3.998   1.762   4.110  0.00  0.00     0.076 C 
ATOM      7  C8  UNL d   1      -1.932   1.649   2.685  0.00  0.00     0.001 A 
ENDROOT
BRANCH   1   8
ATOM      8  C1  UNL d   1       0.161   1.671   1.272  0.00  0.00     0.053 C 
ATOM      9  C   UNL d   1       1.252   0.714   0.819  0.00  0.00     0.018 C 
ENDBRANCH   1   8
TORSDOF 1
ENDMDL
