MODEL 1
REMARK minimizedAffinity -2.2017417
REMARK minimizedRMSD -1
REMARK  1 active torsions:
REMARK  status: ('A' for Active; 'I' for Inactive)
REMARK    1  A    between atoms: C1_2  and  C2_3 
ROOT
ATOM      1  C2  UNL d   1      -1.450   1.771   2.296  0.00  0.00    -0.073 A 
ATOM      2  C3  UNL d   1      -0.234   2.404   2.015  0.00  0.00    -0.002 A 
ATOM      3  C4  UNL d   1       0.844   1.671   1.519  0.00  0.00     0.004 A 
ATOM      4  C5  UNL d   1       0.717   0.300   1.293  0.00  0.00    -0.004 A 
ATOM      5  C6  UNL d   1      -0.494  -0.348   1.556  0.00  0.00    -0.075 A 
ATOM      6  C7  UNL d   1      -0.647  -1.822   1.321  0.00  0.00     0.076 C 
ATOM      7  C8  UNL d   1      -1.572   0.395   2.056  0.00  0.00     0.001 A 
ENDROOT
BRANCH   1   8
ATOM      8  C1  UNL d   1      -2.620   2.560   2.825  0.00  0.00     0.053 C 
ATOM      9  C   UNL d   1      -3.590   1.688   3.606  0.00  0.00     0.018 C 
ENDBRANCH   1   8
TORSDOF 1
ENDMDL
