MODEL 1
REMARK minimizedAffinity 0.178477913
REMARK minimizedRMSD -1
REMARK  1 active torsions:
REMARK  status: ('A' for Active; 'I' for Inactive)
REMARK    1  A    between atoms: C1_2  and  C2_3 
ROOT
ATOM      1  C2  UNL d   1      -2.658   1.528   2.818  0.00  0.00    -0.073 A 
ATOM      2  C3  UNL d   1      -2.065   2.774   2.584  0.00  0.00    -0.002 A 
ATOM      3  C4  UNL d   1      -0.854   2.859   1.895  0.00  0.00     0.004 A 
ATOM      4  C5  UNL d   1      -0.229   1.703   1.428  0.00  0.00    -0.004 A 
ATOM      5  C6  UNL d   1      -0.812   0.450   1.642  0.00  0.00    -0.075 A 
ATOM      6  C7  UNL d   1      -0.151  -0.803   1.148  0.00  0.00     0.076 C 
ATOM      7  C8  UNL d   1      -2.026   0.372   2.337  0.00  0.00     0.001 A 
ENDROOT
BRANCH   1   8
ATOM      8  C1  UNL d   1      -3.968   1.431   3.556  0.00  0.00     0.053 C 
ATOM      9  C   UNL d   1      -4.161   2.583   4.530  0.00  0.00     0.018 C 
ENDBRANCH   1   8
TORSDOF 1
ENDMDL
