MODEL 1
REMARK minimizedAffinity 0.700641751
REMARK minimizedRMSD -1
REMARK  1 active torsions:
REMARK  status: ('A' for Active; 'I' for Inactive)
REMARK    1  A    between atoms: C1_2  and  C2_3 
ROOT
ATOM      1  C2  UNL d   1      -1.748  -0.202   2.554  0.00  0.00    -0.073 A 
ATOM      2  C3  UNL d   1      -2.553   0.648   3.322  0.00  0.00    -0.002 A 
ATOM      3  C4  UNL d   1      -2.359   2.029   3.282  0.00  0.00     0.004 A 
ATOM      4  C5  UNL d   1      -1.364   2.575   2.471  0.00  0.00    -0.004 A 
ATOM      5  C6  UNL d   1      -0.557   1.744   1.688  0.00  0.00    -0.075 A 
ATOM      6  C7  UNL d   1       0.519   2.316   0.812  0.00  0.00     0.076 C 
ATOM      7  C8  UNL d   1      -0.756   0.358   1.735  0.00  0.00     0.001 A 
ENDROOT
BRANCH   1   8
ATOM      8  C1  UNL d   1      -1.958  -1.693   2.589  0.00  0.00     0.053 C 
ATOM      9  C   UNL d   1      -2.995  -2.099   3.623  0.00  0.00     0.018 C 
ENDBRANCH   1   8
TORSDOF 1
ENDMDL
