MODEL 1
REMARK minimizedAffinity 2.10639715
REMARK minimizedRMSD -1
REMARK  1 active torsions:
REMARK  status: ('A' for Active; 'I' for Inactive)
REMARK    1  A    between atoms: C1_2  and  C2_3 
ROOT
ATOM      1  C2  UNL d   1      -3.742   2.177   4.189  0.00  0.00    -0.073 A 
ATOM      2  C3  UNL d   1      -4.034   0.812   4.087  0.00  0.00    -0.002 A 
ATOM      3  C4  UNL d   1      -3.251  -0.019   3.285  0.00  0.00     0.004 A 
ATOM      4  C5  UNL d   1      -2.165   0.503   2.583  0.00  0.00    -0.004 A 
ATOM      5  C6  UNL d   1      -1.850   1.862   2.681  0.00  0.00    -0.075 A 
ATOM      6  C7  UNL d   1      -0.686   2.440   1.930  0.00  0.00     0.076 C 
ATOM      7  C8  UNL d   1      -2.643   2.691   3.486  0.00  0.00     0.001 A 
ENDROOT
BRANCH   1   8
ATOM      8  C1  UNL d   1      -4.581   3.077   5.059  0.00  0.00     0.053 C 
ATOM      9  C   UNL d   1      -5.478   2.287   5.998  0.00  0.00     0.018 C 
ENDBRANCH   1   8
TORSDOF 1
ENDMDL
