MODEL 1
REMARK minimizedAffinity -4.62552118
REMARK minimizedRMSD -1
REMARK  2 active torsions:
REMARK  status: ('A' for Active; 'I' for Inactive)
REMARK    1  A    between atoms: C2'_3  and  C1'_4 
REMARK    2  A    between atoms: C1'_4  and  C1_5 
ROOT
ATOM      1  C1  I4B d   1      -0.267  -2.302  -2.085  0.00  0.00    -0.075 A 
ATOM      2  C2  I4B d   1      -0.325  -1.038  -2.617  0.00  0.00     0.003 A 
ATOM      3  C3  I4B d   1      -0.818  -0.840  -3.930  0.00  0.00     0.002 A 
ATOM      4  C4  I4B d   1      -1.192  -1.931  -4.687  0.00  0.00    -0.004 A 
ATOM      5  C5  I4B d   1      -1.154  -3.209  -4.138  0.00  0.00     0.002 A 
ATOM      6  C6  I4B d   1      -0.700  -3.395  -2.824  0.00  0.00     0.003 A 
ENDROOT
BRANCH   1   7
ATOM      7  C1' I4B d   1       0.290  -2.479  -0.708  0.00  0.00     0.060 C 
BRANCH   7   8
ATOM      8  C2' I4B d   1       1.231  -1.324  -0.433  0.00  0.00    -0.013 C 
ATOM      9  C4' I4B d   1       0.985  -0.733   0.930  0.00  0.00     0.013 C 
ATOM     10  C3' I4B d   1       2.637  -1.832  -0.557  0.00  0.00     0.013 C 
ENDBRANCH   7   8
ENDBRANCH   1   7
TORSDOF 2
ENDMDL
