MODEL 1
REMARK minimizedAffinity 4.48258305
REMARK minimizedRMSD -1
REMARK  2 active torsions:
REMARK  status: ('A' for Active; 'I' for Inactive)
REMARK    1  A    between atoms: C2'_3  and  C1'_4 
REMARK    2  A    between atoms: C1'_4  and  C1_5 
ROOT
ATOM      1  C1  I4B d   1      -2.114   0.798   1.644  0.00  0.00    -0.075 A 
ATOM      2  C2  I4B d   1      -3.170   0.023   1.234  0.00  0.00     0.003 A 
ATOM      3  C3  I4B d   1      -4.500   0.455   1.457  0.00  0.00     0.002 A 
ATOM      4  C4  I4B d   1      -4.727   1.636   2.133  0.00  0.00    -0.004 A 
ATOM      5  C5  I4B d   1      -3.655   2.431   2.528  0.00  0.00     0.002 A 
ATOM      6  C6  I4B d   1      -2.341   2.016   2.271  0.00  0.00     0.003 A 
ENDROOT
BRANCH   1   7
ATOM      7  C1' I4B d   1      -0.723   0.296   1.422  0.00  0.00     0.060 C 
BRANCH   7   8
ATOM      8  C2' I4B d   1      -0.119   1.086   0.279  0.00  0.00    -0.013 C 
ATOM      9  C4' I4B d   1       1.292   1.508   0.594  0.00  0.00     0.013 C 
ATOM     10  C3' I4B d   1      -0.165   0.229  -0.951  0.00  0.00     0.013 C 
ENDBRANCH   7   8
ENDBRANCH   1   7
TORSDOF 2
ENDMDL
