MODEL 1
REMARK minimizedAffinity -3.77521825
REMARK minimizedRMSD -1
REMARK  2 active torsions:
REMARK  status: ('A' for Active; 'I' for Inactive)
REMARK    1  A    between atoms: C2'_3  and  C1'_4 
REMARK    2  A    between atoms: C1'_4  and  C1_5 
ROOT
ATOM      1  C1  I4B d   1      -0.097  -0.144  -1.118  0.00  0.00    -0.075 A 
ATOM      2  C2  I4B d   1       0.374   0.954  -0.443  0.00  0.00     0.003 A 
ATOM      3  C3  I4B d   1       1.544   0.857   0.349  0.00  0.00     0.002 A 
ATOM      4  C4  I4B d   1       2.179  -0.362   0.475  0.00  0.00    -0.004 A 
ATOM      5  C5  I4B d   1       1.714  -1.469  -0.229  0.00  0.00     0.002 A 
ATOM      6  C6  I4B d   1       0.576  -1.356  -1.041  0.00  0.00     0.003 A 
ENDROOT
BRANCH   1   7
ATOM      7  C1' I4B d   1      -1.354  -0.013  -1.918  0.00  0.00     0.060 C 
BRANCH   7   8
ATOM      8  C2' I4B d   1      -0.971   0.060  -3.382  0.00  0.00    -0.013 C 
ATOM      9  C4' I4B d   1      -1.280  -1.232  -4.092  0.00  0.00     0.013 C 
ATOM     10  C3' I4B d   1      -1.713   1.207  -3.999  0.00  0.00     0.013 C 
ENDBRANCH   7   8
ENDBRANCH   1   7
TORSDOF 2
ENDMDL
