MODEL 1
REMARK minimizedAffinity 5.53032827
REMARK minimizedRMSD -1
REMARK  2 active torsions:
REMARK  status: ('A' for Active; 'I' for Inactive)
REMARK    1  A    between atoms: C2'_3  and  C1'_4 
REMARK    2  A    between atoms: C1'_4  and  C1_5 
ROOT
ATOM      1  C1  I4B d   1       2.133  -0.706  -0.463  0.00  0.00    -0.075 A 
ATOM      2  C2  I4B d   1       2.338   0.559   0.029  0.00  0.00     0.003 A 
ATOM      3  C3  I4B d   1       1.236   1.410   0.287  0.00  0.00     0.002 A 
ATOM      4  C4  I4B d   1      -0.041   0.977  -0.007  0.00  0.00    -0.004 A 
ATOM      5  C5  I4B d   1      -0.248  -0.314  -0.484  0.00  0.00     0.002 A 
ATOM      6  C6  I4B d   1       0.845  -1.165  -0.702  0.00  0.00     0.003 A 
ENDROOT
BRANCH   1   7
ATOM      7  C1' I4B d   1       3.322  -1.566  -0.754  0.00  0.00     0.060 C 
BRANCH   7   8
ATOM      8  C2' I4B d   1       3.584  -1.510  -2.245  0.00  0.00    -0.013 C 
ATOM      9  C4' I4B d   1       4.965  -0.983  -2.536  0.00  0.00     0.013 C 
ATOM     10  C3' I4B d   1       3.404  -2.891  -2.800  0.00  0.00     0.013 C 
ENDBRANCH   7   8
ENDBRANCH   1   7
TORSDOF 2
ENDMDL
