MODEL 1
REMARK minimizedAffinity -6.64626694
REMARK minimizedRMSD -1
REMARK  2 active torsions:
REMARK  status: ('A' for Active; 'I' for Inactive)
REMARK    1  A    between atoms: C2'_3  and  C1'_4 
REMARK    2  A    between atoms: C1'_4  and  C1_5 
ROOT
ATOM      1  C1  I4B d   1       0.525  -1.629  -1.311  0.00  0.00    -0.075 A 
ATOM      2  C2  I4B d   1       0.247  -0.353  -0.891  0.00  0.00     0.003 A 
ATOM      3  C3  I4B d   1       1.141   0.323  -0.025  0.00  0.00     0.002 A 
ATOM      4  C4  I4B d   1       2.267  -0.330   0.433  0.00  0.00    -0.004 A 
ATOM      5  C5  I4B d   1       2.559  -1.616  -0.012  0.00  0.00     0.002 A 
ATOM      6  C6  I4B d   1       1.688  -2.266  -0.900  0.00  0.00     0.003 A 
ENDROOT
BRANCH   1   7
ATOM      7  C1' I4B d   1      -0.458  -2.325  -2.199  0.00  0.00     0.060 C 
BRANCH   7   8
ATOM      8  C2' I4B d   1      -0.410  -1.660  -3.559  0.00  0.00    -0.013 C 
ATOM      9  C4' I4B d   1      -0.578  -2.667  -4.666  0.00  0.00     0.013 C 
ATOM     10  C3' I4B d   1      -1.491  -0.621  -3.605  0.00  0.00     0.013 C 
ENDBRANCH   7   8
ENDBRANCH   1   7
TORSDOF 2
ENDMDL
