MODEL 1
REMARK minimizedAffinity -2.11422729
REMARK minimizedRMSD -1
REMARK  2 active torsions:
REMARK  status: ('A' for Active; 'I' for Inactive)
REMARK    1  A    between atoms: C2'_3  and  C1'_4 
REMARK    2  A    between atoms: C1'_4  and  C1_5 
ROOT
ATOM      1  C1  I4B d   1      -0.712  -0.399  -1.198  0.00  0.00    -0.075 A 
ATOM      2  C2  I4B d   1       0.053  -1.504  -0.917  0.00  0.00     0.003 A 
ATOM      3  C3  I4B d   1       1.156  -1.401  -0.035  0.00  0.00     0.002 A 
ATOM      4  C4  I4B d   1       1.487  -0.172   0.499  0.00  0.00    -0.004 A 
ATOM      5  C5  I4B d   1       0.696   0.942   0.231  0.00  0.00     0.002 A 
ATOM      6  C6  I4B d   1      -0.418   0.825  -0.613  0.00  0.00     0.003 A 
ENDROOT
BRANCH   1   7
ATOM      7  C1' I4B d   1      -1.850  -0.537  -2.159  0.00  0.00     0.060 C 
BRANCH   7   8
ATOM      8  C2' I4B d   1      -1.275  -0.580  -3.560  0.00  0.00    -0.013 C 
ATOM      9  C4' I4B d   1      -1.453  -1.941  -4.181  0.00  0.00     0.013 C 
ATOM     10  C3' I4B d   1      -1.957   0.479  -4.374  0.00  0.00     0.013 C 
ENDBRANCH   7   8
ENDBRANCH   1   7
TORSDOF 2
ENDMDL
