MODEL 1
REMARK minimizedAffinity -3.71924257
REMARK minimizedRMSD -1
REMARK  0 active torsions:
REMARK  status: ('A' for Active; 'I' for Inactive)
ROOT
ATOM      1  C   UNL d   1      -1.239   0.856   1.802  0.00  0.00     0.023 A 
ATOM      2  C1  UNL d   1       0.155   0.831   1.768  0.00  0.00     0.003 A 
ATOM      3  C2  UNL d   1       0.820   0.451   0.601  0.00  0.00     0.048 A 
ATOM      4  C3  UNL d   1       0.085   0.100  -0.531  0.00  0.00     0.023 A 
ATOM      5  C4  UNL d   1      -1.310   0.125  -0.502  0.00  0.00     0.048 A 
ATOM      6  C5  UNL d   1      -1.971   0.504   0.668  0.00  0.00     0.003 A 
ATOM      7  I   UNL d   1       1.072  -0.465  -2.270  0.00  0.00    -0.146 I 
ENDROOT
TORSDOF 0
ENDMDL
