MODEL 1
REMARK minimizedAffinity -0.297320545
REMARK minimizedRMSD -1
REMARK  0 active torsions:
REMARK  status: ('A' for Active; 'I' for Inactive)
ROOT
ATOM      1  C   UNL d   1       0.562  -1.220  -0.677  0.00  0.00     0.023 A 
ATOM      2  C1  UNL d   1      -0.753  -0.773  -0.544  0.00  0.00     0.003 A 
ATOM      3  C2  UNL d   1      -1.125  -0.016   0.569  0.00  0.00     0.048 A 
ATOM      4  C3  UNL d   1      -0.177   0.292   1.544  0.00  0.00     0.023 A 
ATOM      5  C4  UNL d   1       1.140  -0.152   1.415  0.00  0.00     0.048 A 
ATOM      6  C5  UNL d   1       1.507  -0.909   0.301  0.00  0.00     0.003 A 
ATOM      7  I   UNL d   1      -0.729   1.418   3.201  0.00  0.00    -0.146 I 
ENDROOT
TORSDOF 0
ENDMDL
