MODEL 1
REMARK minimizedAffinity -3.3622241
REMARK minimizedRMSD -1
REMARK  0 active torsions:
REMARK  status: ('A' for Active; 'I' for Inactive)
ROOT
ATOM      1  C   UNL d   1       1.359   1.067   2.279  0.00  0.00     0.023 A 
ATOM      2  C1  UNL d   1       1.539   0.309   1.122  0.00  0.00     0.003 A 
ATOM      3  C2  UNL d   1       0.432  -0.121   0.388  0.00  0.00     0.048 A 
ATOM      4  C3  UNL d   1      -0.853   0.211   0.816  0.00  0.00     0.023 A 
ATOM      5  C4  UNL d   1      -1.038   0.971   1.973  0.00  0.00     0.048 A 
ATOM      6  C5  UNL d   1       0.072   1.398   2.704  0.00  0.00     0.003 A 
ATOM      7  I   UNL d   1      -2.502  -0.427  -0.275  0.00  0.00    -0.146 I 
ENDROOT
TORSDOF 0
ENDMDL
