MODEL 1
REMARK minimizedAffinity -2.38365746
REMARK minimizedRMSD -1
REMARK  0 active torsions:
REMARK  status: ('A' for Active; 'I' for Inactive)
ROOT
ATOM      1  C   UNL d   1       0.198  -0.758  -1.183  0.00  0.00     0.023 A 
ATOM      2  C1  UNL d   1      -1.140  -0.421  -0.975  0.00  0.00     0.003 A 
ATOM      3  C2  UNL d   1      -1.519   0.252   0.189  0.00  0.00     0.048 A 
ATOM      4  C3  UNL d   1      -0.555   0.587   1.139  0.00  0.00     0.023 A 
ATOM      5  C4  UNL d   1       0.785   0.253   0.935  0.00  0.00     0.048 A 
ATOM      6  C5  UNL d   1       1.159  -0.421  -0.230  0.00  0.00     0.003 A 
ATOM      7  I   UNL d   1      -1.116   1.589   2.871  0.00  0.00    -0.146 I 
ENDROOT
TORSDOF 0
ENDMDL
