MODEL 1
REMARK minimizedAffinity -1.63809109
REMARK minimizedRMSD -1
REMARK  0 active torsions:
REMARK  status: ('A' for Active; 'I' for Inactive)
ROOT
ATOM      1  C   UNL d   1      -0.929  -0.560   0.795  0.00  0.00     0.023 A 
ATOM      2  C1  UNL d   1      -1.481  -0.803  -0.462  0.00  0.00     0.003 A 
ATOM      3  C2  UNL d   1      -0.752  -0.504  -1.616  0.00  0.00     0.048 A 
ATOM      4  C3  UNL d   1       0.529   0.036  -1.504  0.00  0.00     0.023 A 
ATOM      5  C4  UNL d   1       1.086   0.280  -0.247  0.00  0.00     0.048 A 
ATOM      6  C5  UNL d   1       0.353  -0.019   0.903  0.00  0.00     0.003 A 
ATOM      7  I   UNL d   1       1.616   0.480  -3.219  0.00  0.00    -0.146 I 
ENDROOT
TORSDOF 0
ENDMDL
