MODEL 1
REMARK minimizedAffinity 2.068084
REMARK minimizedRMSD -1
REMARK  0 active torsions:
REMARK  status: ('A' for Active; 'I' for Inactive)
ROOT
ATOM      1  C   UNL d   1       1.213   0.681  -4.801  0.00  0.00     0.023 A 
ATOM      2  C1  UNL d   1       2.341   0.898  -4.010  0.00  0.00     0.003 A 
ATOM      3  C2  UNL d   1       2.371   0.435  -2.693  0.00  0.00     0.048 A 
ATOM      4  C3  UNL d   1       1.269  -0.244  -2.173  0.00  0.00     0.023 A 
ATOM      5  C4  UNL d   1       0.139  -0.464  -2.962  0.00  0.00     0.048 A 
ATOM      6  C5  UNL d   1       0.113   0.001  -4.278  0.00  0.00     0.003 A 
ATOM      7  I   UNL d   1       1.311  -0.934  -0.213  0.00  0.00    -0.146 I 
ENDROOT
TORSDOF 0
ENDMDL
