MODEL 1
REMARK minimizedAffinity 14.9306364
REMARK minimizedRMSD -1
REMARK  2 active torsions:
REMARK  status: ('A' for Active; 'I' for Inactive)
REMARK    1  A    between atoms: C2'_3  and  C1'_4 
REMARK    2  A    between atoms: C1'_4  and  C1_5 
ROOT
ATOM      1  C1  I4B d   1      -0.142   0.060   1.989  0.00  0.00    -0.075 A 
ATOM      2  C2  I4B d   1      -0.854  -0.933   1.363  0.00  0.00     0.003 A 
ATOM      3  C3  I4B d   1      -2.200  -0.713   0.984  0.00  0.00     0.002 A 
ATOM      4  C4  I4B d   1      -2.806   0.488   1.293  0.00  0.00    -0.004 A 
ATOM      5  C5  I4B d   1      -2.076   1.501   1.908  0.00  0.00     0.002 A 
ATOM      6  C6  I4B d   1      -0.731   1.290   2.247  0.00  0.00     0.003 A 
ENDROOT
BRANCH   1   7
ATOM      7  C1' I4B d   1       1.268  -0.218   2.405  0.00  0.00     0.060 C 
BRANCH   7   8
ATOM      8  C2' I4B d   1       1.235  -0.818   3.796  0.00  0.00    -0.013 C 
ATOM      9  C4' I4B d   1       1.582  -2.283   3.766  0.00  0.00     0.013 C 
ATOM     10  C3' I4B d   1       2.196  -0.051   4.654  0.00  0.00     0.013 C 
ENDBRANCH   7   8
ENDBRANCH   1   7
TORSDOF 2
ENDMDL
