MODEL 1
REMARK minimizedAffinity 10.0868587
REMARK minimizedRMSD -1
REMARK  2 active torsions:
REMARK  status: ('A' for Active; 'I' for Inactive)
REMARK    1  A    between atoms: C2'_3  and  C1'_4 
REMARK    2  A    between atoms: C1'_4  and  C1_5 
ROOT
ATOM      1  C1  I4B d   1       1.788  -0.715  -4.636  0.00  0.00    -0.075 A 
ATOM      2  C2  I4B d   1       0.681   0.012  -4.272  0.00  0.00     0.003 A 
ATOM      3  C3  I4B d   1      -0.617  -0.500  -4.509  0.00  0.00     0.002 A 
ATOM      4  C4  I4B d   1      -0.763  -1.711  -5.154  0.00  0.00    -0.004 A 
ATOM      5  C5  I4B d   1       0.360  -2.457  -5.502  0.00  0.00     0.002 A 
ATOM      6  C6  I4B d   1       1.644  -1.962  -5.230  0.00  0.00     0.003 A 
ENDROOT
BRANCH   1   7
ATOM      7  C1' I4B d   1       3.144  -0.129  -4.400  0.00  0.00     0.060 C 
BRANCH   7   8
ATOM      8  C2' I4B d   1       3.854  -0.043  -5.736  0.00  0.00    -0.013 C 
ATOM      9  C4' I4B d   1       4.852   1.085  -5.751  0.00  0.00     0.013 C 
ATOM     10  C3' I4B d   1       4.523  -1.361  -5.990  0.00  0.00     0.013 C 
ENDBRANCH   7   8
ENDBRANCH   1   7
TORSDOF 2
ENDMDL
