MODEL 1
REMARK minimizedAffinity 7.8300581
REMARK minimizedRMSD -1
REMARK  2 active torsions:
REMARK  status: ('A' for Active; 'I' for Inactive)
REMARK    1  A    between atoms: C2'_3  and  C1'_4 
REMARK    2  A    between atoms: C1'_4  and  C1_5 
ROOT
ATOM      1  C1  I4B d   1       3.521  -3.381   5.216  0.00  0.00    -0.075 A 
ATOM      2  C2  I4B d   1       3.588  -4.748   5.318  0.00  0.00     0.003 A 
ATOM      3  C3  I4B d   1       4.843  -5.394   5.432  0.00  0.00     0.002 A 
ATOM      4  C4  I4B d   1       6.000  -4.643   5.388  0.00  0.00    -0.004 A 
ATOM      5  C5  I4B d   1       5.929  -3.256   5.306  0.00  0.00     0.002 A 
ATOM      6  C6  I4B d   1       4.682  -2.619   5.232  0.00  0.00     0.003 A 
ENDROOT
BRANCH   1   7
ATOM      7  C1' I4B d   1       2.181  -2.734   5.064  0.00  0.00     0.060 C 
BRANCH   7   8
ATOM      8  C2' I4B d   1       1.664  -3.050   3.675  0.00  0.00    -0.013 C 
ATOM      9  C4' I4B d   1       0.363  -3.804   3.736  0.00  0.00     0.013 C 
ATOM     10  C3' I4B d   1       1.506  -1.755   2.935  0.00  0.00     0.013 C 
ENDBRANCH   7   8
ENDBRANCH   1   7
TORSDOF 2
ENDMDL
