MODEL 1
REMARK minimizedAffinity 21.2239456
REMARK minimizedRMSD -1
REMARK  2 active torsions:
REMARK  status: ('A' for Active; 'I' for Inactive)
REMARK    1  A    between atoms: C2'_3  and  C1'_4 
REMARK    2  A    between atoms: C1'_4  and  C1_5 
ROOT
ATOM      1  C1  I4B d   1      -5.939   2.958  -0.950  0.00  0.00    -0.075 A 
ATOM      2  C2  I4B d   1      -5.972   3.366   0.360  0.00  0.00     0.003 A 
ATOM      3  C3  I4B d   1      -5.997   4.746   0.677  0.00  0.00     0.002 A 
ATOM      4  C4  I4B d   1      -5.937   5.678  -0.339  0.00  0.00    -0.004 A 
ATOM      5  C5  I4B d   1      -5.927   5.263  -1.667  0.00  0.00     0.002 A 
ATOM      6  C6  I4B d   1      -5.940   3.895  -1.976  0.00  0.00     0.003 A 
ENDROOT
BRANCH   1   7
ATOM      7  C1' I4B d   1      -5.880   1.494  -1.248  0.00  0.00     0.060 C 
BRANCH   7   8
ATOM      8  C2' I4B d   1      -4.452   1.032  -1.040  0.00  0.00    -0.013 C 
ATOM      9  C4' I4B d   1      -4.142   0.864   0.424  0.00  0.00     0.013 C 
ATOM     10  C3' I4B d   1      -4.269  -0.258  -1.783  0.00  0.00     0.013 C 
ENDBRANCH   7   8
ENDBRANCH   1   7
TORSDOF 2
ENDMDL
