MODEL 1
REMARK minimizedAffinity 10.4189205
REMARK minimizedRMSD -1
REMARK  3 active torsions:
REMARK  status: ('A' for Active; 'I' for Inactive)
REMARK    1  A    between atoms: C3'_2  and  C2'_3 
REMARK    2  A    between atoms: C2'_3  and  C1'_4 
REMARK    3  A    between atoms: C1'_4  and  C1_5 
ROOT
ATOM      1  C1  N4B d   1       3.208  -2.715   4.139  0.00  0.00    -0.075 A 
ATOM      2  C2  N4B d   1       3.435  -1.717   5.112  0.00  0.00     0.002 A 
ATOM      3  C3  N4B d   1       4.475  -1.848   6.000  0.00  0.00     0.002 A 
ATOM      4  C4  N4B d   1       5.286  -2.972   5.945  0.00  0.00    -0.004 A 
ATOM      5  C5  N4B d   1       5.075  -3.919   4.986  0.00  0.00     0.002 A 
ATOM      6  C6  N4B d   1       4.036  -3.798   4.085  0.00  0.00     0.002 A 
ENDROOT
BRANCH   1   7
ATOM      7  C1' N4B d   1       2.032  -2.658   3.203  0.00  0.00     0.057 C 
BRANCH   7   8
ATOM      8  C2' N4B d   1       2.523  -2.304   1.803  0.00  0.00     0.009 C 
BRANCH   8   9
ATOM      9  C3' N4B d   1       1.511  -2.681   0.734  0.00  0.00     0.004 C 
ATOM     10  C4' N4B d   1       1.486  -1.711  -0.410  0.00  0.00     0.003 C 
ENDBRANCH   8   9
ENDBRANCH   7   8
ENDBRANCH   1   7
TORSDOF 3
ENDMDL
