MODEL 1
REMARK minimizedAffinity -0.980569124
REMARK minimizedRMSD -1
REMARK  3 active torsions:
REMARK  status: ('A' for Active; 'I' for Inactive)
REMARK    1  A    between atoms: C3'_2  and  C2'_3 
REMARK    2  A    between atoms: C2'_3  and  C1'_4 
REMARK    3  A    between atoms: C1'_4  and  C1_5 
ROOT
ATOM      1  C1  N4B d   1      -0.850   3.626   0.466  0.00  0.00    -0.075 A 
ATOM      2  C2  N4B d   1      -1.811   4.467  -0.136  0.00  0.00     0.002 A 
ATOM      3  C3  N4B d   1      -1.591   4.971  -1.395  0.00  0.00     0.002 A 
ATOM      4  C4  N4B d   1      -0.413   4.663  -2.060  0.00  0.00    -0.004 A 
ATOM      5  C5  N4B d   1       0.498   3.829  -1.482  0.00  0.00     0.002 A 
ATOM      6  C6  N4B d   1       0.288   3.312  -0.219  0.00  0.00     0.002 A 
ENDROOT
BRANCH   1   7
ATOM      7  C1' N4B d   1      -1.008   3.120   1.874  0.00  0.00     0.057 C 
BRANCH   7   8
ATOM      8  C2' N4B d   1       0.203   2.267   2.238  0.00  0.00     0.009 C 
BRANCH   8   9
ATOM      9  C3' N4B d   1       0.106   1.718   3.652  0.00  0.00     0.004 C 
ATOM     10  C4' N4B d   1       0.626   0.316   3.767  0.00  0.00     0.003 C 
ENDBRANCH   8   9
ENDBRANCH   7   8
ENDBRANCH   1   7
TORSDOF 3
ENDMDL
