MODEL 1
REMARK minimizedAffinity 11.7188435
REMARK minimizedRMSD -1
REMARK  3 active torsions:
REMARK  status: ('A' for Active; 'I' for Inactive)
REMARK    1  A    between atoms: C3'_2  and  C2'_3 
REMARK    2  A    between atoms: C2'_3  and  C1'_4 
REMARK    3  A    between atoms: C1'_4  and  C1_5 
ROOT
ATOM      1  C1  N4B d   1       1.694  -2.114   3.639  0.00  0.00    -0.075 A 
ATOM      2  C2  N4B d   1       1.375  -2.713   4.878  0.00  0.00     0.002 A 
ATOM      3  C3  N4B d   1       1.232  -1.934   6.000  0.00  0.00     0.002 A 
ATOM      4  C4  N4B d   1       1.420  -0.563   5.912  0.00  0.00    -0.004 A 
ATOM      5  C5  N4B d   1       1.703   0.010   4.707  0.00  0.00     0.002 A 
ATOM      6  C6  N4B d   1       1.846  -0.760   3.570  0.00  0.00     0.002 A 
ENDROOT
BRANCH   1   7
ATOM      7  C1' N4B d   1       1.945  -2.933   2.403  0.00  0.00     0.057 C 
BRANCH   7   8
ATOM      8  C2' N4B d   1       2.672  -2.074   1.372  0.00  0.00     0.009 C 
BRANCH   8   9
ATOM      9  C3' N4B d   1       3.463  -2.917   0.387  0.00  0.00     0.004 C 
ATOM     10  C4' N4B d   1       4.574  -2.152  -0.270  0.00  0.00     0.003 C 
ENDBRANCH   8   9
ENDBRANCH   7   8
ENDBRANCH   1   7
TORSDOF 3
ENDMDL
