MODEL 1
REMARK minimizedAffinity 2.96324086
REMARK minimizedRMSD -1
REMARK  3 active torsions:
REMARK  status: ('A' for Active; 'I' for Inactive)
REMARK    1  A    between atoms: C3'_2  and  C2'_3 
REMARK    2  A    between atoms: C2'_3  and  C1'_4 
REMARK    3  A    between atoms: C1'_4  and  C1_5 
ROOT
ATOM      1  C1  N4B d   1      -0.355   3.949  -0.758  0.00  0.00    -0.075 A 
ATOM      2  C2  N4B d   1      -1.038   5.021  -0.143  0.00  0.00     0.002 A 
ATOM      3  C3  N4B d   1      -1.617   5.999  -0.914  0.00  0.00     0.002 A 
ATOM      4  C4  N4B d   1      -1.510   5.936  -2.295  0.00  0.00    -0.004 A 
ATOM      5  C5  N4B d   1      -0.871   4.883  -2.883  0.00  0.00     0.002 A 
ATOM      6  C6  N4B d   1      -0.288   3.891  -2.120  0.00  0.00     0.002 A 
ENDROOT
BRANCH   1   7
ATOM      7  C1' N4B d   1       0.368   2.902   0.045  0.00  0.00     0.057 C 
BRANCH   7   8
ATOM      8  C2' N4B d   1      -0.364   2.692   1.368  0.00  0.00     0.009 C 
BRANCH   8   9
ATOM      9  C3' N4B d   1       0.562   2.170   2.453  0.00  0.00     0.004 C 
ATOM     10  C4' N4B d   1      -0.128   1.243   3.408  0.00  0.00     0.003 C 
ENDBRANCH   8   9
ENDBRANCH   7   8
ENDBRANCH   1   7
TORSDOF 3
ENDMDL
