MODEL 1
REMARK minimizedAffinity 2.38532114
REMARK minimizedRMSD -1
REMARK  3 active torsions:
REMARK  status: ('A' for Active; 'I' for Inactive)
REMARK    1  A    between atoms: C3'_2  and  C2'_3 
REMARK    2  A    between atoms: C2'_3  and  C1'_4 
REMARK    3  A    between atoms: C1'_4  and  C1_5 
ROOT
ATOM      1  C1  N4B d   1      -1.083   4.800  -0.114  0.00  0.00    -0.075 A 
ATOM      2  C2  N4B d   1      -1.513   4.039   0.996  0.00  0.00     0.002 A 
ATOM      3  C3  N4B d   1      -0.826   2.907   1.359  0.00  0.00     0.002 A 
ATOM      4  C4  N4B d   1       0.276   2.506   0.619  0.00  0.00    -0.004 A 
ATOM      5  C5  N4B d   1       0.700   3.260  -0.437  0.00  0.00     0.002 A 
ATOM      6  C6  N4B d   1       0.022   4.403  -0.810  0.00  0.00     0.002 A 
ENDROOT
BRANCH   1   7
ATOM      7  C1' N4B d   1      -1.852   5.997  -0.601  0.00  0.00     0.057 C 
BRANCH   7   8
ATOM      8  C2' N4B d   1      -1.875   5.992  -2.127  0.00  0.00     0.009 C 
BRANCH   8   9
ATOM      9  C3' N4B d   1      -1.875   4.581  -2.690  0.00  0.00     0.004 C 
ATOM     10  C4' N4B d   1      -3.258   4.053  -2.934  0.00  0.00     0.003 C 
ENDBRANCH   8   9
ENDBRANCH   7   8
ENDBRANCH   1   7
TORSDOF 3
ENDMDL
