MODEL 1
REMARK minimizedAffinity 12.8556747
REMARK minimizedRMSD -1
REMARK  3 active torsions:
REMARK  status: ('A' for Active; 'I' for Inactive)
REMARK    1  A    between atoms: C3'_2  and  C2'_3 
REMARK    2  A    between atoms: C2'_3  and  C1'_4 
REMARK    3  A    between atoms: C1'_4  and  C1_5 
ROOT
ATOM      1  C1  N4B d   1      -1.306  -4.138  -3.781  0.00  0.00    -0.075 A 
ATOM      2  C2  N4B d   1      -0.441  -4.128  -4.898  0.00  0.00     0.002 A 
ATOM      3  C3  N4B d   1      -0.734  -4.894  -6.000  0.00  0.00     0.002 A 
ATOM      4  C4  N4B d   1      -1.871  -5.688  -6.000  0.00  0.00    -0.004 A 
ATOM      5  C5  N4B d   1      -2.714  -5.673  -4.928  0.00  0.00     0.002 A 
ATOM      6  C6  N4B d   1      -2.434  -4.904  -3.815  0.00  0.00     0.002 A 
ENDROOT
BRANCH   1   7
ATOM      7  C1' N4B d   1      -0.983  -3.383  -2.521  0.00  0.00     0.057 C 
BRANCH   7   8
ATOM      8  C2' N4B d   1      -0.044  -4.224  -1.661  0.00  0.00     0.009 C 
BRANCH   8   9
ATOM      9  C3' N4B d   1       0.662  -3.388  -0.606  0.00  0.00     0.004 C 
ATOM     10  C4' N4B d   1       0.349  -1.926  -0.719  0.00  0.00     0.003 C 
ENDBRANCH   8   9
ENDBRANCH   7   8
ENDBRANCH   1   7
TORSDOF 3
ENDMDL
