MODEL 1
REMARK minimizedAffinity -2.00809979
REMARK minimizedRMSD -1
REMARK  1 active torsions:
REMARK  status: ('A' for Active; 'I' for Inactive)
REMARK    1  A    between atoms: C3_4  and  O_7 
ROOT
ATOM      1  C   UNL d   1       0.598   4.791  -5.998  0.00  0.00    -0.033 A 
ATOM      2  C1  UNL d   1      -0.540   5.601  -5.993  0.00  0.00     0.039 A 
ATOM      3  C2  UNL d   1      -1.810   5.022  -5.992  0.00  0.00    -0.080 A 
ATOM      4  C3  UNL d   1      -1.930   3.635  -5.995  0.00  0.00     0.150 A 
ATOM      5  C4  UNL d   1      -0.801   2.823  -5.997  0.00  0.00    -0.007 A 
ATOM      6  C5  UNL d   1       0.467   3.402  -5.999  0.00  0.00     0.039 A 
ENDROOT
BRANCH   4   7
ATOM      7  O   UNL d   1      -3.149   3.025  -6.000  0.00  0.00    -0.526 OA
ATOM      8  H5  UNL d   1      -3.836   3.711  -6.027  0.00  0.00     0.418 HD
ENDBRANCH   4   7
TORSDOF 1
ENDMDL
