MODEL 1
REMARK minimizedAffinity -1.2614671
REMARK minimizedRMSD -1
REMARK  1 active torsions:
REMARK  status: ('A' for Active; 'I' for Inactive)
REMARK    1  A    between atoms: C3_4  and  O_7 
ROOT
ATOM      1  C   UNL d   1      -1.630   5.997  -3.873  0.00  0.00    -0.033 A 
ATOM      2  C1  UNL d   1      -1.704   5.984  -5.267  0.00  0.00     0.039 A 
ATOM      3  C2  UNL d   1      -0.946   5.069  -6.000  0.00  0.00    -0.080 A 
ATOM      4  C3  UNL d   1      -0.119   4.173  -5.328  0.00  0.00     0.150 A 
ATOM      5  C4  UNL d   1      -0.042   4.178  -3.939  0.00  0.00    -0.007 A 
ATOM      6  C5  UNL d   1      -0.800   5.093  -3.209  0.00  0.00     0.039 A 
ENDROOT
BRANCH   4   7
ATOM      7  O   UNL d   1       0.644   3.265  -6.000  0.00  0.00    -0.526 OA
ATOM      8  H5  UNL d   1       0.511   3.397  -6.953  0.00  0.00     0.418 HD
ENDBRANCH   4   7
TORSDOF 1
ENDMDL
