MODEL 1
REMARK minimizedAffinity -2.04336214
REMARK minimizedRMSD -1
REMARK  1 active torsions:
REMARK  status: ('A' for Active; 'I' for Inactive)
REMARK    1  A    between atoms: C3_4  and  O_7 
ROOT
ATOM      1  C   UNL d   1      -0.300   3.157  -5.840  0.00  0.00    -0.033 A 
ATOM      2  C1  UNL d   1      -1.612   2.709  -5.999  0.00  0.00     0.039 A 
ATOM      3  C2  UNL d   1      -2.669   3.622  -6.000  0.00  0.00    -0.080 A 
ATOM      4  C3  UNL d   1      -2.399   4.979  -5.843  0.00  0.00     0.150 A 
ATOM      5  C4  UNL d   1      -1.094   5.433  -5.688  0.00  0.00    -0.007 A 
ATOM      6  C5  UNL d   1      -0.040   4.519  -5.686  0.00  0.00     0.039 A 
ENDROOT
BRANCH   4   7
ATOM      7  O   UNL d   1      -3.398   5.907  -5.833  0.00  0.00    -0.526 OA
ATOM      8  H5  UNL d   1      -4.248   5.445  -5.921  0.00  0.00     0.418 HD
ENDBRANCH   4   7
TORSDOF 1
ENDMDL
