MODEL 1
REMARK minimizedAffinity -3.46445227
REMARK minimizedRMSD -1
REMARK  1 active torsions:
REMARK  status: ('A' for Active; 'I' for Inactive)
REMARK    1  A    between atoms: C3_4  and  O_7 
ROOT
ATOM      1  C   UNL d   1      -3.469   3.767  -5.980  0.00  0.00    -0.033 A 
ATOM      2  C1  UNL d   1      -3.296   5.152  -5.987  0.00  0.00     0.039 A 
ATOM      3  C2  UNL d   1      -2.011   5.698  -5.995  0.00  0.00    -0.080 A 
ATOM      4  C3  UNL d   1      -0.908   4.848  -5.995  0.00  0.00     0.150 A 
ATOM      5  C4  UNL d   1      -1.073   3.467  -5.991  0.00  0.00    -0.007 A 
ATOM      6  C5  UNL d   1      -2.357   2.924  -5.983  0.00  0.00     0.039 A 
ENDROOT
BRANCH   4   7
ATOM      7  O   UNL d   1       0.365   5.334  -5.997  0.00  0.00    -0.526 OA
ATOM      8  H5  UNL d   1       0.325   6.305  -5.970  0.00  0.00     0.418 HD
ENDBRANCH   4   7
TORSDOF 1
ENDMDL
