MODEL 1
REMARK minimizedAffinity -2.67743731
REMARK minimizedRMSD -1
REMARK  1 active torsions:
REMARK  status: ('A' for Active; 'I' for Inactive)
REMARK    1  A    between atoms: C3_4  and  O_7 
ROOT
ATOM      1  C   UNL d   1       0.492   5.408  -5.951  0.00  0.00    -0.033 A 
ATOM      2  C1  UNL d   1      -0.772   6.000  -5.960  0.00  0.00     0.039 A 
ATOM      3  C2  UNL d   1      -1.918   5.202  -5.975  0.00  0.00    -0.080 A 
ATOM      4  C3  UNL d   1      -1.786   3.816  -5.980  0.00  0.00     0.150 A 
ATOM      5  C4  UNL d   1      -0.529   3.220  -5.968  0.00  0.00    -0.007 A 
ATOM      6  C5  UNL d   1       0.614   4.018  -5.954  0.00  0.00     0.039 A 
ENDROOT
BRANCH   4   7
ATOM      7  O   UNL d   1      -2.875   2.997  -6.000  0.00  0.00    -0.526 OA
ATOM      8  H5  UNL d   1      -3.675   3.548  -6.036  0.00  0.00     0.418 HD
ENDBRANCH   4   7
TORSDOF 1
ENDMDL
