MODEL 1
REMARK minimizedAffinity -1.06843352
REMARK minimizedRMSD -1
REMARK  1 active torsions:
REMARK  status: ('A' for Active; 'I' for Inactive)
REMARK    1  A    between atoms: C3_4  and  O_7 
ROOT
ATOM      1  C   UNL d   1       1.293   4.292  -5.998  0.00  0.00    -0.033 A 
ATOM      2  C1  UNL d   1       0.224   5.190  -5.990  0.00  0.00     0.039 A 
ATOM      3  C2  UNL d   1      -1.089   4.716  -5.989  0.00  0.00    -0.080 A 
ATOM      4  C3  UNL d   1      -1.319   3.343  -5.994  0.00  0.00     0.150 A 
ATOM      5  C4  UNL d   1      -0.259   2.442  -5.997  0.00  0.00    -0.007 A 
ATOM      6  C5  UNL d   1       1.051   2.918  -6.000  0.00  0.00     0.039 A 
ENDROOT
BRANCH   4   7
ATOM      7  O   UNL d   1      -2.584   2.833  -5.998  0.00  0.00    -0.526 OA
ATOM      8  H5  UNL d   1      -3.214   3.572  -6.024  0.00  0.00     0.418 HD
ENDBRANCH   4   7
TORSDOF 1
ENDMDL
