MODEL 1
REMARK minimizedAffinity -3.2482059
REMARK minimizedRMSD -1
REMARK  1 active torsions:
REMARK  status: ('A' for Active; 'I' for Inactive)
REMARK    1  A    between atoms: C3_4  and  O_7 
ROOT
ATOM      1  C   UNL d   1       1.540   4.100  -5.986  0.00  0.00    -0.033 A 
ATOM      2  C1  UNL d   1       1.336   2.719  -5.974  0.00  0.00     0.039 A 
ATOM      3  C2  UNL d   1       0.038   2.204  -5.971  0.00  0.00    -0.080 A 
ATOM      4  C3  UNL d   1      -1.045   3.079  -5.982  0.00  0.00     0.150 A 
ATOM      5  C4  UNL d   1      -0.848   4.456  -5.998  0.00  0.00    -0.007 A 
ATOM      6  C5  UNL d   1       0.449   4.969  -6.000  0.00  0.00     0.039 A 
ENDROOT
BRANCH   4   7
ATOM      7  O   UNL d   1      -2.329   2.623  -5.975  0.00  0.00    -0.526 OA
ATOM      8  H5  UNL d   1      -2.311   1.653  -5.935  0.00  0.00     0.418 HD
ENDBRANCH   4   7
TORSDOF 1
ENDMDL
