MODEL 1
REMARK minimizedAffinity 0.430185378
REMARK minimizedRMSD -1
REMARK  1 active torsions:
REMARK  status: ('A' for Active; 'I' for Inactive)
REMARK    1  A    between atoms: C3_4  and  O_7 
ROOT
ATOM      1  C   UNL d   1       0.156   5.381  -5.979  0.00  0.00    -0.033 A 
ATOM      2  C1  UNL d   1       0.265   3.990  -5.992  0.00  0.00     0.039 A 
ATOM      3  C2  UNL d   1      -0.884   3.197  -6.000  0.00  0.00    -0.080 A 
ATOM      4  C3  UNL d   1      -2.135   3.809  -5.996  0.00  0.00     0.150 A 
ATOM      5  C4  UNL d   1      -2.251   5.195  -5.988  0.00  0.00    -0.007 A 
ATOM      6  C5  UNL d   1      -1.102   5.984  -5.979  0.00  0.00     0.039 A 
ENDROOT
BRANCH   4   7
ATOM      7  O   UNL d   1      -3.286   3.077  -5.999  0.00  0.00    -0.526 OA
ATOM      8  H5  UNL d   1      -3.051   2.134  -5.976  0.00  0.00     0.418 HD
ENDBRANCH   4   7
TORSDOF 1
ENDMDL
