MODEL 1
REMARK minimizedAffinity -2.61214113
REMARK minimizedRMSD -1
REMARK  1 active torsions:
REMARK  status: ('A' for Active; 'I' for Inactive)
REMARK    1  A    between atoms: C3_4  and  O_7 
ROOT
ATOM      1  C   UNL d   1      -0.085   3.082  -6.000  0.00  0.00    -0.033 A 
ATOM      2  C1  UNL d   1       0.206   4.448  -5.993  0.00  0.00     0.039 A 
ATOM      3  C2  UNL d   1      -0.830   5.384  -5.989  0.00  0.00    -0.080 A 
ATOM      4  C3  UNL d   1      -2.150   4.942  -5.991  0.00  0.00     0.150 A 
ATOM      5  C4  UNL d   1      -2.447   3.583  -5.993  0.00  0.00    -0.007 A 
ATOM      6  C5  UNL d   1      -1.411   2.650  -5.998  0.00  0.00     0.039 A 
ENDROOT
BRANCH   4   7
ATOM      7  O   UNL d   1      -3.194   5.818  -5.992  0.00  0.00    -0.526 OA
ATOM      8  H5  UNL d   1      -2.838   6.722  -6.019  0.00  0.00     0.418 HD
ENDBRANCH   4   7
TORSDOF 1
ENDMDL
