MODEL 1
REMARK minimizedAffinity 0.582784176
REMARK minimizedRMSD -1
REMARK  1 active torsions:
REMARK  status: ('A' for Active; 'I' for Inactive)
REMARK    1  A    between atoms: C3_4  and  O_7 
ROOT
ATOM      1  C   UNL d   1      -0.148   3.350  -6.000  0.00  0.00    -0.033 A 
ATOM      2  C1  UNL d   1       0.440   4.402  -5.295  0.00  0.00     0.039 A 
ATOM      3  C2  UNL d   1      -0.358   5.299  -4.582  0.00  0.00    -0.080 A 
ATOM      4  C3  UNL d   1      -1.740   5.133  -4.581  0.00  0.00     0.150 A 
ATOM      5  C4  UNL d   1      -2.332   4.085  -5.278  0.00  0.00    -0.007 A 
ATOM      6  C5  UNL d   1      -1.534   3.191  -5.990  0.00  0.00     0.039 A 
ENDROOT
BRANCH   4   7
ATOM      7  O   UNL d   1      -2.560   5.986  -3.904  0.00  0.00    -0.526 OA
ATOM      8  H5  UNL d   1      -2.014   6.677  -3.494  0.00  0.00     0.418 HD
ENDBRANCH   4   7
TORSDOF 1
ENDMDL
