MODEL 1
REMARK minimizedAffinity -0.793734491
REMARK minimizedRMSD -1
REMARK  1 active torsions:
REMARK  status: ('A' for Active; 'I' for Inactive)
REMARK    1  A    between atoms: C3_4  and  O_7 
ROOT
ATOM      1  C   UNL d   1       0.403   0.548   0.947  0.00  0.00    -0.033 A 
ATOM      2  C1  UNL d   1      -0.621  -0.380   1.148  0.00  0.00     0.039 A 
ATOM      3  C2  UNL d   1      -1.950  -0.012   0.932  0.00  0.00    -0.080 A 
ATOM      4  C3  UNL d   1      -2.242   1.283   0.515  0.00  0.00     0.150 A 
ATOM      5  C4  UNL d   1      -1.227   2.212   0.309  0.00  0.00    -0.007 A 
ATOM      6  C5  UNL d   1       0.100   1.843   0.526  0.00  0.00     0.039 A 
ENDROOT
BRANCH   4   7
ATOM      7  O   UNL d   1      -3.525   1.689   0.297  0.00  0.00    -0.526 OA
ATOM      8  H5  UNL d   1      -4.122   0.952   0.507  0.00  0.00     0.418 HD
ENDBRANCH   4   7
TORSDOF 1
ENDMDL
