MODEL 1
REMARK minimizedAffinity -1.71869159
REMARK minimizedRMSD -1
REMARK  1 active torsions:
REMARK  status: ('A' for Active; 'I' for Inactive)
REMARK    1  A    between atoms: C3_4  and  O_7 
ROOT
ATOM      1  C   UNL d   1      -3.734   3.890  -5.957  0.00  0.00    -0.033 A 
ATOM      2  C1  UNL d   1      -3.750   5.286  -5.950  0.00  0.00     0.039 A 
ATOM      3  C2  UNL d   1      -2.550   6.000  -5.966  0.00  0.00    -0.080 A 
ATOM      4  C3  UNL d   1      -1.343   5.307  -5.989  0.00  0.00     0.150 A 
ATOM      5  C4  UNL d   1      -1.320   3.916  -6.000  0.00  0.00    -0.007 A 
ATOM      6  C5  UNL d   1      -2.519   3.205  -5.983  0.00  0.00     0.039 A 
ENDROOT
BRANCH   4   7
ATOM      7  O   UNL d   1      -0.147   5.960  -6.000  0.00  0.00    -0.526 OA
ATOM      8  H5  UNL d   1      -0.317   6.916  -5.961  0.00  0.00     0.418 HD
ENDBRANCH   4   7
TORSDOF 1
ENDMDL
