MODEL 1
REMARK minimizedAffinity -2.62685299
REMARK minimizedRMSD -1
REMARK  1 active torsions:
REMARK  status: ('A' for Active; 'I' for Inactive)
REMARK    1  A    between atoms: C3_4  and  O_7 
ROOT
ATOM      1  C   UNL d   1      -3.951   4.276  -5.979  0.00  0.00    -0.033 A 
ATOM      2  C1  UNL d   1      -3.583   5.623  -5.977  0.00  0.00     0.039 A 
ATOM      3  C2  UNL d   1      -2.233   5.980  -5.982  0.00  0.00    -0.080 A 
ATOM      4  C3  UNL d   1      -1.262   4.982  -5.990  0.00  0.00     0.150 A 
ATOM      5  C4  UNL d   1      -1.622   3.638  -5.997  0.00  0.00    -0.007 A 
ATOM      6  C5  UNL d   1      -2.970   3.284  -5.991  0.00  0.00     0.039 A 
ENDROOT
BRANCH   4   7
ATOM      7  O   UNL d   1       0.068   5.281  -5.991  0.00  0.00    -0.526 OA
ATOM      8  H5  UNL d   1       0.166   6.247  -5.957  0.00  0.00     0.418 HD
ENDBRANCH   4   7
TORSDOF 1
ENDMDL
