MODEL 1
REMARK minimizedAffinity -3.21130586
REMARK minimizedRMSD -1
REMARK  1 active torsions:
REMARK  status: ('A' for Active; 'I' for Inactive)
REMARK    1  A    between atoms: C3_4  and  O_7 
ROOT
ATOM      1  C   UNL d   1       0.030   4.123  -5.991  0.00  0.00    -0.033 A 
ATOM      2  C1  UNL d   1      -0.548   2.852  -5.986  0.00  0.00     0.039 A 
ATOM      3  C2  UNL d   1      -1.938   2.716  -5.985  0.00  0.00    -0.080 A 
ATOM      4  C3  UNL d   1      -2.736   3.856  -5.991  0.00  0.00     0.150 A 
ATOM      5  C4  UNL d   1      -2.167   5.125  -6.000  0.00  0.00    -0.007 A 
ATOM      6  C5  UNL d   1      -0.779   5.259  -6.000  0.00  0.00     0.039 A 
ENDROOT
BRANCH   4   7
ATOM      7  O   UNL d   1      -4.097   3.773  -5.985  0.00  0.00    -0.526 OA
ATOM      8  H5  UNL d   1      -4.348   2.835  -5.950  0.00  0.00     0.418 HD
ENDBRANCH   4   7
TORSDOF 1
ENDMDL
