MODEL 1
REMARK minimizedAffinity -2.76777172
REMARK minimizedRMSD -1
REMARK  1 active torsions:
REMARK  status: ('A' for Active; 'I' for Inactive)
REMARK    1  A    between atoms: C3_4  and  O_7 
ROOT
ATOM      1  C   UNL d   1       0.528   4.209  -6.000  0.00  0.00    -0.033 A 
ATOM      2  C1  UNL d   1      -0.571   5.069  -5.999  0.00  0.00     0.039 A 
ATOM      3  C2  UNL d   1      -1.867   4.549  -5.997  0.00  0.00    -0.080 A 
ATOM      4  C3  UNL d   1      -2.049   3.169  -5.995  0.00  0.00     0.150 A 
ATOM      5  C4  UNL d   1      -0.958   2.306  -5.992  0.00  0.00    -0.007 A 
ATOM      6  C5  UNL d   1       0.335   2.828  -5.995  0.00  0.00     0.039 A 
ENDROOT
BRANCH   4   7
ATOM      7  O   UNL d   1      -3.294   2.614  -5.997  0.00  0.00    -0.526 OA
ATOM      8  H5  UNL d   1      -3.950   3.330  -6.028  0.00  0.00     0.418 HD
ENDBRANCH   4   7
TORSDOF 1
ENDMDL
