MODEL 1
REMARK minimizedAffinity -2.70905542
REMARK minimizedRMSD -1
REMARK  1 active torsions:
REMARK  status: ('A' for Active; 'I' for Inactive)
REMARK    1  A    between atoms: C3_4  and  O_7 
ROOT
ATOM      1  C   UNL d   1       0.133   3.098  -5.986  0.00  0.00    -0.033 A 
ATOM      2  C1  UNL d   1       0.474   4.452  -5.975  0.00  0.00     0.039 A 
ATOM      3  C2  UNL d   1      -0.527   5.426  -5.977  0.00  0.00    -0.080 A 
ATOM      4  C3  UNL d   1      -1.862   5.034  -5.989  0.00  0.00     0.150 A 
ATOM      5  C4  UNL d   1      -2.209   3.687  -5.996  0.00  0.00    -0.007 A 
ATOM      6  C5  UNL d   1      -1.209   2.716  -5.995  0.00  0.00     0.039 A 
ENDROOT
BRANCH   4   7
ATOM      7  O   UNL d   1      -2.874   5.948  -5.997  0.00  0.00    -0.526 OA
ATOM      8  H5  UNL d   1      -2.484   6.838  -6.020  0.00  0.00     0.418 HD
ENDBRANCH   4   7
TORSDOF 1
ENDMDL
