MODEL 1
REMARK minimizedAffinity 15.4915323
REMARK minimizedRMSD -1
REMARK  0 active torsions:
REMARK  status: ('A' for Active; 'I' for Inactive)
ROOT
ATOM      1  C   UNL d   1      -0.914  -0.819   3.732  0.00  0.00     0.124 A 
ATOM      2  C1  UNL d   1       0.156  -0.091   3.231  0.00  0.00     0.062 A 
ATOM      3  C2  UNL d   1       0.166   0.312   1.898  0.00  0.00     0.162 A 
ATOM      4  C3  UNL d   1      -0.899  -0.011   1.057  0.00  0.00    -0.034 A 
ATOM      5  C4  UNL d   1      -1.971  -0.744   1.568  0.00  0.00     0.162 A 
ATOM      6  C5  UNL d   1      -1.977  -1.145   2.901  0.00  0.00     0.062 A 
ATOM      7  F   UNL d   1      -3.012  -1.848   3.383  0.00  0.00    -0.097 F 
ATOM      8  F1  UNL d   1      -3.012  -1.072   0.788  0.00  0.00    -0.096 F 
ATOM      9  I   UNL d   1      -0.888   0.589  -0.935  0.00  0.00    -0.060 I 
ATOM     10  F2  UNL d   1       1.213   1.014   1.441  0.00  0.00    -0.096 F 
ATOM     11  F3  UNL d   1       1.184   0.225   4.032  0.00  0.00    -0.097 F 
ATOM     12  F4  UNL d   1      -0.921  -1.206   5.014  0.00  0.00    -0.092 F 
ENDROOT
TORSDOF 0
ENDMDL
