MODEL 1
REMARK minimizedAffinity 7.73056746
REMARK minimizedRMSD -1
REMARK  0 active torsions:
REMARK  status: ('A' for Active; 'I' for Inactive)
ROOT
ATOM      1  C   UNL d   1       0.375  -0.394   2.928  0.00  0.00     0.124 A 
ATOM      2  C1  UNL d   1       0.801   0.520   1.975  0.00  0.00     0.062 A 
ATOM      3  C2  UNL d   1      -0.031   0.864   0.913  0.00  0.00     0.162 A 
ATOM      4  C3  UNL d   1      -1.300   0.295   0.801  0.00  0.00    -0.034 A 
ATOM      5  C4  UNL d   1      -1.721  -0.625   1.763  0.00  0.00     0.162 A 
ATOM      6  C5  UNL d   1      -0.885  -0.965   2.822  0.00  0.00     0.062 A 
ATOM      7  F   UNL d   1      -1.299  -1.849   3.742  0.00  0.00    -0.097 F 
ATOM      8  F1  UNL d   1      -2.934  -1.191   1.685  0.00  0.00    -0.096 F 
ATOM      9  I   UNL d   1      -2.547   0.807  -0.784  0.00  0.00    -0.060 I 
ATOM     10  F2  UNL d   1       0.407   1.750   0.007  0.00  0.00    -0.096 F 
ATOM     11  F3  UNL d   1       2.019   1.073   2.075  0.00  0.00    -0.097 F 
ATOM     12  F4  UNL d   1       1.178  -0.724   3.947  0.00  0.00    -0.092 F 
ENDROOT
TORSDOF 0
ENDMDL
