MODEL 1
REMARK minimizedAffinity 0.79356432
REMARK minimizedRMSD -1
REMARK  0 active torsions:
REMARK  status: ('A' for Active; 'I' for Inactive)
ROOT
ATOM      1  C   UNL d   1      -2.358  -0.346   3.040  0.00  0.00     0.124 A 
ATOM      2  C1  UNL d   1      -0.972  -0.338   3.122  0.00  0.00     0.062 A 
ATOM      3  C2  UNL d   1      -0.206  -0.069   1.992  0.00  0.00     0.162 A 
ATOM      4  C3  UNL d   1      -0.823   0.195   0.769  0.00  0.00    -0.034 A 
ATOM      5  C4  UNL d   1      -2.217   0.184   0.694  0.00  0.00     0.162 A 
ATOM      6  C5  UNL d   1      -2.979  -0.085   1.826  0.00  0.00     0.062 A 
ATOM      7  F   UNL d   1      -4.317  -0.093   1.745  0.00  0.00    -0.097 F 
ATOM      8  F1  UNL d   1      -2.842   0.434  -0.466  0.00  0.00    -0.096 F 
ATOM      9  I   UNL d   1       0.320   0.598  -0.923  0.00  0.00    -0.060 I 
ATOM     10  F2  UNL d   1       1.131  -0.067   2.101  0.00  0.00    -0.096 F 
ATOM     11  F3  UNL d   1      -0.370  -0.590   4.293  0.00  0.00    -0.097 F 
ATOM     12  F4  UNL d   1      -3.093  -0.606   4.129  0.00  0.00    -0.092 F 
ENDROOT
TORSDOF 0
ENDMDL
