MODEL 1
REMARK minimizedAffinity 3.07984209
REMARK minimizedRMSD -1
REMARK  0 active torsions:
REMARK  status: ('A' for Active; 'I' for Inactive)
ROOT
ATOM      1  C   UNL d   1      -1.435  -0.359   2.721  0.00  0.00     0.124 A 
ATOM      2  C1  UNL d   1      -0.090  -0.030   2.812  0.00  0.00     0.062 A 
ATOM      3  C2  UNL d   1       0.573   0.516   1.716  0.00  0.00     0.162 A 
ATOM      4  C3  UNL d   1      -0.110   0.737   0.520  0.00  0.00    -0.034 A 
ATOM      5  C4  UNL d   1      -1.463   0.402   0.436  0.00  0.00     0.162 A 
ATOM      6  C5  UNL d   1      -2.120  -0.143   1.534  0.00  0.00     0.062 A 
ATOM      7  F   UNL d   1      -3.420  -0.460   1.445  0.00  0.00    -0.097 F 
ATOM      8  F1  UNL d   1      -2.149   0.602  -0.699  0.00  0.00    -0.096 F 
ATOM      9  I   UNL d   1       0.877   1.552  -1.121  0.00  0.00    -0.060 I 
ATOM     10  F2  UNL d   1       1.873   0.824   1.832  0.00  0.00    -0.096 F 
ATOM     11  F3  UNL d   1       0.574  -0.239   3.958  0.00  0.00    -0.097 F 
ATOM     12  F4  UNL d   1      -2.070  -0.885   3.777  0.00  0.00    -0.092 F 
ENDROOT
TORSDOF 0
ENDMDL
