MODEL 1
REMARK minimizedAffinity 16.670784
REMARK minimizedRMSD -1
REMARK  0 active torsions:
REMARK  status: ('A' for Active; 'I' for Inactive)
ROOT
ATOM      1  C   UNL d   1       0.648  -0.254   2.353  0.00  0.00     0.124 A 
ATOM      2  C1  UNL d   1       0.969   0.525   1.250  0.00  0.00     0.062 A 
ATOM      3  C2  UNL d   1       0.031   0.732   0.243  0.00  0.00     0.162 A 
ATOM      4  C3  UNL d   1      -1.238   0.160   0.334  0.00  0.00    -0.034 A 
ATOM      5  C4  UNL d   1      -1.553  -0.624   1.446  0.00  0.00     0.162 A 
ATOM      6  C5  UNL d   1      -0.612  -0.828   2.450  0.00  0.00     0.062 A 
ATOM      7  F   UNL d   1      -0.923  -1.581   3.515  0.00  0.00    -0.097 F 
ATOM      8  F1  UNL d   1      -2.763  -1.189   1.565  0.00  0.00    -0.096 F 
ATOM      9  I   UNL d   1      -2.643   0.467  -1.170  0.00  0.00    -0.060 I 
ATOM     10  F2  UNL d   1       0.368   1.490  -0.812  0.00  0.00    -0.096 F 
ATOM     11  F3  UNL d   1       2.186   1.080   1.153  0.00  0.00    -0.097 F 
ATOM     12  F4  UNL d   1       1.553  -0.452   3.320  0.00  0.00    -0.092 F 
ENDROOT
TORSDOF 0
ENDMDL
