MODEL 1
REMARK minimizedAffinity 15.5267448
REMARK minimizedRMSD -1
REMARK  0 active torsions:
REMARK  status: ('A' for Active; 'I' for Inactive)
ROOT
ATOM      1  C   UNL d   1       0.051   0.383   2.918  0.00  0.00     0.124 A 
ATOM      2  C1  UNL d   1       0.492   1.178   1.869  0.00  0.00     0.062 A 
ATOM      3  C2  UNL d   1      -0.218   1.213   0.672  0.00  0.00     0.162 A 
ATOM      4  C3  UNL d   1      -1.376   0.452   0.517  0.00  0.00    -0.034 A 
ATOM      5  C4  UNL d   1      -1.813  -0.346   1.577  0.00  0.00     0.162 A 
ATOM      6  C5  UNL d   1      -1.100  -0.378   2.771  0.00  0.00     0.062 A 
ATOM      7  F   UNL d   1      -1.527  -1.147   3.783  0.00  0.00    -0.097 F 
ATOM      8  F1  UNL d   1      -2.922  -1.091   1.462  0.00  0.00    -0.096 F 
ATOM      9  I   UNL d   1      -2.440   0.502  -1.271  0.00  0.00    -0.060 I 
ATOM     10  F2  UNL d   1       0.231   1.991  -0.325  0.00  0.00    -0.096 F 
ATOM     11  F3  UNL d   1       1.604   1.913   2.008  0.00  0.00    -0.097 F 
ATOM     12  F4  UNL d   1       0.736   0.350   4.068  0.00  0.00    -0.092 F 
ENDROOT
TORSDOF 0
ENDMDL
