MODEL 1
REMARK minimizedAffinity 5.56206608
REMARK minimizedRMSD -1
REMARK  0 active torsions:
REMARK  status: ('A' for Active; 'I' for Inactive)
ROOT
ATOM      1  C   UNL d   1      -0.125   0.400   3.160  0.00  0.00     0.124 A 
ATOM      2  C1  UNL d   1      -1.225  -0.409   2.910  0.00  0.00     0.062 A 
ATOM      3  C2  UNL d   1      -1.795  -0.443   1.641  0.00  0.00     0.162 A 
ATOM      4  C3  UNL d   1      -1.265   0.333   0.610  0.00  0.00    -0.034 A 
ATOM      5  C4  UNL d   1      -0.159   1.144   0.869  0.00  0.00     0.162 A 
ATOM      6  C5  UNL d   1       0.407   1.175   2.139  0.00  0.00     0.062 A 
ATOM      7  F   UNL d   1       1.470   1.956   2.378  0.00  0.00    -0.097 F 
ATOM      8  F1  UNL d   1       0.376   1.902  -0.099  0.00  0.00    -0.096 F 
ATOM      9  I   UNL d   1      -2.114   0.284  -1.289  0.00  0.00    -0.060 I 
ATOM     10  F2  UNL d   1      -2.858  -1.234   1.429  0.00  0.00    -0.096 F 
ATOM     11  F3  UNL d   1      -1.742  -1.158   3.895  0.00  0.00    -0.097 F 
ATOM     12  F4  UNL d   1       0.421   0.432   4.382  0.00  0.00    -0.092 F 
ENDROOT
TORSDOF 0
ENDMDL
