MODEL 1
REMARK minimizedAffinity 2.48336458
REMARK minimizedRMSD -1
REMARK  0 active torsions:
REMARK  status: ('A' for Active; 'I' for Inactive)
ROOT
ATOM      1  C   UNL d   1      -1.582  -0.953   2.615  0.00  0.00     0.124 A 
ATOM      2  C1  UNL d   1      -2.270  -0.700   1.437  0.00  0.00     0.062 A 
ATOM      3  C2  UNL d   1      -1.662   0.018   0.411  0.00  0.00     0.162 A 
ATOM      4  C3  UNL d   1      -0.357   0.488   0.559  0.00  0.00    -0.034 A 
ATOM      5  C4  UNL d   1       0.328   0.231   1.747  0.00  0.00     0.162 A 
ATOM      6  C5  UNL d   1      -0.284  -0.488   2.769  0.00  0.00     0.062 A 
ATOM      7  F   UNL d   1       0.383  -0.731   3.907  0.00  0.00    -0.097 F 
ATOM      8  F1  UNL d   1       1.584   0.668   1.923  0.00  0.00    -0.096 F 
ATOM      9  I   UNL d   1       0.556   1.563  -0.972  0.00  0.00    -0.060 I 
ATOM     10  F2  UNL d   1      -2.351   0.248  -0.717  0.00  0.00    -0.096 F 
ATOM     11  F3  UNL d   1      -3.525  -1.148   1.285  0.00  0.00    -0.097 F 
ATOM     12  F4  UNL d   1      -2.170  -1.644   3.600  0.00  0.00    -0.092 F 
ENDROOT
TORSDOF 0
ENDMDL
