MODEL 1
REMARK minimizedAffinity 4.63913822
REMARK minimizedRMSD -1
REMARK  0 active torsions:
REMARK  status: ('A' for Active; 'I' for Inactive)
ROOT
ATOM      1  C   UNL d   1       4.128   4.270  -4.796  0.00  0.00     0.124 A 
ATOM      2  C1  UNL d   1       4.759   3.420  -3.898  0.00  0.00     0.062 A 
ATOM      3  C2  UNL d   1       4.109   3.027  -2.731  0.00  0.00     0.162 A 
ATOM      4  C3  UNL d   1       2.820   3.484  -2.456  0.00  0.00    -0.034 A 
ATOM      5  C4  UNL d   1       2.192   4.340  -3.363  0.00  0.00     0.162 A 
ATOM      6  C5  UNL d   1       2.846   4.729  -4.528  0.00  0.00     0.062 A 
ATOM      7  F   UNL d   1       2.235   5.551  -5.394  0.00  0.00    -0.097 F 
ATOM      8  F1  UNL d   1       0.954   4.797  -3.130  0.00  0.00    -0.096 F 
ATOM      9  I   UNL d   1       1.845   2.899  -0.713  0.00  0.00    -0.060 I 
ATOM     10  F2  UNL d   1       4.742   2.205  -1.882  0.00  0.00    -0.096 F 
ATOM     11  F3  UNL d   1       5.998   2.976  -4.154  0.00  0.00    -0.097 F 
ATOM     12  F4  UNL d   1       4.756   4.647  -5.917  0.00  0.00    -0.092 F 
ENDROOT
TORSDOF 0
ENDMDL
