MODEL 1
REMARK minimizedAffinity 10.8647718
REMARK minimizedRMSD -1
REMARK  0 active torsions:
REMARK  status: ('A' for Active; 'I' for Inactive)
ROOT
ATOM      1  C   UNL d   1      -0.871   1.535   3.638  0.00  0.00     0.124 A 
ATOM      2  C1  UNL d   1      -0.567   0.183   3.722  0.00  0.00     0.062 A 
ATOM      3  C2  UNL d   1      -1.449  -0.695   4.345  0.00  0.00     0.162 A 
ATOM      4  C3  UNL d   1      -2.644  -0.224   4.889  0.00  0.00    -0.034 A 
ATOM      5  C4  UNL d   1      -2.942   1.137   4.801  0.00  0.00     0.162 A 
ATOM      6  C5  UNL d   1      -2.057   2.011   4.177  0.00  0.00     0.062 A 
ATOM      7  F   UNL d   1      -2.353   3.316   4.097  0.00  0.00    -0.097 F 
ATOM      8  F1  UNL d   1      -4.082   1.623   5.314  0.00  0.00    -0.096 F 
ATOM      9  I   UNL d   1      -3.965  -1.534   5.822  0.00  0.00    -0.060 I 
ATOM     10  F2  UNL d   1      -1.129  -1.996   4.412  0.00  0.00    -0.096 F 
ATOM     11  F3  UNL d   1       0.580  -0.278   3.202  0.00  0.00    -0.097 F 
ATOM     12  F4  UNL d   1      -0.020   2.378   3.038  0.00  0.00    -0.092 F 
ENDROOT
TORSDOF 0
ENDMDL
