MODEL 1
REMARK minimizedAffinity 28.4465771
REMARK minimizedRMSD -1
REMARK  0 active torsions:
REMARK  status: ('A' for Active; 'I' for Inactive)
ROOT
ATOM      1  C   UNL d   1      -2.261  -1.351  -1.292  0.00  0.00     0.124 A 
ATOM      2  C1  UNL d   1      -2.631  -0.237  -0.549  0.00  0.00     0.062 A 
ATOM      3  C2  UNL d   1      -2.052  -0.002   0.694  0.00  0.00     0.162 A 
ATOM      4  C3  UNL d   1      -1.097  -0.881   1.204  0.00  0.00    -0.034 A 
ATOM      5  C4  UNL d   1      -0.731  -2.000   0.452  0.00  0.00     0.162 A 
ATOM      6  C5  UNL d   1      -1.312  -2.230  -0.790  0.00  0.00     0.062 A 
ATOM      7  F   UNL d   1      -0.955  -3.307  -1.506  0.00  0.00    -0.097 F 
ATOM      8  F1  UNL d   1       0.184  -2.865   0.912  0.00  0.00    -0.096 F 
ATOM      9  I   UNL d   1      -0.229  -0.533   3.063  0.00  0.00    -0.060 I 
ATOM     10  F2  UNL d   1      -2.427   1.082   1.390  0.00  0.00    -0.096 F 
ATOM     11  F3  UNL d   1      -3.548   0.614  -1.031  0.00  0.00    -0.097 F 
ATOM     12  F4  UNL d   1      -2.821  -1.575  -2.488  0.00  0.00    -0.092 F 
ENDROOT
TORSDOF 0
ENDMDL
