MODEL 1
REMARK minimizedAffinity 18.7239151
REMARK minimizedRMSD -1
REMARK  0 active torsions:
REMARK  status: ('A' for Active; 'I' for Inactive)
ROOT
ATOM      1  C   UNL d   1      -1.938  -2.106  -2.143  0.00  0.00     0.124 A 
ATOM      2  C1  UNL d   1      -2.522  -0.848  -2.191  0.00  0.00     0.062 A 
ATOM      3  C2  UNL d   1      -2.598  -0.067  -1.042  0.00  0.00     0.162 A 
ATOM      4  C3  UNL d   1      -2.088  -0.542   0.167  0.00  0.00    -0.034 A 
ATOM      5  C4  UNL d   1      -1.503  -1.808   0.208  0.00  0.00     0.162 A 
ATOM      6  C5  UNL d   1      -1.429  -2.585  -0.944  0.00  0.00     0.062 A 
ATOM      7  F   UNL d   1      -0.865  -3.801  -0.895  0.00  0.00    -0.097 F 
ATOM      8  F1  UNL d   1      -1.002  -2.296   1.353  0.00  0.00    -0.096 F 
ATOM      9  I   UNL d   1      -2.199   0.623   1.888  0.00  0.00    -0.060 I 
ATOM     10  F2  UNL d   1      -3.167   1.145  -1.118  0.00  0.00    -0.096 F 
ATOM     11  F3  UNL d   1      -3.015  -0.383  -3.348  0.00  0.00    -0.097 F 
ATOM     12  F4  UNL d   1      -1.867  -2.856  -3.250  0.00  0.00    -0.092 F 
ENDROOT
TORSDOF 0
ENDMDL
