MODEL 1
REMARK minimizedAffinity 9.72120953
REMARK minimizedRMSD -1
REMARK  0 active torsions:
REMARK  status: ('A' for Active; 'I' for Inactive)
ROOT
ATOM      1  C   UNL d   1      -1.996  -1.261  -1.577  0.00  0.00     0.124 A 
ATOM      2  C1  UNL d   1      -2.722  -0.303  -0.883  0.00  0.00     0.062 A 
ATOM      3  C2  UNL d   1      -2.504  -0.110   0.478  0.00  0.00     0.162 A 
ATOM      4  C3  UNL d   1      -1.553  -0.875   1.154  0.00  0.00    -0.034 A 
ATOM      5  C4  UNL d   1      -0.827  -1.836   0.449  0.00  0.00     0.162 A 
ATOM      6  C5  UNL d   1      -1.049  -2.026  -0.911  0.00  0.00     0.062 A 
ATOM      7  F   UNL d   1      -0.347  -2.951  -1.580  0.00  0.00    -0.097 F 
ATOM      8  F1  UNL d   1       0.095  -2.589   1.068  0.00  0.00    -0.096 F 
ATOM      9  I   UNL d   1      -1.223  -0.588   3.189  0.00  0.00    -0.060 I 
ATOM     10  F2  UNL d   1      -3.220   0.823   1.124  0.00  0.00    -0.096 F 
ATOM     11  F3  UNL d   1      -3.638   0.437  -1.524  0.00  0.00    -0.097 F 
ATOM     12  F4  UNL d   1      -2.209  -1.446  -2.886  0.00  0.00    -0.092 F 
ENDROOT
TORSDOF 0
ENDMDL
