MODEL 1
REMARK minimizedAffinity 8.01927471
REMARK minimizedRMSD -1
REMARK  0 active torsions:
REMARK  status: ('A' for Active; 'I' for Inactive)
ROOT
ATOM      1  C   UNL d   1      -1.471  -1.003   4.015  0.00  0.00     0.124 A 
ATOM      2  C1  UNL d   1      -0.225  -0.742   3.464  0.00  0.00     0.062 A 
ATOM      3  C2  UNL d   1      -0.119  -0.316   2.143  0.00  0.00     0.162 A 
ATOM      4  C3  UNL d   1      -1.264  -0.148   1.364  0.00  0.00    -0.034 A 
ATOM      5  C4  UNL d   1      -2.514  -0.414   1.925  0.00  0.00     0.162 A 
ATOM      6  C5  UNL d   1      -2.614  -0.839   3.246  0.00  0.00     0.062 A 
ATOM      7  F   UNL d   1      -3.820  -1.091   3.777  0.00  0.00    -0.097 F 
ATOM      8  F1  UNL d   1      -3.635  -0.263   1.205  0.00  0.00    -0.096 F 
ATOM      9  I   UNL d   1      -1.110   0.488  -0.612  0.00  0.00    -0.060 I 
ATOM     10  F2  UNL d   1       1.098  -0.071   1.636  0.00  0.00    -0.096 F 
ATOM     11  F3  UNL d   1       0.881  -0.900   4.205  0.00  0.00    -0.097 F 
ATOM     12  F4  UNL d   1      -1.570  -1.413   5.286  0.00  0.00    -0.092 F 
ENDROOT
TORSDOF 0
ENDMDL
