MODEL 1
REMARK minimizedAffinity 19.4245148
REMARK minimizedRMSD -1
REMARK  0 active torsions:
REMARK  status: ('A' for Active; 'I' for Inactive)
ROOT
ATOM      1  C   UNL d   1      -1.733   0.534   2.358  0.00  0.00     0.124 A 
ATOM      2  C1  UNL d   1      -0.595   0.294   3.114  0.00  0.00     0.062 A 
ATOM      3  C2  UNL d   1       0.006  -0.962   3.095  0.00  0.00     0.162 A 
ATOM      4  C3  UNL d   1      -0.530  -1.987   2.315  0.00  0.00    -0.034 A 
ATOM      5  C4  UNL d   1      -1.676  -1.737   1.558  0.00  0.00     0.162 A 
ATOM      6  C5  UNL d   1      -2.273  -0.481   1.581  0.00  0.00     0.062 A 
ATOM      7  F   UNL d   1      -3.373  -0.251   0.850  0.00  0.00    -0.097 F 
ATOM      8  F1  UNL d   1      -2.218  -2.700   0.798  0.00  0.00    -0.096 F 
ATOM      9  I   UNL d   1       0.366  -3.865   2.283  0.00  0.00    -0.060 I 
ATOM     10  F2  UNL d   1       1.106  -1.166   3.836  0.00  0.00    -0.096 F 
ATOM     11  F3  UNL d   1      -0.072   1.273   3.867  0.00  0.00    -0.097 F 
ATOM     12  F4  UNL d   1      -2.310   1.743   2.380  0.00  0.00    -0.092 F 
ENDROOT
TORSDOF 0
ENDMDL
