MODEL 1
REMARK minimizedAffinity 14.9675837
REMARK minimizedRMSD -1
REMARK  0 active torsions:
REMARK  status: ('A' for Active; 'I' for Inactive)
ROOT
ATOM      1  C   UNL d   1      -1.174   1.022   1.700  0.00  0.00     0.124 A 
ATOM      2  C1  UNL d   1       0.089   0.828   2.243  0.00  0.00     0.062 A 
ATOM      3  C2  UNL d   1       1.004  -0.006   1.607  0.00  0.00     0.162 A 
ATOM      4  C3  UNL d   1       0.660  -0.653   0.420  0.00  0.00    -0.034 A 
ATOM      5  C4  UNL d   1      -0.612  -0.454  -0.120  0.00  0.00     0.162 A 
ATOM      6  C5  UNL d   1      -1.523   0.381   0.520  0.00  0.00     0.062 A 
ATOM      7  F   UNL d   1      -2.742   0.567  -0.007  0.00  0.00    -0.097 F 
ATOM      8  F1  UNL d   1      -0.975  -1.060  -1.259  0.00  0.00    -0.096 F 
ATOM      9  I   UNL d   1       2.025  -1.901  -0.534  0.00  0.00    -0.060 I 
ATOM     10  F2  UNL d   1       2.217  -0.174   2.154  0.00  0.00    -0.096 F 
ATOM     11  F3  UNL d   1       0.428   1.446   3.383  0.00  0.00    -0.097 F 
ATOM     12  F4  UNL d   1      -2.053   1.824   2.314  0.00  0.00    -0.092 F 
ENDROOT
TORSDOF 0
ENDMDL
