MODEL 1
REMARK minimizedAffinity 18.5165882
REMARK minimizedRMSD -1
REMARK  0 active torsions:
REMARK  status: ('A' for Active; 'I' for Inactive)
ROOT
ATOM      1  C   UNL d   1       2.724   2.653   1.796  0.00  0.00     0.124 A 
ATOM      2  C1  UNL d   1       2.081   2.232   0.640  0.00  0.00     0.062 A 
ATOM      3  C2  UNL d   1       0.790   1.717   0.706  0.00  0.00     0.162 A 
ATOM      4  C3  UNL d   1       0.132   1.621   1.932  0.00  0.00    -0.034 A 
ATOM      5  C4  UNL d   1       0.785   2.045   3.090  0.00  0.00     0.162 A 
ATOM      6  C5  UNL d   1       2.076   2.559   3.020  0.00  0.00     0.062 A 
ATOM      7  F   UNL d   1       2.696   2.965   4.138  0.00  0.00    -0.097 F 
ATOM      8  F1  UNL d   1       0.182   1.966   4.286  0.00  0.00    -0.096 F 
ATOM      9  I   UNL d   1      -1.799   0.851   2.034  0.00  0.00    -0.060 I 
ATOM     10  F2  UNL d   1       0.192   1.318  -0.427  0.00  0.00    -0.096 F 
ATOM     11  F3  UNL d   1       2.706   2.321  -0.543  0.00  0.00    -0.097 F 
ATOM     12  F4  UNL d   1       3.967   3.147   1.731  0.00  0.00    -0.092 F 
ENDROOT
TORSDOF 0
ENDMDL
