MODEL 1
REMARK minimizedAffinity 7.41979742
REMARK minimizedRMSD -1
REMARK  0 active torsions:
REMARK  status: ('A' for Active; 'I' for Inactive)
ROOT
ATOM      1  C4' PXY d   1       5.998   6.000   5.862  0.00  0.00     0.077 C 
ATOM      2  C1' PXY d   1       1.844   2.817   3.406  0.00  0.00     0.077 C 
ATOM      3  C1  PXY d   1       2.925   3.654   4.060  0.00  0.00    -0.082 A 
ATOM      4  C2  PXY d   1       3.910   4.142   3.323  0.00  0.00     0.003 A 
ATOM      5  C3  PXY d   1       4.913   4.875   3.903  0.00  0.00     0.003 A 
ATOM      6  C4  PXY d   1       4.880   5.157   5.243  0.00  0.00    -0.082 A 
ATOM      7  C5  PXY d   1       3.872   4.672   5.999  0.00  0.00     0.003 A 
ATOM      8  C6  PXY d   1       2.886   3.895   5.398  0.00  0.00     0.003 A 
ENDROOT
TORSDOF 0
ENDMDL
