MODEL 1
REMARK minimizedAffinity 7.88417768
REMARK minimizedRMSD -1
REMARK  0 active torsions:
REMARK  status: ('A' for Active; 'I' for Inactive)
ROOT
ATOM      1  C4' PXY d   1       2.339   2.976   2.622  0.00  0.00     0.077 C 
ATOM      2  C1' PXY d   1       5.931   5.994   5.999  0.00  0.00     0.077 C 
ATOM      3  C1  PXY d   1       4.985   5.196   5.124  0.00  0.00    -0.082 A 
ATOM      4  C2  PXY d   1       5.256   5.042   3.838  0.00  0.00     0.003 A 
ATOM      5  C3  PXY d   1       4.395   4.351   3.026  0.00  0.00     0.003 A 
ATOM      6  C4  PXY d   1       3.271   3.766   3.545  0.00  0.00    -0.082 A 
ATOM      7  C5  PXY d   1       2.993   3.910   4.859  0.00  0.00     0.003 A 
ATOM      8  C6  PXY d   1       3.859   4.650   5.658  0.00  0.00     0.003 A 
ENDROOT
TORSDOF 0
ENDMDL
