MODEL 1
REMARK minimizedAffinity 3.46484995
REMARK minimizedRMSD -1
REMARK  0 active torsions:
REMARK  status: ('A' for Active; 'I' for Inactive)
ROOT
ATOM      1  C4' PXY d   1       3.822  -0.941   1.225  0.00  0.00     0.077 C 
ATOM      2  C1' PXY d   1       5.449   2.694  -2.965  0.00  0.00     0.077 C 
ATOM      3  C1  PXY d   1       5.012   1.738  -1.873  0.00  0.00    -0.082 A 
ATOM      4  C2  PXY d   1       5.450   1.912  -0.637  0.00  0.00     0.003 A 
ATOM      5  C3  PXY d   1       5.090   1.038   0.356  0.00  0.00     0.003 A 
ATOM      6  C4  PXY d   1       4.230   0.006   0.092  0.00  0.00    -0.082 A 
ATOM      7  C5  PXY d   1       3.770  -0.173  -1.164  0.00  0.00     0.003 A 
ATOM      8  C6  PXY d   1       4.181   0.702  -2.167  0.00  0.00     0.003 A 
ENDROOT
TORSDOF 0
ENDMDL
