MODEL 1
REMARK minimizedAffinity 8.34382439
REMARK minimizedRMSD -1
REMARK  0 active torsions:
REMARK  status: ('A' for Active; 'I' for Inactive)
ROOT
ATOM      1  C4' PXY d   1       5.821   2.575  -2.952  0.00  0.00     0.077 C 
ATOM      2  C1' PXY d   1       2.193  -0.876  -0.063  0.00  0.00     0.077 C 
ATOM      3  C1  PXY d   1       3.144   0.038  -0.811  0.00  0.00    -0.082 A 
ATOM      4  C2  PXY d   1       3.277  -0.089  -2.121  0.00  0.00     0.003 A 
ATOM      5  C3  PXY d   1       4.156   0.708  -2.809  0.00  0.00     0.003 A 
ATOM      6  C4  PXY d   1       4.866   1.680  -2.157  0.00  0.00    -0.082 A 
ATOM      7  C5  PXY d   1       4.727   1.823  -0.822  0.00  0.00     0.003 A 
ATOM      8  C6  PXY d   1       3.861   0.977  -0.136  0.00  0.00     0.003 A 
ENDROOT
TORSDOF 0
ENDMDL
