MODEL 1
REMARK minimizedAffinity 5.55144787
REMARK minimizedRMSD -1
REMARK  0 active torsions:
REMARK  status: ('A' for Active; 'I' for Inactive)
ROOT
ATOM      1  C4' PXY d   1      -1.131  -0.341  -2.632  0.00  0.00     0.077 C 
ATOM      2  C1' PXY d   1      -5.996   2.434  -4.061  0.00  0.00     0.077 C 
ATOM      3  C1  PXY d   1      -4.720   1.700  -3.697  0.00  0.00    -0.082 A 
ATOM      4  C2  PXY d   1      -4.401   1.533  -2.424  0.00  0.00     0.003 A 
ATOM      5  C3  PXY d   1      -3.235   0.900  -2.078  0.00  0.00     0.003 A 
ATOM      6  C4  PXY d   1      -2.414   0.385  -3.045  0.00  0.00    -0.082 A 
ATOM      7  C5  PXY d   1      -2.738   0.541  -4.346  0.00  0.00     0.003 A 
ATOM      8  C6  PXY d   1      -3.905   1.223  -4.677  0.00  0.00     0.003 A 
ENDROOT
TORSDOF 0
ENDMDL
