MODEL 1
REMARK minimizedAffinity 1.28910375
REMARK minimizedRMSD -1
REMARK  0 active torsions:
REMARK  status: ('A' for Active; 'I' for Inactive)
ROOT
ATOM      1  C4' PXY d   1       1.009   2.248   5.999  0.00  0.00     0.077 C 
ATOM      2  C1' PXY d   1       5.566   4.651   3.377  0.00  0.00     0.077 C 
ATOM      3  C1  PXY d   1       4.364   4.022   4.054  0.00  0.00    -0.082 A 
ATOM      4  C2  PXY d   1       4.234   4.108   5.368  0.00  0.00     0.003 A 
ATOM      5  C3  PXY d   1       3.170   3.517   5.999  0.00  0.00     0.003 A 
ATOM      6  C4  PXY d   1       2.202   2.876   5.273  0.00  0.00    -0.082 A 
ATOM      7  C5  PXY d   1       2.322   2.794   3.931  0.00  0.00     0.003 A 
ATOM      8  C6  PXY d   1       3.431   3.365   3.313  0.00  0.00     0.003 A 
ENDROOT
TORSDOF 0
ENDMDL
