MODEL 1
REMARK minimizedAffinity 8.45765495
REMARK minimizedRMSD -1
REMARK  0 active torsions:
REMARK  status: ('A' for Active; 'I' for Inactive)
ROOT
ATOM      1  C4' PXY d   1       6.000   1.805  -2.630  0.00  0.00     0.077 C 
ATOM      2  C1' PXY d   1       1.283  -1.066  -0.921  0.00  0.00     0.077 C 
ATOM      3  C1  PXY d   1       2.518  -0.305  -1.360  0.00  0.00    -0.082 A 
ATOM      4  C2  PXY d   1       2.935  -0.399  -2.612  0.00  0.00     0.003 A 
ATOM      5  C3  PXY d   1       4.068   0.257  -3.017  0.00  0.00     0.003 A 
ATOM      6  C4  PXY d   1       4.752   1.061  -2.145  0.00  0.00    -0.082 A 
ATOM      7  C5  PXY d   1       4.328   1.171  -0.869  0.00  0.00     0.003 A 
ATOM      8  C6  PXY d   1       3.198   0.464  -0.467  0.00  0.00     0.003 A 
ENDROOT
TORSDOF 0
ENDMDL
