MODEL 1
REMARK minimizedAffinity 10.1968269
REMARK minimizedRMSD -1
REMARK  0 active torsions:
REMARK  status: ('A' for Active; 'I' for Inactive)
ROOT
ATOM      1  C4' PXY d   1       5.999   2.185  -2.605  0.00  0.00     0.077 C 
ATOM      2  C1' PXY d   1       1.534  -1.234  -1.271  0.00  0.00     0.077 C 
ATOM      3  C1  PXY d   1       2.711  -0.348  -1.627  0.00  0.00    -0.082 A 
ATOM      4  C2  PXY d   1       2.944   0.745  -0.918  0.00  0.00     0.003 A 
ATOM      5  C3  PXY d   1       3.985   1.575  -1.246  0.00  0.00     0.003 A 
ATOM      6  C4  PXY d   1       4.828   1.256  -2.276  0.00  0.00    -0.082 A 
ATOM      7  C5  PXY d   1       4.603   0.137  -2.997  0.00  0.00     0.003 A 
ATOM      8  C6  PXY d   1       3.517  -0.671  -2.674  0.00  0.00     0.003 A 
ENDROOT
TORSDOF 0
ENDMDL
