MODEL 1
REMARK minimizedAffinity 12.5905209
REMARK minimizedRMSD -1
REMARK  0 active torsions:
REMARK  status: ('A' for Active; 'I' for Inactive)
ROOT
ATOM      1  C4' PXY d   1       5.148   3.317   0.781  0.00  0.00     0.077 C 
ATOM      2  C1' PXY d   1       4.335   5.667   5.999  0.00  0.00     0.077 C 
ATOM      3  C1  PXY d   1       4.537   5.056   4.626  0.00  0.00    -0.082 A 
ATOM      4  C2  PXY d   1       5.240   3.942   4.503  0.00  0.00     0.003 A 
ATOM      5  C3  PXY d   1       5.459   3.394   3.266  0.00  0.00     0.003 A 
ATOM      6  C4  PXY d   1       4.910   3.964   2.148  0.00  0.00    -0.082 A 
ATOM      7  C5  PXY d   1       4.184   5.095   2.267  0.00  0.00     0.003 A 
ATOM      8  C6  PXY d   1       4.007   5.658   3.528  0.00  0.00     0.003 A 
ENDROOT
TORSDOF 0
ENDMDL
