MODEL 1
REMARK minimizedAffinity 6.30948305
REMARK minimizedRMSD -1
REMARK  0 active torsions:
REMARK  status: ('A' for Active; 'I' for Inactive)
ROOT
ATOM      1  C4' PXY d   1      -0.978  -1.233  -1.913  0.00  0.00     0.077 C 
ATOM      2  C1' PXY d   1       3.928  -1.863   1.079  0.00  0.00     0.077 C 
ATOM      3  C1  PXY d   1       2.635  -1.695   0.305  0.00  0.00    -0.082 A 
ATOM      4  C2  PXY d   1       2.493  -2.290  -0.868  0.00  0.00     0.003 A 
ATOM      5  C3  PXY d   1       1.343  -2.123  -1.595  0.00  0.00     0.003 A 
ATOM      6  C4  PXY d   1       0.307  -1.382  -1.093  0.00  0.00    -0.082 A 
ATOM      7  C5  PXY d   1       0.440  -0.781   0.109  0.00  0.00     0.003 A 
ATOM      8  C6  PXY d   1       1.631  -0.929   0.813  0.00  0.00     0.003 A 
ENDROOT
TORSDOF 0
ENDMDL
