MODEL 1
REMARK minimizedAffinity 4.40909576
REMARK minimizedRMSD -1
REMARK  0 active torsions:
REMARK  status: ('A' for Active; 'I' for Inactive)
ROOT
ATOM      1  C4' PXY d   1      -1.097  -2.942  -3.814  0.00  0.00     0.077 C 
ATOM      2  C1' PXY d   1       0.374   0.205   0.807  0.00  0.00     0.077 C 
ATOM      3  C1  PXY d   1      -0.002  -0.628  -0.403  0.00  0.00    -0.082 A 
ATOM      4  C2  PXY d   1      -0.697  -0.079  -1.386  0.00  0.00     0.003 A 
ATOM      5  C3  PXY d   1      -1.072  -0.827  -2.472  0.00  0.00     0.003 A 
ATOM      6  C4  PXY d   1      -0.687  -2.136  -2.578  0.00  0.00    -0.082 A 
ATOM      7  C5  PXY d   1       0.031  -2.701  -1.584  0.00  0.00     0.003 A 
ATOM      8  C6  PXY d   1       0.367  -1.936  -0.471  0.00  0.00     0.003 A 
ENDROOT
TORSDOF 0
ENDMDL
