MODEL 1
REMARK minimizedAffinity 6.97159576
REMARK minimizedRMSD -1
REMARK  2 active torsions:
REMARK  status: ('A' for Active; 'I' for Inactive)
REMARK    1  A    between atoms: C2'_3  and  C1'_4 
REMARK    2  A    between atoms: C1'_4  and  C1_5 
ROOT
ATOM      1  C1  I4B d   1       0.436   0.719   0.485  0.00  0.00    -0.075 A 
ATOM      2  C2  I4B d   1       0.555   0.703  -0.883  0.00  0.00     0.003 A 
ATOM      3  C3  I4B d   1       1.109   1.815  -1.563  0.00  0.00     0.002 A 
ATOM      4  C4  I4B d   1       1.481   2.934  -0.846  0.00  0.00    -0.004 A 
ATOM      5  C5  I4B d   1       1.381   2.939   0.542  0.00  0.00     0.002 A 
ATOM      6  C6  I4B d   1       0.867   1.820   1.213  0.00  0.00     0.003 A 
ENDROOT
BRANCH   1   7
ATOM      7  C1' I4B d   1      -0.183  -0.458   1.168  0.00  0.00     0.060 C 
BRANCH   7   8
ATOM      8  C2' I4B d   1      -1.685  -0.362   0.994  0.00  0.00    -0.013 C 
ATOM      9  C4' I4B d   1      -2.203   0.976   1.454  0.00  0.00     0.013 C 
ATOM     10  C3' I4B d   1      -2.000  -0.596  -0.453  0.00  0.00     0.013 C 
ENDBRANCH   7   8
ENDBRANCH   1   7
TORSDOF 2
ENDMDL
