MODEL 1
REMARK minimizedAffinity 10.7629881
REMARK minimizedRMSD -1
REMARK  2 active torsions:
REMARK  status: ('A' for Active; 'I' for Inactive)
REMARK    1  A    between atoms: C2'_3  and  C1'_4 
REMARK    2  A    between atoms: C1'_4  and  C1_5 
ROOT
ATOM      1  C1  I4B d   1       0.917   4.261  -4.947  0.00  0.00    -0.075 A 
ATOM      2  C2  I4B d   1       1.870   4.262  -5.935  0.00  0.00     0.003 A 
ATOM      3  C3  I4B d   1       2.858   3.248  -5.973  0.00  0.00     0.002 A 
ATOM      4  C4  I4B d   1       2.885   2.288  -4.982  0.00  0.00    -0.004 A 
ATOM      5  C5  I4B d   1       1.904   2.275  -3.995  0.00  0.00     0.002 A 
ATOM      6  C6  I4B d   1       0.906   3.260  -3.984  0.00  0.00     0.003 A 
ENDROOT
BRANCH   1   7
ATOM      7  C1' I4B d   1      -0.092   5.365  -4.918  0.00  0.00     0.060 C 
BRANCH   7   8
ATOM      8  C2' I4B d   1      -1.132   5.076  -5.980  0.00  0.00    -0.013 C 
ATOM      9  C4' I4B d   1      -1.503   3.616  -5.997  0.00  0.00     0.013 C 
ATOM     10  C3' I4B d   1      -2.330   5.935  -5.702  0.00  0.00     0.013 C 
ENDBRANCH   7   8
ENDBRANCH   1   7
TORSDOF 2
ENDMDL
