MODEL 1
REMARK minimizedAffinity 17.4289112
REMARK minimizedRMSD -1
REMARK  2 active torsions:
REMARK  status: ('A' for Active; 'I' for Inactive)
REMARK    1  A    between atoms: C2'_3  and  C1'_4 
REMARK    2  A    between atoms: C1'_4  and  C1_5 
ROOT
ATOM      1  C1  I4B d   1      -0.938   2.991  -5.992  0.00  0.00    -0.075 A 
ATOM      2  C2  I4B d   1      -2.177   2.399  -5.997  0.00  0.00     0.003 A 
ATOM      3  C3  I4B d   1      -3.347   3.196  -5.980  0.00  0.00     0.002 A 
ATOM      4  C4  I4B d   1      -3.234   4.569  -5.907  0.00  0.00    -0.004 A 
ATOM      5  C5  I4B d   1      -1.977   5.168  -5.925  0.00  0.00     0.002 A 
ATOM      6  C6  I4B d   1      -0.822   4.375  -5.981  0.00  0.00     0.003 A 
ENDROOT
BRANCH   1   7
ATOM      7  C1' I4B d   1       0.277   2.119  -5.978  0.00  0.00     0.060 C 
BRANCH   7   8
ATOM      8  C2' I4B d   1       1.325   2.792  -5.115  0.00  0.00    -0.013 C 
ATOM      9  C4' I4B d   1       1.008   2.635  -3.651  0.00  0.00     0.013 C 
ATOM     10  C3' I4B d   1       2.657   2.190  -5.449  0.00  0.00     0.013 C 
ENDBRANCH   7   8
ENDBRANCH   1   7
TORSDOF 2
ENDMDL
