MODEL 1
REMARK minimizedAffinity 5.58163977
REMARK minimizedRMSD -1
REMARK  2 active torsions:
REMARK  status: ('A' for Active; 'I' for Inactive)
REMARK    1  A    between atoms: C2'_3  and  C1'_4 
REMARK    2  A    between atoms: C1'_4  and  C1_5 
ROOT
ATOM      1  C1  I4B d   1      -1.287   4.029  -5.374  0.00  0.00    -0.075 A 
ATOM      2  C2  I4B d   1      -1.618   3.404  -4.197  0.00  0.00     0.003 A 
ATOM      3  C3  I4B d   1      -0.717   2.493  -3.596  0.00  0.00     0.002 A 
ATOM      4  C4  I4B d   1       0.475   2.199  -4.227  0.00  0.00    -0.004 A 
ATOM      5  C5  I4B d   1       0.819   2.850  -5.408  0.00  0.00     0.002 A 
ATOM      6  C6  I4B d   1      -0.062   3.780  -5.979  0.00  0.00     0.003 A 
ENDROOT
BRANCH   1   7
ATOM      7  C1' I4B d   1      -2.276   4.960  -5.999  0.00  0.00     0.060 C 
BRANCH   7   8
ATOM      8  C2' I4B d   1      -3.654   4.585  -5.494  0.00  0.00    -0.013 C 
ATOM      9  C4' I4B d   1      -4.694   5.566  -5.968  0.00  0.00     0.013 C 
ATOM     10  C3' I4B d   1      -3.961   3.197  -5.971  0.00  0.00     0.013 C 
ENDBRANCH   7   8
ENDBRANCH   1   7
TORSDOF 2
ENDMDL
