MODEL 1
REMARK minimizedAffinity 1.11411119
REMARK minimizedRMSD -1
REMARK  2 active torsions:
REMARK  status: ('A' for Active; 'I' for Inactive)
REMARK    1  A    between atoms: C2'_3  and  C1'_4 
REMARK    2  A    between atoms: C1'_4  and  C1_5 
ROOT
ATOM      1  C1  I4B d   1      -0.200   4.032  -5.930  0.00  0.00    -0.075 A 
ATOM      2  C2  I4B d   1      -0.749   5.290  -5.921  0.00  0.00     0.003 A 
ATOM      3  C3  I4B d   1      -2.156   5.454  -5.929  0.00  0.00     0.002 A 
ATOM      4  C4  I4B d   1      -2.969   4.341  -5.998  0.00  0.00    -0.004 A 
ATOM      5  C5  I4B d   1      -2.411   3.066  -5.984  0.00  0.00     0.002 A 
ATOM      6  C6  I4B d   1      -1.018   2.910  -5.938  0.00  0.00     0.003 A 
ENDROOT
BRANCH   1   7
ATOM      7  C1' I4B d   1       1.290   3.896  -5.954  0.00  0.00     0.060 C 
BRANCH   7   8
ATOM      8  C2' I4B d   1       1.638   2.497  -5.489  0.00  0.00    -0.013 C 
ATOM      9  C4' I4B d   1       3.009   2.091  -5.963  0.00  0.00     0.013 C 
ATOM     10  C3' I4B d   1       1.553   2.472  -3.992  0.00  0.00     0.013 C 
ENDBRANCH   7   8
ENDBRANCH   1   7
TORSDOF 2
ENDMDL
