MODEL 1
REMARK minimizedAffinity 3.79803562
REMARK minimizedRMSD -1
REMARK  2 active torsions:
REMARK  status: ('A' for Active; 'I' for Inactive)
REMARK    1  A    between atoms: C2'_3  and  C1'_4 
REMARK    2  A    between atoms: C1'_4  and  C1_5 
ROOT
ATOM      1  C1  I4B d   1       0.537   3.132  -5.300  0.00  0.00    -0.075 A 
ATOM      2  C2  I4B d   1       0.365   2.937  -3.952  0.00  0.00     0.003 A 
ATOM      3  C3  I4B d   1       1.146   1.976  -3.265  0.00  0.00     0.002 A 
ATOM      4  C4  I4B d   1       2.045   1.202  -3.970  0.00  0.00    -0.004 A 
ATOM      5  C5  I4B d   1       2.235   1.417  -5.332  0.00  0.00     0.002 A 
ATOM      6  C6  I4B d   1       1.485   2.396  -5.999  0.00  0.00     0.003 A 
ENDROOT
BRANCH   1   7
ATOM      7  C1' I4B d   1      -0.328   4.132  -6.000  0.00  0.00     0.060 C 
BRANCH   7   8
ATOM      8  C2' I4B d   1      -1.739   3.983  -5.466  0.00  0.00    -0.013 C 
ATOM      9  C4' I4B d   1      -2.597   5.157  -5.859  0.00  0.00     0.013 C 
ATOM     10  C3' I4B d   1      -2.302   2.699  -5.998  0.00  0.00     0.013 C 
ENDBRANCH   7   8
ENDBRANCH   1   7
TORSDOF 2
ENDMDL
