MODEL 1
REMARK minimizedAffinity 9.19098091
REMARK minimizedRMSD -1
REMARK  2 active torsions:
REMARK  status: ('A' for Active; 'I' for Inactive)
REMARK    1  A    between atoms: C2'_3  and  C1'_4 
REMARK    2  A    between atoms: C1'_4  and  C1_5 
ROOT
ATOM      1  C1  I4B d   1       1.101   0.288  -0.122  0.00  0.00    -0.075 A 
ATOM      2  C2  I4B d   1       2.216  -0.279  -0.687  0.00  0.00     0.003 A 
ATOM      3  C3  I4B d   1       2.976  -1.231   0.035  0.00  0.00     0.002 A 
ATOM      4  C4  I4B d   1       2.616  -1.547   1.329  0.00  0.00    -0.004 A 
ATOM      5  C5  I4B d   1       1.472  -0.989   1.892  0.00  0.00     0.002 A 
ATOM      6  C6  I4B d   1       0.702  -0.075   1.158  0.00  0.00     0.003 A 
ENDROOT
BRANCH   1   7
ATOM      7  C1' I4B d   1       0.341   1.314  -0.901  0.00  0.00     0.060 C 
BRANCH   7   8
ATOM      8  C2' I4B d   1       0.209   2.552  -0.037  0.00  0.00    -0.013 C 
ATOM      9  C4' I4B d   1       0.871   3.741  -0.683  0.00  0.00     0.013 C 
ATOM     10  C3' I4B d   1      -1.252   2.803   0.191  0.00  0.00     0.013 C 
ENDBRANCH   7   8
ENDBRANCH   1   7
TORSDOF 2
ENDMDL
