MODEL 1
REMARK minimizedAffinity 13.7886124
REMARK minimizedRMSD -1
REMARK  2 active torsions:
REMARK  status: ('A' for Active; 'I' for Inactive)
REMARK    1  A    between atoms: C2'_3  and  C1'_4 
REMARK    2  A    between atoms: C1'_4  and  C1_5 
ROOT
ATOM      1  C1  I4B d   1       3.427  -1.495   3.354  0.00  0.00    -0.075 A 
ATOM      2  C2  I4B d   1       2.408  -1.455   4.273  0.00  0.00     0.003 A 
ATOM      3  C3  I4B d   1       2.651  -1.807   5.623  0.00  0.00     0.002 A 
ATOM      4  C4  I4B d   1       3.907  -2.239   5.997  0.00  0.00    -0.004 A 
ATOM      5  C5  I4B d   1       4.945  -2.256   5.069  0.00  0.00     0.002 A 
ATOM      6  C6  I4B d   1       4.706  -1.870   3.742  0.00  0.00     0.003 A 
ENDROOT
BRANCH   1   7
ATOM      7  C1' I4B d   1       3.127  -1.148   1.930  0.00  0.00     0.060 C 
BRANCH   7   8
ATOM      8  C2' I4B d   1       1.696  -0.656   1.861  0.00  0.00    -0.013 C 
ATOM      9  C4' I4B d   1       1.597   0.625   1.075  0.00  0.00     0.013 C 
ATOM     10  C3' I4B d   1       0.864  -1.738   1.239  0.00  0.00     0.013 C 
ENDBRANCH   7   8
ENDBRANCH   1   7
TORSDOF 2
ENDMDL
