MODEL 1
REMARK minimizedAffinity 5.04686832
REMARK minimizedRMSD -1
REMARK  2 active torsions:
REMARK  status: ('A' for Active; 'I' for Inactive)
REMARK    1  A    between atoms: C2'_3  and  C1'_4 
REMARK    2  A    between atoms: C1'_4  and  C1_5 
ROOT
ATOM      1  C1  I4B d   1      -5.071   3.377  -4.790  0.00  0.00    -0.075 A 
ATOM      2  C2  I4B d   1      -3.733   3.304  -4.493  0.00  0.00     0.003 A 
ATOM      3  C3  I4B d   1      -2.849   4.318  -4.933  0.00  0.00     0.002 A 
ATOM      4  C4  I4B d   1      -3.333   5.354  -5.705  0.00  0.00    -0.004 A 
ATOM      5  C5  I4B d   1      -4.694   5.439  -5.986  0.00  0.00     0.002 A 
ATOM      6  C6  I4B d   1      -5.571   4.450  -5.516  0.00  0.00     0.003 A 
ENDROOT
BRANCH   1   7
ATOM      7  C1' I4B d   1      -5.971   2.271  -4.338  0.00  0.00     0.060 C 
BRANCH   7   8
ATOM      8  C2' I4B d   1      -5.483   1.796  -2.984  0.00  0.00    -0.013 C 
ATOM      9  C4' I4B d   1      -5.971   2.697  -1.881  0.00  0.00     0.013 C 
ATOM     10  C3' I4B d   1      -5.964   0.389  -2.787  0.00  0.00     0.013 C 
ENDBRANCH   7   8
ENDBRANCH   1   7
TORSDOF 2
ENDMDL
