MODEL 1
REMARK minimizedAffinity 0.413572818
REMARK minimizedRMSD -1
REMARK  0 active torsions:
REMARK  status: ('A' for Active; 'I' for Inactive)
ROOT
ATOM      1  C1  BNZ d   1      -5.998   3.474   0.731  0.00  0.00     0.000 A 
ATOM      2  C2  BNZ d   1      -5.982   3.256  -0.621  0.00  0.00     0.000 A 
ATOM      3  C3  BNZ d   1      -5.949   4.304  -1.498  0.00  0.00     0.000 A 
ATOM      4  C4  BNZ d   1      -5.974   5.567  -1.024  0.00  0.00     0.000 A 
ATOM      5  C5  BNZ d   1      -6.000   5.802   0.336  0.00  0.00     0.000 A 
ATOM      6  C6  BNZ d   1      -5.993   4.745   1.216  0.00  0.00     0.000 A 
ENDROOT
TORSDOF 0
ENDMDL
