MODEL 1
REMARK minimizedAffinity -1.83829308
REMARK minimizedRMSD -1
REMARK  0 active torsions:
REMARK  status: ('A' for Active; 'I' for Inactive)
ROOT
ATOM      1  C1  BNZ d   1       1.131   2.414   3.174  0.00  0.00     0.000 A 
ATOM      2  C2  BNZ d   1      -0.206   2.147   3.040  0.00  0.00     0.000 A 
ATOM      3  C3  BNZ d   1      -0.633   0.944   2.551  0.00  0.00     0.000 A 
ATOM      4  C4  BNZ d   1       0.275   0.027   2.160  0.00  0.00     0.000 A 
ATOM      5  C5  BNZ d   1       1.626   0.285   2.280  0.00  0.00     0.000 A 
ATOM      6  C6  BNZ d   1       2.052   1.481   2.810  0.00  0.00     0.000 A 
ENDROOT
TORSDOF 0
ENDMDL
