MODEL 1
REMARK minimizedAffinity 3.19523716
REMARK minimizedRMSD -1
REMARK  0 active torsions:
REMARK  status: ('A' for Active; 'I' for Inactive)
ROOT
ATOM      1  C1  BNZ d   1       0.726   0.464   2.658  0.00  0.00     0.000 A 
ATOM      2  C2  BNZ d   1       0.320   1.770   2.586  0.00  0.00     0.000 A 
ATOM      3  C3  BNZ d   1      -0.996   2.103   2.742  0.00  0.00     0.000 A 
ATOM      4  C4  BNZ d   1      -1.909   1.129   2.929  0.00  0.00     0.000 A 
ATOM      5  C5  BNZ d   1      -1.517  -0.193   2.995  0.00  0.00     0.000 A 
ATOM      6  C6  BNZ d   1      -0.186  -0.522   2.876  0.00  0.00     0.000 A 
ENDROOT
TORSDOF 0
ENDMDL
