MODEL 1
REMARK minimizedAffinity -1.17568815
REMARK minimizedRMSD -1
REMARK  0 active torsions:
REMARK  status: ('A' for Active; 'I' for Inactive)
ROOT
ATOM      1  C1  BNZ d   1      -5.995   3.612   0.266  0.00  0.00     0.000 A 
ATOM      2  C2  BNZ d   1      -6.000   4.796   0.954  0.00  0.00     0.000 A 
ATOM      3  C3  BNZ d   1      -5.962   5.991   0.290  0.00  0.00     0.000 A 
ATOM      4  C4  BNZ d   1      -5.879   5.999  -1.056  0.00  0.00     0.000 A 
ATOM      5  C5  BNZ d   1      -5.864   4.813  -1.763  0.00  0.00     0.000 A 
ATOM      6  C6  BNZ d   1      -5.942   3.614  -1.094  0.00  0.00     0.000 A 
ENDROOT
TORSDOF 0
ENDMDL
