MODEL 1
REMARK minimizedAffinity 3.30855274
REMARK minimizedRMSD -1
REMARK  0 active torsions:
REMARK  status: ('A' for Active; 'I' for Inactive)
ROOT
ATOM      1  C1  BNZ d   1      -0.907  -2.338  -2.266  0.00  0.00     0.000 A 
ATOM      2  C2  BNZ d   1      -0.819  -2.468  -0.906  0.00  0.00     0.000 A 
ATOM      3  C3  BNZ d   1      -1.766  -1.917  -0.088  0.00  0.00     0.000 A 
ATOM      4  C4  BNZ d   1      -2.775  -1.204  -0.628  0.00  0.00     0.000 A 
ATOM      5  C5  BNZ d   1      -2.873  -1.057  -1.997  0.00  0.00     0.000 A 
ATOM      6  C6  BNZ d   1      -1.940  -1.645  -2.819  0.00  0.00     0.000 A 
ENDROOT
TORSDOF 0
ENDMDL
