MODEL 1
REMARK minimizedAffinity 1.48383152
REMARK minimizedRMSD -1
REMARK  0 active torsions:
REMARK  status: ('A' for Active; 'I' for Inactive)
ROOT
ATOM      1  C1  BNZ d   1      -1.806  -0.245   3.488  0.00  0.00     0.000 A 
ATOM      2  C2  BNZ d   1      -1.368   0.795   2.712  0.00  0.00     0.000 A 
ATOM      3  C3  BNZ d   1      -1.453   0.736   1.350  0.00  0.00     0.000 A 
ATOM      4  C4  BNZ d   1      -1.939  -0.377   0.763  0.00  0.00     0.000 A 
ATOM      5  C5  BNZ d   1      -2.376  -1.438   1.531  0.00  0.00     0.000 A 
ATOM      6  C6  BNZ d   1      -2.325  -1.359   2.904  0.00  0.00     0.000 A 
ENDROOT
TORSDOF 0
ENDMDL
