MODEL 1
REMARK minimizedAffinity 3.32387686
REMARK minimizedRMSD -1
REMARK  0 active torsions:
REMARK  status: ('A' for Active; 'I' for Inactive)
ROOT
ATOM      1  C1  BNZ d   1       0.686  -0.390   1.054  0.00  0.00     0.000 A 
ATOM      2  C2  BNZ d   1       1.620  -0.970   0.238  0.00  0.00     0.000 A 
ATOM      3  C3  BNZ d   1       1.247  -1.857  -0.733  0.00  0.00     0.000 A 
ATOM      4  C4  BNZ d   1      -0.053  -2.193  -0.860  0.00  0.00     0.000 A 
ATOM      5  C5  BNZ d   1      -1.005  -1.623  -0.039  0.00  0.00     0.000 A 
ATOM      6  C6  BNZ d   1      -0.631  -0.701   0.912  0.00  0.00     0.000 A 
ENDROOT
TORSDOF 0
ENDMDL
