MODEL 1
REMARK minimizedAffinity 2.52014112
REMARK minimizedRMSD -1
REMARK  0 active torsions:
REMARK  status: ('A' for Active; 'I' for Inactive)
ROOT
ATOM      1  C1  BNZ d   1       1.392   0.333   0.782  0.00  0.00     0.000 A 
ATOM      2  C2  BNZ d   1       1.397   0.421   2.148  0.00  0.00     0.000 A 
ATOM      3  C3  BNZ d   1       2.424  -0.109   2.879  0.00  0.00     0.000 A 
ATOM      4  C4  BNZ d   1       3.422  -0.759   2.247  0.00  0.00     0.000 A 
ATOM      5  C5  BNZ d   1       3.425  -0.865   0.870  0.00  0.00     0.000 A 
ATOM      6  C6  BNZ d   1       2.410  -0.297   0.135  0.00  0.00     0.000 A 
ENDROOT
TORSDOF 0
ENDMDL
