MODEL 1
REMARK minimizedAffinity 0.962718487
REMARK minimizedRMSD -1
REMARK  0 active torsions:
REMARK  status: ('A' for Active; 'I' for Inactive)
ROOT
ATOM      1  C1  BNZ d   1       0.273  -1.587  -0.142  0.00  0.00     0.000 A 
ATOM      2  C2  BNZ d   1      -0.904  -1.149   0.403  0.00  0.00     0.000 A 
ATOM      3  C3  BNZ d   1      -0.911  -0.401   1.547  0.00  0.00     0.000 A 
ATOM      4  C4  BNZ d   1       0.255  -0.127   2.167  0.00  0.00     0.000 A 
ATOM      5  C5  BNZ d   1       1.450  -0.569   1.635  0.00  0.00     0.000 A 
ATOM      6  C6  BNZ d   1       1.456  -1.288   0.462  0.00  0.00     0.000 A 
ENDROOT
TORSDOF 0
ENDMDL
