MODEL 1
REMARK minimizedAffinity 3.61832452
REMARK minimizedRMSD -1
REMARK  0 active torsions:
REMARK  status: ('A' for Active; 'I' for Inactive)
ROOT
ATOM      1  C1  BNZ d   1       0.043  -0.791   0.341  0.00  0.00     0.000 A 
ATOM      2  C2  BNZ d   1      -1.086  -0.609   1.094  0.00  0.00     0.000 A 
ATOM      3  C3  BNZ d   1      -1.013  -0.069   2.347  0.00  0.00     0.000 A 
ATOM      4  C4  BNZ d   1       0.192   0.252   2.861  0.00  0.00     0.000 A 
ATOM      5  C5  BNZ d   1       1.341   0.067   2.118  0.00  0.00     0.000 A 
ATOM      6  C6  BNZ d   1       1.259  -0.441   0.842  0.00  0.00     0.000 A 
ENDROOT
TORSDOF 0
ENDMDL
