MODEL 1
REMARK minimizedAffinity 6.45727158
REMARK minimizedRMSD -1
REMARK  0 active torsions:
REMARK  status: ('A' for Active; 'I' for Inactive)
ROOT
ATOM      1  C1  BNZ d   1      -2.610   1.598   1.547  0.00  0.00     0.000 A 
ATOM      2  C2  BNZ d   1      -1.656   1.459   2.520  0.00  0.00     0.000 A 
ATOM      3  C3  BNZ d   1      -0.978   0.281   2.672  0.00  0.00     0.000 A 
ATOM      4  C4  BNZ d   1      -1.283  -0.766   1.878  0.00  0.00     0.000 A 
ATOM      5  C5  BNZ d   1      -2.249  -0.644   0.899  0.00  0.00     0.000 A 
ATOM      6  C6  BNZ d   1      -2.901   0.555   0.724  0.00  0.00     0.000 A 
ENDROOT
TORSDOF 0
ENDMDL
