MODEL 1
REMARK minimizedAffinity -4.65895414
REMARK minimizedRMSD -1
REMARK  0 active torsions:
REMARK  status: ('A' for Active; 'I' for Inactive)
ROOT
ATOM      1  C   UNL d   1      -1.653   2.357   1.355  0.00  0.00     0.023 A 
ATOM      2  C1  UNL d   1      -1.070   1.318   2.081  0.00  0.00     0.003 A 
ATOM      3  C2  UNL d   1      -0.292   0.359   1.429  0.00  0.00     0.048 A 
ATOM      4  C3  UNL d   1      -0.100   0.446   0.051  0.00  0.00     0.023 A 
ATOM      5  C4  UNL d   1      -0.680   1.484  -0.680  0.00  0.00     0.048 A 
ATOM      6  C5  UNL d   1      -1.458   2.440  -0.023  0.00  0.00     0.003 A 
ATOM      7  I   UNL d   1       1.057  -0.980  -0.922  0.00  0.00    -0.146 I 
ENDROOT
TORSDOF 0
ENDMDL
