MODEL 1
REMARK minimizedAffinity -4.59030724
REMARK minimizedRMSD -1
REMARK  0 active torsions:
REMARK  status: ('A' for Active; 'I' for Inactive)
ROOT
ATOM      1  C   UNL d   1      -1.764   2.764   1.495  0.00  0.00     0.023 A 
ATOM      2  C1  UNL d   1      -0.909   3.076   0.438  0.00  0.00     0.003 A 
ATOM      3  C2  UNL d   1      -0.197   2.064  -0.207  0.00  0.00     0.048 A 
ATOM      4  C3  UNL d   1      -0.344   0.741   0.209  0.00  0.00     0.023 A 
ATOM      5  C4  UNL d   1      -1.199   0.424   1.266  0.00  0.00     0.048 A 
ATOM      6  C5  UNL d   1      -1.909   1.440   1.909  0.00  0.00     0.003 A 
ATOM      7  I   UNL d   1       0.715  -0.768  -0.750  0.00  0.00    -0.146 I 
ENDROOT
TORSDOF 0
ENDMDL
