MODEL 1
REMARK minimizedAffinity -5.52141714
REMARK minimizedRMSD -1
REMARK  0 active torsions:
REMARK  status: ('A' for Active; 'I' for Inactive)
ROOT
ATOM      1  C   UNL d   1      -1.948   2.959   0.759  0.00  0.00     0.023 A 
ATOM      2  C1  UNL d   1      -1.684   1.806   1.498  0.00  0.00     0.003 A 
ATOM      3  C2  UNL d   1      -0.807   0.840   0.999  0.00  0.00     0.048 A 
ATOM      4  C3  UNL d   1      -0.196   1.035  -0.239  0.00  0.00     0.023 A 
ATOM      5  C4  UNL d   1      -0.457   2.187  -0.982  0.00  0.00     0.048 A 
ATOM      6  C5  UNL d   1      -1.336   3.149  -0.480  0.00  0.00     0.003 A 
ATOM      7  I   UNL d   1       1.110  -0.400  -0.984  0.00  0.00    -0.146 I 
ENDROOT
TORSDOF 0
ENDMDL
