MODEL 1
REMARK minimizedAffinity -4.82374811
REMARK minimizedRMSD -1
REMARK  0 active torsions:
REMARK  status: ('A' for Active; 'I' for Inactive)
ROOT
ATOM      1  C   UNL d   1      -1.253   3.026   1.246  0.00  0.00     0.023 A 
ATOM      2  C1  UNL d   1      -1.089   1.900   2.053  0.00  0.00     0.003 A 
ATOM      3  C2  UNL d   1      -0.620   0.706   1.501  0.00  0.00     0.048 A 
ATOM      4  C3  UNL d   1      -0.317   0.645   0.141  0.00  0.00     0.023 A 
ATOM      5  C4  UNL d   1      -0.479   1.770  -0.670  0.00  0.00     0.048 A 
ATOM      6  C5  UNL d   1      -0.949   2.961  -0.114  0.00  0.00     0.003 A 
ATOM      7  I   UNL d   1       0.381  -1.130  -0.683  0.00  0.00    -0.146 I 
ENDROOT
TORSDOF 0
ENDMDL
