MODEL 1
REMARK minimizedAffinity -5.33522654
REMARK minimizedRMSD -1
REMARK  0 active torsions:
REMARK  status: ('A' for Active; 'I' for Inactive)
ROOT
ATOM      1  C   UNL d   1      -1.741   3.402   0.937  0.00  0.00     0.023 A 
ATOM      2  C1  UNL d   1      -1.956   2.137   1.483  0.00  0.00     0.003 A 
ATOM      3  C2  UNL d   1      -1.242   1.037   1.003  0.00  0.00     0.048 A 
ATOM      4  C3  UNL d   1      -0.314   1.210  -0.024  0.00  0.00     0.023 A 
ATOM      5  C4  UNL d   1      -0.095   2.474  -0.573  0.00  0.00     0.048 A 
ATOM      6  C5  UNL d   1      -0.812   3.571  -0.090  0.00  0.00     0.003 A 
ATOM      7  I   UNL d   1       0.749  -0.426  -0.741  0.00  0.00    -0.146 I 
ENDROOT
TORSDOF 0
ENDMDL
