MODEL 1
REMARK minimizedAffinity -2.87397647
REMARK minimizedRMSD -1
REMARK  0 active torsions:
REMARK  status: ('A' for Active; 'I' for Inactive)
ROOT
ATOM      1  C   UNL d   1       0.358   1.065   0.132  0.00  0.00     0.023 A 
ATOM      2  C1  UNL d   1       1.405   0.827  -0.759  0.00  0.00     0.003 A 
ATOM      3  C2  UNL d   1       1.573  -0.442  -1.317  0.00  0.00     0.048 A 
ATOM      4  C3  UNL d   1       0.691  -1.468  -0.980  0.00  0.00     0.023 A 
ATOM      5  C4  UNL d   1      -0.359  -1.234  -0.090  0.00  0.00     0.048 A 
ATOM      6  C5  UNL d   1      -0.523   0.036   0.466  0.00  0.00     0.003 A 
ATOM      7  I   UNL d   1       0.940  -3.358  -1.809  0.00  0.00    -0.146 I 
ENDROOT
TORSDOF 0
ENDMDL
