MODEL 1
REMARK minimizedAffinity -2.70793271
REMARK minimizedRMSD -1
REMARK  0 active torsions:
REMARK  status: ('A' for Active; 'I' for Inactive)
ROOT
ATOM      1  C   UNL d   1      -0.671   0.065   1.984  0.00  0.00     0.023 A 
ATOM      2  C1  UNL d   1       0.210  -0.162   0.927  0.00  0.00     0.003 A 
ATOM      3  C2  UNL d   1       0.355   0.793  -0.081  0.00  0.00     0.048 A 
ATOM      4  C3  UNL d   1      -0.384   1.974  -0.026  0.00  0.00     0.023 A 
ATOM      5  C4  UNL d   1      -1.266   2.206   1.030  0.00  0.00     0.048 A 
ATOM      6  C5  UNL d   1      -1.409   1.248   2.036  0.00  0.00     0.003 A 
ATOM      7  I   UNL d   1      -0.170   3.398  -1.525  0.00  0.00    -0.146 I 
ENDROOT
TORSDOF 0
ENDMDL
