MODEL 1
REMARK minimizedAffinity -3.98428965
REMARK minimizedRMSD -1
REMARK  0 active torsions:
REMARK  status: ('A' for Active; 'I' for Inactive)
ROOT
ATOM      1  C   UNL d   1      -1.686   3.103   1.094  0.00  0.00     0.023 A 
ATOM      2  C1  UNL d   1      -0.783   3.165   0.033  0.00  0.00     0.003 A 
ATOM      3  C2  UNL d   1      -0.156   2.002  -0.421  0.00  0.00     0.048 A 
ATOM      4  C3  UNL d   1      -0.439   0.781   0.189  0.00  0.00     0.023 A 
ATOM      5  C4  UNL d   1      -1.343   0.714   1.250  0.00  0.00     0.048 A 
ATOM      6  C5  UNL d   1      -1.967   1.879   1.702  0.00  0.00     0.003 A 
ATOM      7  I   UNL d   1       0.492  -0.951  -0.485  0.00  0.00    -0.146 I 
ENDROOT
TORSDOF 0
ENDMDL
