MODEL 1
REMARK minimizedAffinity -2.90095687
REMARK minimizedRMSD -1
REMARK  0 active torsions:
REMARK  status: ('A' for Active; 'I' for Inactive)
ROOT
ATOM      1  C   UNL d   1      -1.739   2.110   1.883  0.00  0.00     0.023 A 
ATOM      2  C1  UNL d   1      -1.917   2.065   0.500  0.00  0.00     0.003 A 
ATOM      3  C2  UNL d   1      -1.234   1.116  -0.263  0.00  0.00     0.048 A 
ATOM      4  C3  UNL d   1      -0.374   0.214   0.364  0.00  0.00     0.023 A 
ATOM      5  C4  UNL d   1      -0.194   0.255   1.747  0.00  0.00     0.048 A 
ATOM      6  C5  UNL d   1      -0.879   1.206   2.506  0.00  0.00     0.003 A 
ATOM      7  I   UNL d   1       0.644  -1.199  -0.769  0.00  0.00    -0.146 I 
ENDROOT
TORSDOF 0
ENDMDL
