MODEL 1
REMARK minimizedAffinity -2.9675498
REMARK minimizedRMSD -1
REMARK  0 active torsions:
REMARK  status: ('A' for Active; 'I' for Inactive)
ROOT
ATOM      1  C   UNL d   1       1.142  -1.028  -0.486  0.00  0.00     0.023 A 
ATOM      2  C1  UNL d   1       0.677   0.076  -1.200  0.00  0.00     0.003 A 
ATOM      3  C2  UNL d   1      -0.169   1.001  -0.584  0.00  0.00     0.048 A 
ATOM      4  C3  UNL d   1      -0.544   0.816   0.746  0.00  0.00     0.023 A 
ATOM      5  C4  UNL d   1      -0.080  -0.287   1.465  0.00  0.00     0.048 A 
ATOM      6  C5  UNL d   1       0.764  -1.210   0.844  0.00  0.00     0.003 A 
ATOM      7  I   UNL d   1      -1.803   2.191   1.665  0.00  0.00    -0.146 I 
ENDROOT
TORSDOF 0
ENDMDL
