MODEL 1
REMARK minimizedAffinity -3.35288
REMARK minimizedRMSD -1
REMARK  0 active torsions:
REMARK  status: ('A' for Active; 'I' for Inactive)
ROOT
ATOM      1  C   UNL d   1      -1.250   2.212   1.351  0.00  0.00     0.023 A 
ATOM      2  C1  UNL d   1      -1.212   0.932   1.905  0.00  0.00     0.003 A 
ATOM      3  C2  UNL d   1      -0.610  -0.116   1.206  0.00  0.00     0.048 A 
ATOM      4  C3  UNL d   1      -0.046   0.123  -0.047  0.00  0.00     0.023 A 
ATOM      5  C4  UNL d   1      -0.080   1.402  -0.605  0.00  0.00     0.048 A 
ATOM      6  C5  UNL d   1      -0.684   2.446   0.097  0.00  0.00     0.003 A 
ATOM      7  I   UNL d   1       0.852  -1.435  -1.090  0.00  0.00    -0.146 I 
ENDROOT
TORSDOF 0
ENDMDL
