MODEL 1
REMARK minimizedAffinity -4.74212456
REMARK minimizedRMSD -1
REMARK  0 active torsions:
REMARK  status: ('A' for Active; 'I' for Inactive)
ROOT
ATOM      1  C   UNL d   1      -1.839   2.141   1.807  0.00  0.00     0.023 A 
ATOM      2  C1  UNL d   1      -1.509   2.400   0.477  0.00  0.00     0.003 A 
ATOM      3  C2  UNL d   1      -0.604   1.575  -0.193  0.00  0.00     0.048 A 
ATOM      4  C3  UNL d   1      -0.033   0.491   0.472  0.00  0.00     0.023 A 
ATOM      5  C4  UNL d   1      -0.360   0.227   1.803  0.00  0.00     0.048 A 
ATOM      6  C5  UNL d   1      -1.265   1.056   2.470  0.00  0.00     0.003 A 
ATOM      7  I   UNL d   1       1.315  -0.739  -0.523  0.00  0.00    -0.146 I 
ENDROOT
TORSDOF 0
ENDMDL
