MODEL 1
REMARK minimizedAffinity -4.35517025
REMARK minimizedRMSD -1
REMARK  0 active torsions:
REMARK  status: ('A' for Active; 'I' for Inactive)
ROOT
ATOM      1  C   UNL d   1       1.289  -0.182  -0.811  0.00  0.00     0.023 A 
ATOM      2  C1  UNL d   1       1.123   1.149  -1.195  0.00  0.00     0.003 A 
ATOM      3  C2  UNL d   1       0.197   1.957  -0.533  0.00  0.00     0.048 A 
ATOM      4  C3  UNL d   1      -0.559   1.429   0.513  0.00  0.00     0.023 A 
ATOM      5  C4  UNL d   1      -0.397   0.098   0.900  0.00  0.00     0.048 A 
ATOM      6  C5  UNL d   1       0.530  -0.707   0.235  0.00  0.00     0.003 A 
ATOM      7  I   UNL d   1      -1.938   2.631   1.499  0.00  0.00    -0.146 I 
ENDROOT
TORSDOF 0
ENDMDL
