MODEL 1
REMARK minimizedAffinity -2.57245398
REMARK minimizedRMSD -1
REMARK  0 active torsions:
REMARK  status: ('A' for Active; 'I' for Inactive)
ROOT
ATOM      1  C   UNL d   1      -1.832   1.837   1.605  0.00  0.00     0.023 A 
ATOM      2  C1  UNL d   1      -1.389   2.283   0.360  0.00  0.00     0.003 A 
ATOM      3  C2  UNL d   1      -0.611   1.449  -0.446  0.00  0.00     0.048 A 
ATOM      4  C3  UNL d   1      -0.281   0.169  -0.001  0.00  0.00     0.023 A 
ATOM      5  C4  UNL d   1      -0.723  -0.282   1.244  0.00  0.00     0.048 A 
ATOM      6  C5  UNL d   1      -1.500   0.556   2.046  0.00  0.00     0.003 A 
ATOM      7  I   UNL d   1       0.876  -1.074  -1.199  0.00  0.00    -0.146 I 
ENDROOT
TORSDOF 0
ENDMDL
