MODEL 1
REMARK minimizedAffinity -1.6450007
REMARK minimizedRMSD -1
REMARK  0 active torsions:
REMARK  status: ('A' for Active; 'I' for Inactive)
ROOT
ATOM      1  C   UNL d   1      -0.209   0.983   1.059  0.00  0.00     0.023 A 
ATOM      2  C1  UNL d   1      -0.183  -0.293   1.623  0.00  0.00     0.003 A 
ATOM      3  C2  UNL d   1       0.130  -1.400   0.833  0.00  0.00     0.048 A 
ATOM      4  C3  UNL d   1       0.418  -1.225  -0.520  0.00  0.00     0.023 A 
ATOM      5  C4  UNL d   1       0.394   0.050  -1.089  0.00  0.00     0.048 A 
ATOM      6  C5  UNL d   1       0.080   1.154  -0.295  0.00  0.00     0.003 A 
ATOM      7  I   UNL d   1       0.884  -2.872  -1.699  0.00  0.00    -0.146 I 
ENDROOT
TORSDOF 0
ENDMDL
