MODEL 1
REMARK minimizedAffinity 1.93505144
REMARK minimizedRMSD -1
REMARK  0 active torsions:
REMARK  status: ('A' for Active; 'I' for Inactive)
ROOT
ATOM      1  C   UNL d   1      -0.328   1.118   2.387  0.00  0.00     0.020 A 
ATOM      2  C1  UNL d   1      -1.240   0.063   2.419  0.00  0.00     0.020 A 
ATOM      3  C2  UNL d   1      -1.744  -0.459   1.227  0.00  0.00     0.034 A 
ATOM      4  C3  UNL d   1      -1.338   0.073  -0.003  0.00  0.00     0.017 A 
ATOM      5  C4  UNL d   1      -0.423   1.131  -0.033  0.00  0.00     0.017 A 
ATOM      6  C5  UNL d   1       0.079   1.651   1.164  0.00  0.00     0.034 A 
ATOM      7 Cl   UNL d   1       0.125   1.840  -1.511  0.00  0.00    -0.070 Cl
ATOM      8 Cl1  UNL d   1      -2.003  -0.623  -1.438  0.00  0.00    -0.070 Cl
ENDROOT
TORSDOF 0
ENDMDL
