MODEL 1
REMARK minimizedAffinity 6.21609449
REMARK minimizedRMSD -1
REMARK  0 active torsions:
REMARK  status: ('A' for Active; 'I' for Inactive)
ROOT
ATOM      1  C   UNL d   1      -2.190   0.726   1.831  0.00  0.00     0.020 A 
ATOM      2  C1  UNL d   1      -1.663   1.522   2.848  0.00  0.00     0.020 A 
ATOM      3  C2  UNL d   1      -0.295   1.800   2.879  0.00  0.00     0.034 A 
ATOM      4  C3  UNL d   1       0.551   1.281   1.892  0.00  0.00     0.017 A 
ATOM      5  C4  UNL d   1       0.021   0.482   0.872  0.00  0.00     0.017 A 
ATOM      6  C5  UNL d   1      -1.350   0.208   0.846  0.00  0.00     0.034 A 
ATOM      7 Cl   UNL d   1       1.002  -0.193  -0.381  0.00  0.00    -0.070 Cl
ATOM      8 Cl1  UNL d   1       2.233   1.666   1.992  0.00  0.00    -0.070 Cl
ENDROOT
TORSDOF 0
ENDMDL
