MODEL 1
REMARK minimizedAffinity 3.82319427
REMARK minimizedRMSD -1
REMARK  0 active torsions:
REMARK  status: ('A' for Active; 'I' for Inactive)
ROOT
ATOM      1  C   UNL d   1      -0.645   0.052   0.312  0.00  0.00     0.020 A 
ATOM      2  C1  UNL d   1      -1.883   0.384   0.862  0.00  0.00     0.020 A 
ATOM      3  C2  UNL d   1      -1.969   1.380   1.837  0.00  0.00     0.034 A 
ATOM      4  C3  UNL d   1      -0.816   2.048   2.265  0.00  0.00     0.017 A 
ATOM      5  C4  UNL d   1       0.426   1.715   1.711  0.00  0.00     0.017 A 
ATOM      6  C5  UNL d   1       0.506   0.717   0.735  0.00  0.00     0.034 A 
ATOM      7 Cl   UNL d   1       1.892   2.495   2.188  0.00  0.00    -0.070 Cl
ATOM      8 Cl1  UNL d   1      -0.996   3.269   3.474  0.00  0.00    -0.070 Cl
ENDROOT
TORSDOF 0
ENDMDL
