MODEL 1
REMARK minimizedAffinity 7.98805141
REMARK minimizedRMSD -1
REMARK  0 active torsions:
REMARK  status: ('A' for Active; 'I' for Inactive)
ROOT
ATOM      1  C   UNL d   1      -1.312  -0.484   0.684  0.00  0.00     0.020 A 
ATOM      2  C1  UNL d   1      -2.297  -0.004   1.546  0.00  0.00     0.020 A 
ATOM      3  C2  UNL d   1      -2.044   1.114   2.342  0.00  0.00     0.034 A 
ATOM      4  C3  UNL d   1      -0.803   1.757   2.279  0.00  0.00     0.017 A 
ATOM      5  C4  UNL d   1       0.186   1.275   1.413  0.00  0.00     0.017 A 
ATOM      6  C5  UNL d   1      -0.073   0.154   0.618  0.00  0.00     0.034 A 
ATOM      7 Cl   UNL d   1       1.742   2.015   1.280  0.00  0.00    -0.070 Cl
ATOM      8 Cl1  UNL d   1      -0.559   3.136   3.292  0.00  0.00    -0.070 Cl
ENDROOT
TORSDOF 0
ENDMDL
