MODEL 1
REMARK minimizedAffinity 1.48612714
REMARK minimizedRMSD -1
REMARK  0 active torsions:
REMARK  status: ('A' for Active; 'I' for Inactive)
ROOT
ATOM      1  C   UNL d   1      -1.604  -5.987   3.025  0.00  0.00     0.020 A 
ATOM      2  C1  UNL d   1      -0.896  -5.995   1.824  0.00  0.00     0.020 A 
ATOM      3  C2  UNL d   1       0.500  -5.998   1.837  0.00  0.00     0.034 A 
ATOM      4  C3  UNL d   1       1.193  -5.994   3.053  0.00  0.00     0.017 A 
ATOM      5  C4  UNL d   1       0.481  -5.987   4.258  0.00  0.00     0.017 A 
ATOM      6  C5  UNL d   1      -0.917  -5.983   4.239  0.00  0.00     0.034 A 
ATOM      7 Cl   UNL d   1       1.265  -5.981   5.798  0.00  0.00    -0.070 Cl
ATOM      8 Cl1  UNL d   1       2.920  -5.998   2.995  0.00  0.00    -0.070 Cl
ENDROOT
TORSDOF 0
ENDMDL
