MODEL 1
REMARK minimizedAffinity 2.43462777
REMARK minimizedRMSD -1
REMARK  0 active torsions:
REMARK  status: ('A' for Active; 'I' for Inactive)
ROOT
ATOM      1  C   UNL d   1      -1.509  -6.000   2.693  0.00  0.00     0.020 A 
ATOM      2  C1  UNL d   1      -0.745  -6.000   1.526  0.00  0.00     0.020 A 
ATOM      3  C2  UNL d   1       0.649  -6.000   1.604  0.00  0.00     0.034 A 
ATOM      4  C3  UNL d   1       1.284  -5.999   2.851  0.00  0.00     0.017 A 
ATOM      5  C4  UNL d   1       0.517  -5.999   4.022  0.00  0.00     0.017 A 
ATOM      6  C5  UNL d   1      -0.879  -5.999   3.938  0.00  0.00     0.034 A 
ATOM      7 Cl   UNL d   1       1.229  -5.998   5.597  0.00  0.00    -0.070 Cl
ATOM      8 Cl1  UNL d   1       3.012  -5.999   2.873  0.00  0.00    -0.070 Cl
ENDROOT
TORSDOF 0
ENDMDL
