MODEL 1
REMARK minimizedAffinity 6.97237778
REMARK minimizedRMSD -1
REMARK  0 active torsions:
REMARK  status: ('A' for Active; 'I' for Inactive)
ROOT
ATOM      1  C   UNL d   1       2.079   1.009   1.637  0.00  0.00     0.020 A 
ATOM      2  C1  UNL d   1       2.247  -0.375   1.665  0.00  0.00     0.020 A 
ATOM      3  C2  UNL d   1       1.138  -1.209   1.827  0.00  0.00     0.034 A 
ATOM      4  C3  UNL d   1      -0.142  -0.660   1.962  0.00  0.00     0.017 A 
ATOM      5  C4  UNL d   1      -0.309   0.730   1.934  0.00  0.00     0.017 A 
ATOM      6  C5  UNL d   1       0.804   1.560   1.771  0.00  0.00     0.034 A 
ATOM      7 Cl   UNL d   1      -1.857   1.481   2.095  0.00  0.00    -0.070 Cl
ATOM      8 Cl1  UNL d   1      -1.467  -1.751   2.159  0.00  0.00    -0.070 Cl
ENDROOT
TORSDOF 0
ENDMDL
