MODEL 1
REMARK minimizedAffinity 8.03224754
REMARK minimizedRMSD -1
REMARK  0 active torsions:
REMARK  status: ('A' for Active; 'I' for Inactive)
ROOT
ATOM      1  C   UNL d   1       0.442   0.650  -0.112  0.00  0.00     0.020 A 
ATOM      2  C1  UNL d   1       0.823   1.035   1.173  0.00  0.00     0.020 A 
ATOM      3  C2  UNL d   1       0.153   0.518   2.284  0.00  0.00     0.034 A 
ATOM      4  C3  UNL d   1      -0.901  -0.386   2.113  0.00  0.00     0.017 A 
ATOM      5  C4  UNL d   1      -1.283  -0.772   0.823  0.00  0.00     0.017 A 
ATOM      6  C5  UNL d   1      -0.609  -0.251  -0.286  0.00  0.00     0.034 A 
ATOM      7 Cl   UNL d   1      -2.574  -1.884   0.532  0.00  0.00    -0.070 Cl
ATOM      8 Cl1  UNL d   1      -1.684  -0.986   3.532  0.00  0.00    -0.070 Cl
ENDROOT
TORSDOF 0
ENDMDL
