MODEL 1
REMARK minimizedAffinity 6.16185379
REMARK minimizedRMSD -1
REMARK  0 active torsions:
REMARK  status: ('A' for Active; 'I' for Inactive)
ROOT
ATOM      1  C   UNL d   1       0.552   0.920   1.394  0.00  0.00     0.020 A 
ATOM      2  C1  UNL d   1       0.403   0.287   0.161  0.00  0.00     0.020 A 
ATOM      3  C2  UNL d   1      -0.506  -0.763   0.020  0.00  0.00     0.034 A 
ATOM      4  C3  UNL d   1      -1.271  -1.184   1.114  0.00  0.00     0.017 A 
ATOM      5  C4  UNL d   1      -1.120  -0.548   2.352  0.00  0.00     0.017 A 
ATOM      6  C5  UNL d   1      -0.208   0.503   2.488  0.00  0.00     0.034 A 
ATOM      7 Cl   UNL d   1      -2.028  -1.011   3.748  0.00  0.00    -0.070 Cl
ATOM      8 Cl1  UNL d   1      -2.376  -2.488   0.868  0.00  0.00    -0.070 Cl
ENDROOT
TORSDOF 0
ENDMDL
