MODEL 1
REMARK minimizedAffinity 11.611907
REMARK minimizedRMSD -1
REMARK  0 active torsions:
REMARK  status: ('A' for Active; 'I' for Inactive)
ROOT
ATOM      1  C   UNL d   1       0.596   1.904   0.931  0.00  0.00     0.020 A 
ATOM      2  C1  UNL d   1       0.472   1.524  -0.404  0.00  0.00     0.020 A 
ATOM      3  C2  UNL d   1      -0.381   0.476  -0.756  0.00  0.00     0.034 A 
ATOM      4  C3  UNL d   1      -1.113  -0.197   0.229  0.00  0.00     0.017 A 
ATOM      5  C4  UNL d   1      -0.987   0.184   1.570  0.00  0.00     0.017 A 
ATOM      6  C5  UNL d   1      -0.132   1.235   1.916  0.00  0.00     0.034 A 
ATOM      7 Cl   UNL d   1      -1.858  -0.598   2.842  0.00  0.00    -0.070 Cl
ATOM      8 Cl1  UNL d   1      -2.148  -1.484  -0.277  0.00  0.00    -0.070 Cl
ENDROOT
TORSDOF 0
ENDMDL
