MODEL 1
REMARK minimizedAffinity 13.9185247
REMARK minimizedRMSD -1
REMARK  0 active torsions:
REMARK  status: ('A' for Active; 'I' for Inactive)
ROOT
ATOM      1  C   UNL d   1      -4.069  -2.096  -1.033  0.00  0.00     0.020 A 
ATOM      2  C1  UNL d   1      -3.466  -2.265   0.213  0.00  0.00     0.020 A 
ATOM      3  C2  UNL d   1      -2.301  -1.561   0.526  0.00  0.00     0.034 A 
ATOM      4  C3  UNL d   1      -1.737  -0.684  -0.408  0.00  0.00     0.017 A 
ATOM      5  C4  UNL d   1      -2.344  -0.515  -1.658  0.00  0.00     0.017 A 
ATOM      6  C5  UNL d   1      -3.509  -1.223  -1.966  0.00  0.00     0.034 A 
ATOM      7 Cl   UNL d   1      -1.706   0.549  -2.862  0.00  0.00    -0.070 Cl
ATOM      8 Cl1  UNL d   1      -0.296   0.155   0.046  0.00  0.00    -0.070 Cl
ENDROOT
TORSDOF 0
ENDMDL
