MODEL 1
REMARK minimizedAffinity 8.56368542
REMARK minimizedRMSD -1
REMARK  0 active torsions:
REMARK  status: ('A' for Active; 'I' for Inactive)
ROOT
ATOM      1  C   UNL d   1      -2.749  -0.645  -2.376  0.00  0.00     0.020 A 
ATOM      2  C1  UNL d   1      -3.701  -1.638  -2.150  0.00  0.00     0.020 A 
ATOM      3  C2  UNL d   1      -3.425  -2.961  -2.500  0.00  0.00     0.034 A 
ATOM      4  C3  UNL d   1      -2.194  -3.295  -3.076  0.00  0.00     0.017 A 
ATOM      5  C4  UNL d   1      -1.239  -2.298  -3.302  0.00  0.00     0.017 A 
ATOM      6  C5  UNL d   1      -1.521  -0.974  -2.950  0.00  0.00     0.034 A 
ATOM      7 Cl   UNL d   1       0.302  -2.633  -4.010  0.00  0.00    -0.070 Cl
ATOM      8 Cl1  UNL d   1      -1.921  -4.952  -3.483  0.00  0.00    -0.070 Cl
ENDROOT
TORSDOF 0
ENDMDL
