MODEL 1
REMARK minimizedAffinity 6.32081747
REMARK minimizedRMSD -1
REMARK  0 active torsions:
REMARK  status: ('A' for Active; 'I' for Inactive)
ROOT
ATOM      1  C   UNL d   1       1.605  -5.995   1.579  0.00  0.00     0.020 A 
ATOM      2  C1  UNL d   1       2.540  -5.995   2.613  0.00  0.00     0.020 A 
ATOM      3  C2  UNL d   1       2.113  -5.995   3.942  0.00  0.00     0.034 A 
ATOM      4  C3  UNL d   1       0.745  -5.997   4.241  0.00  0.00     0.017 A 
ATOM      5  C4  UNL d   1      -0.193  -5.998   3.203  0.00  0.00     0.017 A 
ATOM      6  C5  UNL d   1       0.241  -5.997   1.874  0.00  0.00     0.034 A 
ATOM      7 Cl   UNL d   1      -1.897  -6.000   3.494  0.00  0.00    -0.070 Cl
ATOM      8 Cl1  UNL d   1       0.288  -5.998   5.908  0.00  0.00    -0.070 Cl
ENDROOT
TORSDOF 0
ENDMDL
