MODEL 1
REMARK minimizedAffinity 7.50055408
REMARK minimizedRMSD -1
REMARK  0 active torsions:
REMARK  status: ('A' for Active; 'I' for Inactive)
ROOT
ATOM      1  C   UNL d   1       2.045   0.583   1.853  0.00  0.00     0.020 A 
ATOM      2  C1  UNL d   1       0.743   1.059   2.005  0.00  0.00     0.020 A 
ATOM      3  C2  UNL d   1      -0.127   1.073   0.913  0.00  0.00     0.034 A 
ATOM      4  C3  UNL d   1       0.303   0.610  -0.336  0.00  0.00     0.017 A 
ATOM      5  C4  UNL d   1       1.610   0.132  -0.487  0.00  0.00     0.017 A 
ATOM      6  C5  UNL d   1       2.477   0.121   0.609  0.00  0.00     0.034 A 
ATOM      7 Cl   UNL d   1       2.212  -0.456  -1.997  0.00  0.00    -0.070 Cl
ATOM      8 Cl1  UNL d   1      -0.827   0.655  -1.642  0.00  0.00    -0.070 Cl
ENDROOT
TORSDOF 0
ENDMDL
