MODEL 1
REMARK minimizedAffinity 6.81685543
REMARK minimizedRMSD -1
REMARK  0 active torsions:
REMARK  status: ('A' for Active; 'I' for Inactive)
ROOT
ATOM      1  C   UNL d   1      -0.779  -5.878   3.166  0.00  0.00     0.020 A 
ATOM      2  C1  UNL d   1      -0.049  -5.878   1.978  0.00  0.00     0.020 A 
ATOM      3  C2  UNL d   1       1.347  -5.913   2.016  0.00  0.00     0.034 A 
ATOM      4  C3  UNL d   1       2.017  -5.949   3.244  0.00  0.00     0.017 A 
ATOM      5  C4  UNL d   1       1.283  -5.949   4.436  0.00  0.00     0.017 A 
ATOM      6  C5  UNL d   1      -0.114  -5.914   4.392  0.00  0.00     0.034 A 
ATOM      7 Cl   UNL d   1       2.039  -5.992   5.990  0.00  0.00    -0.070 Cl
ATOM      8 Cl1  UNL d   1       3.744  -5.992   3.216  0.00  0.00    -0.070 Cl
ENDROOT
TORSDOF 0
ENDMDL
