MODEL 1
REMARK minimizedAffinity 6.60381746
REMARK minimizedRMSD -1
REMARK  0 active torsions:
REMARK  status: ('A' for Active; 'I' for Inactive)
ROOT
ATOM      1  C   UNL d   1      -0.884  -5.992   3.166  0.00  0.00     0.020 A 
ATOM      2  C1  UNL d   1      -0.203  -5.997   1.949  0.00  0.00     0.020 A 
ATOM      3  C2  UNL d   1       1.193  -5.999   1.929  0.00  0.00     0.034 A 
ATOM      4  C3  UNL d   1       1.914  -5.996   3.129  0.00  0.00     0.017 A 
ATOM      5  C4  UNL d   1       1.230  -5.991   4.351  0.00  0.00     0.017 A 
ATOM      6  C5  UNL d   1      -0.168  -5.989   4.364  0.00  0.00     0.034 A 
ATOM      7 Cl   UNL d   1       2.050  -5.988   5.872  0.00  0.00    -0.070 Cl
ATOM      8 Cl1  UNL d   1       3.639  -5.999   3.031  0.00  0.00    -0.070 Cl
ENDROOT
TORSDOF 0
ENDMDL
