MODEL 1
REMARK minimizedAffinity 3.3380549
REMARK minimizedRMSD -1
REMARK  0 active torsions:
REMARK  status: ('A' for Active; 'I' for Inactive)
ROOT
ATOM      1  C   UNL d   1      -1.090  -6.000   2.774  0.00  0.00     0.020 A 
ATOM      2  C1  UNL d   1      -0.250  -5.999   1.660  0.00  0.00     0.020 A 
ATOM      3  C2  UNL d   1       1.136  -5.998   1.831  0.00  0.00     0.034 A 
ATOM      4  C3  UNL d   1       1.687  -5.998   3.118  0.00  0.00     0.017 A 
ATOM      5  C4  UNL d   1       0.843  -5.998   4.235  0.00  0.00     0.017 A 
ATOM      6  C5  UNL d   1      -0.544  -5.999   4.058  0.00  0.00     0.034 A 
ATOM      7 Cl   UNL d   1       1.448  -5.998   5.854  0.00  0.00    -0.070 Cl
ATOM      8 Cl1  UNL d   1       3.409  -5.997   3.255  0.00  0.00    -0.070 Cl
ENDROOT
TORSDOF 0
ENDMDL
