MODEL 1
REMARK minimizedAffinity 11.4466295
REMARK minimizedRMSD -1
REMARK  1 active torsions:
REMARK  status: ('A' for Active; 'I' for Inactive)
REMARK    1  A    between atoms: C3_4  and  O_7 
ROOT
ATOM      1  C   UNL d   1       0.754   2.917  -4.076  0.00  0.00    -0.033 A 
ATOM      2  C1  UNL d   1       0.738   2.735  -5.460  0.00  0.00     0.039 A 
ATOM      3  C2  UNL d   1       0.346   1.508  -6.000  0.00  0.00    -0.080 A 
ATOM      4  C3  UNL d   1      -0.027   0.474  -5.146  0.00  0.00     0.150 A 
ATOM      5  C4  UNL d   1      -0.017   0.650  -3.766  0.00  0.00    -0.007 A 
ATOM      6  C5  UNL d   1       0.375   1.876  -3.229  0.00  0.00     0.039 A 
ENDROOT
BRANCH   4   7
ATOM      7  O   UNL d   1      -0.412  -0.743  -5.626  0.00  0.00    -0.526 OA
ATOM      8  H5  UNL d   1      -0.342  -0.728  -6.595  0.00  0.00     0.418 HD
ENDBRANCH   4   7
TORSDOF 1
ENDMDL
