MODEL 1
REMARK minimizedAffinity 2.16386914
REMARK minimizedRMSD -1
REMARK  1 active torsions:
REMARK  status: ('A' for Active; 'I' for Inactive)
REMARK    1  A    between atoms: C3_4  and  O_7 
ROOT
ATOM      1  C   UNL d   1       1.160   0.427  -2.599  0.00  0.00    -0.033 A 
ATOM      2  C1  UNL d   1       1.121   1.144  -3.797  0.00  0.00     0.039 A 
ATOM      3  C2  UNL d   1       1.725   2.400  -3.880  0.00  0.00    -0.080 A 
ATOM      4  C3  UNL d   1       2.365   2.926  -2.761  0.00  0.00     0.150 A 
ATOM      5  C4  UNL d   1       2.411   2.216  -1.566  0.00  0.00    -0.007 A 
ATOM      6  C5  UNL d   1       1.806   0.962  -1.485  0.00  0.00     0.039 A 
ENDROOT
BRANCH   4   7
ATOM      7  O   UNL d   1       2.964   4.150  -2.793  0.00  0.00    -0.526 OA
ATOM      8  H5  UNL d   1       2.828   4.537  -3.674  0.00  0.00     0.418 HD
ENDBRANCH   4   7
TORSDOF 1
ENDMDL
