MODEL 1
REMARK minimizedAffinity 6.11787844
REMARK minimizedRMSD -1
REMARK  1 active torsions:
REMARK  status: ('A' for Active; 'I' for Inactive)
REMARK    1  A    between atoms: C3_4  and  O_7 
ROOT
ATOM      1  C   UNL d   1      -3.074  -2.778  -0.441  0.00  0.00    -0.033 A 
ATOM      2  C1  UNL d   1      -2.203  -3.659  -1.086  0.00  0.00     0.039 A 
ATOM      3  C2  UNL d   1      -1.335  -4.457  -0.338  0.00  0.00    -0.080 A 
ATOM      4  C3  UNL d   1      -1.348  -4.364   1.051  0.00  0.00     0.150 A 
ATOM      5  C4  UNL d   1      -2.215  -3.491   1.700  0.00  0.00    -0.007 A 
ATOM      6  C5  UNL d   1      -3.080  -2.695   0.951  0.00  0.00     0.039 A 
ENDROOT
BRANCH   4   7
ATOM      7  O   UNL d   1      -0.515  -5.119   1.823  0.00  0.00    -0.526 OA
ATOM      8  H5  UNL d   1       0.047  -5.654   1.237  0.00  0.00     0.418 HD
ENDBRANCH   4   7
TORSDOF 1
ENDMDL
