MODEL 1
REMARK minimizedAffinity 6.38172245
REMARK minimizedRMSD -1
REMARK  1 active torsions:
REMARK  status: ('A' for Active; 'I' for Inactive)
REMARK    1  A    between atoms: C3_4  and  O_7 
ROOT
ATOM      1  C   UNL d   1       2.530   0.911  -2.627  0.00  0.00    -0.033 A 
ATOM      2  C1  UNL d   1       1.539   0.473  -3.508  0.00  0.00     0.039 A 
ATOM      3  C2  UNL d   1       0.217   0.356  -3.072  0.00  0.00    -0.080 A 
ATOM      4  C3  UNL d   1      -0.099   0.680  -1.756  0.00  0.00     0.150 A 
ATOM      5  C4  UNL d   1       0.882   1.121  -0.874  0.00  0.00    -0.007 A 
ATOM      6  C5  UNL d   1       2.201   1.236  -1.311  0.00  0.00     0.039 A 
ENDROOT
BRANCH   4   7
ATOM      7  O   UNL d   1      -1.374   0.577  -1.284  0.00  0.00    -0.526 OA
ATOM      8  H5  UNL d   1      -1.939   0.233  -1.996  0.00  0.00     0.418 HD
ENDBRANCH   4   7
TORSDOF 1
ENDMDL
