MODEL 1
REMARK minimizedAffinity 9.55117702
REMARK minimizedRMSD -1
REMARK  1 active torsions:
REMARK  status: ('A' for Active; 'I' for Inactive)
REMARK    1  A    between atoms: C3_4  and  O_7 
ROOT
ATOM      1  C   UNL d   1      -4.557   4.000   3.711  0.00  0.00    -0.033 A 
ATOM      2  C1  UNL d   1      -3.202   3.740   3.499  0.00  0.00     0.039 A 
ATOM      3  C2  UNL d   1      -2.235   4.397   4.262  0.00  0.00    -0.080 A 
ATOM      4  C3  UNL d   1      -2.636   5.310   5.233  0.00  0.00     0.150 A 
ATOM      5  C4  UNL d   1      -3.984   5.571   5.453  0.00  0.00    -0.007 A 
ATOM      6  C5  UNL d   1      -4.948   4.915   4.690  0.00  0.00     0.039 A 
ENDROOT
BRANCH   4   7
ATOM      7  O   UNL d   1      -1.728   5.979   6.000  0.00  0.00    -0.526 OA
ATOM      8  H5  UNL d   1      -0.836   5.719   5.717  0.00  0.00     0.418 HD
ENDBRANCH   4   7
TORSDOF 1
ENDMDL
