MODEL 1
REMARK minimizedAffinity 7.93831253
REMARK minimizedRMSD -1
REMARK  1 active torsions:
REMARK  status: ('A' for Active; 'I' for Inactive)
REMARK    1  A    between atoms: C3_4  and  O_7 
ROOT
ATOM      1  C   UNL d   1      -0.087   1.115  -3.045  0.00  0.00    -0.033 A 
ATOM      2  C1  UNL d   1       1.096   1.832  -3.232  0.00  0.00     0.039 A 
ATOM      3  C2  UNL d   1       2.271   1.422  -2.598  0.00  0.00    -0.080 A 
ATOM      4  C3  UNL d   1       2.248   0.295  -1.781  0.00  0.00     0.150 A 
ATOM      5  C4  UNL d   1       1.074  -0.426  -1.593  0.00  0.00    -0.007 A 
ATOM      6  C5  UNL d   1      -0.098  -0.015  -2.226  0.00  0.00     0.039 A 
ENDROOT
BRANCH   4   7
ATOM      7  O   UNL d   1       3.368  -0.141  -1.137  0.00  0.00    -0.526 OA
ATOM      8  H5  UNL d   1       4.096   0.471  -1.338  0.00  0.00     0.418 HD
ENDBRANCH   4   7
TORSDOF 1
ENDMDL
