MODEL 1
REMARK minimizedAffinity 2.44934916
REMARK minimizedRMSD -1
REMARK  1 active torsions:
REMARK  status: ('A' for Active; 'I' for Inactive)
REMARK    1  A    between atoms: C3_4  and  O_7 
ROOT
ATOM      1  C   UNL d   1       3.127   0.690  -3.571  0.00  0.00    -0.033 A 
ATOM      2  C1  UNL d   1       3.063   0.239  -2.251  0.00  0.00     0.039 A 
ATOM      3  C2  UNL d   1       1.850   0.264  -1.561  0.00  0.00    -0.080 A 
ATOM      4  C3  UNL d   1       0.709   0.740  -2.202  0.00  0.00     0.150 A 
ATOM      5  C4  UNL d   1       0.765   1.187  -3.518  0.00  0.00    -0.007 A 
ATOM      6  C5  UNL d   1       1.978   1.163  -4.205  0.00  0.00     0.039 A 
ENDROOT
BRANCH   4   7
ATOM      7  O   UNL d   1      -0.497   0.787  -1.568  0.00  0.00    -0.526 OA
ATOM      8  H5  UNL d   1      -0.378   0.474  -0.656  0.00  0.00     0.418 HD
ENDBRANCH   4   7
TORSDOF 1
ENDMDL
