MODEL 1
REMARK minimizedAffinity 5.28879023
REMARK minimizedRMSD -1
REMARK  1 active torsions:
REMARK  status: ('A' for Active; 'I' for Inactive)
REMARK    1  A    between atoms: C3_4  and  O_7 
ROOT
ATOM      1  C   UNL d   1       1.978   0.339  -1.442  0.00  0.00    -0.033 A 
ATOM      2  C1  UNL d   1       2.353   1.495  -2.130  0.00  0.00     0.039 A 
ATOM      3  C2  UNL d   1       1.875   1.728  -3.420  0.00  0.00    -0.080 A 
ATOM      4  C3  UNL d   1       1.022   0.799  -4.011  0.00  0.00     0.150 A 
ATOM      5  C4  UNL d   1       0.642  -0.353  -3.330  0.00  0.00    -0.007 A 
ATOM      6  C5  UNL d   1       1.121  -0.584  -2.042  0.00  0.00     0.039 A 
ENDROOT
BRANCH   4   7
ATOM      7  O   UNL d   1       0.533   0.981  -5.270  0.00  0.00    -0.526 OA
ATOM      8  H5  UNL d   1       0.904   1.805  -5.628  0.00  0.00     0.418 HD
ENDBRANCH   4   7
TORSDOF 1
ENDMDL
