MODEL 1
REMARK minimizedAffinity -0.515992165
REMARK minimizedRMSD -1
REMARK  1 active torsions:
REMARK  status: ('A' for Active; 'I' for Inactive)
REMARK    1  A    between atoms: C3_4  and  O_7 
ROOT
ATOM      1  C   UNL d   1       1.036   0.288  -2.216  0.00  0.00    -0.033 A 
ATOM      2  C1  UNL d   1       1.403   1.389  -1.441  0.00  0.00     0.039 A 
ATOM      3  C2  UNL d   1       2.074   2.464  -2.026  0.00  0.00    -0.080 A 
ATOM      4  C3  UNL d   1       2.370   2.427  -3.386  0.00  0.00     0.150 A 
ATOM      5  C4  UNL d   1       2.003   1.335  -4.165  0.00  0.00    -0.007 A 
ATOM      6  C5  UNL d   1       1.334   0.261  -3.579  0.00  0.00     0.039 A 
ENDROOT
BRANCH   4   7
ATOM      7  O   UNL d   1       3.027   3.451  -4.001  0.00  0.00    -0.526 OA
ATOM      8  H5  UNL d   1       3.243   4.123  -3.333  0.00  0.00     0.418 HD
ENDBRANCH   4   7
TORSDOF 1
ENDMDL
