MODEL 1
REMARK minimizedAffinity 9.80376625
REMARK minimizedRMSD -1
REMARK  1 active torsions:
REMARK  status: ('A' for Active; 'I' for Inactive)
REMARK    1  A    between atoms: C3_4  and  O_7 
ROOT
ATOM      1  C   UNL d   1       1.475  -0.963  -2.983  0.00  0.00    -0.033 A 
ATOM      2  C1  UNL d   1       2.476  -0.799  -2.024  0.00  0.00     0.039 A 
ATOM      3  C2  UNL d   1       2.877  -1.881  -1.238  0.00  0.00    -0.080 A 
ATOM      4  C3  UNL d   1       2.272  -3.121  -1.422  0.00  0.00     0.150 A 
ATOM      5  C4  UNL d   1       1.277  -3.293  -2.379  0.00  0.00    -0.007 A 
ATOM      6  C5  UNL d   1       0.876  -2.211  -3.162  0.00  0.00     0.039 A 
ENDROOT
BRANCH   4   7
ATOM      7  O   UNL d   1       2.627  -4.205  -0.676  0.00  0.00    -0.526 OA
ATOM      8  H5  UNL d   1       3.305  -3.930  -0.037  0.00  0.00     0.418 HD
ENDBRANCH   4   7
TORSDOF 1
ENDMDL
