MODEL 1
REMARK minimizedAffinity 10.3302402
REMARK minimizedRMSD -1
REMARK  1 active torsions:
REMARK  status: ('A' for Active; 'I' for Inactive)
REMARK    1  A    between atoms: C3_4  and  O_7 
ROOT
ATOM      1  C   UNL d   1       0.369   0.414  -3.850  0.00  0.00    -0.033 A 
ATOM      2  C1  UNL d   1       0.114   1.376  -4.829  0.00  0.00     0.039 A 
ATOM      3  C2  UNL d   1       0.780   2.603  -4.795  0.00  0.00    -0.080 A 
ATOM      4  C3  UNL d   1       1.697   2.854  -3.778  0.00  0.00     0.150 A 
ATOM      5  C4  UNL d   1       1.958   1.899  -2.801  0.00  0.00    -0.007 A 
ATOM      6  C5  UNL d   1       1.292   0.675  -2.837  0.00  0.00     0.039 A 
ENDROOT
BRANCH   4   7
ATOM      7  O   UNL d   1       2.368   4.038  -3.700  0.00  0.00    -0.526 OA
ATOM      8  H5  UNL d   1       2.065   4.612  -4.423  0.00  0.00     0.418 HD
ENDBRANCH   4   7
TORSDOF 1
ENDMDL
