MODEL 1
REMARK minimizedAffinity 10.0372591
REMARK minimizedRMSD -1
REMARK  1 active torsions:
REMARK  status: ('A' for Active; 'I' for Inactive)
REMARK    1  A    between atoms: C3_4  and  O_7 
ROOT
ATOM      1  C   UNL d   1       2.509  -0.427  -1.267  0.00  0.00    -0.033 A 
ATOM      2  C1  UNL d   1       3.444   0.373  -1.926  0.00  0.00     0.039 A 
ATOM      3  C2  UNL d   1       3.087   1.049  -3.095  0.00  0.00    -0.080 A 
ATOM      4  C3  UNL d   1       1.793   0.916  -3.592  0.00  0.00     0.150 A 
ATOM      5  C4  UNL d   1       0.855   0.124  -2.938  0.00  0.00    -0.007 A 
ATOM      6  C5  UNL d   1       1.214  -0.550  -1.772  0.00  0.00     0.039 A 
ENDROOT
BRANCH   4   7
ATOM      7  O   UNL d   1       1.400   1.552  -4.732  0.00  0.00    -0.526 OA
ATOM      8  H5  UNL d   1       2.160   2.040  -5.090  0.00  0.00     0.418 HD
ENDBRANCH   4   7
TORSDOF 1
ENDMDL
