MODEL 1
REMARK minimizedAffinity 6.04506016
REMARK minimizedRMSD -1
REMARK  1 active torsions:
REMARK  status: ('A' for Active; 'I' for Inactive)
REMARK    1  A    between atoms: C3_4  and  O_7 
ROOT
ATOM      1  C   UNL d   1       0.733   0.764  -2.112  0.00  0.00    -0.033 A 
ATOM      2  C1  UNL d   1       0.708  -0.157  -3.161  0.00  0.00     0.039 A 
ATOM      3  C2  UNL d   1       0.399   0.266  -4.456  0.00  0.00    -0.080 A 
ATOM      4  C3  UNL d   1       0.118   1.610  -4.687  0.00  0.00     0.150 A 
ATOM      5  C4  UNL d   1       0.145   2.533  -3.647  0.00  0.00    -0.007 A 
ATOM      6  C5  UNL d   1       0.453   2.109  -2.355  0.00  0.00     0.039 A 
ENDROOT
BRANCH   4   7
ATOM      7  O   UNL d   1      -0.194   2.069  -5.932  0.00  0.00    -0.526 OA
ATOM      8  H5  UNL d   1      -0.202   1.315  -6.545  0.00  0.00     0.418 HD
ENDBRANCH   4   7
TORSDOF 1
ENDMDL
