MODEL 1
REMARK minimizedAffinity 5.38227177
REMARK minimizedRMSD -1
REMARK  1 active torsions:
REMARK  status: ('A' for Active; 'I' for Inactive)
REMARK    1  A    between atoms: C3_4  and  O_7 
ROOT
ATOM      1  C   UNL d   1       3.623   0.257  -1.524  0.00  0.00    -0.033 A 
ATOM      2  C1  UNL d   1       2.800   0.212  -2.651  0.00  0.00     0.039 A 
ATOM      3  C2  UNL d   1       2.025  -0.921  -2.906  0.00  0.00    -0.080 A 
ATOM      4  C3  UNL d   1       2.080  -1.999  -2.027  0.00  0.00     0.150 A 
ATOM      5  C4  UNL d   1       2.894  -1.959  -0.900  0.00  0.00    -0.007 A 
ATOM      6  C5  UNL d   1       3.669  -0.827  -0.648  0.00  0.00     0.039 A 
ENDROOT
BRANCH   4   7
ATOM      7  O   UNL d   1       1.345  -3.128  -2.237  0.00  0.00    -0.526 OA
ATOM      8  H5  UNL d   1       0.853  -3.025  -3.068  0.00  0.00     0.418 HD
ENDBRANCH   4   7
TORSDOF 1
ENDMDL
