MODEL 1
REMARK minimizedAffinity 3.52537274
REMARK minimizedRMSD -1
REMARK  1 active torsions:
REMARK  status: ('A' for Active; 'I' for Inactive)
REMARK    1  A    between atoms: C3_4  and  O_7 
ROOT
ATOM      1  C   UNL d   1      -3.536   6.000   5.956  0.00  0.00    -0.033 A 
ATOM      2  C1  UNL d   1      -4.882   5.630   6.000  0.00  0.00     0.039 A 
ATOM      3  C2  UNL d   1      -5.435   4.879   4.961  0.00  0.00    -0.080 A 
ATOM      4  C3  UNL d   1      -4.634   4.504   3.887  0.00  0.00     0.150 A 
ATOM      5  C4  UNL d   1      -3.291   4.865   3.839  0.00  0.00    -0.007 A 
ATOM      6  C5  UNL d   1      -2.740   5.616   4.876  0.00  0.00     0.039 A 
ENDROOT
BRANCH   4   7
ATOM      7  O   UNL d   1      -5.130   3.775   2.847  0.00  0.00    -0.526 OA
ATOM      8  H5  UNL d   1      -6.078   3.623   3.003  0.00  0.00     0.418 HD
ENDBRANCH   4   7
TORSDOF 1
ENDMDL
