MODEL 1
REMARK minimizedAffinity 8.67145443
REMARK minimizedRMSD -1
REMARK  1 active torsions:
REMARK  status: ('A' for Active; 'I' for Inactive)
REMARK    1  A    between atoms: C3_4  and  O_7 
ROOT
ATOM      1  C   UNL d   1       0.788   0.395  -2.116  0.00  0.00    -0.033 A 
ATOM      2  C1  UNL d   1      -0.190  -0.304  -2.826  0.00  0.00     0.039 A 
ATOM      3  C2  UNL d   1      -0.500   0.064  -4.137  0.00  0.00    -0.080 A 
ATOM      4  C3  UNL d   1       0.174   1.130  -4.725  0.00  0.00     0.150 A 
ATOM      5  C4  UNL d   1       1.152   1.829  -4.024  0.00  0.00    -0.007 A 
ATOM      6  C5  UNL d   1       1.459   1.461  -2.715  0.00  0.00     0.039 A 
ENDROOT
BRANCH   4   7
ATOM      7  O   UNL d   1      -0.098   1.529  -6.000  0.00  0.00    -0.526 OA
ATOM      8  H5  UNL d   1      -0.814   0.974  -6.350  0.00  0.00     0.418 HD
ENDBRANCH   4   7
TORSDOF 1
ENDMDL
