MODEL 1
REMARK minimizedAffinity -5.94245529
REMARK minimizedRMSD -1
REMARK  1 active torsions:
REMARK  status: ('A' for Active; 'I' for Inactive)
REMARK    1  A    between atoms: C3_4  and  O_7 
ROOT
ATOM      1  C   UNL d   1      -3.572  -0.390   1.722  0.00  0.00    -0.033 A 
ATOM      2  C1  UNL d   1      -3.512   0.105   3.026  0.00  0.00     0.039 A 
ATOM      3  C2  UNL d   1      -3.205   1.448   3.252  0.00  0.00    -0.080 A 
ATOM      4  C3  UNL d   1      -2.961   2.285   2.167  0.00  0.00     0.150 A 
ATOM      5  C4  UNL d   1      -3.022   1.799   0.865  0.00  0.00    -0.007 A 
ATOM      6  C5  UNL d   1      -3.328   0.458   0.641  0.00  0.00     0.039 A 
ENDROOT
BRANCH   4   7
ATOM      7  O   UNL d   1      -2.653   3.602   2.337  0.00  0.00    -0.526 OA
ATOM      8  H5  UNL d   1      -2.618   3.789   3.290  0.00  0.00     0.418 HD
ENDBRANCH   4   7
TORSDOF 1
ENDMDL
