MODEL 1
REMARK minimizedAffinity -1.13979268
REMARK minimizedRMSD -1
REMARK  0 active torsions:
REMARK  status: ('A' for Active; 'I' for Inactive)
ROOT
ATOM      1  C1  BNZ d   1      -0.587  -1.105  -5.301  0.00  0.00     0.000 A 
ATOM      2  C2  BNZ d   1      -0.257  -2.068  -4.384  0.00  0.00     0.000 A 
ATOM      3  C3  BNZ d   1      -0.362  -1.823  -3.043  0.00  0.00     0.000 A 
ATOM      4  C4  BNZ d   1      -0.757  -0.605  -2.621  0.00  0.00     0.000 A 
ATOM      5  C5  BNZ d   1      -1.083   0.379  -3.533  0.00  0.00     0.000 A 
ATOM      6  C6  BNZ d   1      -1.014   0.117  -4.881  0.00  0.00     0.000 A 
ENDROOT
TORSDOF 0
ENDMDL
