MODEL 1
REMARK minimizedAffinity 3.77805042
REMARK minimizedRMSD -1
REMARK  0 active torsions:
REMARK  status: ('A' for Active; 'I' for Inactive)
ROOT
ATOM      1  C1  BNZ d   1      -0.599   0.395   3.058  0.00  0.00     0.000 A 
ATOM      2  C2  BNZ d   1       0.593   0.419   3.732  0.00  0.00     0.000 A 
ATOM      3  C3  BNZ d   1       1.365  -0.705   3.828  0.00  0.00     0.000 A 
ATOM      4  C4  BNZ d   1       0.927  -1.859   3.284  0.00  0.00     0.000 A 
ATOM      5  C5  BNZ d   1      -0.276  -1.901   2.609  0.00  0.00     0.000 A 
ATOM      6  C6  BNZ d   1      -1.033  -0.758   2.482  0.00  0.00     0.000 A 
ENDROOT
TORSDOF 0
ENDMDL
