MODEL 1
REMARK minimizedAffinity 0.0795612186
REMARK minimizedRMSD -1
REMARK  0 active torsions:
REMARK  status: ('A' for Active; 'I' for Inactive)
ROOT
ATOM      1  C1  BNZ d   1      -3.210   1.026   2.193  0.00  0.00     0.000 A 
ATOM      2  C2  BNZ d   1      -2.106   1.125   2.997  0.00  0.00     0.000 A 
ATOM      3  C3  BNZ d   1      -1.032   0.300   2.816  0.00  0.00     0.000 A 
ATOM      4  C4  BNZ d   1      -1.079  -0.649   1.858  0.00  0.00     0.000 A 
ATOM      5  C5  BNZ d   1      -2.189  -0.768   1.046  0.00  0.00     0.000 A 
ATOM      6  C6  BNZ d   1      -3.252   0.090   1.206  0.00  0.00     0.000 A 
ENDROOT
TORSDOF 0
ENDMDL
