MODEL 1
REMARK minimizedAffinity -2.99179649
REMARK minimizedRMSD -1
REMARK  0 active torsions:
REMARK  status: ('A' for Active; 'I' for Inactive)
ROOT
ATOM      1  C1  BNZ d   1      -2.134  -0.248   2.646  0.00  0.00     0.000 A 
ATOM      2  C2  BNZ d   1      -3.359   0.355   2.549  0.00  0.00     0.000 A 
ATOM      3  C3  BNZ d   1      -3.971   0.507   1.336  0.00  0.00     0.000 A 
ATOM      4  C4  BNZ d   1      -3.340   0.092   0.219  0.00  0.00     0.000 A 
ATOM      5  C5  BNZ d   1      -2.099  -0.509   0.299  0.00  0.00     0.000 A 
ATOM      6  C6  BNZ d   1      -1.504  -0.696   1.525  0.00  0.00     0.000 A 
ENDROOT
TORSDOF 0
ENDMDL
