MODEL 1
REMARK minimizedAffinity -1.94084156
REMARK minimizedRMSD -1
REMARK  0 active torsions:
REMARK  status: ('A' for Active; 'I' for Inactive)
ROOT
ATOM      1  C1  BNZ d   1      -4.181   1.103   1.488  0.00  0.00     0.000 A 
ATOM      2  C2  BNZ d   1      -3.003   0.904   2.157  0.00  0.00     0.000 A 
ATOM      3  C3  BNZ d   1      -2.060   0.040   1.673  0.00  0.00     0.000 A 
ATOM      4  C4  BNZ d   1      -2.313  -0.652   0.544  0.00  0.00     0.000 A 
ATOM      5  C5  BNZ d   1      -3.500  -0.469  -0.137  0.00  0.00     0.000 A 
ATOM      6  C6  BNZ d   1      -4.430   0.430   0.332  0.00  0.00     0.000 A 
ENDROOT
TORSDOF 0
ENDMDL
