MODEL 1
REMARK minimizedAffinity -3.4336729
REMARK minimizedRMSD -1
REMARK  0 active torsions:
REMARK  status: ('A' for Active; 'I' for Inactive)
ROOT
ATOM      1  C1  BNZ d   1      -1.225   0.343  -5.642  0.00  0.00     0.000 A 
ATOM      2  C2  BNZ d   1      -1.508   0.664  -4.341  0.00  0.00     0.000 A 
ATOM      3  C3  BNZ d   1      -0.534   0.622  -3.383  0.00  0.00     0.000 A 
ATOM      4  C4  BNZ d   1       0.709   0.222  -3.718  0.00  0.00     0.000 A 
ATOM      5  C5  BNZ d   1       1.008  -0.114  -5.023  0.00  0.00     0.000 A 
ATOM      6  C6  BNZ d   1       0.035  -0.033  -5.993  0.00  0.00     0.000 A 
ENDROOT
TORSDOF 0
ENDMDL
