MODEL 1
REMARK minimizedAffinity -2.99484372
REMARK minimizedRMSD -1
REMARK  0 active torsions:
REMARK  status: ('A' for Active; 'I' for Inactive)
ROOT
ATOM      1  C1  BNZ d   1      -0.241   0.750  -3.994  0.00  0.00     0.000 A 
ATOM      2  C2  BNZ d   1       0.938   1.120  -4.584  0.00  0.00     0.000 A 
ATOM      3  C3  BNZ d   1       1.473   0.381  -5.602  0.00  0.00     0.000 A 
ATOM      4  C4  BNZ d   1       0.851  -0.748  -6.000  0.00  0.00     0.000 A 
ATOM      5  C5  BNZ d   1      -0.333  -1.139  -5.408  0.00  0.00     0.000 A 
ATOM      6  C6  BNZ d   1      -0.890  -0.371  -4.411  0.00  0.00     0.000 A 
ENDROOT
TORSDOF 0
ENDMDL
