MODEL 1
REMARK minimizedAffinity -0.49195978
REMARK minimizedRMSD -1
REMARK  0 active torsions:
REMARK  status: ('A' for Active; 'I' for Inactive)
ROOT
ATOM      1  C1  BNZ d   1      -1.075   0.029  -5.996  0.00  0.00     0.000 A 
ATOM      2  C2  BNZ d   1      -1.227   0.703  -4.814  0.00  0.00     0.000 A 
ATOM      3  C3  BNZ d   1      -0.868   0.126  -3.628  0.00  0.00     0.000 A 
ATOM      4  C4  BNZ d   1      -0.397  -1.137  -3.621  0.00  0.00     0.000 A 
ATOM      5  C5  BNZ d   1      -0.247  -1.834  -4.804  0.00  0.00     0.000 A 
ATOM      6  C6  BNZ d   1      -0.572  -1.236  -5.999  0.00  0.00     0.000 A 
ENDROOT
TORSDOF 0
ENDMDL
