MODEL 1
REMARK minimizedAffinity -5.47584581
REMARK minimizedRMSD -1
REMARK  1 active torsions:
REMARK  status: ('A' for Active; 'I' for Inactive)
REMARK    1  A    between atoms: C1_2  and  C2_3 
ROOT
ATOM      1  C2  UNL d   1      -1.478  -0.637  -0.236  0.00  0.00    -0.077 A 
ATOM      2  C3  UNL d   1      -0.987  -1.632   0.620  0.00  0.00     0.002 A 
ATOM      3  C4  UNL d   1      -1.861  -2.532   1.233  0.00  0.00     0.002 A 
ATOM      4  C5  UNL d   1      -3.231  -2.448   0.993  0.00  0.00    -0.004 A 
ATOM      5  C6  UNL d   1      -3.730  -1.460   0.145  0.00  0.00     0.002 A 
ATOM      6  C7  UNL d   1      -2.858  -0.559  -0.468  0.00  0.00     0.002 A 
ENDROOT
BRANCH   1   7
ATOM      7  C1  UNL d   1      -0.533   0.303  -0.937  0.00  0.00     0.055 C 
ATOM      8  C   UNL d   1       0.817   0.355  -0.236  0.00  0.00     0.019 C 
ENDBRANCH   1   7
TORSDOF 1
ENDMDL
