MODEL 1
REMARK minimizedAffinity -4.46647406
REMARK minimizedRMSD -1
REMARK  1 active torsions:
REMARK  status: ('A' for Active; 'I' for Inactive)
REMARK    1  A    between atoms: C1_2  and  C2_3 
ROOT
ATOM      1  C2  UNL d   1      -0.031  -0.197   0.016  0.00  0.00    -0.077 A 
ATOM      2  C3  UNL d   1      -1.117  -0.651   0.777  0.00  0.00     0.002 A 
ATOM      3  C4  UNL d   1      -2.403  -0.668   0.233  0.00  0.00     0.002 A 
ATOM      4  C5  UNL d   1      -2.614  -0.236  -1.074  0.00  0.00    -0.004 A 
ATOM      5  C6  UNL d   1      -1.540   0.220  -1.839  0.00  0.00     0.002 A 
ATOM      6  C7  UNL d   1      -0.255   0.239  -1.296  0.00  0.00     0.002 A 
ENDROOT
BRANCH   1   7
ATOM      7  C1  UNL d   1       1.364  -0.224   0.584  0.00  0.00     0.055 C 
ATOM      8  C   UNL d   1       2.109   1.069   0.285  0.00  0.00     0.019 C 
ENDBRANCH   1   7
TORSDOF 1
ENDMDL
