MODEL 1
REMARK minimizedAffinity -3.31988597
REMARK minimizedRMSD -1
REMARK  1 active torsions:
REMARK  status: ('A' for Active; 'I' for Inactive)
REMARK    1  A    between atoms: C1_2  and  C2_3 
ROOT
ATOM      1  C2  UNL d   1      -0.162  -0.154   0.382  0.00  0.00    -0.077 A 
ATOM      2  C3  UNL d   1      -0.863  -0.720   1.456  0.00  0.00     0.002 A 
ATOM      3  C4  UNL d   1      -2.218  -1.033   1.329  0.00  0.00     0.002 A 
ATOM      4  C5  UNL d   1      -2.881  -0.789   0.128  0.00  0.00    -0.004 A 
ATOM      5  C6  UNL d   1      -2.194  -0.225  -0.945  0.00  0.00     0.002 A 
ATOM      6  C7  UNL d   1      -0.840   0.090  -0.820  0.00  0.00     0.002 A 
ENDROOT
BRANCH   1   7
ATOM      7  C1  UNL d   1       1.311   0.139   0.501  0.00  0.00     0.055 C 
ATOM      8  C   UNL d   1       1.554   1.501   1.134  0.00  0.00     0.019 C 
ENDBRANCH   1   7
TORSDOF 1
ENDMDL
