MODEL 1
REMARK minimizedAffinity -5.67276049
REMARK minimizedRMSD -1
REMARK  1 active torsions:
REMARK  status: ('A' for Active; 'I' for Inactive)
REMARK    1  A    between atoms: C1_2  and  C2_3 
ROOT
ATOM      1  C2  UNL d   1      -1.985  -1.431   0.178  0.00  0.00    -0.077 A 
ATOM      2  C3  UNL d   1      -2.604  -1.055  -1.022  0.00  0.00     0.002 A 
ATOM      3  C4  UNL d   1      -2.012  -0.103  -1.854  0.00  0.00     0.002 A 
ATOM      4  C5  UNL d   1      -0.797   0.478  -1.497  0.00  0.00    -0.004 A 
ATOM      5  C6  UNL d   1      -0.175   0.113  -0.304  0.00  0.00     0.002 A 
ATOM      6  C7  UNL d   1      -0.765  -0.838   0.530  0.00  0.00     0.002 A 
ENDROOT
BRANCH   1   7
ATOM      7  C1  UNL d   1      -2.597  -2.494   1.053  0.00  0.00     0.055 C 
ATOM      8  C   UNL d   1      -1.530  -3.263   1.819  0.00  0.00     0.019 C 
ENDBRANCH   1   7
TORSDOF 1
ENDMDL
