MODEL 1
REMARK minimizedAffinity -5.69587946
REMARK minimizedRMSD -1
REMARK  1 active torsions:
REMARK  status: ('A' for Active; 'I' for Inactive)
REMARK    1  A    between atoms: C1_2  and  C2_3 
ROOT
ATOM      1  C2  UNL d   1      -0.213  -0.342  -0.129  0.00  0.00    -0.077 A 
ATOM      2  C3  UNL d   1      -0.818  -1.144   0.848  0.00  0.00     0.002 A 
ATOM      3  C4  UNL d   1      -2.168  -1.487   0.744  0.00  0.00     0.002 A 
ATOM      4  C5  UNL d   1      -2.921  -1.036  -0.338  0.00  0.00    -0.004 A 
ATOM      5  C6  UNL d   1      -2.329  -0.236  -1.314  0.00  0.00     0.002 A 
ATOM      6  C7  UNL d   1      -0.980   0.109  -1.211  0.00  0.00     0.002 A 
ENDROOT
BRANCH   1   7
ATOM      7  C1  UNL d   1       1.254  -0.011  -0.044  0.00  0.00     0.055 C 
ATOM      8  C   UNL d   1       1.477   1.365   0.566  0.00  0.00     0.019 C 
ENDBRANCH   1   7
TORSDOF 1
ENDMDL
