MODEL 1
REMARK minimizedAffinity -4.2978816
REMARK minimizedRMSD -1
REMARK  1 active torsions:
REMARK  status: ('A' for Active; 'I' for Inactive)
REMARK    1  A    between atoms: C1_2  and  C2_3 
ROOT
ATOM      1  C2  UNL d   1       0.832   1.369   0.586  0.00  0.00    -0.077 A 
ATOM      2  C3  UNL d   1       2.127   1.056   0.149  0.00  0.00     0.002 A 
ATOM      3  C4  UNL d   1       3.200   1.893   0.464  0.00  0.00     0.002 A 
ATOM      4  C5  UNL d   1       2.989   3.043   1.220  0.00  0.00    -0.004 A 
ATOM      5  C6  UNL d   1       1.705   3.364   1.658  0.00  0.00     0.002 A 
ATOM      6  C7  UNL d   1       0.631   2.530   1.343  0.00  0.00     0.002 A 
ENDROOT
BRANCH   1   7
ATOM      7  C1  UNL d   1      -0.318   0.443   0.288  0.00  0.00     0.055 C 
ATOM      8  C   UNL d   1      -0.754   0.550  -1.165  0.00  0.00     0.019 C 
ENDBRANCH   1   7
TORSDOF 1
ENDMDL
