MODEL 1
REMARK minimizedAffinity -5.38781118
REMARK minimizedRMSD -1
REMARK  1 active torsions:
REMARK  status: ('A' for Active; 'I' for Inactive)
REMARK    1  A    between atoms: C1_2  and  C2_3 
ROOT
ATOM      1  C2  UNL d   1      -0.804  -0.901   0.186  0.00  0.00    -0.077 A 
ATOM      2  C3  UNL d   1      -0.681  -1.948   1.111  0.00  0.00     0.002 A 
ATOM      3  C4  UNL d   1      -1.754  -2.808   1.351  0.00  0.00     0.002 A 
ATOM      4  C5  UNL d   1      -2.956  -2.633   0.668  0.00  0.00    -0.004 A 
ATOM      5  C6  UNL d   1      -3.088  -1.594  -0.252  0.00  0.00     0.002 A 
ATOM      6  C7  UNL d   1      -2.017  -0.732  -0.493  0.00  0.00     0.002 A 
ENDROOT
BRANCH   1   7
ATOM      7  C1  UNL d   1       0.369  -0.003  -0.110  0.00  0.00     0.055 C 
ATOM      8  C   UNL d   1       0.235   0.648  -1.479  0.00  0.00     0.019 C 
ENDBRANCH   1   7
TORSDOF 1
ENDMDL
