MODEL 1
REMARK minimizedAffinity -5.74935913
REMARK minimizedRMSD -1
REMARK  1 active torsions:
REMARK  status: ('A' for Active; 'I' for Inactive)
REMARK    1  A    between atoms: C1_2  and  C2_3 
ROOT
ATOM      1  C2  UNL d   1      -0.263  -0.890   0.256  0.00  0.00    -0.077 A 
ATOM      2  C3  UNL d   1      -0.861  -1.859   1.074  0.00  0.00     0.002 A 
ATOM      3  C4  UNL d   1      -2.237  -2.086   1.007  0.00  0.00     0.002 A 
ATOM      4  C5  UNL d   1      -3.025  -1.353   0.122  0.00  0.00    -0.004 A 
ATOM      5  C6  UNL d   1      -2.439  -0.385  -0.694  0.00  0.00     0.002 A 
ATOM      6  C7  UNL d   1      -1.064  -0.155  -0.627  0.00  0.00     0.002 A 
ENDROOT
BRANCH   1   7
ATOM      7  C1  UNL d   1       1.228  -0.677   0.292  0.00  0.00     0.055 C 
ATOM      8  C   UNL d   1       1.573   0.791   0.503  0.00  0.00     0.019 C 
ENDBRANCH   1   7
TORSDOF 1
ENDMDL
