MODEL 1
REMARK minimizedAffinity -4.57208538
REMARK minimizedRMSD -1
REMARK  1 active torsions:
REMARK  status: ('A' for Active; 'I' for Inactive)
REMARK    1  A    between atoms: C1_2  and  C2_3 
ROOT
ATOM      1  C2  UNL d   1      -0.918  -0.562  -0.089  0.00  0.00    -0.077 A 
ATOM      2  C3  UNL d   1      -0.650  -1.375   1.021  0.00  0.00     0.002 A 
ATOM      3  C4  UNL d   1      -1.607  -2.284   1.477  0.00  0.00     0.002 A 
ATOM      4  C5  UNL d   1      -2.835  -2.391   0.827  0.00  0.00    -0.004 A 
ATOM      5  C6  UNL d   1      -3.111  -1.585  -0.276  0.00  0.00     0.002 A 
ATOM      6  C7  UNL d   1      -2.156  -0.675  -0.733  0.00  0.00     0.002 A 
ENDROOT
BRANCH   1   7
ATOM      7  C1  UNL d   1       0.132   0.384  -0.612  0.00  0.00     0.055 C 
ATOM      8  C   UNL d   1       1.421   0.280   0.190  0.00  0.00     0.019 C 
ENDBRANCH   1   7
TORSDOF 1
ENDMDL
