MODEL 1
REMARK minimizedAffinity -5.22532034
REMARK minimizedRMSD -1
REMARK  1 active torsions:
REMARK  status: ('A' for Active; 'I' for Inactive)
REMARK    1  A    between atoms: C1_2  and  C2_3 
ROOT
ATOM      1  C2  UNL d   1      -1.210  -0.528   0.042  0.00  0.00    -0.077 A 
ATOM      2  C3  UNL d   1      -0.884  -1.443   1.053  0.00  0.00     0.002 A 
ATOM      3  C4  UNL d   1      -1.805  -2.414   1.451  0.00  0.00     0.002 A 
ATOM      4  C5  UNL d   1      -3.056  -2.481   0.840  0.00  0.00    -0.004 A 
ATOM      5  C6  UNL d   1      -3.390  -1.574  -0.164  0.00  0.00     0.002 A 
ATOM      6  C7  UNL d   1      -2.471  -0.602  -0.562  0.00  0.00     0.002 A 
ENDROOT
BRANCH   1   7
ATOM      7  C1  UNL d   1      -0.200   0.488  -0.422  0.00  0.00     0.055 C 
ATOM      8  C   UNL d   1       1.209   0.106   0.010  0.00  0.00     0.019 C 
ENDBRANCH   1   7
TORSDOF 1
ENDMDL
