MODEL 1
REMARK minimizedAffinity -3.83008337
REMARK minimizedRMSD -1
REMARK  1 active torsions:
REMARK  status: ('A' for Active; 'I' for Inactive)
REMARK    1  A    between atoms: C1_2  and  C2_3 
ROOT
ATOM      1  C2  UNL d   1      -1.285  -1.913   0.826  0.00  0.00    -0.077 A 
ATOM      2  C3  UNL d   1      -2.486  -2.103   0.128  0.00  0.00     0.002 A 
ATOM      3  C4  UNL d   1      -2.838  -1.248  -0.917  0.00  0.00     0.002 A 
ATOM      4  C5  UNL d   1      -1.993  -0.200  -1.277  0.00  0.00    -0.004 A 
ATOM      5  C6  UNL d   1      -0.798  -0.001  -0.587  0.00  0.00     0.002 A 
ATOM      6  C7  UNL d   1      -0.445  -0.855   0.459  0.00  0.00     0.002 A 
ENDROOT
BRANCH   1   7
ATOM      7  C1  UNL d   1      -0.880  -2.865   1.922  0.00  0.00     0.055 C 
ATOM      8  C   UNL d   1      -1.830  -2.780   3.108  0.00  0.00     0.019 C 
ENDBRANCH   1   7
TORSDOF 1
ENDMDL
