MODEL 1
REMARK minimizedAffinity -3.78982472
REMARK minimizedRMSD -1
REMARK  1 active torsions:
REMARK  status: ('A' for Active; 'I' for Inactive)
REMARK    1  A    between atoms: C1_2  and  C2_3 
ROOT
ATOM      1  C2  UNL d   1      -0.543  -0.693   0.223  0.00  0.00    -0.077 A 
ATOM      2  C3  UNL d   1      -0.348  -1.552   1.313  0.00  0.00     0.002 A 
ATOM      3  C4  UNL d   1      -1.375  -2.396   1.741  0.00  0.00     0.002 A 
ATOM      4  C5  UNL d   1      -2.602  -2.391   1.082  0.00  0.00    -0.004 A 
ATOM      5  C6  UNL d   1      -2.807  -1.539  -0.003  0.00  0.00     0.002 A 
ATOM      6  C7  UNL d   1      -1.782  -0.695  -0.431  0.00  0.00     0.002 A 
ENDROOT
BRANCH   1   7
ATOM      7  C1  UNL d   1       0.580   0.181  -0.271  0.00  0.00     0.055 C 
ATOM      8  C   UNL d   1       1.901  -0.192   0.385  0.00  0.00     0.019 C 
ENDBRANCH   1   7
TORSDOF 1
ENDMDL
