MODEL 1
REMARK minimizedAffinity -3.22733736
REMARK minimizedRMSD -1
REMARK  1 active torsions:
REMARK  status: ('A' for Active; 'I' for Inactive)
REMARK    1  A    between atoms: C1_2  and  C2_3 
ROOT
ATOM      1  C2  UNL d   1       0.438  -0.051   0.032  0.00  0.00    -0.077 A 
ATOM      2  C3  UNL d   1       0.360   0.310  -1.320  0.00  0.00     0.002 A 
ATOM      3  C4  UNL d   1      -0.856   0.238  -2.001  0.00  0.00     0.002 A 
ATOM      4  C5  UNL d   1      -2.004  -0.190  -1.337  0.00  0.00    -0.004 A 
ATOM      5  C6  UNL d   1      -1.936  -0.552   0.007  0.00  0.00     0.002 A 
ATOM      6  C7  UNL d   1      -0.721  -0.482   0.689  0.00  0.00     0.002 A 
ENDROOT
BRANCH   1   7
ATOM      7  C1  UNL d   1       1.739   0.073   0.782  0.00  0.00     0.055 C 
ATOM      8  C   UNL d   1       2.400   1.420   0.525  0.00  0.00     0.019 C 
ENDBRANCH   1   7
TORSDOF 1
ENDMDL
