MODEL 1
REMARK minimizedAffinity 18.8727264
REMARK minimizedRMSD -1
REMARK  1 active torsions:
REMARK  status: ('A' for Active; 'I' for Inactive)
REMARK    1  A    between atoms: C1_2  and  C2_3 
ROOT
ATOM      1  C2  UNL d   1      -0.315  -2.966  -5.024  0.00  0.00    -0.077 A 
ATOM      2  C3  UNL d   1      -0.794  -2.321  -3.876  0.00  0.00     0.002 A 
ATOM      3  C4  UNL d   1      -0.597  -0.949  -3.702  0.00  0.00     0.002 A 
ATOM      4  C5  UNL d   1       0.075  -0.212  -4.675  0.00  0.00    -0.004 A 
ATOM      5  C6  UNL d   1       0.557  -0.845  -5.820  0.00  0.00     0.002 A 
ATOM      6  C7  UNL d   1       0.362  -2.216  -5.994  0.00  0.00     0.002 A 
ENDROOT
BRANCH   1   7
ATOM      7  C1  UNL d   1      -0.570  -4.436  -5.236  0.00  0.00     0.055 C 
ATOM      8  C   UNL d   1      -2.057  -4.753  -5.183  0.00  0.00     0.019 C 
ENDBRANCH   1   7
TORSDOF 1
ENDMDL
