MODEL 1
REMARK minimizedAffinity 6.60392332
REMARK minimizedRMSD -1
REMARK  1 active torsions:
REMARK  status: ('A' for Active; 'I' for Inactive)
REMARK    1  A    between atoms: C1_2  and  C2_3 
ROOT
ATOM      1  C2  UNL d   1      -0.971  -1.357  -3.890  0.00  0.00    -0.077 A 
ATOM      2  C3  UNL d   1      -0.598  -2.358  -4.797  0.00  0.00     0.002 A 
ATOM      3  C4  UNL d   1       0.514  -2.183  -5.624  0.00  0.00     0.002 A 
ATOM      4  C5  UNL d   1       1.263  -1.011  -5.549  0.00  0.00    -0.004 A 
ATOM      5  C6  UNL d   1       0.899  -0.009  -4.651  0.00  0.00     0.002 A 
ATOM      6  C7  UNL d   1      -0.212  -0.181  -3.825  0.00  0.00     0.002 A 
ENDROOT
BRANCH   1   7
ATOM      7  C1  UNL d   1      -2.140  -1.564  -2.963  0.00  0.00     0.055 C 
ATOM      8  C   UNL d   1      -1.676  -1.943  -1.564  0.00  0.00     0.019 C 
ENDBRANCH   1   7
TORSDOF 1
ENDMDL
