MODEL 1
REMARK minimizedAffinity 11.5145216
REMARK minimizedRMSD -1
REMARK  1 active torsions:
REMARK  status: ('A' for Active; 'I' for Inactive)
REMARK    1  A    between atoms: C1_2  and  C2_3 
ROOT
ATOM      1  C2  UNL d   1       5.272   1.415  -5.264  0.00  0.00    -0.077 A 
ATOM      2  C3  UNL d   1       3.909   1.286  -4.961  0.00  0.00     0.002 A 
ATOM      3  C4  UNL d   1       3.249   0.075  -5.178  0.00  0.00     0.002 A 
ATOM      4  C5  UNL d   1       3.944  -1.017  -5.694  0.00  0.00    -0.004 A 
ATOM      5  C6  UNL d   1       5.300  -0.898  -6.000  0.00  0.00     0.002 A 
ATOM      6  C7  UNL d   1       5.961   0.312  -5.785  0.00  0.00     0.002 A 
ENDROOT
BRANCH   1   7
ATOM      7  C1  UNL d   1       5.997   2.705  -4.984  0.00  0.00     0.055 C 
ATOM      8  C   UNL d   1       5.629   3.778  -5.999  0.00  0.00     0.019 C 
ENDBRANCH   1   7
TORSDOF 1
ENDMDL
