MODEL 1
REMARK minimizedAffinity 5.91477203
REMARK minimizedRMSD -1
REMARK  1 active torsions:
REMARK  status: ('A' for Active; 'I' for Inactive)
REMARK    1  A    between atoms: C1_2  and  C2_3 
ROOT
ATOM      1  C2  UNL d   1       0.207  -1.059   3.410  0.00  0.00    -0.077 A 
ATOM      2  C3  UNL d   1       0.347   0.262   3.857  0.00  0.00     0.002 A 
ATOM      3  C4  UNL d   1       0.240   1.326   2.960  0.00  0.00     0.002 A 
ATOM      4  C5  UNL d   1      -0.012   1.081   1.612  0.00  0.00    -0.004 A 
ATOM      5  C6  UNL d   1      -0.151  -0.230   1.157  0.00  0.00     0.002 A 
ATOM      6  C7  UNL d   1      -0.043  -1.295   2.052  0.00  0.00     0.002 A 
ENDROOT
BRANCH   1   7
ATOM      7  C1  UNL d   1       0.273  -2.206   4.385  0.00  0.00     0.055 C 
ATOM      8  C   UNL d   1       1.591  -2.212   5.144  0.00  0.00     0.019 C 
ENDBRANCH   1   7
TORSDOF 1
ENDMDL
