MODEL 1
REMARK minimizedAffinity 4.14790916
REMARK minimizedRMSD -1
REMARK  1 active torsions:
REMARK  status: ('A' for Active; 'I' for Inactive)
REMARK    1  A    between atoms: C1_2  and  C2_3 
ROOT
ATOM      1  C2  UNL d   1       5.240   3.634   3.030  0.00  0.00    -0.077 A 
ATOM      2  C3  UNL d   1       4.184   3.645   2.107  0.00  0.00     0.002 A 
ATOM      3  C4  UNL d   1       3.836   4.824   1.445  0.00  0.00     0.002 A 
ATOM      4  C5  UNL d   1       4.542   5.999   1.695  0.00  0.00    -0.004 A 
ATOM      5  C6  UNL d   1       5.592   6.000   2.612  0.00  0.00     0.002 A 
ATOM      6  C7  UNL d   1       5.940   4.822   3.276  0.00  0.00     0.002 A 
ENDROOT
BRANCH   1   7
ATOM      7  C1  UNL d   1       5.649   2.353   3.708  0.00  0.00     0.055 C 
ATOM      8  C   UNL d   1       4.502   1.353   3.740  0.00  0.00     0.019 C 
ENDBRANCH   1   7
TORSDOF 1
ENDMDL
