MODEL 1
REMARK minimizedAffinity 11.8810472
REMARK minimizedRMSD -1
REMARK  1 active torsions:
REMARK  status: ('A' for Active; 'I' for Inactive)
REMARK    1  A    between atoms: C1_2  and  C2_3 
ROOT
ATOM      1  C2  UNL d   1      -1.523  -0.489   1.075  0.00  0.00    -0.077 A 
ATOM      2  C3  UNL d   1      -1.675   0.863   1.413  0.00  0.00     0.002 A 
ATOM      3  C4  UNL d   1      -0.705   1.512   2.180  0.00  0.00     0.002 A 
ATOM      4  C5  UNL d   1       0.424   0.818   2.610  0.00  0.00    -0.004 A 
ATOM      5  C6  UNL d   1       0.583  -0.527   2.280  0.00  0.00     0.002 A 
ATOM      6  C7  UNL d   1      -0.386  -1.178   1.515  0.00  0.00     0.002 A 
ENDROOT
BRANCH   1   7
ATOM      7  C1  UNL d   1      -2.544  -1.178   0.206  0.00  0.00     0.055 C 
ATOM      8  C   UNL d   1      -1.926  -1.661  -1.097  0.00  0.00     0.019 C 
ENDBRANCH   1   7
TORSDOF 1
ENDMDL
