MODEL 1
REMARK minimizedAffinity 11.0448427
REMARK minimizedRMSD -1
REMARK  1 active torsions:
REMARK  status: ('A' for Active; 'I' for Inactive)
REMARK    1  A    between atoms: C1_2  and  C2_3 
ROOT
ATOM      1  C2  UNL d   1       0.569   1.075   4.624  0.00  0.00    -0.077 A 
ATOM      2  C3  UNL d   1       0.004   1.600   3.454  0.00  0.00     0.002 A 
ATOM      3  C4  UNL d   1      -0.151   0.796   2.322  0.00  0.00     0.002 A 
ATOM      4  C5  UNL d   1       0.253  -0.537   2.352  0.00  0.00    -0.004 A 
ATOM      5  C6  UNL d   1       0.819  -1.067   3.510  0.00  0.00     0.002 A 
ATOM      6  C7  UNL d   1       0.975  -0.265   4.642  0.00  0.00     0.002 A 
ENDROOT
BRANCH   1   7
ATOM      7  C1  UNL d   1       0.692   1.926   5.861  0.00  0.00     0.055 C 
ATOM      8  C   UNL d   1      -0.482   2.886   5.991  0.00  0.00     0.019 C 
ENDBRANCH   1   7
TORSDOF 1
ENDMDL
