MODEL 1
REMARK minimizedAffinity 3.96272063
REMARK minimizedRMSD -1
REMARK  0 active torsions:
REMARK  status: ('A' for Active; 'I' for Inactive)
ROOT
ATOM      1  C1  DEN d   1       3.074  -1.373   1.879  0.00  0.00     0.130 A 
ATOM      2  C2  DEN d   1       3.128  -2.232   0.699  0.00  0.00    -0.031 A 
ATOM      3  C3  DEN d   1       1.742  -2.510   0.273  0.00  0.00     0.027 A 
ATOM      4  C4  DEN d   1      -0.471  -1.694   1.318  0.00  0.00     0.027 A 
ATOM      5  C5  DEN d   1      -1.024  -0.954   2.339  0.00  0.00    -0.003 A 
ATOM      6  C6  DEN d   1      -0.258  -0.334   3.290  0.00  0.00     0.001 A 
ATOM      7  C7  DEN d   1       1.108  -0.406   3.214  0.00  0.00     0.017 A 
ATOM      8  C8  DEN d   1       1.673  -1.158   2.192  0.00  0.00    -0.094 A 
ATOM      9  C9  DEN d   1       0.881  -1.767   1.233  0.00  0.00    -0.072 A 
ENDROOT
TORSDOF 0
ENDMDL
