MODEL 1
REMARK minimizedAffinity 3.61234426
REMARK minimizedRMSD -1
REMARK  0 active torsions:
REMARK  status: ('A' for Active; 'I' for Inactive)
ROOT
ATOM      1  C1  DEN d   1       3.198  -1.922   1.763  0.00  0.00     0.130 A 
ATOM      2  C2  DEN d   1       3.286  -2.659   0.505  0.00  0.00    -0.031 A 
ATOM      3  C3  DEN d   1       1.977  -2.566  -0.171  0.00  0.00     0.027 A 
ATOM      4  C4  DEN d   1      -0.165  -1.353   0.599  0.00  0.00     0.027 A 
ATOM      5  C5  DEN d   1      -0.727  -0.599   1.605  0.00  0.00    -0.003 A 
ATOM      6  C6  DEN d   1      -0.037  -0.263   2.739  0.00  0.00     0.001 A 
ATOM      7  C7  DEN d   1       1.271  -0.646   2.876  0.00  0.00     0.017 A 
ATOM      8  C8  DEN d   1       1.843  -1.413   1.870  0.00  0.00    -0.094 A 
ATOM      9  C9  DEN d   1       1.133  -1.732   0.725  0.00  0.00    -0.072 A 
ENDROOT
TORSDOF 0
ENDMDL
