MODEL 1
REMARK minimizedAffinity 14.4560614
REMARK minimizedRMSD -1
REMARK  0 active torsions:
REMARK  status: ('A' for Active; 'I' for Inactive)
ROOT
ATOM      1  C1  DEN d   1       2.448  -0.385   2.022  0.00  0.00     0.130 A 
ATOM      2  C2  DEN d   1       2.096  -1.798   1.910  0.00  0.00    -0.031 A 
ATOM      3  C3  DEN d   1       1.570  -2.031   0.551  0.00  0.00     0.027 A 
ATOM      4  C4  DEN d   1       1.271  -0.351  -1.384  0.00  0.00     0.027 A 
ATOM      5  C5  DEN d   1       1.419   0.965  -1.760  0.00  0.00    -0.003 A 
ATOM      6  C6  DEN d   1       1.885   1.923  -0.899  0.00  0.00     0.001 A 
ATOM      7  C7  DEN d   1       2.262   1.569   0.370  0.00  0.00     0.017 A 
ATOM      8  C8  DEN d   1       2.108   0.245   0.759  0.00  0.00    -0.094 A 
ATOM      9  C9  DEN d   1       1.647  -0.711  -0.131  0.00  0.00    -0.072 A 
ENDROOT
TORSDOF 0
ENDMDL
