MODEL 1
REMARK minimizedAffinity 11.1630402
REMARK minimizedRMSD -1
REMARK  0 active torsions:
REMARK  status: ('A' for Active; 'I' for Inactive)
ROOT
ATOM      1  C1  DEN d   1       1.150  -1.860   2.625  0.00  0.00     0.130 A 
ATOM      2  C2  DEN d   1      -0.240  -1.583   2.973  0.00  0.00    -0.031 A 
ATOM      3  C3  DEN d   1      -0.921  -1.074   1.765  0.00  0.00     0.027 A 
ATOM      4  C4  DEN d   1       0.039  -0.695  -0.599  0.00  0.00     0.027 A 
ATOM      5  C5  DEN d   1       1.173  -0.776  -1.377  0.00  0.00    -0.003 A 
ATOM      6  C6  DEN d   1       2.377  -1.188  -0.871  0.00  0.00     0.001 A 
ATOM      7  C7  DEN d   1       2.465  -1.578   0.439  0.00  0.00     0.017 A 
ATOM      8  C8  DEN d   1       1.328  -1.493   1.231  0.00  0.00    -0.094 A 
ATOM      9  C9  DEN d   1       0.117  -1.085   0.698  0.00  0.00    -0.072 A 
ENDROOT
TORSDOF 0
ENDMDL
