MODEL 1
REMARK minimizedAffinity 6.06050682
REMARK minimizedRMSD -1
REMARK  0 active torsions:
REMARK  status: ('A' for Active; 'I' for Inactive)
ROOT
ATOM      1  C1  DEN d   1       0.135  -1.269   3.421  0.00  0.00     0.130 A 
ATOM      2  C2  DEN d   1      -0.912  -1.053   2.426  0.00  0.00    -0.031 A 
ATOM      3  C3  DEN d   1      -0.319  -1.250   1.088  0.00  0.00     0.027 A 
ATOM      4  C4  DEN d   1       2.105  -1.872   0.464  0.00  0.00     0.027 A 
ATOM      5  C5  DEN d   1       3.358  -2.147   0.965  0.00  0.00    -0.003 A 
ATOM      6  C6  DEN d   1       3.630  -2.116   2.307  0.00  0.00     0.001 A 
ATOM      7  C7  DEN d   1       2.625  -1.847   3.198  0.00  0.00     0.017 A 
ATOM      8  C8  DEN d   1       1.361  -1.561   2.699  0.00  0.00    -0.094 A 
ATOM      9  C9  DEN d   1       1.102  -1.610   1.340  0.00  0.00    -0.072 A 
ENDROOT
TORSDOF 0
ENDMDL
