MODEL 1
REMARK minimizedAffinity -3.44788122
REMARK minimizedRMSD -1
REMARK  0 active torsions:
REMARK  status: ('A' for Active; 'I' for Inactive)
ROOT
ATOM      1  C   UNL d   1       1.430   2.505  -3.577  0.00  0.00     0.020 A 
ATOM      2  C1  UNL d   1       2.784   2.736  -3.333  0.00  0.00     0.020 A 
ATOM      3  C2  UNL d   1       3.297   2.581  -2.044  0.00  0.00     0.034 A 
ATOM      4  C3  UNL d   1       2.458   2.195  -0.993  0.00  0.00     0.017 A 
ATOM      5  C4  UNL d   1       1.099   1.964  -1.238  0.00  0.00     0.017 A 
ATOM      6  C5  UNL d   1       0.590   2.120  -2.531  0.00  0.00     0.034 A 
ATOM      7 Cl   UNL d   1       0.001   1.485   0.007  0.00  0.00    -0.070 Cl
ATOM      8 Cl1  UNL d   1       3.161   2.022   0.576  0.00  0.00    -0.070 Cl
ENDROOT
TORSDOF 0
ENDMDL
