MODEL 1
REMARK minimizedAffinity -1.78497636
REMARK minimizedRMSD -1
REMARK  0 active torsions:
REMARK  status: ('A' for Active; 'I' for Inactive)
ROOT
ATOM      1  C   UNL d   1      -0.612   1.435  -0.052  0.00  0.00     0.020 A 
ATOM      2  C1  UNL d   1      -1.872   1.066   0.417  0.00  0.00     0.020 A 
ATOM      3  C2  UNL d   1      -2.149  -0.274   0.696  0.00  0.00     0.034 A 
ATOM      4  C3  UNL d   1      -1.163  -1.250   0.507  0.00  0.00     0.017 A 
ATOM      5  C4  UNL d   1       0.102  -0.878   0.037  0.00  0.00     0.017 A 
ATOM      6  C5  UNL d   1       0.373   0.465  -0.241  0.00  0.00     0.034 A 
ATOM      7 Cl   UNL d   1       1.368  -2.026  -0.221  0.00  0.00    -0.070 Cl
ATOM      8 Cl1  UNL d   1      -1.574  -2.888   0.873  0.00  0.00    -0.070 Cl
ENDROOT
TORSDOF 0
ENDMDL
