MODEL 1
REMARK minimizedAffinity -2.50390387
REMARK minimizedRMSD -1
REMARK  0 active torsions:
REMARK  status: ('A' for Active; 'I' for Inactive)
ROOT
ATOM      1  C   UNL d   1       0.102   2.579  -4.330  0.00  0.00     0.020 A 
ATOM      2  C1  UNL d   1      -0.286   2.899  -3.029  0.00  0.00     0.020 A 
ATOM      3  C2  UNL d   1       0.645   2.850  -1.990  0.00  0.00     0.034 A 
ATOM      4  C3  UNL d   1       1.970   2.481  -2.250  0.00  0.00     0.017 A 
ATOM      5  C4  UNL d   1       2.360   2.161  -3.555  0.00  0.00     0.017 A 
ATOM      6  C5  UNL d   1       1.423   2.211  -4.592  0.00  0.00     0.034 A 
ATOM      7 Cl   UNL d   1       3.976   1.697  -3.953  0.00  0.00    -0.070 Cl
ATOM      8 Cl1  UNL d   1       3.069   2.442  -0.917  0.00  0.00    -0.070 Cl
ENDROOT
TORSDOF 0
ENDMDL
