MODEL 1
REMARK minimizedAffinity -0.727235317
REMARK minimizedRMSD -1
REMARK  0 active torsions:
REMARK  status: ('A' for Active; 'I' for Inactive)
ROOT
ATOM      1  C   UNL d   1       3.538  -1.032   2.064  0.00  0.00     0.020 A 
ATOM      2  C1  UNL d   1       4.584  -0.205   2.472  0.00  0.00     0.020 A 
ATOM      3  C2  UNL d   1       4.518   1.170   2.237  0.00  0.00     0.034 A 
ATOM      4  C3  UNL d   1       3.404   1.722   1.594  0.00  0.00     0.017 A 
ATOM      5  C4  UNL d   1       2.355   0.891   1.186  0.00  0.00     0.017 A 
ATOM      6  C5  UNL d   1       2.426  -0.486   1.423  0.00  0.00     0.034 A 
ATOM      7 Cl   UNL d   1       0.948   1.498   0.387  0.00  0.00    -0.070 Cl
ATOM      8 Cl1  UNL d   1       3.389   3.431   1.338  0.00  0.00    -0.070 Cl
ENDROOT
TORSDOF 0
ENDMDL
