MODEL 1
REMARK minimizedAffinity 5.09861422
REMARK minimizedRMSD -1
REMARK  0 active torsions:
REMARK  status: ('A' for Active; 'I' for Inactive)
ROOT
ATOM      1  C   UNL d   1      -2.574  -1.749   0.144  0.00  0.00     0.020 A 
ATOM      2  C1  UNL d   1      -2.768  -0.848   1.190  0.00  0.00     0.020 A 
ATOM      3  C2  UNL d   1      -2.048   0.348   1.223  0.00  0.00     0.034 A 
ATOM      4  C3  UNL d   1      -1.130   0.646   0.210  0.00  0.00     0.017 A 
ATOM      5  C4  UNL d   1      -0.935  -0.259  -0.840  0.00  0.00     0.017 A 
ATOM      6  C5  UNL d   1      -1.660  -1.455  -0.869  0.00  0.00     0.034 A 
ATOM      7 Cl   UNL d   1       0.180   0.038  -2.126  0.00  0.00    -0.070 Cl
ATOM      8 Cl1  UNL d   1      -0.274   2.143   0.315  0.00  0.00    -0.070 Cl
ENDROOT
TORSDOF 0
ENDMDL
