MODEL 1
REMARK minimizedAffinity 2.69101501
REMARK minimizedRMSD -1
REMARK  0 active torsions:
REMARK  status: ('A' for Active; 'I' for Inactive)
ROOT
ATOM      1  C   UNL d   1       3.972   5.484   0.747  0.00  0.00     0.020 A 
ATOM      2  C1  UNL d   1       3.814   4.976   2.036  0.00  0.00     0.020 A 
ATOM      3  C2  UNL d   1       3.650   3.603   2.229  0.00  0.00     0.034 A 
ATOM      4  C3  UNL d   1       3.644   2.733   1.133  0.00  0.00     0.017 A 
ATOM      5  C4  UNL d   1       3.802   3.244  -0.161  0.00  0.00     0.017 A 
ATOM      6  C5  UNL d   1       3.966   4.620  -0.349  0.00  0.00     0.034 A 
ATOM      7 Cl   UNL d   1       3.805   2.233  -1.563  0.00  0.00    -0.070 Cl
ATOM      8 Cl1  UNL d   1       3.437   1.046   1.446  0.00  0.00    -0.070 Cl
ENDROOT
TORSDOF 0
ENDMDL
