MODEL 1
REMARK minimizedAffinity 0.982892931
REMARK minimizedRMSD -1
REMARK  0 active torsions:
REMARK  status: ('A' for Active; 'I' for Inactive)
ROOT
ATOM      1  C   UNL d   1       0.670   0.506  -0.083  0.00  0.00     0.020 A 
ATOM      2  C1  UNL d   1       1.249  -0.760   0.005  0.00  0.00     0.020 A 
ATOM      3  C2  UNL d   1       2.491  -0.918   0.624  0.00  0.00     0.034 A 
ATOM      4  C3  UNL d   1       3.157   0.191   1.157  0.00  0.00     0.017 A 
ATOM      5  C4  UNL d   1       2.575   1.461   1.068  0.00  0.00     0.017 A 
ATOM      6  C5  UNL d   1       1.332   1.614   0.447  0.00  0.00     0.034 A 
ATOM      7 Cl   UNL d   1       3.337   2.877   1.703  0.00  0.00    -0.070 Cl
ATOM      8 Cl1  UNL d   1       4.690  -0.077   1.909  0.00  0.00    -0.070 Cl
ENDROOT
TORSDOF 0
ENDMDL
