MODEL 1
REMARK minimizedAffinity 2.19389367
REMARK minimizedRMSD -1
REMARK  0 active torsions:
REMARK  status: ('A' for Active; 'I' for Inactive)
ROOT
ATOM      1  C   UNL d   1      -0.192   0.319  -0.412  0.00  0.00     0.020 A 
ATOM      2  C1  UNL d   1      -0.976   1.294   0.203  0.00  0.00     0.020 A 
ATOM      3  C2  UNL d   1      -1.172   2.529  -0.419  0.00  0.00     0.034 A 
ATOM      4  C3  UNL d   1      -0.584   2.792  -1.662  0.00  0.00     0.017 A 
ATOM      5  C4  UNL d   1       0.203   1.812  -2.279  0.00  0.00     0.017 A 
ATOM      6  C5  UNL d   1       0.396   0.578  -1.651  0.00  0.00     0.034 A 
ATOM      7 Cl   UNL d   1       0.961   2.063  -3.812  0.00  0.00    -0.070 Cl
ATOM      8 Cl1  UNL d   1      -0.868   4.340  -2.375  0.00  0.00    -0.070 Cl
ENDROOT
TORSDOF 0
ENDMDL
