MODEL 1
REMARK minimizedAffinity 1.14943409
REMARK minimizedRMSD -1
REMARK  0 active torsions:
REMARK  status: ('A' for Active; 'I' for Inactive)
ROOT
ATOM      1  C   UNL d   1       0.262   0.990   0.002  0.00  0.00     0.020 A 
ATOM      2  C1  UNL d   1       0.722  -0.312  -0.193  0.00  0.00     0.020 A 
ATOM      3  C2  UNL d   1       1.984  -0.684   0.273  0.00  0.00     0.034 A 
ATOM      4  C3  UNL d   1       2.792   0.247   0.937  0.00  0.00     0.017 A 
ATOM      5  C4  UNL d   1       2.329   1.553   1.132  0.00  0.00     0.017 A 
ATOM      6  C5  UNL d   1       1.064   1.920   0.663  0.00  0.00     0.034 A 
ATOM      7 Cl   UNL d   1       3.268   2.757   1.942  0.00  0.00    -0.070 Cl
ATOM      8 Cl1  UNL d   1       4.342  -0.282   1.487  0.00  0.00    -0.070 Cl
ENDROOT
TORSDOF 0
ENDMDL
