MODEL 1
REMARK minimizedAffinity -2.63753557
REMARK minimizedRMSD -1
REMARK  0 active torsions:
REMARK  status: ('A' for Active; 'I' for Inactive)
ROOT
ATOM      1  C   UNL d   1      -2.045  -1.469   0.717  0.00  0.00     0.020 A 
ATOM      2  C1  UNL d   1      -1.113  -2.226   1.426  0.00  0.00     0.020 A 
ATOM      3  C2  UNL d   1       0.234  -1.859   1.420  0.00  0.00     0.034 A 
ATOM      4  C3  UNL d   1       0.653  -0.731   0.704  0.00  0.00     0.017 A 
ATOM      5  C4  UNL d   1      -0.283   0.028  -0.007  0.00  0.00     0.017 A 
ATOM      6  C5  UNL d   1      -1.631  -0.344   0.003  0.00  0.00     0.034 A 
ATOM      7 Cl   UNL d   1       0.158   1.432  -0.913  0.00  0.00    -0.070 Cl
ATOM      8 Cl1  UNL d   1       2.334  -0.335   0.741  0.00  0.00    -0.070 Cl
ENDROOT
TORSDOF 0
ENDMDL
