MODEL 1
REMARK minimizedAffinity -4.02509642
REMARK minimizedRMSD -1
REMARK  0 active torsions:
REMARK  status: ('A' for Active; 'I' for Inactive)
ROOT
ATOM      1  C   UNL d   1      -1.105  -2.922   0.609  0.00  0.00     0.020 A 
ATOM      2  C1  UNL d   1       0.283  -2.838   0.507  0.00  0.00     0.020 A 
ATOM      3  C2  UNL d   1       0.905  -1.589   0.449  0.00  0.00     0.034 A 
ATOM      4  C3  UNL d   1       0.138  -0.419   0.491  0.00  0.00     0.017 A 
ATOM      5  C4  UNL d   1      -1.255  -0.504   0.594  0.00  0.00     0.017 A 
ATOM      6  C5  UNL d   1      -1.872  -1.758   0.653  0.00  0.00     0.034 A 
ATOM      7 Cl   UNL d   1      -2.268   0.895   0.652  0.00  0.00    -0.070 Cl
ATOM      8 Cl1  UNL d   1       0.973   1.092   0.415  0.00  0.00    -0.070 Cl
ENDROOT
TORSDOF 0
ENDMDL
