MODEL 1
REMARK minimizedAffinity -0.847044885
REMARK minimizedRMSD -1
REMARK  0 active torsions:
REMARK  status: ('A' for Active; 'I' for Inactive)
ROOT
ATOM      1  C   UNL d   1       3.370   0.334   1.613  0.00  0.00     0.020 A 
ATOM      2  C1  UNL d   1       3.626   1.442   0.807  0.00  0.00     0.020 A 
ATOM      3  C2  UNL d   1       2.735   1.785  -0.213  0.00  0.00     0.034 A 
ATOM      4  C3  UNL d   1       1.583   1.019  -0.428  0.00  0.00     0.017 A 
ATOM      5  C4  UNL d   1       1.327  -0.094   0.382  0.00  0.00     0.017 A 
ATOM      6  C5  UNL d   1       2.223  -0.432   1.401  0.00  0.00     0.034 A 
ATOM      7 Cl   UNL d   1      -0.072  -1.087   0.177  0.00  0.00    -0.070 Cl
ATOM      8 Cl1  UNL d   1       0.525   1.501  -1.706  0.00  0.00    -0.070 Cl
ENDROOT
TORSDOF 0
ENDMDL
