MODEL 1
REMARK minimizedAffinity -1.82785988
REMARK minimizedRMSD -1
REMARK  0 active torsions:
REMARK  status: ('A' for Active; 'I' for Inactive)
ROOT
ATOM      1  C   UNL d   1       0.573   1.087   0.122  0.00  0.00     0.020 A 
ATOM      2  C1  UNL d   1       1.182  -0.166   0.058  0.00  0.00     0.020 A 
ATOM      3  C2  UNL d   1       0.419  -1.323   0.231  0.00  0.00     0.034 A 
ATOM      4  C3  UNL d   1      -0.957  -1.230   0.469  0.00  0.00     0.017 A 
ATOM      5  C4  UNL d   1      -1.567   0.028   0.534  0.00  0.00     0.017 A 
ATOM      6  C5  UNL d   1      -0.799   1.183   0.360  0.00  0.00     0.034 A 
ATOM      7 Cl   UNL d   1      -3.260   0.223   0.824  0.00  0.00    -0.070 Cl
ATOM      8 Cl1  UNL d   1      -1.838  -2.702   0.674  0.00  0.00    -0.070 Cl
ENDROOT
TORSDOF 0
ENDMDL
