MODEL 1
REMARK minimizedAffinity -4.785882
REMARK minimizedRMSD -1
REMARK  0 active torsions:
REMARK  status: ('A' for Active; 'I' for Inactive)
ROOT
ATOM      1  C   UNL d   1       1.664   0.329   0.703  0.00  0.00     0.020 A 
ATOM      2  C1  UNL d   1       1.887  -1.039   0.856  0.00  0.00     0.020 A 
ATOM      3  C2  UNL d   1       0.805  -1.913   0.983  0.00  0.00     0.034 A 
ATOM      4  C3  UNL d   1      -0.504  -1.420   0.957  0.00  0.00     0.017 A 
ATOM      5  C4  UNL d   1      -0.727  -0.046   0.803  0.00  0.00     0.017 A 
ATOM      6  C5  UNL d   1       0.360   0.824   0.677  0.00  0.00     0.034 A 
ATOM      7 Cl   UNL d   1      -2.314   0.636   0.762  0.00  0.00    -0.070 Cl
ATOM      8 Cl1  UNL d   1      -1.794  -2.558   1.118  0.00  0.00    -0.070 Cl
ENDROOT
TORSDOF 0
ENDMDL
