MODEL 1
REMARK minimizedAffinity -3.74444342
REMARK minimizedRMSD -1
REMARK  0 active torsions:
REMARK  status: ('A' for Active; 'I' for Inactive)
ROOT
ATOM      1  C   UNL d   1      -2.022  -2.002   0.439  0.00  0.00     0.020 A 
ATOM      2  C1  UNL d   1      -1.252  -2.868   1.214  0.00  0.00     0.020 A 
ATOM      3  C2  UNL d   1       0.056  -2.522   1.557  0.00  0.00     0.034 A 
ATOM      4  C3  UNL d   1       0.600  -1.307   1.125  0.00  0.00     0.017 A 
ATOM      5  C4  UNL d   1      -0.174  -0.438   0.346  0.00  0.00     0.017 A 
ATOM      6  C5  UNL d   1      -1.484  -0.790   0.006  0.00  0.00     0.034 A 
ATOM      7 Cl   UNL d   1       0.427   1.079  -0.224  0.00  0.00    -0.070 Cl
ATOM      8 Cl1  UNL d   1       2.224  -0.944   1.586  0.00  0.00    -0.070 Cl
ENDROOT
TORSDOF 0
ENDMDL
