MODEL 1
REMARK minimizedAffinity -0.931951165
REMARK minimizedRMSD -1
REMARK  0 active torsions:
REMARK  status: ('A' for Active; 'I' for Inactive)
ROOT
ATOM      1  C   UNL d   1       1.330   0.912  -2.201  0.00  0.00     0.020 A 
ATOM      2  C1  UNL d   1       1.699  -0.423  -2.039  0.00  0.00     0.020 A 
ATOM      3  C2  UNL d   1       1.066  -1.211  -1.075  0.00  0.00     0.034 A 
ATOM      4  C3  UNL d   1       0.059  -0.665  -0.271  0.00  0.00     0.017 A 
ATOM      5  C4  UNL d   1      -0.311   0.675  -0.434  0.00  0.00     0.017 A 
ATOM      6  C5  UNL d   1       0.327   1.459  -1.400  0.00  0.00     0.034 A 
ATOM      7 Cl   UNL d   1      -1.544   1.419   0.522  0.00  0.00    -0.070 Cl
ATOM      8 Cl1  UNL d   1      -0.682  -1.697   0.900  0.00  0.00    -0.070 Cl
ENDROOT
TORSDOF 0
ENDMDL
