MODEL 1
REMARK minimizedAffinity -4.1203742
REMARK minimizedRMSD -1
REMARK  0 active torsions:
REMARK  status: ('A' for Active; 'I' for Inactive)
ROOT
ATOM      1  C   UNL d   1      -2.394  -1.290  -0.491  0.00  0.00     0.020 A 
ATOM      2  C1  UNL d   1      -1.434  -0.560  -1.191  0.00  0.00     0.020 A 
ATOM      3  C2  UNL d   1      -0.133  -0.461  -0.695  0.00  0.00     0.034 A 
ATOM      4  C3  UNL d   1       0.212  -1.091   0.506  0.00  0.00     0.017 A 
ATOM      5  C4  UNL d   1      -0.752  -1.824   1.209  0.00  0.00     0.017 A 
ATOM      6  C5  UNL d   1      -2.053  -1.920   0.706  0.00  0.00     0.034 A 
ATOM      7 Cl   UNL d   1      -0.401  -2.630   2.697  0.00  0.00    -0.070 Cl
ATOM      8 Cl1  UNL d   1       1.840  -0.926   1.061  0.00  0.00    -0.070 Cl
ENDROOT
TORSDOF 0
ENDMDL
