MODEL 1
REMARK minimizedAffinity -4.72712898
REMARK minimizedRMSD -1
REMARK  0 active torsions:
REMARK  status: ('A' for Active; 'I' for Inactive)
ROOT
ATOM      1  C   UNL d   1      -0.514  -2.719   1.356  0.00  0.00     0.020 A 
ATOM      2  C1  UNL d   1      -1.401  -2.325   0.355  0.00  0.00     0.020 A 
ATOM      3  C2  UNL d   1      -1.153  -1.164  -0.380  0.00  0.00     0.034 A 
ATOM      4  C3  UNL d   1      -0.015  -0.393  -0.116  0.00  0.00     0.017 A 
ATOM      5  C4  UNL d   1       0.875  -0.790   0.889  0.00  0.00     0.017 A 
ATOM      6  C5  UNL d   1       0.622  -1.953   1.622  0.00  0.00     0.034 A 
ATOM      7 Cl   UNL d   1       2.300   0.110   1.272  0.00  0.00    -0.070 Cl
ATOM      8 Cl1  UNL d   1       0.229   1.030  -1.065  0.00  0.00    -0.070 Cl
ENDROOT
TORSDOF 0
ENDMDL
