MODEL 1
REMARK minimizedAffinity -5.90985823
REMARK minimizedRMSD -1
REMARK  0 active torsions:
REMARK  status: ('A' for Active; 'I' for Inactive)
ROOT
ATOM      1  C2' OXE d   1       0.205   0.024  -0.895  0.00  0.00     0.078 C 
ATOM      2  C1' OXE d   1      -2.383   1.052  -0.540  0.00  0.00     0.078 C 
ATOM      3  C1  OXE d   1      -1.467   1.024   0.658  0.00  0.00    -0.078 A 
ATOM      4  C2  OXE d   1      -0.219   0.477   0.486  0.00  0.00    -0.078 A 
ATOM      5  C3  OXE d   1       0.685   0.476   1.544  0.00  0.00     0.003 A 
ATOM      6  C4  OXE d   1       0.283   0.887   2.821  0.00  0.00    -0.002 A 
ATOM      7  C5  OXE d   1      -0.998   1.411   3.027  0.00  0.00    -0.002 A 
ATOM      8  C6  OXE d   1      -1.869   1.526   1.949  0.00  0.00     0.003 A 
ENDROOT
TORSDOF 0
ENDMDL
