MODEL 1
REMARK minimizedAffinity -5.70141315
REMARK minimizedRMSD -1
REMARK  0 active torsions:
REMARK  status: ('A' for Active; 'I' for Inactive)
ROOT
ATOM      1  C2' OXE d   1      -2.360  -0.041  -0.235  0.00  0.00     0.078 C 
ATOM      2  C1' OXE d   1       0.380  -0.043  -0.845  0.00  0.00     0.078 C 
ATOM      3  C1  OXE d   1      -0.027   0.318   0.562  0.00  0.00    -0.078 A 
ATOM      4  C2  OXE d   1      -1.372   0.362   0.839  0.00  0.00    -0.078 A 
ATOM      5  C3  OXE d   1      -1.801   0.636   2.134  0.00  0.00     0.003 A 
ATOM      6  C4  OXE d   1      -0.881   1.018   3.119  0.00  0.00    -0.002 A 
ATOM      7  C5  OXE d   1       0.491   1.019   2.847  0.00  0.00    -0.002 A 
ATOM      8  C6  OXE d   1       0.936   0.631   1.588  0.00  0.00     0.003 A 
ENDROOT
TORSDOF 0
ENDMDL
