MODEL 1
REMARK minimizedAffinity -2.66678429
REMARK minimizedRMSD -1
REMARK  0 active torsions:
REMARK  status: ('A' for Active; 'I' for Inactive)
ROOT
ATOM      1  C2' OXE d   1       1.725  -0.406   1.906  0.00  0.00     0.078 C 
ATOM      2  C1' OXE d   1      -0.627   0.644   3.022  0.00  0.00     0.078 C 
ATOM      3  C1  OXE d   1      -0.715   0.025   1.649  0.00  0.00    -0.078 A 
ATOM      4  C2  OXE d   1       0.450  -0.444   1.092  0.00  0.00    -0.078 A 
ATOM      5  C3  OXE d   1       0.415  -1.074  -0.149  0.00  0.00     0.003 A 
ATOM      6  C4  OXE d   1      -0.766  -1.096  -0.900  0.00  0.00    -0.002 A 
ATOM      7  C5  OXE d   1      -1.956  -0.588  -0.367  0.00  0.00    -0.002 A 
ATOM      8  C6  OXE d   1      -1.956  -0.064   0.921  0.00  0.00     0.003 A 
ENDROOT
TORSDOF 0
ENDMDL
