MODEL 1
REMARK minimizedAffinity -3.28283954
REMARK minimizedRMSD -1
REMARK  0 active torsions:
REMARK  status: ('A' for Active; 'I' for Inactive)
ROOT
ATOM      1  C2' OXE d   1       1.975  -0.722   1.144  0.00  0.00     0.078 C 
ATOM      2  C1' OXE d   1       1.432   0.320  -1.406  0.00  0.00     0.078 C 
ATOM      3  C1  OXE d   1       0.305   0.289  -0.404  0.00  0.00    -0.078 A 
ATOM      4  C2  OXE d   1       0.567  -0.265   0.826  0.00  0.00    -0.078 A 
ATOM      5  C3  OXE d   1      -0.421  -0.268   1.806  0.00  0.00     0.003 A 
ATOM      6  C4  OXE d   1      -1.723   0.148   1.501  0.00  0.00    -0.002 A 
ATOM      7  C5  OXE d   1      -2.022   0.679   0.241  0.00  0.00    -0.002 A 
ATOM      8  C6  OXE d   1      -1.011   0.796  -0.706  0.00  0.00     0.003 A 
ENDROOT
TORSDOF 0
ENDMDL
