MODEL 1
REMARK minimizedAffinity -4.0095582
REMARK minimizedRMSD -1
REMARK  0 active torsions:
REMARK  status: ('A' for Active; 'I' for Inactive)
ROOT
ATOM      1  C2' OXE d   1       1.581  -1.068   0.464  0.00  0.00     0.078 C 
ATOM      2  C1' OXE d   1       0.950   0.486  -1.787  0.00  0.00     0.078 C 
ATOM      3  C1  OXE d   1      -0.081   0.385  -0.691  0.00  0.00    -0.078 A 
ATOM      4  C2  OXE d   1       0.218  -0.415   0.386  0.00  0.00    -0.078 A 
ATOM      5  C3  OXE d   1      -0.676  -0.500   1.450  0.00  0.00     0.003 A 
ATOM      6  C4  OXE d   1      -1.938   0.099   1.365  0.00  0.00    -0.002 A 
ATOM      7  C5  OXE d   1      -2.278   0.886   0.260  0.00  0.00    -0.002 A 
ATOM      8  C6  OXE d   1      -1.346   1.074  -0.755  0.00  0.00     0.003 A 
ENDROOT
TORSDOF 0
ENDMDL
