MODEL 1
REMARK minimizedAffinity -2.72336769
REMARK minimizedRMSD -1
REMARK  0 active torsions:
REMARK  status: ('A' for Active; 'I' for Inactive)
ROOT
ATOM      1  C2' OXE d   1       1.198  -1.893  -0.441  0.00  0.00     0.078 C 
ATOM      2  C1' OXE d   1       0.942  -0.007  -2.504  0.00  0.00     0.078 C 
ATOM      3  C1  OXE d   1       0.107   0.190  -1.263  0.00  0.00    -0.078 A 
ATOM      4  C2  OXE d   1       0.205  -0.763  -0.278  0.00  0.00    -0.078 A 
ATOM      5  C3  OXE d   1      -0.502  -0.601   0.910  0.00  0.00     0.003 A 
ATOM      6  C4  OXE d   1      -1.426   0.441   1.049  0.00  0.00    -0.002 A 
ATOM      7  C5  OXE d   1      -1.570   1.401   0.042  0.00  0.00    -0.002 A 
ATOM      8  C6  OXE d   1      -0.781   1.314  -1.100  0.00  0.00     0.003 A 
ENDROOT
TORSDOF 0
ENDMDL
