MODEL 1
REMARK minimizedAffinity -2.38199568
REMARK minimizedRMSD -1
REMARK  0 active torsions:
REMARK  status: ('A' for Active; 'I' for Inactive)
ROOT
ATOM      1  C2' OXE d   1       0.257  -0.579  -2.008  0.00  0.00     0.078 C 
ATOM      2  C1' OXE d   1      -0.923   1.940  -1.631  0.00  0.00     0.078 C 
ATOM      3  C1  OXE d   1      -0.788   1.039  -0.429  0.00  0.00    -0.078 A 
ATOM      4  C2  OXE d   1      -0.252  -0.210  -0.632  0.00  0.00    -0.078 A 
ATOM      5  C3  OXE d   1      -0.055  -1.059   0.453  0.00  0.00     0.003 A 
ATOM      6  C4  OXE d   1      -0.538  -0.714   1.721  0.00  0.00    -0.002 A 
ATOM      7  C5  OXE d   1      -1.123   0.537   1.941  0.00  0.00    -0.002 A 
ATOM      8  C6  OXE d   1      -1.217   1.441   0.888  0.00  0.00     0.003 A 
ENDROOT
TORSDOF 0
ENDMDL
