MODEL 1
REMARK minimizedAffinity -1.8588798
REMARK minimizedRMSD -1
REMARK  0 active torsions:
REMARK  status: ('A' for Active; 'I' for Inactive)
ROOT
ATOM      1  C2' OXE d   1       1.220   2.640  -2.613  0.00  0.00     0.078 C 
ATOM      2  C1' OXE d   1       1.697   0.104  -3.718  0.00  0.00     0.078 C 
ATOM      3  C1  OXE d   1       1.017   0.169  -2.374  0.00  0.00    -0.078 A 
ATOM      4  C2  OXE d   1       0.830   1.412  -1.819  0.00  0.00    -0.078 A 
ATOM      5  C3  OXE d   1       0.158   1.532  -0.606  0.00  0.00     0.003 A 
ATOM      6  C4  OXE d   1      -0.191   0.391   0.127  0.00  0.00    -0.002 A 
ATOM      7  C5  OXE d   1       0.027  -0.886  -0.402  0.00  0.00    -0.002 A 
ATOM      8  C6  OXE d   1       0.590  -1.013  -1.667  0.00  0.00     0.003 A 
ENDROOT
TORSDOF 0
ENDMDL
