MODEL 1
REMARK minimizedAffinity 19.43013
REMARK minimizedRMSD -1
REMARK  0 active torsions:
REMARK  status: ('A' for Active; 'I' for Inactive)
ROOT
ATOM      1  C1  DEN d   1       4.639  -1.671  -5.835  0.00  0.00     0.130 A 
ATOM      2  C2  DEN d   1       3.327  -1.962  -5.264  0.00  0.00    -0.031 A 
ATOM      3  C3  DEN d   1       2.768  -0.700  -4.737  0.00  0.00     0.027 A 
ATOM      4  C4  DEN d   1       3.800   1.663  -4.753  0.00  0.00     0.027 A 
ATOM      5  C5  DEN d   1       4.903   2.404  -5.118  0.00  0.00    -0.003 A 
ATOM      6  C6  DEN d   1       5.999   1.838  -5.712  0.00  0.00     0.001 A 
ATOM      7  C7  DEN d   1       6.000   0.498  -6.000  0.00  0.00     0.017 A 
ATOM      8  C8  DEN d   1       4.895  -0.257  -5.628  0.00  0.00    -0.094 A 
ATOM      9  C9  DEN d   1       3.791   0.337  -5.040  0.00  0.00    -0.072 A 
ENDROOT
TORSDOF 0
ENDMDL
