MODEL 1
REMARK minimizedAffinity 10.468174
REMARK minimizedRMSD -1
REMARK  0 active torsions:
REMARK  status: ('A' for Active; 'I' for Inactive)
ROOT
ATOM      1  C1  DEN d   1       1.367  -1.208   4.902  0.00  0.00     0.130 A 
ATOM      2  C2  DEN d   1       0.767  -2.533   5.029  0.00  0.00    -0.031 A 
ATOM      3  C3  DEN d   1      -0.253  -2.676   3.971  0.00  0.00     0.027 A 
ATOM      4  C4  DEN d   1      -0.955  -0.985   2.155  0.00  0.00     0.027 A 
ATOM      5  C5  DEN d   1      -0.736   0.280   1.654  0.00  0.00    -0.003 A 
ATOM      6  C6  DEN d   1       0.166   1.142   2.216  0.00  0.00     0.001 A 
ATOM      7  C7  DEN d   1       0.918   0.735   3.287  0.00  0.00     0.017 A 
ATOM      8  C8  DEN d   1       0.698  -0.536   3.802  0.00  0.00    -0.094 A 
ATOM      9  C9  DEN d   1      -0.211  -1.397   3.212  0.00  0.00    -0.072 A 
ENDROOT
TORSDOF 0
ENDMDL
