MODEL 1
REMARK minimizedAffinity 14.1288128
REMARK minimizedRMSD -1
REMARK  0 active torsions:
REMARK  status: ('A' for Active; 'I' for Inactive)
ROOT
ATOM      1  C1  DEN d   1       0.265   1.622   5.299  0.00  0.00     0.130 A 
ATOM      2  C2  DEN d   1      -0.488   2.747   4.752  0.00  0.00    -0.031 A 
ATOM      3  C3  DEN d   1      -0.738   2.477   3.322  0.00  0.00     0.027 A 
ATOM      4  C4  DEN d   1      -0.040   0.434   1.911  0.00  0.00     0.027 A 
ATOM      5  C5  DEN d   1       0.624  -0.772   1.934  0.00  0.00    -0.003 A 
ATOM      6  C6  DEN d   1       1.239  -1.245   3.062  0.00  0.00     0.001 A 
ATOM      7  C7  DEN d   1       1.164  -0.529   4.227  0.00  0.00     0.017 A 
ATOM      8  C8  DEN d   1       0.503   0.692   4.210  0.00  0.00    -0.094 A 
ATOM      9  C9  DEN d   1      -0.124   1.147   3.062  0.00  0.00    -0.072 A 
ENDROOT
TORSDOF 0
ENDMDL
