MODEL 1
REMARK minimizedAffinity 15.7121878
REMARK minimizedRMSD -1
REMARK  0 active torsions:
REMARK  status: ('A' for Active; 'I' for Inactive)
ROOT
ATOM      1  C1  DEN d   1      -0.342   0.690   2.141  0.00  0.00     0.130 A 
ATOM      2  C2  DEN d   1       0.351  -0.596   2.120  0.00  0.00    -0.031 A 
ATOM      3  C3  DEN d   1       0.995  -0.789   3.435  0.00  0.00     0.027 A 
ATOM      4  C4  DEN d   1       0.982   0.767   5.492  0.00  0.00     0.027 A 
ATOM      5  C5  DEN d   1       0.538   1.974   5.983  0.00  0.00    -0.003 A 
ATOM      6  C6  DEN d   1      -0.196   2.846   5.224  0.00  0.00     0.001 A 
ATOM      7  C7  DEN d   1      -0.546   2.503   3.945  0.00  0.00     0.017 A 
ATOM      8  C8  DEN d   1      -0.096   1.291   3.440  0.00  0.00    -0.094 A 
ATOM      9  C9  DEN d   1       0.635   0.417   4.228  0.00  0.00    -0.072 A 
ENDROOT
TORSDOF 0
ENDMDL
