MODEL 1
REMARK minimizedAffinity 16.8181534
REMARK minimizedRMSD -1
REMARK  0 active torsions:
REMARK  status: ('A' for Active; 'I' for Inactive)
ROOT
ATOM      1  C1  DEN d   1      -3.026   0.688   1.123  0.00  0.00     0.130 A 
ATOM      2  C2  DEN d   1      -3.428  -0.509   0.389  0.00  0.00    -0.031 A 
ATOM      3  C3  DEN d   1      -2.299  -1.461   0.416  0.00  0.00     0.027 A 
ATOM      4  C4  DEN d   1       0.017  -1.201   1.521  0.00  0.00     0.027 A 
ATOM      5  C5  DEN d   1       0.826  -0.355   2.248  0.00  0.00    -0.003 A 
ATOM      6  C6  DEN d   1       0.423   0.900   2.619  0.00  0.00     0.001 A 
ATOM      7  C7  DEN d   1      -0.839   1.329   2.303  0.00  0.00     0.017 A 
ATOM      8  C8  DEN d   1      -1.657   0.485   1.563  0.00  0.00    -0.094 A 
ATOM      9  C9  DEN d   1      -1.236  -0.785   1.208  0.00  0.00    -0.072 A 
ENDROOT
TORSDOF 0
ENDMDL
