MODEL 1
REMARK minimizedAffinity 14.8588686
REMARK minimizedRMSD -1
REMARK  0 active torsions:
REMARK  status: ('A' for Active; 'I' for Inactive)
ROOT
ATOM      1  C1  DEN d   1      -5.961   4.835  -2.621  0.00  0.00     0.130 A 
ATOM      2  C2  DEN d   1      -5.984   5.911  -1.634  0.00  0.00    -0.031 A 
ATOM      3  C3  DEN d   1      -5.999   5.297  -0.290  0.00  0.00     0.027 A 
ATOM      4  C4  DEN d   1      -5.984   2.800   0.353  0.00  0.00     0.027 A 
ATOM      5  C5  DEN d   1      -5.978   1.514  -0.140  0.00  0.00    -0.003 A 
ATOM      6  C6  DEN d   1      -6.000   1.246  -1.483  0.00  0.00     0.001 A 
ATOM      7  C7  DEN d   1      -5.983   2.280  -2.381  0.00  0.00     0.017 A 
ATOM      8  C8  DEN d   1      -5.997   3.580  -1.892  0.00  0.00    -0.094 A 
ATOM      9  C9  DEN d   1      -5.962   3.830  -0.530  0.00  0.00    -0.072 A 
ENDROOT
TORSDOF 0
ENDMDL
