MODEL 1
REMARK minimizedAffinity 15.1950598
REMARK minimizedRMSD -1
REMARK  0 active torsions:
REMARK  status: ('A' for Active; 'I' for Inactive)
ROOT
ATOM      1  C1  DEN d   1      -0.772  -1.019   2.005  0.00  0.00     0.130 A 
ATOM      2  C2  DEN d   1      -1.218   0.330   1.668  0.00  0.00    -0.031 A 
ATOM      3  C3  DEN d   1      -0.427   1.286   2.468  0.00  0.00     0.027 A 
ATOM      4  C4  DEN d   1       1.440   0.811   4.184  0.00  0.00     0.027 A 
ATOM      5  C5  DEN d   1       2.159  -0.180   4.814  0.00  0.00    -0.003 A 
ATOM      6  C6  DEN d   1       1.931  -1.510   4.579  0.00  0.00     0.001 A 
ATOM      7  C7  DEN d   1       0.989  -1.885   3.657  0.00  0.00     0.017 A 
ATOM      8  C8  DEN d   1       0.254  -0.891   3.023  0.00  0.00    -0.094 A 
ATOM      9  C9  DEN d   1       0.509   0.448   3.265  0.00  0.00    -0.072 A 
ENDROOT
TORSDOF 0
ENDMDL
