MODEL 1
REMARK minimizedAffinity 11.7224846
REMARK minimizedRMSD -1
REMARK  0 active torsions:
REMARK  status: ('A' for Active; 'I' for Inactive)
ROOT
ATOM      1  C1  DEN d   1      -2.130  -2.215   3.086  0.00  0.00     0.130 A 
ATOM      2  C2  DEN d   1      -3.359  -1.536   2.683  0.00  0.00    -0.031 A 
ATOM      3  C3  DEN d   1      -3.038  -0.114   2.446  0.00  0.00     0.027 A 
ATOM      4  C4  DEN d   1      -0.769   1.094   2.658  0.00  0.00     0.027 A 
ATOM      5  C5  DEN d   1       0.561   0.936   2.982  0.00  0.00    -0.003 A 
ATOM      6  C6  DEN d   1       1.075  -0.265   3.392  0.00  0.00     0.001 A 
ATOM      7  C7  DEN d   1       0.264  -1.368   3.446  0.00  0.00     0.017 A 
ATOM      8  C8  DEN d   1      -1.079  -1.215   3.129  0.00  0.00    -0.094 A 
ATOM      9  C9  DEN d   1      -1.577   0.005   2.704  0.00  0.00    -0.072 A 
ENDROOT
TORSDOF 0
ENDMDL
