MODEL 1
REMARK minimizedAffinity 5.96987152
REMARK minimizedRMSD -1
REMARK  0 active torsions:
REMARK  status: ('A' for Active; 'I' for Inactive)
ROOT
ATOM      1  C   UNL d   1      -5.999  -0.479   6.000  0.00  0.00     0.078 C 
ATOM      2  C1  UNL d   1      -5.346   0.538   5.113  0.00  0.00    -0.077 A 
ATOM      3  C2  UNL d   1      -5.274   1.885   5.492  0.00  0.00    -0.001 A 
ATOM      4  C3  UNL d   1      -4.672   2.823   4.652  0.00  0.00     0.003 A 
ATOM      5  C4  UNL d   1      -4.139   2.425   3.427  0.00  0.00    -0.005 A 
ATOM      6  C5  UNL d   1      -4.208   1.088   3.041  0.00  0.00     0.003 A 
ATOM      7  C6  UNL d   1      -4.809   0.149   3.880  0.00  0.00    -0.001 A 
ENDROOT
TORSDOF 0
ENDMDL
