MODEL 1
REMARK minimizedAffinity 10.2964001
REMARK minimizedRMSD -1
REMARK  0 active torsions:
REMARK  status: ('A' for Active; 'I' for Inactive)
ROOT
ATOM      1  C   UNL d   1      -4.570  -0.047   2.702  0.00  0.00     0.078 C 
ATOM      2  C1  UNL d   1      -4.909   0.865   3.844  0.00  0.00    -0.077 A 
ATOM      3  C2  UNL d   1      -4.481   2.198   3.853  0.00  0.00    -0.001 A 
ATOM      4  C3  UNL d   1      -4.795   3.032   4.927  0.00  0.00     0.003 A 
ATOM      5  C4  UNL d   1      -5.538   2.543   5.999  0.00  0.00    -0.005 A 
ATOM      6  C5  UNL d   1      -5.967   1.218   6.000  0.00  0.00     0.003 A 
ATOM      7  C6  UNL d   1      -5.653   0.381   4.927  0.00  0.00    -0.001 A 
ENDROOT
TORSDOF 0
ENDMDL
