MODEL 1
REMARK minimizedAffinity 8.0029068
REMARK minimizedRMSD -1
REMARK  0 active torsions:
REMARK  status: ('A' for Active; 'I' for Inactive)
ROOT
ATOM      1  C   UNL d   1       3.483   1.261  -2.497  0.00  0.00     0.078 C 
ATOM      2  C1  UNL d   1       2.995   1.251  -1.079  0.00  0.00    -0.077 A 
ATOM      3  C2  UNL d   1       2.298   2.343  -0.549  0.00  0.00    -0.001 A 
ATOM      4  C3  UNL d   1       1.859   2.324   0.776  0.00  0.00     0.003 A 
ATOM      5  C4  UNL d   1       2.113   1.216   1.582  0.00  0.00    -0.005 A 
ATOM      6  C5  UNL d   1       2.808   0.125   1.063  0.00  0.00     0.003 A 
ATOM      7  C6  UNL d   1       3.248   0.142  -0.261  0.00  0.00    -0.001 A 
ENDROOT
TORSDOF 0
ENDMDL
