MODEL 1
REMARK minimizedAffinity 11.9052038
REMARK minimizedRMSD -1
REMARK  0 active torsions:
REMARK  status: ('A' for Active; 'I' for Inactive)
ROOT
ATOM      1  C   UNL d   1       3.760  -0.072   1.576  0.00  0.00     0.078 C 
ATOM      2  C1  UNL d   1       2.659   0.919   1.804  0.00  0.00    -0.077 A 
ATOM      3  C2  UNL d   1       1.656   0.678   2.752  0.00  0.00    -0.001 A 
ATOM      4  C3  UNL d   1       0.632   1.605   2.947  0.00  0.00     0.003 A 
ATOM      5  C4  UNL d   1       0.598   2.780   2.198  0.00  0.00    -0.005 A 
ATOM      6  C5  UNL d   1       1.590   3.027   1.251  0.00  0.00     0.003 A 
ATOM      7  C6  UNL d   1       2.615   2.101   1.054  0.00  0.00    -0.001 A 
ENDROOT
TORSDOF 0
ENDMDL
