MODEL 1
REMARK minimizedAffinity 7.70007563
REMARK minimizedRMSD -1
REMARK  0 active torsions:
REMARK  status: ('A' for Active; 'I' for Inactive)
ROOT
ATOM      1  C   UNL d   1       3.670   1.508  -4.874  0.00  0.00     0.078 C 
ATOM      2  C1  UNL d   1       3.117   2.901  -4.895  0.00  0.00    -0.077 A 
ATOM      3  C2  UNL d   1       3.317   3.740  -5.998  0.00  0.00    -0.001 A 
ATOM      4  C3  UNL d   1       2.804   5.038  -6.000  0.00  0.00     0.003 A 
ATOM      5  C4  UNL d   1       2.089   5.510  -4.901  0.00  0.00    -0.005 A 
ATOM      6  C5  UNL d   1       1.887   4.683  -3.798  0.00  0.00     0.003 A 
ATOM      7  C6  UNL d   1       2.399   3.384  -3.794  0.00  0.00    -0.001 A 
ENDROOT
TORSDOF 0
ENDMDL
