MODEL 1
REMARK minimizedAffinity 7.62658596
REMARK minimizedRMSD -1
REMARK  0 active torsions:
REMARK  status: ('A' for Active; 'I' for Inactive)
ROOT
ATOM      1  C   UNL d   1      -1.936  -5.637   3.727  0.00  0.00     0.078 C 
ATOM      2  C1  UNL d   1      -2.294  -5.768   2.276  0.00  0.00    -0.077 A 
ATOM      3  C2  UNL d   1      -1.304  -5.772   1.286  0.00  0.00    -0.001 A 
ATOM      4  C3  UNL d   1      -1.653  -5.885  -0.060  0.00  0.00     0.003 A 
ATOM      5  C4  UNL d   1      -2.992  -5.994  -0.429  0.00  0.00    -0.005 A 
ATOM      6  C5  UNL d   1      -3.985  -5.988   0.549  0.00  0.00     0.003 A 
ATOM      7  C6  UNL d   1      -3.638  -5.876   1.896  0.00  0.00    -0.001 A 
ENDROOT
TORSDOF 0
ENDMDL
