MODEL 1
REMARK minimizedAffinity 7.35807419
REMARK minimizedRMSD -1
REMARK  0 active torsions:
REMARK  status: ('A' for Active; 'I' for Inactive)
ROOT
ATOM      1  C   UNL d   1      -5.966  -2.837  -4.787  0.00  0.00     0.078 C 
ATOM      2  C1  UNL d   1      -5.004  -3.559  -3.891  0.00  0.00    -0.077 A 
ATOM      3  C2  UNL d   1      -3.719  -3.053  -3.656  0.00  0.00    -0.001 A 
ATOM      4  C3  UNL d   1      -2.831  -3.740  -2.827  0.00  0.00     0.003 A 
ATOM      5  C4  UNL d   1      -3.217  -4.938  -2.229  0.00  0.00    -0.005 A 
ATOM      6  C5  UNL d   1      -4.492  -5.450  -2.459  0.00  0.00     0.003 A 
ATOM      7  C6  UNL d   1      -5.382  -4.764  -3.287  0.00  0.00    -0.001 A 
ENDROOT
TORSDOF 0
ENDMDL
