MODEL 1
REMARK minimizedAffinity 13.0247135
REMARK minimizedRMSD -1
REMARK  0 active torsions:
REMARK  status: ('A' for Active; 'I' for Inactive)
ROOT
ATOM      1  C   UNL d   1       4.596   0.409  -5.029  0.00  0.00     0.078 C 
ATOM      2  C1  UNL d   1       3.740   1.511  -4.479  0.00  0.00    -0.077 A 
ATOM      3  C2  UNL d   1       3.658   1.741  -3.101  0.00  0.00    -0.001 A 
ATOM      4  C3  UNL d   1       2.850   2.764  -2.603  0.00  0.00     0.003 A 
ATOM      5  C4  UNL d   1       2.115   3.564  -3.476  0.00  0.00    -0.005 A 
ATOM      6  C5  UNL d   1       2.189   3.341  -4.850  0.00  0.00     0.003 A 
ATOM      7  C6  UNL d   1       2.997   2.318  -5.350  0.00  0.00    -0.001 A 
ENDROOT
TORSDOF 0
ENDMDL
