MODEL 1
REMARK minimizedAffinity 10.1291761
REMARK minimizedRMSD -1
REMARK  0 active torsions:
REMARK  status: ('A' for Active; 'I' for Inactive)
ROOT
ATOM      1  C   UNL d   1      -1.798  -1.916  -2.794  0.00  0.00     0.078 C 
ATOM      2  C1  UNL d   1      -1.653  -2.275  -1.345  0.00  0.00    -0.077 A 
ATOM      3  C2  UNL d   1      -0.427  -2.711  -0.829  0.00  0.00    -0.001 A 
ATOM      4  C3  UNL d   1      -0.310  -3.051   0.520  0.00  0.00     0.003 A 
ATOM      5  C4  UNL d   1      -1.415  -2.959   1.363  0.00  0.00    -0.005 A 
ATOM      6  C5  UNL d   1      -2.640  -2.528   0.858  0.00  0.00     0.003 A 
ATOM      7  C6  UNL d   1      -2.759  -2.188  -0.490  0.00  0.00    -0.001 A 
ENDROOT
TORSDOF 0
ENDMDL
