MODEL 1
REMARK minimizedAffinity 3.1521132
REMARK minimizedRMSD -1
REMARK  0 active torsions:
REMARK  status: ('A' for Active; 'I' for Inactive)
ROOT
ATOM      1  C   UNL d   1       0.845   3.053   2.182  0.00  0.00     0.078 C 
ATOM      2  C1  UNL d   1       1.301   1.954   3.094  0.00  0.00    -0.077 A 
ATOM      3  C2  UNL d   1       0.720   1.775   4.356  0.00  0.00    -0.001 A 
ATOM      4  C3  UNL d   1       1.161   0.754   5.198  0.00  0.00     0.003 A 
ATOM      5  C4  UNL d   1       2.187  -0.096   4.790  0.00  0.00    -0.005 A 
ATOM      6  C5  UNL d   1       2.774   0.076   3.537  0.00  0.00     0.003 A 
ATOM      7  C6  UNL d   1       2.333   1.097   2.693  0.00  0.00    -0.001 A 
ENDROOT
TORSDOF 0
ENDMDL
