MODEL 1
REMARK minimizedAffinity 17.8126392
REMARK minimizedRMSD -1
REMARK  0 active torsions:
REMARK  status: ('A' for Active; 'I' for Inactive)
ROOT
ATOM      1  C   UNL d   1      -2.959  -2.903  -3.358  0.00  0.00     0.078 C 
ATOM      2  C1  UNL d   1      -3.851  -3.980  -2.817  0.00  0.00    -0.077 A 
ATOM      3  C2  UNL d   1      -3.390  -4.878  -1.846  0.00  0.00    -0.001 A 
ATOM      4  C3  UNL d   1      -4.228  -5.882  -1.358  0.00  0.00     0.003 A 
ATOM      5  C4  UNL d   1      -5.532  -5.998  -1.835  0.00  0.00    -0.005 A 
ATOM      6  C5  UNL d   1      -5.999  -5.111  -2.802  0.00  0.00     0.003 A 
ATOM      7  C6  UNL d   1      -5.163  -4.106  -3.292  0.00  0.00    -0.001 A 
ENDROOT
TORSDOF 0
ENDMDL
