MODEL 1
REMARK minimizedAffinity 11.4795046
REMARK minimizedRMSD -1
REMARK  0 active torsions:
REMARK  status: ('A' for Active; 'I' for Inactive)
ROOT
ATOM      1  C   UNL d   1       4.418   0.211  -4.602  0.00  0.00     0.078 C 
ATOM      2  C1  UNL d   1       3.702   1.166  -3.695  0.00  0.00    -0.077 A 
ATOM      3  C2  UNL d   1       2.802   2.109  -4.205  0.00  0.00    -0.001 A 
ATOM      4  C3  UNL d   1       2.149   2.997  -3.349  0.00  0.00     0.003 A 
ATOM      5  C4  UNL d   1       2.391   2.953  -1.978  0.00  0.00    -0.005 A 
ATOM      6  C5  UNL d   1       3.287   2.019  -1.461  0.00  0.00     0.003 A 
ATOM      7  C6  UNL d   1       3.940   1.130  -2.315  0.00  0.00    -0.001 A 
ENDROOT
TORSDOF 0
ENDMDL
