MODEL 1
REMARK minimizedAffinity 18.0091133
REMARK minimizedRMSD -1
REMARK  0 active torsions:
REMARK  status: ('A' for Active; 'I' for Inactive)
ROOT
ATOM      1  C   UNL d   1      -3.772  -6.000   1.522  0.00  0.00     0.078 C 
ATOM      2  C1  UNL d   1      -2.833  -4.841   1.366  0.00  0.00    -0.077 A 
ATOM      3  C2  UNL d   1      -1.865  -4.562   2.338  0.00  0.00    -0.001 A 
ATOM      4  C3  UNL d   1      -1.004  -3.474   2.184  0.00  0.00     0.003 A 
ATOM      5  C4  UNL d   1      -1.103  -2.657   1.060  0.00  0.00    -0.005 A 
ATOM      6  C5  UNL d   1      -2.066  -2.925   0.089  0.00  0.00     0.003 A 
ATOM      7  C6  UNL d   1      -2.928  -4.012   0.241  0.00  0.00    -0.001 A 
ENDROOT
TORSDOF 0
ENDMDL
