MODEL 1
REMARK minimizedAffinity 0.860831976
REMARK minimizedRMSD -1
REMARK  0 active torsions:
REMARK  status: ('A' for Active; 'I' for Inactive)
ROOT
ATOM      1  C   UNL d   1       3.547  -0.379   2.740  0.00  0.00     0.078 C 
ATOM      2  C1  UNL d   1       4.395   0.347   1.739  0.00  0.00    -0.077 A 
ATOM      3  C2  UNL d   1       5.201  -0.354   0.834  0.00  0.00    -0.001 A 
ATOM      4  C3  UNL d   1       5.992   0.335  -0.087  0.00  0.00     0.003 A 
ATOM      5  C4  UNL d   1       5.986   1.728  -0.110  0.00  0.00    -0.005 A 
ATOM      6  C5  UNL d   1       5.189   2.434   0.788  0.00  0.00     0.003 A 
ATOM      7  C6  UNL d   1       4.397   1.747   1.709  0.00  0.00    -0.001 A 
ENDROOT
TORSDOF 0
ENDMDL
