MODEL 1
REMARK minimizedAffinity 10.0580416
REMARK minimizedRMSD -1
REMARK  0 active torsions:
REMARK  status: ('A' for Active; 'I' for Inactive)
ROOT
ATOM      1  C   UNL d   1       0.554   0.644   4.711  0.00  0.00     0.078 C 
ATOM      2  C1  UNL d   1       1.099   1.259   3.457  0.00  0.00    -0.077 A 
ATOM      3  C2  UNL d   1       2.231   0.728   2.826  0.00  0.00    -0.001 A 
ATOM      4  C3  UNL d   1       2.733   1.317   1.664  0.00  0.00     0.003 A 
ATOM      5  C4  UNL d   1       2.111   2.440   1.124  0.00  0.00    -0.005 A 
ATOM      6  C5  UNL d   1       0.985   2.977   1.746  0.00  0.00     0.003 A 
ATOM      7  C6  UNL d   1       0.482   2.390   2.908  0.00  0.00    -0.001 A 
ENDROOT
TORSDOF 0
ENDMDL
