MODEL 1
REMARK minimizedAffinity 15.3567715
REMARK minimizedRMSD -1
REMARK  0 active torsions:
REMARK  status: ('A' for Active; 'I' for Inactive)
ROOT
ATOM      1  C   UNL d   1      -2.967  -6.000   1.507  0.00  0.00     0.078 C 
ATOM      2  C1  UNL d   1      -2.414  -4.661   1.119  0.00  0.00    -0.077 A 
ATOM      3  C2  UNL d   1      -1.122  -4.278   1.497  0.00  0.00    -0.001 A 
ATOM      4  C3  UNL d   1      -0.624  -3.024   1.138  0.00  0.00     0.003 A 
ATOM      5  C4  UNL d   1      -1.412  -2.144   0.399  0.00  0.00    -0.005 A 
ATOM      6  C5  UNL d   1      -2.700  -2.516   0.020  0.00  0.00     0.003 A 
ATOM      7  C6  UNL d   1      -3.200  -3.768   0.379  0.00  0.00    -0.001 A 
ENDROOT
TORSDOF 0
ENDMDL
