MODEL 1
REMARK minimizedAffinity 3.36270308
REMARK minimizedRMSD -1
REMARK  0 active torsions:
REMARK  status: ('A' for Active; 'I' for Inactive)
ROOT
ATOM      1  O1  BZF d   1      -0.538   1.436  -3.550  0.00  0.00    -0.204 OA
ATOM      2  C2  BZF d   1       0.178   0.503  -4.274  0.00  0.00     0.174 A 
ATOM      3  C3  BZF d   1       0.493  -0.560  -3.506  0.00  0.00    -0.012 A 
ATOM      4  C3A BZF d   1      -0.140  -0.315  -2.247  0.00  0.00    -0.107 A 
ATOM      5  C4  BZF d   1      -0.208  -1.017  -1.077  0.00  0.00     0.055 A 
ATOM      6  C5  BZF d   1      -0.846  -0.466  -0.012  0.00  0.00    -0.016 A 
ATOM      7  C6  BZF d   1      -1.422   0.786  -0.079  0.00  0.00     0.022 A 
ATOM      8  C7  BZF d   1      -1.385   1.518  -1.218  0.00  0.00     0.029 A 
ATOM      9  C7A BZF d   1      -0.769   0.950  -2.307  0.00  0.00     0.058 A 
ENDROOT
TORSDOF 0
ENDMDL
