MODEL 1
REMARK minimizedAffinity 3.34667206
REMARK minimizedRMSD -1
REMARK  0 active torsions:
REMARK  status: ('A' for Active; 'I' for Inactive)
ROOT
ATOM      1  O1  BZF d   1       1.768   0.619  -0.561  0.00  0.00    -0.204 OA
ATOM      2  C2  BZF d   1       1.018  -0.359   0.064  0.00  0.00     0.174 A 
ATOM      3  C3  BZF d   1       0.054  -0.820  -0.758  0.00  0.00    -0.012 A 
ATOM      4  C3A BZF d   1       0.268  -0.149  -2.004  0.00  0.00    -0.107 A 
ATOM      5  C4  BZF d   1      -0.357  -0.198  -3.217  0.00  0.00     0.055 A 
ATOM      6  C5  BZF d   1       0.053   0.638  -4.206  0.00  0.00    -0.016 A 
ATOM      7  C6  BZF d   1       1.082   1.538  -4.016  0.00  0.00     0.022 A 
ATOM      8  C7  BZF d   1       1.736   1.619  -2.832  0.00  0.00     0.029 A 
ATOM      9  C7A BZF d   1       1.345   0.753  -1.841  0.00  0.00     0.058 A 
ENDROOT
TORSDOF 0
ENDMDL
