MODEL 1
REMARK minimizedAffinity -5.60593367
REMARK minimizedRMSD -1
REMARK  0 active torsions:
REMARK  status: ('A' for Active; 'I' for Inactive)
ROOT
ATOM      1  O1  BZF d   1      -0.847   0.254  -0.001  0.00  0.00    -0.204 OA
ATOM      2  C2  BZF d   1      -2.079   0.724   0.411  0.00  0.00     0.174 A 
ATOM      3  C3  BZF d   1      -2.076   0.980   1.735  0.00  0.00    -0.012 A 
ATOM      4  C3A BZF d   1      -0.732   0.737   2.162  0.00  0.00    -0.107 A 
ATOM      5  C4  BZF d   1      -0.098   0.832   3.367  0.00  0.00     0.055 A 
ATOM      6  C5  BZF d   1       1.203   0.451   3.462  0.00  0.00    -0.016 A 
ATOM      7  C6  BZF d   1       1.898  -0.034   2.373  0.00  0.00     0.022 A 
ATOM      8  C7  BZF d   1       1.314  -0.142   1.155  0.00  0.00     0.029 A 
ATOM      9  C7A BZF d   1       0.009   0.273   1.050  0.00  0.00     0.058 A 
ENDROOT
TORSDOF 0
ENDMDL
