MODEL 1
REMARK minimizedAffinity -1.4403342
REMARK minimizedRMSD -1
REMARK  0 active torsions:
REMARK  status: ('A' for Active; 'I' for Inactive)
ROOT
ATOM      1  O1  BZF d   1       1.641  -0.356   2.428  0.00  0.00    -0.204 OA
ATOM      2  C2  BZF d   1       2.086  -0.804   1.199  0.00  0.00     0.174 A 
ATOM      3  C3  BZF d   1       1.115  -0.692   0.269  0.00  0.00    -0.012 A 
ATOM      4  C3A BZF d   1       0.024  -0.053   0.940  0.00  0.00    -0.107 A 
ATOM      5  C4  BZF d   1      -1.220   0.344   0.540  0.00  0.00     0.055 A 
ATOM      6  C5  BZF d   1      -2.071   0.872   1.459  0.00  0.00    -0.016 A 
ATOM      7  C6  BZF d   1      -1.714   1.012   2.784  0.00  0.00     0.022 A 
ATOM      8  C7  BZF d   1      -0.489   0.637   3.226  0.00  0.00     0.029 A 
ATOM      9  C7A BZF d   1       0.385   0.134   2.294  0.00  0.00     0.058 A 
ENDROOT
TORSDOF 0
ENDMDL
