MODEL 1
REMARK minimizedAffinity -2.9876101
REMARK minimizedRMSD -1
REMARK  0 active torsions:
REMARK  status: ('A' for Active; 'I' for Inactive)
ROOT
ATOM      1  O1  BZF d   1      -2.137   0.370   2.147  0.00  0.00    -0.204 OA
ATOM      2  C2  BZF d   1      -2.843   0.412   0.960  0.00  0.00     0.174 A 
ATOM      3  C3  BZF d   1      -2.028   0.189  -0.090  0.00  0.00    -0.012 A 
ATOM      4  C3A BZF d   1      -0.747  -0.096   0.481  0.00  0.00    -0.107 A 
ATOM      5  C4  BZF d   1       0.469  -0.413  -0.053  0.00  0.00     0.055 A 
ATOM      6  C5  BZF d   1       1.536  -0.557   0.776  0.00  0.00    -0.016 A 
ATOM      7  C6  BZF d   1       1.424  -0.387   2.141  0.00  0.00     0.022 A 
ATOM      8  C7  BZF d   1       0.237  -0.077   2.716  0.00  0.00     0.029 A 
ATOM      9  C7A BZF d   1      -0.850   0.037   1.885  0.00  0.00     0.058 A 
ENDROOT
TORSDOF 0
ENDMDL
