MODEL 1
REMARK minimizedAffinity -4.8162365
REMARK minimizedRMSD -1
REMARK  0 active torsions:
REMARK  status: ('A' for Active; 'I' for Inactive)
ROOT
ATOM      1  O1  BZF d   1       1.055  -0.582  -0.288  0.00  0.00    -0.204 OA
ATOM      2  C2  BZF d   1      -0.062  -0.541  -1.099  0.00  0.00     0.174 A 
ATOM      3  C3  BZF d   1      -1.081   0.088  -0.479  0.00  0.00    -0.012 A 
ATOM      4  C3A BZF d   1      -0.540   0.545   0.764  0.00  0.00    -0.107 A 
ATOM      5  C4  BZF d   1      -1.060   1.251   1.811  0.00  0.00     0.055 A 
ATOM      6  C5  BZF d   1      -0.288   1.470   2.908  0.00  0.00    -0.016 A 
ATOM      7  C6  BZF d   1       1.004   0.994   2.993  0.00  0.00     0.022 A 
ATOM      8  C7  BZF d   1       1.565   0.294   1.978  0.00  0.00     0.029 A 
ATOM      9  C7A BZF d   1       0.799   0.099   0.855  0.00  0.00     0.058 A 
ENDROOT
TORSDOF 0
ENDMDL
