MODEL 1
REMARK minimizedAffinity -3.54441166
REMARK minimizedRMSD -1
REMARK  0 active torsions:
REMARK  status: ('A' for Active; 'I' for Inactive)
ROOT
ATOM      1  O1  BZF d   1      -0.992   0.238   2.427  0.00  0.00    -0.204 OA
ATOM      2  C2  BZF d   1      -0.202  -0.121   3.502  0.00  0.00     0.174 A 
ATOM      3  C3  BZF d   1       0.849  -0.862   3.097  0.00  0.00    -0.012 A 
ATOM      4  C3A BZF d   1       0.758  -0.896   1.670  0.00  0.00    -0.107 A 
ATOM      5  C4  BZF d   1       1.525  -1.464   0.693  0.00  0.00     0.055 A 
ATOM      6  C5  BZF d   1       1.120  -1.373  -0.601  0.00  0.00    -0.016 A 
ATOM      7  C6  BZF d   1      -0.046  -0.726  -0.953  0.00  0.00     0.022 A 
ATOM      8  C7  BZF d   1      -0.837  -0.143  -0.020  0.00  0.00     0.029 A 
ATOM      9  C7A BZF d   1      -0.414  -0.205   1.285  0.00  0.00     0.058 A 
ENDROOT
TORSDOF 0
ENDMDL
