MODEL 1
REMARK minimizedAffinity -2.68711472
REMARK minimizedRMSD -1
REMARK  0 active torsions:
REMARK  status: ('A' for Active; 'I' for Inactive)
ROOT
ATOM      1  O1  BZF d   1      -1.940   0.556   1.904  0.00  0.00    -0.204 OA
ATOM      2  C2  BZF d   1      -2.129   0.390   0.546  0.00  0.00     0.174 A 
ATOM      3  C3  BZF d   1      -1.017  -0.106  -0.035  0.00  0.00    -0.012 A 
ATOM      4  C3A BZF d   1      -0.106  -0.347   1.042  0.00  0.00    -0.107 A 
ATOM      5  C4  BZF d   1       1.161  -0.851   1.104  0.00  0.00     0.055 A 
ATOM      6  C5  BZF d   1       1.800  -0.886   2.303  0.00  0.00    -0.016 A 
ATOM      7  C6  BZF d   1       1.204  -0.422   3.457  0.00  0.00     0.022 A 
ATOM      8  C7  BZF d   1      -0.054   0.082   3.446  0.00  0.00     0.029 A 
ATOM      9  C7A BZF d   1      -0.714   0.089   2.242  0.00  0.00     0.058 A 
ENDROOT
TORSDOF 0
ENDMDL
