MODEL 1
REMARK minimizedAffinity 7.32702923
REMARK minimizedRMSD -1
REMARK  2 active torsions:
REMARK  status: ('A' for Active; 'I' for Inactive)
REMARK    1  A    between atoms: C2'_3  and  C1'_4 
REMARK    2  A    between atoms: C1'_4  and  C1_5 
ROOT
ATOM      1  C1  I4B d   1       3.472   3.559   5.993  0.00  0.00    -0.075 A 
ATOM      2  C2  I4B d   1       4.844   3.586   5.985  0.00  0.00     0.003 A 
ATOM      3  C3  I4B d   1       5.534   4.822   5.954  0.00  0.00     0.002 A 
ATOM      4  C4  I4B d   1       4.816   5.999   5.881  0.00  0.00    -0.004 A 
ATOM      5  C5  I4B d   1       3.425   5.971   5.912  0.00  0.00     0.002 A 
ATOM      6  C6  I4B d   1       2.748   4.745   5.981  0.00  0.00     0.003 A 
ENDROOT
BRANCH   1   7
ATOM      7  C1' I4B d   1       2.777   2.235   5.994  0.00  0.00     0.060 C 
BRANCH   7   8
ATOM      8  C2' I4B d   1       3.784   1.179   5.588  0.00  0.00    -0.013 C 
ATOM      9  C4' I4B d   1       3.317  -0.199   5.979  0.00  0.00     0.013 C 
ATOM     10  C3' I4B d   1       3.990   1.280   4.106  0.00  0.00     0.013 C 
ENDBRANCH   7   8
ENDBRANCH   1   7
TORSDOF 2
ENDMDL
