MODEL 1
REMARK minimizedAffinity -0.226182893
REMARK minimizedRMSD -1
REMARK  2 active torsions:
REMARK  status: ('A' for Active; 'I' for Inactive)
REMARK    1  A    between atoms: C2'_3  and  C1'_4 
REMARK    2  A    between atoms: C1'_4  and  C1_5 
ROOT
ATOM      1  C1  I4B d   1      -1.319   0.116   1.751  0.00  0.00    -0.075 A 
ATOM      2  C2  I4B d   1      -0.223   0.874   2.082  0.00  0.00     0.003 A 
ATOM      3  C3  I4B d   1       1.036   0.601   1.496  0.00  0.00     0.002 A 
ATOM      4  C4  I4B d   1       1.165  -0.464   0.628  0.00  0.00    -0.004 A 
ATOM      5  C5  I4B d   1       0.049  -1.217   0.276  0.00  0.00     0.002 A 
ATOM      6  C6  I4B d   1      -1.204  -0.918   0.831  0.00  0.00     0.003 A 
ENDROOT
BRANCH   1   7
ATOM      7  C1' I4B d   1      -2.627   0.411   2.414  0.00  0.00     0.060 C 
BRANCH   7   8
ATOM      8  C2' I4B d   1      -3.466   1.225   1.450  0.00  0.00    -0.013 C 
ATOM      9  C4' I4B d   1      -4.432   0.350   0.696  0.00  0.00     0.013 C 
ATOM     10  C3' I4B d   1      -4.189   2.275   2.239  0.00  0.00     0.013 C 
ENDBRANCH   7   8
ENDBRANCH   1   7
TORSDOF 2
ENDMDL
