MODEL 1
REMARK minimizedAffinity 21.5683632
REMARK minimizedRMSD -1
REMARK  0 active torsions:
REMARK  status: ('A' for Active; 'I' for Inactive)
ROOT
ATOM      1  C   UNL d   1       0.002   6.000  -0.169  0.00  0.00    -0.002 A 
ATOM      2  C1  UNL d   1      -0.015   5.244  -1.332  0.00  0.00     0.010 A 
ATOM      3  C2  UNL d   1       0.174   3.861  -1.284  0.00  0.00     0.041 A 
ATOM      4  C3  UNL d   1       0.379   3.245  -0.034  0.00  0.00    -0.075 A 
ATOM      5  S   UNL d   1       0.631   1.567   0.269  0.00  0.00     0.015 SA
ATOM      6  C4  UNL d   1       0.766   1.813   1.950  0.00  0.00     0.022 A 
ATOM      7  C5  UNL d   1       0.624   3.138   2.290  0.00  0.00     0.026 A 
ATOM      8  C6  UNL d   1       0.399   3.985   1.152  0.00  0.00    -0.082 A 
ATOM      9  C7  UNL d   1       0.206   5.385   1.069  0.00  0.00     0.045 A 
ENDROOT
TORSDOF 0
ENDMDL
