MODEL 1
REMARK minimizedAffinity 11.9140501
REMARK minimizedRMSD -1
REMARK  0 active torsions:
REMARK  status: ('A' for Active; 'I' for Inactive)
ROOT
ATOM      1  C   UNL d   1      -0.861   4.733  -0.230  0.00  0.00    -0.002 A 
ATOM      2  C1  UNL d   1       0.437   5.223  -0.220  0.00  0.00     0.010 A 
ATOM      3  C2  UNL d   1       1.386   4.701   0.660  0.00  0.00     0.041 A 
ATOM      4  C3  UNL d   1       1.007   3.666   1.537  0.00  0.00    -0.075 A 
ATOM      5  S   UNL d   1       2.001   2.872   2.700  0.00  0.00     0.015 SA
ATOM      6  C4  UNL d   1       0.726   1.862   3.211  0.00  0.00     0.022 A 
ATOM      7  C5  UNL d   1      -0.437   2.111   2.521  0.00  0.00     0.026 A 
ATOM      8  C6  UNL d   1      -0.294   3.154   1.545  0.00  0.00    -0.082 A 
ATOM      9  C7  UNL d   1      -1.234   3.706   0.641  0.00  0.00     0.045 A 
ENDROOT
TORSDOF 0
ENDMDL
