MODEL 1
REMARK minimizedAffinity 9.45192814
REMARK minimizedRMSD -1
REMARK  0 active torsions:
REMARK  status: ('A' for Active; 'I' for Inactive)
ROOT
ATOM      1  C   UNL d   1       1.413   5.299  -0.025  0.00  0.00    -0.002 A 
ATOM      2  C1  UNL d   1       0.867   4.167   0.562  0.00  0.00     0.010 A 
ATOM      3  C2  UNL d   1      -0.373   3.678   0.145  0.00  0.00     0.041 A 
ATOM      4  C3  UNL d   1      -1.060   4.352  -0.883  0.00  0.00    -0.075 A 
ATOM      5  S   UNL d   1      -2.591   3.935  -1.557  0.00  0.00     0.015 SA
ATOM      6  C4  UNL d   1      -2.556   5.250  -2.641  0.00  0.00     0.022 A 
ATOM      7  C5  UNL d   1      -1.411   6.000  -2.505  0.00  0.00     0.026 A 
ATOM      8  C6  UNL d   1      -0.530   5.494  -1.491  0.00  0.00    -0.082 A 
ATOM      9  C7  UNL d   1       0.728   5.965  -1.045  0.00  0.00     0.045 A 
ENDROOT
TORSDOF 0
ENDMDL
