MODEL 1
REMARK minimizedAffinity 12.559082
REMARK minimizedRMSD -1
REMARK  0 active torsions:
REMARK  status: ('A' for Active; 'I' for Inactive)
ROOT
ATOM      1  C   UNL d   1       0.367   2.677   2.428  0.00  0.00    -0.002 A 
ATOM      2  C1  UNL d   1      -0.862   2.647   3.070  0.00  0.00     0.010 A 
ATOM      3  C2  UNL d   1      -1.170   1.622   3.967  0.00  0.00     0.041 A 
ATOM      4  C3  UNL d   1      -0.210   0.619   4.211  0.00  0.00    -0.075 A 
ATOM      5  S   UNL d   1      -0.366  -0.732   5.270  0.00  0.00     0.015 SA
ATOM      6  C4  UNL d   1       1.197  -1.300   4.895  0.00  0.00     0.022 A 
ATOM      7  C5  UNL d   1       1.836  -0.491   3.986  0.00  0.00     0.026 A 
ATOM      8  C6  UNL d   1       1.036   0.629   3.577  0.00  0.00    -0.082 A 
ATOM      9  C7  UNL d   1       1.317   1.682   2.673  0.00  0.00     0.045 A 
ENDROOT
TORSDOF 0
ENDMDL
