MODEL 1
REMARK minimizedAffinity 22.5849876
REMARK minimizedRMSD -1
REMARK  0 active torsions:
REMARK  status: ('A' for Active; 'I' for Inactive)
ROOT
ATOM      1  C   UNL d   1      -0.278  -1.113  -1.658  0.00  0.00    -0.002 A 
ATOM      2  C1  UNL d   1      -1.644  -0.909  -1.522  0.00  0.00     0.010 A 
ATOM      3  C2  UNL d   1      -2.134   0.280  -0.977  0.00  0.00     0.041 A 
ATOM      4  C3  UNL d   1      -1.219   1.270  -0.569  0.00  0.00    -0.075 A 
ATOM      5  S   UNL d   1      -1.589   2.805   0.124  0.00  0.00     0.015 SA
ATOM      6  C4  UNL d   1       0.057   3.226   0.255  0.00  0.00     0.022 A 
ATOM      7  C5  UNL d   1       0.883   2.232  -0.214  0.00  0.00     0.026 A 
ATOM      8  C6  UNL d   1       0.161   1.089  -0.697  0.00  0.00    -0.082 A 
ATOM      9  C7  UNL d   1       0.626  -0.128  -1.252  0.00  0.00     0.045 A 
ENDROOT
TORSDOF 0
ENDMDL
