MODEL 1
REMARK minimizedAffinity 11.5454617
REMARK minimizedRMSD -1
REMARK  1 active torsions:
REMARK  status: ('A' for Active; 'I' for Inactive)
REMARK    1  A    between atoms: C3_4  and  O_7 
ROOT
ATOM      1  C   UNL d   1       5.652  -5.228   0.035  0.00  0.00    -0.033 A 
ATOM      2  C1  UNL d   1       5.102  -4.284   0.904  0.00  0.00     0.039 A 
ATOM      3  C2  UNL d   1       3.738  -3.993   0.850  0.00  0.00    -0.080 A 
ATOM      4  C3  UNL d   1       2.935  -4.653  -0.075  0.00  0.00     0.150 A 
ATOM      5  C4  UNL d   1       3.475  -5.598  -0.942  0.00  0.00    -0.007 A 
ATOM      6  C5  UNL d   1       4.838  -5.886  -0.887  0.00  0.00     0.039 A 
ENDROOT
BRANCH   4   7
ATOM      7  O   UNL d   1       1.598  -4.400  -0.169  0.00  0.00    -0.526 OA
ATOM      8  H5  UNL d   1       1.372  -3.705   0.472  0.00  0.00     0.418 HD
ENDBRANCH   4   7
TORSDOF 1
ENDMDL
