MODEL 1
REMARK minimizedAffinity 6.14576292
REMARK minimizedRMSD -1
REMARK  1 active torsions:
REMARK  status: ('A' for Active; 'I' for Inactive)
REMARK    1  A    between atoms: C3_4  and  O_7 
ROOT
ATOM      1  C   UNL d   1      -0.059  -0.151   2.075  0.00  0.00    -0.033 A 
ATOM      2  C1  UNL d   1       1.243   0.141   1.664  0.00  0.00     0.039 A 
ATOM      3  C2  UNL d   1       1.938  -0.755   0.849  0.00  0.00    -0.080 A 
ATOM      4  C3  UNL d   1       1.319  -1.937   0.451  0.00  0.00     0.150 A 
ATOM      5  C4  UNL d   1       0.021  -2.232   0.853  0.00  0.00    -0.007 A 
ATOM      6  C5  UNL d   1      -0.670  -1.337   1.668  0.00  0.00     0.039 A 
ENDROOT
BRANCH   4   7
ATOM      7  O   UNL d   1       1.959  -2.844  -0.341  0.00  0.00    -0.526 OA
ATOM      8  H5  UNL d   1       2.858  -2.519  -0.516  0.00  0.00     0.418 HD
ENDBRANCH   4   7
TORSDOF 1
ENDMDL
