MODEL 1
REMARK minimizedAffinity -1.1294266
REMARK minimizedRMSD -1
REMARK  1 active torsions:
REMARK  status: ('A' for Active; 'I' for Inactive)
REMARK    1  A    between atoms: C3_4  and  O_7 
ROOT
ATOM      1  C   UNL d   1       0.271  -0.686   0.451  0.00  0.00    -0.033 A 
ATOM      2  C1  UNL d   1      -0.035  -1.419   1.598  0.00  0.00     0.039 A 
ATOM      3  C2  UNL d   1       0.559  -2.664   1.813  0.00  0.00    -0.080 A 
ATOM      4  C3  UNL d   1       1.457  -3.164   0.874  0.00  0.00     0.150 A 
ATOM      5  C4  UNL d   1       1.771  -2.436  -0.270  0.00  0.00    -0.007 A 
ATOM      6  C5  UNL d   1       1.176  -1.194  -0.483  0.00  0.00     0.039 A 
ENDROOT
BRANCH   4   7
ATOM      7  O   UNL d   1       2.059  -4.376   1.037  0.00  0.00    -0.526 OA
ATOM      8  H5  UNL d   1       1.725  -4.777   1.857  0.00  0.00     0.418 HD
ENDBRANCH   4   7
TORSDOF 1
ENDMDL
