MODEL 1
REMARK minimizedAffinity -4.16468382
REMARK minimizedRMSD -1
REMARK  1 active torsions:
REMARK  status: ('A' for Active; 'I' for Inactive)
REMARK    1  A    between atoms: C3_4  and  O_7 
ROOT
ATOM      1  C   UNL d   1       1.107  -1.098   1.108  0.00  0.00    -0.033 A 
ATOM      2  C1  UNL d   1       2.000  -1.955   0.462  0.00  0.00     0.039 A 
ATOM      3  C2  UNL d   1       1.824  -3.338   0.540  0.00  0.00    -0.080 A 
ATOM      4  C3  UNL d   1       0.753  -3.850   1.266  0.00  0.00     0.150 A 
ATOM      5  C4  UNL d   1      -0.143  -3.003   1.909  0.00  0.00    -0.007 A 
ATOM      6  C5  UNL d   1       0.035  -1.622   1.831  0.00  0.00     0.039 A 
ENDROOT
BRANCH   4   7
ATOM      7  O   UNL d   1       0.543  -5.193   1.375  0.00  0.00    -0.526 OA
ATOM      8  H5  UNL d   1       1.256  -5.655   0.904  0.00  0.00     0.418 HD
ENDBRANCH   4   7
TORSDOF 1
ENDMDL
