MODEL 1
REMARK minimizedAffinity -0.118977748
REMARK minimizedRMSD -1
REMARK  1 active torsions:
REMARK  status: ('A' for Active; 'I' for Inactive)
REMARK    1  A    between atoms: C3_4  and  O_7 
ROOT
ATOM      1  C   UNL d   1      -0.855  -2.385   2.469  0.00  0.00    -0.033 A 
ATOM      2  C1  UNL d   1       0.126  -1.568   1.905  0.00  0.00     0.039 A 
ATOM      3  C2  UNL d   1       1.149  -2.129   1.138  0.00  0.00    -0.080 A 
ATOM      4  C3  UNL d   1       1.179  -3.507   0.943  0.00  0.00     0.150 A 
ATOM      5  C4  UNL d   1       0.202  -4.327   1.499  0.00  0.00    -0.007 A 
ATOM      6  C5  UNL d   1      -0.818  -3.765   2.265  0.00  0.00     0.039 A 
ENDROOT
BRANCH   4   7
ATOM      7  O   UNL d   1       2.160  -4.102   0.206  0.00  0.00    -0.526 OA
ATOM      8  H5  UNL d   1       2.780  -3.415  -0.091  0.00  0.00     0.418 HD
ENDBRANCH   4   7
TORSDOF 1
ENDMDL
