MODEL 1
REMARK minimizedAffinity -1.34516895
REMARK minimizedRMSD -1
REMARK  1 active torsions:
REMARK  status: ('A' for Active; 'I' for Inactive)
REMARK    1  A    between atoms: C3_4  and  O_7 
ROOT
ATOM      1  C   UNL d   1       2.472  -2.832  -0.168  0.00  0.00    -0.033 A 
ATOM      2  C1  UNL d   1       2.115  -3.553   0.973  0.00  0.00     0.039 A 
ATOM      3  C2  UNL d   1       1.154  -3.045   1.850  0.00  0.00    -0.080 A 
ATOM      4  C3  UNL d   1       0.558  -1.818   1.573  0.00  0.00     0.150 A 
ATOM      5  C4  UNL d   1       0.905  -1.096   0.436  0.00  0.00    -0.007 A 
ATOM      6  C5  UNL d   1       1.866  -1.604  -0.437  0.00  0.00     0.039 A 
ENDROOT
BRANCH   4   7
ATOM      7  O   UNL d   1      -0.382  -1.280   2.402  0.00  0.00    -0.526 OA
ATOM      8  H5  UNL d   1      -0.500  -1.875   3.161  0.00  0.00     0.418 HD
ENDBRANCH   4   7
TORSDOF 1
ENDMDL
