MODEL 1
REMARK minimizedAffinity 1.66165626
REMARK minimizedRMSD -1
REMARK  1 active torsions:
REMARK  status: ('A' for Active; 'I' for Inactive)
REMARK    1  A    between atoms: C3_4  and  O_7 
ROOT
ATOM      1  C   UNL d   1       1.225  -3.815   0.313  0.00  0.00    -0.033 A 
ATOM      2  C1  UNL d   1       0.010  -3.864   0.998  0.00  0.00     0.039 A 
ATOM      3  C2  UNL d   1      -0.517  -2.707   1.575  0.00  0.00    -0.080 A 
ATOM      4  C3  UNL d   1       0.181  -1.508   1.458  0.00  0.00     0.150 A 
ATOM      5  C4  UNL d   1       1.390  -1.450   0.773  0.00  0.00    -0.007 A 
ATOM      6  C5  UNL d   1       1.915  -2.607   0.199  0.00  0.00     0.039 A 
ENDROOT
BRANCH   4   7
ATOM      7  O   UNL d   1      -0.290  -0.353   2.008  0.00  0.00    -0.526 OA
ATOM      8  H5  UNL d   1      -1.120  -0.550   2.474  0.00  0.00     0.418 HD
ENDBRANCH   4   7
TORSDOF 1
ENDMDL
