MODEL 1
REMARK minimizedAffinity -2.54759121
REMARK minimizedRMSD -1
REMARK  1 active torsions:
REMARK  status: ('A' for Active; 'I' for Inactive)
REMARK    1  A    between atoms: C3_4  and  O_7 
ROOT
ATOM      1  C   UNL d   1      -4.701   2.101   4.861  0.00  0.00    -0.033 A 
ATOM      2  C1  UNL d   1      -5.631   2.827   5.607  0.00  0.00     0.039 A 
ATOM      3  C2  UNL d   1      -5.346   4.137   5.998  0.00  0.00    -0.080 A 
ATOM      4  C3  UNL d   1      -4.129   4.708   5.637  0.00  0.00     0.150 A 
ATOM      5  C4  UNL d   1      -3.199   3.992   4.891  0.00  0.00    -0.007 A 
ATOM      6  C5  UNL d   1      -3.485   2.684   4.501  0.00  0.00     0.039 A 
ENDROOT
BRANCH   4   7
ATOM      7  O   UNL d   1      -3.803   5.981   6.000  0.00  0.00    -0.526 OA
ATOM      8  H5  UNL d   1      -4.529   6.343   6.536  0.00  0.00     0.418 HD
ENDBRANCH   4   7
TORSDOF 1
ENDMDL
