MODEL 1
REMARK minimizedAffinity 1.40018165
REMARK minimizedRMSD -1
REMARK  1 active torsions:
REMARK  status: ('A' for Active; 'I' for Inactive)
REMARK    1  A    between atoms: C3_4  and  O_7 
ROOT
ATOM      1  C   UNL d   1      -5.254   1.711   4.371  0.00  0.00    -0.033 A 
ATOM      2  C1  UNL d   1      -5.994   2.236   5.433  0.00  0.00     0.039 A 
ATOM      3  C2  UNL d   1      -5.641   3.466   5.992  0.00  0.00    -0.080 A 
ATOM      4  C3  UNL d   1      -4.549   4.160   5.481  0.00  0.00     0.150 A 
ATOM      5  C4  UNL d   1      -3.809   3.645   4.421  0.00  0.00    -0.007 A 
ATOM      6  C5  UNL d   1      -4.163   2.417   3.864  0.00  0.00     0.039 A 
ENDROOT
BRANCH   4   7
ATOM      7  O   UNL d   1      -4.163   5.362   5.997  0.00  0.00    -0.526 OA
ATOM      8  H5  UNL d   1      -4.748   5.578   6.742  0.00  0.00     0.418 HD
ENDBRANCH   4   7
TORSDOF 1
ENDMDL
