MODEL 1
REMARK minimizedAffinity 4.04903412
REMARK minimizedRMSD -1
REMARK  1 active torsions:
REMARK  status: ('A' for Active; 'I' for Inactive)
REMARK    1  A    between atoms: C3_4  and  O_7 
ROOT
ATOM      1  C   UNL d   1       0.407  -0.291   1.255  0.00  0.00    -0.033 A 
ATOM      2  C1  UNL d   1      -0.135  -1.522   1.631  0.00  0.00     0.039 A 
ATOM      3  C2  UNL d   1       0.525  -2.707   1.298  0.00  0.00    -0.080 A 
ATOM      4  C3  UNL d   1       1.723  -2.648   0.592  0.00  0.00     0.150 A 
ATOM      5  C4  UNL d   1       2.270  -1.425   0.218  0.00  0.00    -0.007 A 
ATOM      6  C5  UNL d   1       1.610  -0.243   0.550  0.00  0.00     0.039 A 
ENDROOT
BRANCH   4   7
ATOM      7  O   UNL d   1       2.400  -3.778   0.241  0.00  0.00    -0.526 OA
ATOM      8  H5  UNL d   1       1.889  -4.548   0.540  0.00  0.00     0.418 HD
ENDBRANCH   4   7
TORSDOF 1
ENDMDL
