MODEL 1
REMARK minimizedAffinity 8.83626556
REMARK minimizedRMSD -1
REMARK  0 active torsions:
REMARK  status: ('A' for Active; 'I' for Inactive)
ROOT
ATOM      1  C   UNL d   1       1.881   1.802   2.460  0.00  0.00     0.078 C 
ATOM      2  C1  UNL d   1       1.471   0.490   1.862  0.00  0.00    -0.077 A 
ATOM      3  C2  UNL d   1       0.183   0.304   1.344  0.00  0.00    -0.001 A 
ATOM      4  C3  UNL d   1      -0.189  -0.925   0.799  0.00  0.00     0.003 A 
ATOM      5  C4  UNL d   1       0.722  -1.980   0.766  0.00  0.00    -0.005 A 
ATOM      6  C5  UNL d   1       2.005  -1.805   1.280  0.00  0.00     0.003 A 
ATOM      7  C6  UNL d   1       2.378  -0.576   1.826  0.00  0.00    -0.001 A 
ENDROOT
TORSDOF 0
ENDMDL
