MODEL 1
REMARK minimizedAffinity 3.81061816
REMARK minimizedRMSD -1
REMARK  0 active torsions:
REMARK  status: ('A' for Active; 'I' for Inactive)
ROOT
ATOM      1  C   UNL d   1       1.618  -2.053   2.442  0.00  0.00     0.078 C 
ATOM      2  C1  UNL d   1       2.135  -0.664   2.214  0.00  0.00    -0.077 A 
ATOM      3  C2  UNL d   1       2.478  -0.224   0.930  0.00  0.00    -0.001 A 
ATOM      4  C3  UNL d   1       2.967   1.069   0.735  0.00  0.00     0.003 A 
ATOM      5  C4  UNL d   1       3.117   1.932   1.818  0.00  0.00    -0.005 A 
ATOM      6  C5  UNL d   1       2.779   1.502   3.100  0.00  0.00     0.003 A 
ATOM      7  C6  UNL d   1       2.291   0.210   3.298  0.00  0.00    -0.001 A 
ENDROOT
TORSDOF 0
ENDMDL
