MODEL 1
REMARK minimizedAffinity 12.7818336
REMARK minimizedRMSD -1
REMARK  0 active torsions:
REMARK  status: ('A' for Active; 'I' for Inactive)
ROOT
ATOM      1  C   UNL d   1      -5.386  -5.940  -5.821  0.00  0.00     0.078 C 
ATOM      2  C1  UNL d   1      -5.386  -4.538  -5.289  0.00  0.00    -0.077 A 
ATOM      3  C2  UNL d   1      -5.996  -3.497  -6.000  0.00  0.00    -0.001 A 
ATOM      4  C3  UNL d   1      -5.981  -2.195  -5.497  0.00  0.00     0.003 A 
ATOM      5  C4  UNL d   1      -5.355  -1.922  -4.282  0.00  0.00    -0.005 A 
ATOM      6  C5  UNL d   1      -4.744  -2.951  -3.569  0.00  0.00     0.003 A 
ATOM      7  C6  UNL d   1      -4.758  -4.253  -4.070  0.00  0.00    -0.001 A 
ENDROOT
TORSDOF 0
ENDMDL
