MODEL 1
REMARK minimizedAffinity 9.95252609
REMARK minimizedRMSD -1
REMARK  0 active torsions:
REMARK  status: ('A' for Active; 'I' for Inactive)
ROOT
ATOM      1  C   UNL d   1      -3.040   1.931  -2.125  0.00  0.00     0.078 C 
ATOM      2  C1  UNL d   1      -2.916   2.353  -0.691  0.00  0.00    -0.077 A 
ATOM      3  C2  UNL d   1      -1.890   1.854   0.121  0.00  0.00    -0.001 A 
ATOM      4  C3  UNL d   1      -1.792   2.248   1.456  0.00  0.00     0.003 A 
ATOM      5  C4  UNL d   1      -2.717   3.142   1.992  0.00  0.00    -0.005 A 
ATOM      6  C5  UNL d   1      -3.743   3.642   1.192  0.00  0.00     0.003 A 
ATOM      7  C6  UNL d   1      -3.842   3.249  -0.144  0.00  0.00    -0.001 A 
ENDROOT
TORSDOF 0
ENDMDL
