MODEL 1
REMARK minimizedAffinity 1.2201761
REMARK minimizedRMSD -1
REMARK  0 active torsions:
REMARK  status: ('A' for Active; 'I' for Inactive)
ROOT
ATOM      1  C   UNL d   1      -3.707  -5.239  -2.246  0.00  0.00     0.078 C 
ATOM      2  C1  UNL d   1      -4.392  -4.988  -3.556  0.00  0.00    -0.077 A 
ATOM      3  C2  UNL d   1      -4.120  -5.784  -4.676  0.00  0.00    -0.001 A 
ATOM      4  C3  UNL d   1      -4.758  -5.533  -5.892  0.00  0.00     0.003 A 
ATOM      5  C4  UNL d   1      -5.671  -4.486  -6.000  0.00  0.00    -0.005 A 
ATOM      6  C5  UNL d   1      -5.947  -3.688  -4.892  0.00  0.00     0.003 A 
ATOM      7  C6  UNL d   1      -5.310  -3.937  -3.675  0.00  0.00    -0.001 A 
ENDROOT
TORSDOF 0
ENDMDL
