MODEL 1
REMARK minimizedAffinity 1.98886991
REMARK minimizedRMSD -1
REMARK  0 active torsions:
REMARK  status: ('A' for Active; 'I' for Inactive)
ROOT
ATOM      1  C   UNL d   1       2.899  -2.543  -3.694  0.00  0.00     0.078 C 
ATOM      2  C1  UNL d   1       3.613  -1.493  -4.491  0.00  0.00    -0.077 A 
ATOM      3  C2  UNL d   1       2.975  -0.298  -4.846  0.00  0.00    -0.001 A 
ATOM      4  C3  UNL d   1       3.649   0.667  -5.597  0.00  0.00     0.003 A 
ATOM      5  C4  UNL d   1       4.965   0.446  -6.000  0.00  0.00    -0.005 A 
ATOM      6  C5  UNL d   1       5.608  -0.740  -5.653  0.00  0.00     0.003 A 
ATOM      7  C6  UNL d   1       4.935  -1.706  -4.903  0.00  0.00    -0.001 A 
ENDROOT
TORSDOF 0
ENDMDL
