MODEL 1
REMARK minimizedAffinity 8.39810181
REMARK minimizedRMSD -1
REMARK  0 active torsions:
REMARK  status: ('A' for Active; 'I' for Inactive)
ROOT
ATOM      1  C   UNL d   1       2.318   0.949   1.232  0.00  0.00     0.078 C 
ATOM      2  C1  UNL d   1       2.010   2.242   0.536  0.00  0.00    -0.077 A 
ATOM      3  C2  UNL d   1       0.924   3.033   0.931  0.00  0.00    -0.001 A 
ATOM      4  C3  UNL d   1       0.644   4.228   0.268  0.00  0.00     0.003 A 
ATOM      5  C4  UNL d   1       1.444   4.643  -0.795  0.00  0.00    -0.005 A 
ATOM      6  C5  UNL d   1       2.525   3.861  -1.196  0.00  0.00     0.003 A 
ATOM      7  C6  UNL d   1       2.807   2.665  -0.534  0.00  0.00    -0.001 A 
ENDROOT
TORSDOF 0
ENDMDL
