MODEL 1
REMARK minimizedAffinity -2.08777118
REMARK minimizedRMSD -1
REMARK  0 active torsions:
REMARK  status: ('A' for Active; 'I' for Inactive)
ROOT
ATOM      1  C   UNL d   1       5.934   5.772  -5.998  0.00  0.00     0.078 C 
ATOM      2  C1  UNL d   1       5.278   5.672  -4.654  0.00  0.00    -0.077 A 
ATOM      3  C2  UNL d   1       3.943   5.266  -4.530  0.00  0.00    -0.001 A 
ATOM      4  C3  UNL d   1       3.343   5.186  -3.273  0.00  0.00     0.003 A 
ATOM      5  C4  UNL d   1       4.069   5.512  -2.129  0.00  0.00    -0.005 A 
ATOM      6  C5  UNL d   1       5.397   5.919  -2.242  0.00  0.00     0.003 A 
ATOM      7  C6  UNL d   1       5.999   5.999  -3.498  0.00  0.00    -0.001 A 
ENDROOT
TORSDOF 0
ENDMDL
