MODEL 1
REMARK minimizedAffinity 9.0185461
REMARK minimizedRMSD -1
REMARK  0 active torsions:
REMARK  status: ('A' for Active; 'I' for Inactive)
ROOT
ATOM      1  C   UNL d   1       2.648  -2.379   4.044  0.00  0.00     0.078 C 
ATOM      2  C1  UNL d   1       2.019  -1.532   2.979  0.00  0.00    -0.077 A 
ATOM      3  C2  UNL d   1       2.647  -0.368   2.518  0.00  0.00    -0.001 A 
ATOM      4  C3  UNL d   1       2.046   0.416   1.533  0.00  0.00     0.003 A 
ATOM      5  C4  UNL d   1       0.813   0.046   1.000  0.00  0.00    -0.005 A 
ATOM      6  C5  UNL d   1       0.179  -1.110   1.453  0.00  0.00     0.003 A 
ATOM      7  C6  UNL d   1       0.779  -1.895   2.438  0.00  0.00    -0.001 A 
ENDROOT
TORSDOF 0
ENDMDL
