MODEL 1
REMARK minimizedAffinity 13.8499584
REMARK minimizedRMSD -1
REMARK  0 active torsions:
REMARK  status: ('A' for Active; 'I' for Inactive)
ROOT
ATOM      1  N1  IND d   1      -1.920  -4.108  -3.980  0.00  0.00    -0.196 N 
ATOM      2  C2  IND d   1      -1.969  -4.340  -5.327  0.00  0.00     0.054 A 
ATOM      3  C3  IND d   1      -1.352  -3.343  -5.999  0.00  0.00    -0.031 A 
ATOM      4  C4  IND d   1      -0.106  -1.282  -5.088  0.00  0.00     0.051 A 
ATOM      5  C5  IND d   1       0.175  -0.621  -3.925  0.00  0.00    -0.031 A 
ATOM      6  C6  IND d   1      -0.233  -1.099  -2.697  0.00  0.00     0.015 A 
ATOM      7  C7  IND d   1      -0.932  -2.267  -2.584  0.00  0.00    -0.016 A 
ATOM      8  C8  IND d   1      -1.226  -2.938  -3.762  0.00  0.00    -0.047 A 
ATOM      9  C9  IND d   1      -0.850  -2.436  -5.015  0.00  0.00    -0.096 A 
ATOM     10  HN1 IND d   1      -2.266  -4.608  -3.372  0.00  0.00     0.298 HD
ENDROOT
TORSDOF 0
ENDMDL
