MODEL 1
REMARK minimizedAffinity 18.8337269
REMARK minimizedRMSD -1
REMARK  0 active torsions:
REMARK  status: ('A' for Active; 'I' for Inactive)
ROOT
ATOM      1  N1  IND d   1       2.705  -2.129   4.356  0.00  0.00    -0.196 N 
ATOM      2  C2  IND d   1       2.379  -1.603   3.137  0.00  0.00     0.054 A 
ATOM      3  C3  IND d   1       1.196  -2.099   2.712  0.00  0.00    -0.031 A 
ATOM      4  C4  IND d   1      -0.426  -3.707   3.900  0.00  0.00     0.051 A 
ATOM      5  C5  IND d   1      -0.547  -4.484   5.018  0.00  0.00    -0.031 A 
ATOM      6  C6  IND d   1       0.429  -4.515   5.993  0.00  0.00     0.015 A 
ATOM      7  C7  IND d   1       1.562  -3.757   5.892  0.00  0.00    -0.016 A 
ATOM      8  C8  IND d   1       1.690  -2.972   4.755  0.00  0.00    -0.047 A 
ATOM      9  C9  IND d   1       0.723  -2.969   3.742  0.00  0.00    -0.096 A 
ATOM     10  HN1 IND d   1       3.422  -1.962   4.800  0.00  0.00     0.298 HD
ENDROOT
TORSDOF 0
ENDMDL
