MODEL 1
REMARK minimizedAffinity 12.1718321
REMARK minimizedRMSD -1
REMARK  0 active torsions:
REMARK  status: ('A' for Active; 'I' for Inactive)
ROOT
ATOM      1  N1  IND d   1       4.528  -4.041   5.231  0.00  0.00    -0.196 N 
ATOM      2  C2  IND d   1       5.818  -3.690   5.515  0.00  0.00     0.054 A 
ATOM      3  C3  IND d   1       5.999  -2.365   5.318  0.00  0.00    -0.031 A 
ATOM      4  C4  IND d   1       4.291  -0.565   4.631  0.00  0.00     0.051 A 
ATOM      5  C5  IND d   1       2.994  -0.409   4.228  0.00  0.00    -0.031 A 
ATOM      6  C6  IND d   1       2.124  -1.476   4.140  0.00  0.00     0.015 A 
ATOM      7  C7  IND d   1       2.517  -2.744   4.464  0.00  0.00    -0.016 A 
ATOM      8  C8  IND d   1       3.835  -2.908   4.866  0.00  0.00    -0.047 A 
ATOM      9  C9  IND d   1       4.734  -1.835   4.917  0.00  0.00    -0.096 A 
ATOM     10  HN1 IND d   1       4.204  -4.837   5.274  0.00  0.00     0.298 HD
ENDROOT
TORSDOF 0
ENDMDL
