MODEL 1
REMARK minimizedAffinity 5.85234642
REMARK minimizedRMSD -1
REMARK  0 active torsions:
REMARK  status: ('A' for Active; 'I' for Inactive)
ROOT
ATOM      1  N1  IND d   1      -0.548  -2.231  -3.047  0.00  0.00    -0.196 N 
ATOM      2  C2  IND d   1      -0.234  -1.255  -3.951  0.00  0.00     0.054 A 
ATOM      3  C3  IND d   1      -0.533  -1.662  -5.205  0.00  0.00    -0.031 A 
ATOM      4  C4  IND d   1      -1.639  -3.849  -5.995  0.00  0.00     0.051 A 
ATOM      5  C5  IND d   1      -2.074  -5.062  -5.539  0.00  0.00    -0.031 A 
ATOM      6  C6  IND d   1      -2.024  -5.399  -4.202  0.00  0.00     0.015 A 
ATOM      7  C7  IND d   1      -1.545  -4.527  -3.265  0.00  0.00    -0.016 A 
ATOM      8  C8  IND d   1      -1.096  -3.298  -3.725  0.00  0.00    -0.047 A 
ATOM      9  C9  IND d   1      -1.105  -2.966  -5.086  0.00  0.00    -0.096 A 
ATOM     10  HN1 IND d   1      -0.423  -2.186  -2.197  0.00  0.00     0.298 HD
ENDROOT
TORSDOF 0
ENDMDL
