MODEL 1
REMARK minimizedAffinity 7.84595346
REMARK minimizedRMSD -1
REMARK  0 active torsions:
REMARK  status: ('A' for Active; 'I' for Inactive)
ROOT
ATOM      1  N1  IND d   1      -2.050  -5.991  -4.711  0.00  0.00    -0.196 N 
ATOM      2  C2  IND d   1      -2.044  -5.518  -5.993  0.00  0.00     0.054 A 
ATOM      3  C3  IND d   1      -1.862  -4.178  -6.000  0.00  0.00    -0.031 A 
ATOM      4  C4  IND d   1      -1.450  -2.574  -4.029  0.00  0.00     0.051 A 
ATOM      5  C5  IND d   1      -1.404  -2.534  -2.664  0.00  0.00    -0.031 A 
ATOM      6  C6  IND d   1      -1.572  -3.668  -1.895  0.00  0.00     0.015 A 
ATOM      7  C7  IND d   1      -1.781  -4.891  -2.467  0.00  0.00    -0.016 A 
ATOM      8  C8  IND d   1      -1.835  -4.934  -3.853  0.00  0.00    -0.047 A 
ATOM      9  C9  IND d   1      -1.708  -3.780  -4.637  0.00  0.00    -0.096 A 
ATOM     10  HN1 IND d   1      -2.167  -6.810  -4.479  0.00  0.00     0.298 HD
ENDROOT
TORSDOF 0
ENDMDL
