MODEL 1
REMARK minimizedAffinity 2.6134665
REMARK minimizedRMSD -1
REMARK  0 active torsions:
REMARK  status: ('A' for Active; 'I' for Inactive)
ROOT
ATOM      1  N1  IND d   1       3.298  -3.852   5.410  0.00  0.00    -0.196 N 
ATOM      2  C2  IND d   1       4.414  -3.319   5.993  0.00  0.00     0.054 A 
ATOM      3  C3  IND d   1       4.540  -2.014   5.661  0.00  0.00    -0.031 A 
ATOM      4  C4  IND d   1       2.979  -0.526   4.256  0.00  0.00     0.051 A 
ATOM      5  C5  IND d   1       1.853  -0.573   3.483  0.00  0.00    -0.031 A 
ATOM      6  C6  IND d   1       1.135  -1.739   3.311  0.00  0.00     0.015 A 
ATOM      7  C7  IND d   1       1.512  -2.904   3.919  0.00  0.00    -0.016 A 
ATOM      8  C8  IND d   1       2.659  -2.861   4.699  0.00  0.00    -0.047 A 
ATOM      9  C9  IND d   1       3.415  -1.690   4.842  0.00  0.00    -0.096 A 
ATOM     10  HN1 IND d   1       3.039  -4.669   5.476  0.00  0.00     0.298 HD
ENDROOT
TORSDOF 0
ENDMDL
