MODEL 1
REMARK minimizedAffinity 14.4662867
REMARK minimizedRMSD -1
REMARK  0 active torsions:
REMARK  status: ('A' for Active; 'I' for Inactive)
ROOT
ATOM      1  N1  IND d   1       2.209  -3.615  -5.252  0.00  0.00    -0.196 N 
ATOM      2  C2  IND d   1       3.255  -3.152  -4.504  0.00  0.00     0.054 A 
ATOM      3  C3  IND d   1       3.030  -1.876  -4.120  0.00  0.00    -0.031 A 
ATOM      4  C4  IND d   1       0.969  -0.387  -4.519  0.00  0.00     0.051 A 
ATOM      5  C5  IND d   1      -0.227  -0.357  -5.179  0.00  0.00    -0.031 A 
ATOM      6  C6  IND d   1      -0.683  -1.435  -5.911  0.00  0.00     0.015 A 
ATOM      7  C7  IND d   1       0.039  -2.592  -5.999  0.00  0.00    -0.016 A 
ATOM      8  C8  IND d   1       1.257  -2.623  -5.336  0.00  0.00    -0.047 A 
ATOM      9  C9  IND d   1       1.744  -1.517  -4.627  0.00  0.00    -0.096 A 
ATOM     10  HN1 IND d   1       2.155  -4.395  -5.611  0.00  0.00     0.298 HD
ENDROOT
TORSDOF 0
ENDMDL
