MODEL 1
REMARK minimizedAffinity -0.40480262
REMARK minimizedRMSD -1
REMARK  0 active torsions:
REMARK  status: ('A' for Active; 'I' for Inactive)
ROOT
ATOM      1  C   UNL d   1       0.153  -0.646  -0.667  0.00  0.00    -0.002 A 
ATOM      2  C1  UNL d   1       0.757   0.394   0.026  0.00  0.00     0.010 A 
ATOM      3  C2  UNL d   1       0.007   1.214   0.872  0.00  0.00     0.041 A 
ATOM      4  C3  UNL d   1      -1.373   0.967   1.013  0.00  0.00    -0.075 A 
ATOM      5  S   UNL d   1      -2.490   1.841   1.994  0.00  0.00     0.015 SA
ATOM      6  C4  UNL d   1      -3.795   0.854   1.517  0.00  0.00     0.022 A 
ATOM      7  C5  UNL d   1      -3.406  -0.123   0.632  0.00  0.00     0.026 A 
ATOM      8  C6  UNL d   1      -2.004  -0.074   0.327  0.00  0.00    -0.082 A 
ATOM      9  C7  UNL d   1      -1.216  -0.887  -0.524  0.00  0.00     0.045 A 
ENDROOT
TORSDOF 0
ENDMDL
