MODEL 1
REMARK minimizedAffinity -3.38814211
REMARK minimizedRMSD -1
REMARK  0 active torsions:
REMARK  status: ('A' for Active; 'I' for Inactive)
ROOT
ATOM      1  C   UNL d   1      -0.203   1.768  -0.538  0.00  0.00    -0.002 A 
ATOM      2  C1  UNL d   1       0.940   2.208   0.114  0.00  0.00     0.010 A 
ATOM      3  C2  UNL d   1       1.870   1.294   0.612  0.00  0.00     0.041 A 
ATOM      4  C3  UNL d   1       1.631  -0.084   0.440  0.00  0.00    -0.075 A 
ATOM      5  S   UNL d   1       2.631  -1.386   0.965  0.00  0.00     0.015 SA
ATOM      6  C4  UNL d   1       1.565  -2.557   0.335  0.00  0.00     0.022 A 
ATOM      7  C5  UNL d   1       0.468  -1.986  -0.265  0.00  0.00     0.026 A 
ATOM      8  C6  UNL d   1       0.488  -0.551  -0.215  0.00  0.00    -0.082 A 
ATOM      9  C7  UNL d   1      -0.437   0.401  -0.707  0.00  0.00     0.045 A 
ENDROOT
TORSDOF 0
ENDMDL
