MODEL 1
REMARK minimizedAffinity -0.12051814
REMARK minimizedRMSD -1
REMARK  0 active torsions:
REMARK  status: ('A' for Active; 'I' for Inactive)
ROOT
ATOM      1  C   UNL d   1       3.824   0.165   0.126  0.00  0.00    -0.002 A 
ATOM      2  C1  UNL d   1       3.794  -1.210  -0.058  0.00  0.00     0.010 A 
ATOM      3  C2  UNL d   1       2.581  -1.873  -0.257  0.00  0.00     0.041 A 
ATOM      4  C3  UNL d   1       1.388  -1.123  -0.270  0.00  0.00    -0.075 A 
ATOM      5  S   UNL d   1      -0.213  -1.721  -0.498  0.00  0.00     0.015 SA
ATOM      6  C4  UNL d   1      -0.894  -0.165  -0.358  0.00  0.00     0.022 A 
ATOM      7  C5  UNL d   1       0.063   0.799  -0.142  0.00  0.00     0.026 A 
ATOM      8  C6  UNL d   1       1.394   0.262  -0.089  0.00  0.00    -0.082 A 
ATOM      9  C7  UNL d   1       2.639   0.905   0.112  0.00  0.00     0.045 A 
ENDROOT
TORSDOF 0
ENDMDL
