MODEL 1
REMARK minimizedAffinity -4.576828
REMARK minimizedRMSD -1
REMARK  0 active torsions:
REMARK  status: ('A' for Active; 'I' for Inactive)
ROOT
ATOM      1  C   UNL d   1       3.628  -0.603   0.339  0.00  0.00    -0.002 A 
ATOM      2  C1  UNL d   1       3.350   0.752   0.450  0.00  0.00     0.010 A 
ATOM      3  C2  UNL d   1       2.033   1.214   0.389  0.00  0.00     0.041 A 
ATOM      4  C3  UNL d   1       0.991   0.283   0.214  0.00  0.00    -0.075 A 
ATOM      5  S   UNL d   1      -0.697   0.618   0.111  0.00  0.00     0.015 SA
ATOM      6  C4  UNL d   1      -1.088  -1.030  -0.083  0.00  0.00     0.022 A 
ATOM      7  C5  UNL d   1       0.030  -1.830  -0.072  0.00  0.00     0.026 A 
ATOM      8  C6  UNL d   1       1.247  -1.087   0.100  0.00  0.00    -0.082 A 
ATOM      9  C7  UNL d   1       2.592  -1.524   0.165  0.00  0.00     0.045 A 
ENDROOT
TORSDOF 0
ENDMDL
