MODEL 1
REMARK minimizedAffinity -2.22622609
REMARK minimizedRMSD -1
REMARK  0 active torsions:
REMARK  status: ('A' for Active; 'I' for Inactive)
ROOT
ATOM      1  C   UNL d   1       1.437  -1.954   0.434  0.00  0.00    -0.002 A 
ATOM      2  C1  UNL d   1       1.930  -0.824   1.072  0.00  0.00     0.010 A 
ATOM      3  C2  UNL d   1       1.278   0.404   0.943  0.00  0.00     0.041 A 
ATOM      4  C3  UNL d   1       0.111   0.478   0.157  0.00  0.00    -0.075 A 
ATOM      5  S   UNL d   1      -0.853   1.875  -0.142  0.00  0.00     0.015 SA
ATOM      6  C4  UNL d   1      -1.943   1.004  -1.122  0.00  0.00     0.022 A 
ATOM      7  C5  UNL d   1      -1.593  -0.321  -1.230  0.00  0.00     0.026 A 
ATOM      8  C6  UNL d   1      -0.404  -0.647  -0.493  0.00  0.00    -0.082 A 
ATOM      9  C7  UNL d   1       0.279  -1.877  -0.344  0.00  0.00     0.045 A 
ENDROOT
TORSDOF 0
ENDMDL
