MODEL 1
REMARK minimizedAffinity -0.680783987
REMARK minimizedRMSD -1
REMARK  0 active torsions:
REMARK  status: ('A' for Active; 'I' for Inactive)
ROOT
ATOM      1  C   UNL d   1       1.085  -2.410   0.242  0.00  0.00    -0.002 A 
ATOM      2  C1  UNL d   1       2.240  -1.839   0.758  0.00  0.00     0.010 A 
ATOM      3  C2  UNL d   1       2.368  -0.452   0.844  0.00  0.00     0.041 A 
ATOM      4  C3  UNL d   1       1.306   0.360   0.401  0.00  0.00    -0.075 A 
ATOM      5  S   UNL d   1       1.240   2.083   0.411  0.00  0.00     0.015 SA
ATOM      6  C4  UNL d   1      -0.323   2.101  -0.269  0.00  0.00     0.022 A 
ATOM      7  C5  UNL d   1      -0.798   0.833  -0.505  0.00  0.00     0.026 A 
ATOM      8  C6  UNL d   1       0.133  -0.192  -0.122  0.00  0.00    -0.082 A 
ATOM      9  C7  UNL d   1       0.033  -1.602  -0.197  0.00  0.00     0.045 A 
ENDROOT
TORSDOF 0
ENDMDL
