MODEL 1
REMARK minimizedAffinity -2.8377974
REMARK minimizedRMSD -1
REMARK  0 active torsions:
REMARK  status: ('A' for Active; 'I' for Inactive)
ROOT
ATOM      1  C   UNL d   1       2.560  -0.700   1.958  0.00  0.00    -0.002 A 
ATOM      2  C1  UNL d   1       2.591  -1.866   1.206  0.00  0.00     0.010 A 
ATOM      3  C2  UNL d   1       1.791  -2.000   0.070  0.00  0.00     0.041 A 
ATOM      4  C3  UNL d   1       0.953  -0.931  -0.304  0.00  0.00    -0.075 A 
ATOM      5  S   UNL d   1      -0.113  -0.869  -1.657  0.00  0.00     0.015 SA
ATOM      6  C4  UNL d   1      -0.633   0.707  -1.271  0.00  0.00     0.022 A 
ATOM      7  C5  UNL d   1      -0.019   1.189  -0.139  0.00  0.00     0.026 A 
ATOM      8  C6  UNL d   1       0.906   0.254   0.437  0.00  0.00    -0.082 A 
ATOM      9  C7  UNL d   1       1.728   0.358   1.584  0.00  0.00     0.045 A 
ENDROOT
TORSDOF 0
ENDMDL
