MODEL 1
REMARK minimizedAffinity -3.94183946
REMARK minimizedRMSD -1
REMARK  0 active torsions:
REMARK  status: ('A' for Active; 'I' for Inactive)
ROOT
ATOM      1  C   UNL d   1       2.983   0.364   1.283  0.00  0.00    -0.002 A 
ATOM      2  C1  UNL d   1       2.933  -1.013   1.118  0.00  0.00     0.010 A 
ATOM      3  C2  UNL d   1       1.833  -1.616   0.505  0.00  0.00     0.041 A 
ATOM      4  C3  UNL d   1       0.774  -0.803   0.054  0.00  0.00    -0.075 A 
ATOM      5  S   UNL d   1      -0.673  -1.321  -0.727  0.00  0.00     0.015 SA
ATOM      6  C4  UNL d   1      -1.260   0.274  -0.861  0.00  0.00     0.022 A 
ATOM      7  C5  UNL d   1      -0.385   1.191  -0.328  0.00  0.00     0.026 A 
ATOM      8  C6  UNL d   1       0.802   0.586   0.208  0.00  0.00    -0.082 A 
ATOM      9  C7  UNL d   1       1.930   1.167   0.834  0.00  0.00     0.045 A 
ENDROOT
TORSDOF 0
ENDMDL
