MODEL 1
REMARK minimizedAffinity -3.49530888
REMARK minimizedRMSD -1
REMARK  0 active torsions:
REMARK  status: ('A' for Active; 'I' for Inactive)
ROOT
ATOM      1  C   UNL d   1       0.642  -2.168  -0.378  0.00  0.00    -0.002 A 
ATOM      2  C1  UNL d   1       1.949  -2.135   0.087  0.00  0.00     0.010 A 
ATOM      3  C2  UNL d   1       2.603  -0.918   0.284  0.00  0.00     0.041 A 
ATOM      4  C3  UNL d   1       1.913   0.279   0.005  0.00  0.00    -0.075 A 
ATOM      5  S   UNL d   1       2.512   1.887   0.172  0.00  0.00     0.015 SA
ATOM      6  C4  UNL d   1       1.047   2.569  -0.368  0.00  0.00     0.022 A 
ATOM      7  C5  UNL d   1       0.112   1.608  -0.673  0.00  0.00     0.026 A 
ATOM      8  C6  UNL d   1       0.596   0.272  -0.463  0.00  0.00    -0.082 A 
ATOM      9  C7  UNL d   1      -0.039  -0.979  -0.653  0.00  0.00     0.045 A 
ENDROOT
TORSDOF 0
ENDMDL
