MODEL 1
REMARK minimizedAffinity 2.20824528
REMARK minimizedRMSD -1
REMARK  0 active torsions:
REMARK  status: ('A' for Active; 'I' for Inactive)
ROOT
ATOM      1  C   UNL d   1       3.257  -1.198  -0.447  0.00  0.00    -0.002 A 
ATOM      2  C1  UNL d   1       3.788   0.067  -0.244  0.00  0.00     0.010 A 
ATOM      3  C2  UNL d   1       2.950   1.171  -0.077  0.00  0.00     0.041 A 
ATOM      4  C3  UNL d   1       1.555   0.980  -0.116  0.00  0.00    -0.075 A 
ATOM      5  S   UNL d   1       0.335   2.185   0.064  0.00  0.00     0.015 SA
ATOM      6  C4  UNL d   1      -0.921   1.048  -0.123  0.00  0.00     0.022 A 
ATOM      7  C5  UNL d   1      -0.439  -0.225  -0.320  0.00  0.00     0.026 A 
ATOM      8  C6  UNL d   1       0.996  -0.285  -0.319  0.00  0.00    -0.082 A 
ATOM      9  C7  UNL d   1       1.872  -1.384  -0.485  0.00  0.00     0.045 A 
ENDROOT
TORSDOF 0
ENDMDL
