MODEL 1
REMARK minimizedAffinity -2.77070808
REMARK minimizedRMSD -1
REMARK  0 active torsions:
REMARK  status: ('A' for Active; 'I' for Inactive)
ROOT
ATOM      1  C   UNL d   1      -1.781  -0.538  -0.976  0.00  0.00    -0.002 A 
ATOM      2  C1  UNL d   1      -1.763   0.704  -0.358  0.00  0.00     0.010 A 
ATOM      3  C2  UNL d   1      -0.607   1.168   0.271  0.00  0.00     0.041 A 
ATOM      4  C3  UNL d   1       0.544   0.355   0.267  0.00  0.00    -0.075 A 
ATOM      5  S   UNL d   1       2.074   0.717   0.975  0.00  0.00     0.015 SA
ATOM      6  C4  UNL d   1       2.741  -0.769   0.472  0.00  0.00     0.022 A 
ATOM      7  C5  UNL d   1       1.832  -1.535  -0.219  0.00  0.00     0.026 A 
ATOM      8  C6  UNL d   1       0.551  -0.899  -0.349  0.00  0.00    -0.082 A 
ATOM      9  C7  UNL d   1      -0.638  -1.341  -0.978  0.00  0.00     0.045 A 
ENDROOT
TORSDOF 0
ENDMDL
