MODEL 1
REMARK minimizedAffinity -3.5556643
REMARK minimizedRMSD -1
REMARK  0 active torsions:
REMARK  status: ('A' for Active; 'I' for Inactive)
ROOT
ATOM      1  C   UNL d   1       2.661  -1.869   0.136  0.00  0.00    -0.002 A 
ATOM      2  C1  UNL d   1       1.688  -2.431  -0.679  0.00  0.00     0.010 A 
ATOM      3  C2  UNL d   1       0.411  -1.872  -0.749  0.00  0.00     0.041 A 
ATOM      4  C3  UNL d   1       0.125  -0.727   0.021  0.00  0.00    -0.075 A 
ATOM      5  S   UNL d   1      -1.370   0.129   0.094  0.00  0.00     0.015 SA
ATOM      6  C4  UNL d   1      -0.752   1.261   1.209  0.00  0.00     0.022 A 
ATOM      7  C5  UNL d   1       0.561   1.007   1.528  0.00  0.00     0.026 A 
ATOM      8  C6  UNL d   1       1.088  -0.143   0.848  0.00  0.00    -0.082 A 
ATOM      9  C7  UNL d   1       2.374  -0.734   0.898  0.00  0.00     0.045 A 
ENDROOT
TORSDOF 0
ENDMDL
