MODEL 1
REMARK minimizedAffinity -2.54450083
REMARK minimizedRMSD -1
REMARK  0 active torsions:
REMARK  status: ('A' for Active; 'I' for Inactive)
ROOT
ATOM      1  C   UNL d   1       1.835   5.598  -5.309  0.00  0.00     0.078 C 
ATOM      2  C1  UNL d   1       3.289   5.233  -5.300  0.00  0.00    -0.077 A 
ATOM      3  C2  UNL d   1       4.230   5.999  -6.000  0.00  0.00    -0.001 A 
ATOM      4  C3  UNL d   1       5.579   5.642  -5.991  0.00  0.00     0.003 A 
ATOM      5  C4  UNL d   1       6.000   4.517  -5.286  0.00  0.00    -0.005 A 
ATOM      6  C5  UNL d   1       5.071   3.746  -4.588  0.00  0.00     0.003 A 
ATOM      7  C6  UNL d   1       3.722   4.102  -4.596  0.00  0.00    -0.001 A 
ENDROOT
TORSDOF 0
ENDMDL
