MODEL 1
REMARK minimizedAffinity -0.529620171
REMARK minimizedRMSD -1
REMARK  0 active torsions:
REMARK  status: ('A' for Active; 'I' for Inactive)
ROOT
ATOM      1  C   UNL d   1       0.394   5.095  -5.897  0.00  0.00     0.078 C 
ATOM      2  C1  UNL d   1       1.823   5.083  -5.443  0.00  0.00    -0.077 A 
ATOM      3  C2  UNL d   1       2.262   4.179  -4.468  0.00  0.00    -0.001 A 
ATOM      4  C3  UNL d   1       3.593   4.186  -4.048  0.00  0.00     0.003 A 
ATOM      5  C4  UNL d   1       4.496   5.095  -4.596  0.00  0.00    -0.005 A 
ATOM      6  C5  UNL d   1       4.067   6.000  -5.565  0.00  0.00     0.003 A 
ATOM      7  C6  UNL d   1       2.737   5.995  -5.987  0.00  0.00    -0.001 A 
ENDROOT
TORSDOF 0
ENDMDL
