MODEL 1
REMARK minimizedAffinity -3.17525673
REMARK minimizedRMSD -1
REMARK  0 active torsions:
REMARK  status: ('A' for Active; 'I' for Inactive)
ROOT
ATOM      1  C   UNL d   1       5.992   4.140  -4.608  0.00  0.00     0.078 C 
ATOM      2  C1  UNL d   1       4.580   4.569  -4.872  0.00  0.00    -0.077 A 
ATOM      3  C2  UNL d   1       4.296   5.605  -5.771  0.00  0.00    -0.001 A 
ATOM      4  C3  UNL d   1       2.977   6.000  -6.000  0.00  0.00     0.003 A 
ATOM      5  C4  UNL d   1       1.931   5.366  -5.333  0.00  0.00    -0.005 A 
ATOM      6  C5  UNL d   1       2.203   4.336  -4.435  0.00  0.00     0.003 A 
ATOM      7  C6  UNL d   1       3.522   3.939  -4.205  0.00  0.00    -0.001 A 
ENDROOT
TORSDOF 0
ENDMDL
