MODEL 1
REMARK minimizedAffinity 0.561629415
REMARK minimizedRMSD -1
REMARK  0 active torsions:
REMARK  status: ('A' for Active; 'I' for Inactive)
ROOT
ATOM      1  C   UNL d   1      -3.190   6.000  -1.864  0.00  0.00     0.078 C 
ATOM      2  C1  UNL d   1      -2.156   5.992  -2.950  0.00  0.00    -0.077 A 
ATOM      3  C2  UNL d   1      -0.790   5.997  -2.646  0.00  0.00    -0.001 A 
ATOM      4  C3  UNL d   1       0.161   5.999  -3.668  0.00  0.00     0.003 A 
ATOM      5  C4  UNL d   1      -0.244   5.997  -5.001  0.00  0.00    -0.005 A 
ATOM      6  C5  UNL d   1      -1.602   5.994  -5.314  0.00  0.00     0.003 A 
ATOM      7  C6  UNL d   1      -2.555   5.992  -4.293  0.00  0.00    -0.001 A 
ENDROOT
TORSDOF 0
ENDMDL
