MODEL 1
REMARK minimizedAffinity 0.51733011
REMARK minimizedRMSD -1
REMARK  0 active torsions:
REMARK  status: ('A' for Active; 'I' for Inactive)
ROOT
ATOM      1  C   UNL d   1       4.077   5.930  -4.607  0.00  0.00     0.078 C 
ATOM      2  C1  UNL d   1       2.579   5.962  -4.676  0.00  0.00    -0.077 A 
ATOM      3  C2  UNL d   1       1.804   5.980  -3.510  0.00  0.00    -0.001 A 
ATOM      4  C3  UNL d   1       0.410   6.000  -3.590  0.00  0.00     0.003 A 
ATOM      5  C4  UNL d   1      -0.220   6.000  -4.833  0.00  0.00    -0.005 A 
ATOM      6  C5  UNL d   1       0.544   5.979  -5.998  0.00  0.00     0.003 A 
ATOM      7  C6  UNL d   1       1.937   5.960  -5.921  0.00  0.00    -0.001 A 
ENDROOT
TORSDOF 0
ENDMDL
