MODEL 1
REMARK minimizedAffinity 0.219200507
REMARK minimizedRMSD -1
REMARK  0 active torsions:
REMARK  status: ('A' for Active; 'I' for Inactive)
ROOT
ATOM      1  C   UNL d   1       0.916   0.601   2.265  0.00  0.00     0.078 C 
ATOM      2  C1  UNL d   1       1.156   1.010   0.842  0.00  0.00    -0.077 A 
ATOM      3  C2  UNL d   1       1.177   2.360   0.473  0.00  0.00    -0.001 A 
ATOM      4  C3  UNL d   1       1.392   2.726  -0.856  0.00  0.00     0.003 A 
ATOM      5  C4  UNL d   1       1.586   1.746  -1.828  0.00  0.00    -0.005 A 
ATOM      6  C5  UNL d   1       1.564   0.400  -1.471  0.00  0.00     0.003 A 
ATOM      7  C6  UNL d   1       1.349   0.032  -0.142  0.00  0.00    -0.001 A 
ENDROOT
TORSDOF 0
ENDMDL
