MODEL 1
REMARK minimizedAffinity 0.655350268
REMARK minimizedRMSD -1
REMARK  0 active torsions:
REMARK  status: ('A' for Active; 'I' for Inactive)
ROOT
ATOM      1  C   UNL d   1       5.192   2.697  -3.758  0.00  0.00     0.078 C 
ATOM      2  C1  UNL d   1       4.602   3.837  -4.533  0.00  0.00    -0.077 A 
ATOM      3  C2  UNL d   1       3.262   3.816  -4.937  0.00  0.00    -0.001 A 
ATOM      4  C3  UNL d   1       2.728   4.879  -5.667  0.00  0.00     0.003 A 
ATOM      5  C4  UNL d   1       3.527   5.971  -5.999  0.00  0.00    -0.005 A 
ATOM      6  C5  UNL d   1       4.863   6.000  -5.602  0.00  0.00     0.003 A 
ATOM      7  C6  UNL d   1       5.398   4.937  -4.873  0.00  0.00    -0.001 A 
ENDROOT
TORSDOF 0
ENDMDL
