MODEL 1
REMARK minimizedAffinity -1.04408622
REMARK minimizedRMSD -1
REMARK  0 active torsions:
REMARK  status: ('A' for Active; 'I' for Inactive)
ROOT
ATOM      1  C   UNL d   1       0.375   0.899   2.752  0.00  0.00     0.078 C 
ATOM      2  C1  UNL d   1       0.656   1.105   1.293  0.00  0.00    -0.077 A 
ATOM      3  C2  UNL d   1       1.200   2.308   0.826  0.00  0.00    -0.001 A 
ATOM      4  C3  UNL d   1       1.447   2.489  -0.536  0.00  0.00     0.003 A 
ATOM      5  C4  UNL d   1       1.152   1.472  -1.442  0.00  0.00    -0.005 A 
ATOM      6  C5  UNL d   1       0.608   0.273  -0.987  0.00  0.00     0.003 A 
ATOM      7  C6  UNL d   1       0.360   0.090   0.375  0.00  0.00    -0.001 A 
ENDROOT
TORSDOF 0
ENDMDL
