MODEL 1
REMARK minimizedAffinity 5.09285069
REMARK minimizedRMSD -1
REMARK  0 active torsions:
REMARK  status: ('A' for Active; 'I' for Inactive)
ROOT
ATOM      1  C   UNL d   1       5.627   5.998  -5.409  0.00  0.00     0.078 C 
ATOM      2  C1  UNL d   1       4.261   5.379  -5.375  0.00  0.00    -0.077 A 
ATOM      3  C2  UNL d   1       3.173   6.000  -6.000  0.00  0.00    -0.001 A 
ATOM      4  C3  UNL d   1       1.905   5.417  -5.952  0.00  0.00     0.003 A 
ATOM      5  C4  UNL d   1       1.714   4.212  -5.278  0.00  0.00    -0.005 A 
ATOM      6  C5  UNL d   1       2.790   3.589  -4.651  0.00  0.00     0.003 A 
ATOM      7  C6  UNL d   1       4.059   4.170  -4.698  0.00  0.00    -0.001 A 
ENDROOT
TORSDOF 0
ENDMDL
