MODEL 1
REMARK minimizedAffinity 1.92007089
REMARK minimizedRMSD -1
REMARK  0 active torsions:
REMARK  status: ('A' for Active; 'I' for Inactive)
ROOT
ATOM      1  C   UNL d   1      -1.929   0.327  -0.348  0.00  0.00     0.078 C 
ATOM      2  C1  UNL d   1      -0.620   0.796   0.213  0.00  0.00    -0.077 A 
ATOM      3  C2  UNL d   1       0.024   0.085   1.233  0.00  0.00    -0.001 A 
ATOM      4  C3  UNL d   1       1.238   0.538   1.753  0.00  0.00     0.003 A 
ATOM      5  C4  UNL d   1       1.817   1.706   1.259  0.00  0.00    -0.005 A 
ATOM      6  C5  UNL d   1       1.183   2.421   0.246  0.00  0.00     0.003 A 
ATOM      7  C6  UNL d   1      -0.031   1.969  -0.275  0.00  0.00    -0.001 A 
ENDROOT
TORSDOF 0
ENDMDL
