MODEL 1
REMARK minimizedAffinity 1.28899455
REMARK minimizedRMSD -1
REMARK  0 active torsions:
REMARK  status: ('A' for Active; 'I' for Inactive)
ROOT
ATOM      1  C   UNL d   1      -0.276   5.923  -4.341  0.00  0.00     0.078 C 
ATOM      2  C1  UNL d   1      -1.616   5.942  -3.669  0.00  0.00    -0.077 A 
ATOM      3  C2  UNL d   1      -2.798   5.962  -4.420  0.00  0.00    -0.001 A 
ATOM      4  C3  UNL d   1      -4.039   5.990  -3.781  0.00  0.00     0.003 A 
ATOM      5  C4  UNL d   1      -4.110   6.000  -2.390  0.00  0.00    -0.005 A 
ATOM      6  C5  UNL d   1      -2.939   5.983  -1.635  0.00  0.00     0.003 A 
ATOM      7  C6  UNL d   1      -1.698   5.955  -2.271  0.00  0.00    -0.001 A 
ENDROOT
TORSDOF 0
ENDMDL
