MODEL 1
REMARK minimizedAffinity -4.07639408
REMARK minimizedRMSD -1
REMARK  0 active torsions:
REMARK  status: ('A' for Active; 'I' for Inactive)
ROOT
ATOM      1  C   UNL d   1       1.824   5.985  -4.520  0.00  0.00     0.078 C 
ATOM      2  C1  UNL d   1       0.336   5.982  -4.336  0.00  0.00    -0.077 A 
ATOM      3  C2  UNL d   1      -0.527   5.985  -5.438  0.00  0.00    -0.001 A 
ATOM      4  C3  UNL d   1      -1.910   5.993  -5.251  0.00  0.00     0.003 A 
ATOM      5  C4  UNL d   1      -2.442   5.999  -3.964  0.00  0.00    -0.005 A 
ATOM      6  C5  UNL d   1      -1.591   5.999  -2.860  0.00  0.00     0.003 A 
ATOM      7  C6  UNL d   1      -0.208   5.992  -3.045  0.00  0.00    -0.001 A 
ENDROOT
TORSDOF 0
ENDMDL
