MODEL 1
REMARK minimizedAffinity 0.387332827
REMARK minimizedRMSD -1
REMARK  0 active torsions:
REMARK  status: ('A' for Active; 'I' for Inactive)
ROOT
ATOM      1  C   UNL d   1       2.158   5.772  -5.343  0.00  0.00     0.078 C 
ATOM      2  C1  UNL d   1       0.703   5.856  -4.988  0.00  0.00    -0.077 A 
ATOM      3  C2  UNL d   1       0.290   5.931  -3.652  0.00  0.00    -0.001 A 
ATOM      4  C3  UNL d   1      -1.067   5.999  -3.336  0.00  0.00     0.003 A 
ATOM      5  C4  UNL d   1      -2.023   5.992  -4.349  0.00  0.00    -0.005 A 
ATOM      6  C5  UNL d   1      -1.622   5.915  -5.682  0.00  0.00     0.003 A 
ATOM      7  C6  UNL d   1      -0.265   5.847  -6.000  0.00  0.00    -0.001 A 
ENDROOT
TORSDOF 0
ENDMDL
