MODEL 1
REMARK minimizedAffinity 0.845653176
REMARK minimizedRMSD -1
REMARK  0 active torsions:
REMARK  status: ('A' for Active; 'I' for Inactive)
ROOT
ATOM      1  C   UNL d   1      -0.411   5.982  -0.456  0.00  0.00     0.078 C 
ATOM      2  C1  UNL d   1      -1.654   5.981  -1.295  0.00  0.00    -0.077 A 
ATOM      3  C2  UNL d   1      -1.580   5.991  -2.693  0.00  0.00    -0.001 A 
ATOM      4  C3  UNL d   1      -2.746   6.000  -3.461  0.00  0.00     0.003 A 
ATOM      5  C4  UNL d   1      -3.993   5.999  -2.839  0.00  0.00    -0.005 A 
ATOM      6  C5  UNL d   1      -4.076   5.991  -1.449  0.00  0.00     0.003 A 
ATOM      7  C6  UNL d   1      -2.912   5.982  -0.679  0.00  0.00    -0.001 A 
ENDROOT
TORSDOF 0
ENDMDL
