MODEL 1
REMARK minimizedAffinity -0.055590488
REMARK minimizedRMSD -1
REMARK  0 active torsions:
REMARK  status: ('A' for Active; 'I' for Inactive)
ROOT
ATOM      1  C   UNL d   1       0.603   5.999  -5.476  0.00  0.00     0.078 C 
ATOM      2  C1  UNL d   1       1.988   5.448  -5.307  0.00  0.00    -0.077 A 
ATOM      3  C2  UNL d   1       3.072   6.000  -5.999  0.00  0.00    -0.001 A 
ATOM      4  C3  UNL d   1       4.354   5.471  -5.840  0.00  0.00     0.003 A 
ATOM      5  C4  UNL d   1       4.563   4.387  -4.989  0.00  0.00    -0.005 A 
ATOM      6  C5  UNL d   1       3.489   3.830  -4.298  0.00  0.00     0.003 A 
ATOM      7  C6  UNL d   1       2.207   4.358  -4.456  0.00  0.00    -0.001 A 
ENDROOT
TORSDOF 0
ENDMDL
