MODEL 1
REMARK minimizedAffinity -1.16433394
REMARK minimizedRMSD -1
REMARK  0 active torsions:
REMARK  status: ('A' for Active; 'I' for Inactive)
ROOT
ATOM      1  C   UNL d   1       5.186   2.008  -3.799  0.00  0.00     0.078 C 
ATOM      2  C1  UNL d   1       4.399   3.281  -3.895  0.00  0.00    -0.077 A 
ATOM      3  C2  UNL d   1       3.001   3.261  -3.962  0.00  0.00    -0.001 A 
ATOM      4  C3  UNL d   1       2.282   4.454  -4.061  0.00  0.00     0.003 A 
ATOM      5  C4  UNL d   1       2.953   5.674  -4.095  0.00  0.00    -0.005 A 
ATOM      6  C5  UNL d   1       4.344   5.704  -4.031  0.00  0.00     0.003 A 
ATOM      7  C6  UNL d   1       5.065   4.513  -3.932  0.00  0.00    -0.001 A 
ENDROOT
TORSDOF 0
ENDMDL
