MODEL 1
REMARK minimizedAffinity 1.12962651
REMARK minimizedRMSD -1
REMARK  0 active torsions:
REMARK  status: ('A' for Active; 'I' for Inactive)
ROOT
ATOM      1  C   UNL d   1       0.358   4.272   0.229  0.00  0.00     0.078 C 
ATOM      2  C1  UNL d   1       0.172   2.904   0.813  0.00  0.00    -0.077 A 
ATOM      3  C2  UNL d   1      -0.153   1.811   0.000  0.00  0.00    -0.001 A 
ATOM      4  C3  UNL d   1      -0.333   0.545   0.559  0.00  0.00     0.003 A 
ATOM      5  C4  UNL d   1      -0.192   0.359   1.933  0.00  0.00    -0.005 A 
ATOM      6  C5  UNL d   1       0.130   1.441   2.750  0.00  0.00     0.003 A 
ATOM      7  C6  UNL d   1       0.310   2.708   2.193  0.00  0.00    -0.001 A 
ENDROOT
TORSDOF 0
ENDMDL
