MODEL 1
REMARK minimizedAffinity 3.27864051
REMARK minimizedRMSD -1
REMARK  0 active torsions:
REMARK  status: ('A' for Active; 'I' for Inactive)
ROOT
ATOM      1  C   UNL d   1      -0.070   1.143   2.272  0.00  0.00     0.078 C 
ATOM      2  C1  UNL d   1      -0.166   2.011   1.053  0.00  0.00    -0.077 A 
ATOM      3  C2  UNL d   1       0.307   3.329   1.067  0.00  0.00    -0.001 A 
ATOM      4  C3  UNL d   1       0.203   4.129  -0.072  0.00  0.00     0.003 A 
ATOM      5  C4  UNL d   1      -0.376   3.620  -1.233  0.00  0.00    -0.005 A 
ATOM      6  C5  UNL d   1      -0.851   2.311  -1.256  0.00  0.00     0.003 A 
ATOM      7  C6  UNL d   1      -0.747   1.509  -0.118  0.00  0.00    -0.001 A 
ENDROOT
TORSDOF 0
ENDMDL
