MODEL 1
REMARK minimizedAffinity 3.5862093
REMARK minimizedRMSD -1
REMARK  0 active torsions:
REMARK  status: ('A' for Active; 'I' for Inactive)
ROOT
ATOM      1  C   UNL d   1      -0.792   1.782  -1.926  0.00  0.00     0.078 C 
ATOM      2  C1  UNL d   1      -0.614   1.854  -0.439  0.00  0.00    -0.077 A 
ATOM      3  C2  UNL d   1      -1.075   2.957   0.290  0.00  0.00    -0.001 A 
ATOM      4  C3  UNL d   1      -0.894   3.015   1.672  0.00  0.00     0.003 A 
ATOM      5  C4  UNL d   1      -0.251   1.974   2.338  0.00  0.00    -0.005 A 
ATOM      6  C5  UNL d   1       0.213   0.873   1.621  0.00  0.00     0.003 A 
ATOM      7  C6  UNL d   1       0.033   0.813   0.238  0.00  0.00    -0.001 A 
ENDROOT
TORSDOF 0
ENDMDL
