MODEL 1
REMARK minimizedAffinity 7.16583538
REMARK minimizedRMSD -1
REMARK  0 active torsions:
REMARK  status: ('A' for Active; 'I' for Inactive)
ROOT
ATOM      1  C   UNL d   1       0.781   1.844   2.561  0.00  0.00     0.078 C 
ATOM      2  C1  UNL d   1       0.536   2.386   1.184  0.00  0.00    -0.077 A 
ATOM      3  C2  UNL d   1       0.349   3.757   0.972  0.00  0.00    -0.001 A 
ATOM      4  C3  UNL d   1       0.112   4.247  -0.313  0.00  0.00     0.003 A 
ATOM      5  C4  UNL d   1       0.060   3.372  -1.397  0.00  0.00    -0.005 A 
ATOM      6  C5  UNL d   1       0.244   2.006  -1.195  0.00  0.00     0.003 A 
ATOM      7  C6  UNL d   1       0.480   1.514   0.090  0.00  0.00    -0.001 A 
ENDROOT
TORSDOF 0
ENDMDL
