MODEL 1
REMARK minimizedAffinity 4.65147877
REMARK minimizedRMSD -1
REMARK  0 active torsions:
REMARK  status: ('A' for Active; 'I' for Inactive)
ROOT
ATOM      1  C   UNL d   1      -1.166  -3.087  -1.853  0.00  0.00     0.078 C 
ATOM      2  C1  UNL d   1      -0.741  -1.740  -2.357  0.00  0.00    -0.077 A 
ATOM      3  C2  UNL d   1      -1.141  -1.284  -3.619  0.00  0.00    -0.001 A 
ATOM      4  C3  UNL d   1      -0.730  -0.032  -4.080  0.00  0.00     0.003 A 
ATOM      5  C4  UNL d   1       0.083   0.774  -3.286  0.00  0.00    -0.005 A 
ATOM      6  C5  UNL d   1       0.488   0.327  -2.029  0.00  0.00     0.003 A 
ATOM      7  C6  UNL d   1       0.078  -0.924  -1.567  0.00  0.00    -0.001 A 
ENDROOT
TORSDOF 0
ENDMDL
