MODEL 1
REMARK minimizedAffinity 3.64650059
REMARK minimizedRMSD -1
REMARK  0 active torsions:
REMARK  status: ('A' for Active; 'I' for Inactive)
ROOT
ATOM      1  C   UNL d   1       0.004   1.320   2.968  0.00  0.00     0.078 C 
ATOM      2  C1  UNL d   1       0.406   0.452   1.813  0.00  0.00    -0.077 A 
ATOM      3  C2  UNL d   1       1.322  -0.593   1.980  0.00  0.00    -0.001 A 
ATOM      4  C3  UNL d   1       1.695  -1.387   0.894  0.00  0.00     0.003 A 
ATOM      5  C4  UNL d   1       1.158  -1.142  -0.368  0.00  0.00    -0.005 A 
ATOM      6  C5  UNL d   1       0.247  -0.103  -0.545  0.00  0.00     0.003 A 
ATOM      7  C6  UNL d   1      -0.127   0.692   0.540  0.00  0.00    -0.001 A 
ENDROOT
TORSDOF 0
ENDMDL
