MODEL 1
REMARK minimizedAffinity -0.213180244
REMARK minimizedRMSD -1
REMARK  0 active torsions:
REMARK  status: ('A' for Active; 'I' for Inactive)
ROOT
ATOM      1  C   UNL d   1       0.755   0.751  -0.795  0.00  0.00     0.078 C 
ATOM      2  C1  UNL d   1       0.608   0.673   0.695  0.00  0.00    -0.077 A 
ATOM      3  C2  UNL d   1       0.137  -0.491   1.314  0.00  0.00    -0.001 A 
ATOM      4  C3  UNL d   1      -0.003  -0.546   2.701  0.00  0.00     0.003 A 
ATOM      5  C4  UNL d   1       0.325   0.561   3.482  0.00  0.00    -0.005 A 
ATOM      6  C5  UNL d   1       0.793   1.725   2.875  0.00  0.00     0.003 A 
ATOM      7  C6  UNL d   1       0.933   1.781   1.488  0.00  0.00    -0.001 A 
ENDROOT
TORSDOF 0
ENDMDL
