MODEL 1
REMARK minimizedAffinity 1.62084317
REMARK minimizedRMSD -1
REMARK  0 active torsions:
REMARK  status: ('A' for Active; 'I' for Inactive)
ROOT
ATOM      1  C   UNL d   1      -5.994  -1.960   1.537  0.00  0.00     0.078 C 
ATOM      2  C1  UNL d   1      -5.974  -1.914   3.035  0.00  0.00    -0.077 A 
ATOM      3  C2  UNL d   1      -5.916  -0.693   3.719  0.00  0.00    -0.001 A 
ATOM      4  C3  UNL d   1      -5.889  -0.666   5.114  0.00  0.00     0.003 A 
ATOM      5  C4  UNL d   1      -5.917  -1.856   5.838  0.00  0.00    -0.005 A 
ATOM      6  C5  UNL d   1      -5.972  -3.076   5.167  0.00  0.00     0.003 A 
ATOM      7  C6  UNL d   1      -6.000  -3.105   3.772  0.00  0.00    -0.001 A 
ENDROOT
TORSDOF 0
ENDMDL
