MODEL 1
REMARK minimizedAffinity -2.71976042
REMARK minimizedRMSD -1
REMARK  0 active torsions:
REMARK  status: ('A' for Active; 'I' for Inactive)
ROOT
ATOM      1  C   UNL d   1       0.776   4.765   0.370  0.00  0.00     0.078 C 
ATOM      2  C1  UNL d   1       0.803   3.362   0.898  0.00  0.00    -0.077 A 
ATOM      3  C2  UNL d   1       1.072   3.104   2.248  0.00  0.00    -0.001 A 
ATOM      4  C3  UNL d   1       1.104   1.792   2.723  0.00  0.00     0.003 A 
ATOM      5  C4  UNL d   1       0.868   0.727   1.856  0.00  0.00    -0.005 A 
ATOM      6  C5  UNL d   1       0.601   0.974   0.511  0.00  0.00     0.003 A 
ATOM      7  C6  UNL d   1       0.569   2.285   0.033  0.00  0.00    -0.001 A 
ENDROOT
TORSDOF 0
ENDMDL
