MODEL 1
REMARK minimizedAffinity 10.2444239
REMARK minimizedRMSD -1
REMARK  0 active torsions:
REMARK  status: ('A' for Active; 'I' for Inactive)
ROOT
ATOM      1  C   UNL d   1       2.573  -0.000   1.875  0.00  0.00    -0.002 A 
ATOM      2  C1  UNL d   1       2.101   0.665   0.752  0.00  0.00     0.010 A 
ATOM      3  C2  UNL d   1       0.751   0.599   0.403  0.00  0.00     0.041 A 
ATOM      4  C3  UNL d   1      -0.126  -0.152   1.210  0.00  0.00    -0.075 A 
ATOM      5  S   UNL d   1      -1.820  -0.375   0.977  0.00  0.00     0.015 SA
ATOM      6  C4  UNL d   1      -1.957  -1.357   2.363  0.00  0.00     0.022 A 
ATOM      7  C5  UNL d   1      -0.750  -1.522   3.000  0.00  0.00     0.026 A 
ATOM      8  C6  UNL d   1       0.325  -0.830   2.346  0.00  0.00    -0.082 A 
ATOM      9  C7  UNL d   1       1.700  -0.744   2.673  0.00  0.00     0.045 A 
ENDROOT
TORSDOF 0
ENDMDL
