MODEL 1
REMARK minimizedAffinity 9.59846973
REMARK minimizedRMSD -1
REMARK  0 active torsions:
REMARK  status: ('A' for Active; 'I' for Inactive)
ROOT
ATOM      1  C   UNL d   1       0.481  -4.679  -0.591  0.00  0.00    -0.002 A 
ATOM      2  C1  UNL d   1      -0.737  -4.779  -1.248  0.00  0.00     0.010 A 
ATOM      3  C2  UNL d   1      -1.512  -3.642  -1.484  0.00  0.00     0.041 A 
ATOM      4  C3  UNL d   1      -1.037  -2.390  -1.047  0.00  0.00    -0.075 A 
ATOM      5  S   UNL d   1      -1.814  -0.862  -1.227  0.00  0.00     0.015 SA
ATOM      6  C4  UNL d   1      -0.547  -0.040  -0.438  0.00  0.00     0.022 A 
ATOM      7  C5  UNL d   1       0.453  -0.895  -0.040  0.00  0.00     0.026 A 
ATOM      8  C6  UNL d   1       0.188  -2.264  -0.385  0.00  0.00    -0.082 A 
ATOM      9  C7  UNL d   1       0.950  -3.435  -0.159  0.00  0.00     0.045 A 
ENDROOT
TORSDOF 0
ENDMDL
