MODEL 1
REMARK minimizedAffinity -2.29441381
REMARK minimizedRMSD -1
REMARK  0 active torsions:
REMARK  status: ('A' for Active; 'I' for Inactive)
ROOT
ATOM      1  C   UNL d   1      -0.229  -1.550  -0.086  0.00  0.00    -0.002 A 
ATOM      2  C1  UNL d   1       0.136  -0.881  -1.246  0.00  0.00     0.010 A 
ATOM      3  C2  UNL d   1       0.252   0.510  -1.257  0.00  0.00     0.041 A 
ATOM      4  C3  UNL d   1      -0.006   1.225  -0.071  0.00  0.00    -0.075 A 
ATOM      5  S   UNL d   1       0.074   2.933   0.152  0.00  0.00     0.015 SA
ATOM      6  C4  UNL d   1      -0.374   2.815   1.792  0.00  0.00     0.022 A 
ATOM      7  C5  UNL d   1      -0.584   1.512   2.177  0.00  0.00     0.026 A 
ATOM      8  C6  UNL d   1      -0.375   0.574   1.110  0.00  0.00    -0.082 A 
ATOM      9  C7  UNL d   1      -0.485  -0.837   1.088  0.00  0.00     0.045 A 
ENDROOT
TORSDOF 0
ENDMDL
