MODEL 1
REMARK minimizedAffinity -0.151726156
REMARK minimizedRMSD -1
REMARK  0 active torsions:
REMARK  status: ('A' for Active; 'I' for Inactive)
ROOT
ATOM      1  C   UNL d   1      -0.574   2.334   1.998  0.00  0.00    -0.002 A 
ATOM      2  C1  UNL d   1      -0.712   3.106   0.853  0.00  0.00     0.010 A 
ATOM      3  C2  UNL d   1      -0.465   2.559  -0.407  0.00  0.00     0.041 A 
ATOM      4  C3  UNL d   1      -0.076   1.208  -0.499  0.00  0.00    -0.075 A 
ATOM      5  S   UNL d   1       0.279   0.324  -1.936  0.00  0.00     0.015 SA
ATOM      6  C4  UNL d   1       0.620  -1.100  -1.065  0.00  0.00     0.022 A 
ATOM      7  C5  UNL d   1       0.473  -0.924   0.291  0.00  0.00     0.026 A 
ATOM      8  C6  UNL d   1       0.069   0.410   0.639  0.00  0.00    -0.082 A 
ATOM      9  C7  UNL d   1      -0.188   0.994   1.903  0.00  0.00     0.045 A 
ENDROOT
TORSDOF 0
ENDMDL
