MODEL 1
REMARK minimizedAffinity 0.0482268482
REMARK minimizedRMSD -1
REMARK  0 active torsions:
REMARK  status: ('A' for Active; 'I' for Inactive)
ROOT
ATOM      1  C   UNL d   1       1.060  -0.738  -0.179  0.00  0.00    -0.002 A 
ATOM      2  C1  UNL d   1       0.070  -0.089  -0.904  0.00  0.00     0.010 A 
ATOM      3  C2  UNL d   1      -0.888  -0.820  -1.610  0.00  0.00     0.041 A 
ATOM      4  C3  UNL d   1      -0.835  -2.227  -1.573  0.00  0.00    -0.075 A 
ATOM      5  S   UNL d   1      -1.904  -3.328  -2.360  0.00  0.00     0.015 SA
ATOM      6  C4  UNL d   1      -1.072  -4.686  -1.751  0.00  0.00     0.022 A 
ATOM      7  C5  UNL d   1      -0.003  -4.326  -0.966  0.00  0.00     0.026 A 
ATOM      8  C6  UNL d   1       0.151  -2.903  -0.850  0.00  0.00    -0.082 A 
ATOM      9  C7  UNL d   1       1.109  -2.135  -0.145  0.00  0.00     0.045 A 
ENDROOT
TORSDOF 0
ENDMDL
