MODEL 1
REMARK minimizedAffinity -3.59995389
REMARK minimizedRMSD -1
REMARK  0 active torsions:
REMARK  status: ('A' for Active; 'I' for Inactive)
ROOT
ATOM      1  C   UNL d   1      -1.631   2.616   1.438  0.00  0.00    -0.002 A 
ATOM      2  C1  UNL d   1      -0.890   3.437   0.599  0.00  0.00     0.010 A 
ATOM      3  C2  UNL d   1      -0.099   2.889  -0.413  0.00  0.00     0.041 A 
ATOM      4  C3  UNL d   1      -0.067   1.490  -0.571  0.00  0.00    -0.075 A 
ATOM      5  S   UNL d   1       0.830   0.596  -1.742  0.00  0.00     0.015 SA
ATOM      6  C4  UNL d   1       0.249  -0.896  -1.158  0.00  0.00     0.022 A 
ATOM      7  C5  UNL d   1      -0.609  -0.735  -0.095  0.00  0.00     0.026 A 
ATOM      8  C6  UNL d   1      -0.805   0.643   0.260  0.00  0.00    -0.082 A 
ATOM      9  C7  UNL d   1      -1.597   1.228   1.278  0.00  0.00     0.045 A 
ENDROOT
TORSDOF 0
ENDMDL
