MODEL 1
REMARK minimizedAffinity -2.59129333
REMARK minimizedRMSD -1
REMARK  0 active torsions:
REMARK  status: ('A' for Active; 'I' for Inactive)
ROOT
ATOM      1  C   UNL d   1      -0.892   3.167   1.907  0.00  0.00    -0.002 A 
ATOM      2  C1  UNL d   1      -0.827   3.740   0.645  0.00  0.00     0.010 A 
ATOM      3  C2  UNL d   1      -0.550   2.958  -0.477  0.00  0.00     0.041 A 
ATOM      4  C3  UNL d   1      -0.338   1.576  -0.309  0.00  0.00    -0.075 A 
ATOM      5  S   UNL d   1       0.016   0.421  -1.539  0.00  0.00     0.015 SA
ATOM      6  C4  UNL d   1       0.089  -0.862  -0.419  0.00  0.00     0.022 A 
ATOM      7  C5  UNL d   1      -0.148  -0.437   0.867  0.00  0.00     0.026 A 
ATOM      8  C6  UNL d   1      -0.399   0.974   0.951  0.00  0.00    -0.082 A 
ATOM      9  C7  UNL d   1      -0.681   1.795   2.070  0.00  0.00     0.045 A 
ENDROOT
TORSDOF 0
ENDMDL
