MODEL 1
REMARK minimizedAffinity 1.85372221
REMARK minimizedRMSD -1
REMARK  0 active torsions:
REMARK  status: ('A' for Active; 'I' for Inactive)
ROOT
ATOM      1  C2' OXE d   1      -2.299  -1.279  -1.823  0.00  0.00     0.078 C 
ATOM      2  C1' OXE d   1       0.166  -1.971  -0.670  0.00  0.00     0.078 C 
ATOM      3  C1  OXE d   1      -0.457  -2.946  -1.638  0.00  0.00    -0.078 A 
ATOM      4  C2  OXE d   1      -1.685  -2.620  -2.162  0.00  0.00    -0.078 A 
ATOM      5  C3  OXE d   1      -2.278  -3.458  -3.102  0.00  0.00     0.003 A 
ATOM      6  C4  OXE d   1      -1.708  -4.702  -3.402  0.00  0.00    -0.002 A 
ATOM      7  C5  OXE d   1      -0.477  -5.071  -2.849  0.00  0.00    -0.002 A 
ATOM      8  C6  OXE d   1       0.181  -4.187  -2.001  0.00  0.00     0.003 A 
ENDROOT
TORSDOF 0
ENDMDL
