MODEL 1
REMARK minimizedAffinity 1.68772209
REMARK minimizedRMSD -1
REMARK  0 active torsions:
REMARK  status: ('A' for Active; 'I' for Inactive)
ROOT
ATOM      1  C2' OXE d   1       0.373  -1.033   0.248  0.00  0.00     0.078 C 
ATOM      2  C1' OXE d   1      -0.176  -0.605   2.967  0.00  0.00     0.078 C 
ATOM      3  C1  OXE d   1       0.948   0.184   2.344  0.00  0.00    -0.078 A 
ATOM      4  C2  OXE d   1       1.240  -0.066   1.024  0.00  0.00    -0.078 A 
ATOM      5  C3  OXE d   1       2.231   0.674   0.386  0.00  0.00     0.003 A 
ATOM      6  C4  OXE d   1       3.035   1.559   1.114  0.00  0.00    -0.002 A 
ATOM      7  C5  OXE d   1       2.781   1.799   2.468  0.00  0.00    -0.002 A 
ATOM      8  C6  OXE d   1       1.716   1.153   3.086  0.00  0.00     0.003 A 
ENDROOT
TORSDOF 0
ENDMDL
