MODEL 1
REMARK minimizedAffinity 7.51783609
REMARK minimizedRMSD -1
REMARK  0 active torsions:
REMARK  status: ('A' for Active; 'I' for Inactive)
ROOT
ATOM      1  C2' OXE d   1       4.110   1.901   0.451  0.00  0.00     0.078 C 
ATOM      2  C1' OXE d   1       2.058   1.789   2.362  0.00  0.00     0.078 C 
ATOM      3  C1  OXE d   1       3.426   2.222   2.824  0.00  0.00    -0.078 A 
ATOM      4  C2  OXE d   1       4.436   2.229   1.892  0.00  0.00    -0.078 A 
ATOM      5  C3  OXE d   1       5.705   2.673   2.253  0.00  0.00     0.003 A 
ATOM      6  C4  OXE d   1       6.000   2.965   3.590  0.00  0.00    -0.002 A 
ATOM      7  C5  OXE d   1       4.996   2.926   4.563  0.00  0.00    -0.002 A 
ATOM      8  C6  OXE d   1       3.697   2.598   4.190  0.00  0.00     0.003 A 
ENDROOT
TORSDOF 0
ENDMDL
