MODEL 1
REMARK minimizedAffinity 1.35631073
REMARK minimizedRMSD -1
REMARK  0 active torsions:
REMARK  status: ('A' for Active; 'I' for Inactive)
ROOT
ATOM      1  C2' OXE d   1       1.083   0.116  -0.355  0.00  0.00     0.078 C 
ATOM      2  C1' OXE d   1       1.799   2.341   1.199  0.00  0.00     0.078 C 
ATOM      3  C1  OXE d   1       2.042   2.413  -0.288  0.00  0.00    -0.078 A 
ATOM      4  C2  OXE d   1       1.733   1.302  -1.034  0.00  0.00    -0.078 A 
ATOM      5  C3  OXE d   1       1.887   1.336  -2.417  0.00  0.00     0.003 A 
ATOM      6  C4  OXE d   1       2.497   2.433  -3.036  0.00  0.00    -0.002 A 
ATOM      7  C5  OXE d   1       2.857   3.560  -2.289  0.00  0.00    -0.002 A 
ATOM      8  C6  OXE d   1       2.598   3.583  -0.923  0.00  0.00     0.003 A 
ENDROOT
TORSDOF 0
ENDMDL
