MODEL 1
REMARK minimizedAffinity 5.14876795
REMARK minimizedRMSD -1
REMARK  0 active torsions:
REMARK  status: ('A' for Active; 'I' for Inactive)
ROOT
ATOM      1  C2' OXE d   1       0.844  -1.389  -0.147  0.00  0.00     0.078 C 
ATOM      2  C1' OXE d   1       2.794   0.400  -1.085  0.00  0.00     0.078 C 
ATOM      3  C1  OXE d   1       2.309   0.568   0.334  0.00  0.00    -0.078 A 
ATOM      4  C2  OXE d   1       1.321  -0.283   0.769  0.00  0.00    -0.078 A 
ATOM      5  C3  OXE d   1       0.877  -0.207   2.086  0.00  0.00     0.003 A 
ATOM      6  C4  OXE d   1       1.316   0.826   2.923  0.00  0.00    -0.002 A 
ATOM      7  C5  OXE d   1       2.292   1.727   2.487  0.00  0.00    -0.002 A 
ATOM      8  C6  OXE d   1       2.829   1.586   1.212  0.00  0.00     0.003 A 
ENDROOT
TORSDOF 0
ENDMDL
