MODEL 1
REMARK minimizedAffinity 3.17058492
REMARK minimizedRMSD -1
REMARK  0 active torsions:
REMARK  status: ('A' for Active; 'I' for Inactive)
ROOT
ATOM      1  C2' OXE d   1      -3.962  -0.428  -1.730  0.00  0.00     0.078 C 
ATOM      2  C1' OXE d   1      -4.444   1.898  -0.234  0.00  0.00     0.078 C 
ATOM      3  C1  OXE d   1      -3.734   0.757   0.449  0.00  0.00    -0.078 A 
ATOM      4  C2  OXE d   1      -3.543  -0.395  -0.276  0.00  0.00    -0.078 A 
ATOM      5  C3  OXE d   1      -2.845  -1.458   0.289  0.00  0.00     0.003 A 
ATOM      6  C4  OXE d   1      -2.470  -1.423   1.638  0.00  0.00    -0.002 A 
ATOM      7  C5  OXE d   1      -2.690  -0.275   2.406  0.00  0.00    -0.002 A 
ATOM      8  C6  OXE d   1      -3.281   0.837   1.816  0.00  0.00     0.003 A 
ENDROOT
TORSDOF 0
ENDMDL
