MODEL 1
REMARK minimizedAffinity 3.51851439
REMARK minimizedRMSD -1
REMARK  2 active torsions:
REMARK  status: ('A' for Active; 'I' for Inactive)
REMARK    1  A    between atoms: C1_2  and  C2_3 
REMARK    2  A    between atoms: C2_3  and  C3_4 
ROOT
ATOM      1  C3  UNL d   1       1.584  -2.090   3.230  0.00  0.00    -0.075 A 
ATOM      2  C4  UNL d   1       0.616  -3.059   3.529  0.00  0.00     0.002 A 
ATOM      3  C5  UNL d   1       0.969  -4.232   4.198  0.00  0.00     0.002 A 
ATOM      4  C6  UNL d   1       2.295  -4.455   4.565  0.00  0.00    -0.004 A 
ATOM      5  C7  UNL d   1       3.268  -3.507   4.258  0.00  0.00     0.002 A 
ATOM      6  C8  UNL d   1       2.916  -2.331   3.593  0.00  0.00     0.002 A 
ENDROOT
BRANCH   1   7
ATOM      7  C2  UNL d   1       1.203  -0.806   2.533  0.00  0.00     0.056 C 
BRANCH   7   8
ATOM      8  C1  UNL d   1       0.813   0.328   3.486  0.00  0.00     0.007 C 
ATOM      9  C   UNL d   1       1.385   1.679   3.077  0.00  0.00     0.009 C 
ENDBRANCH   7   8
ENDBRANCH   1   7
TORSDOF 2
ENDMDL
