MODEL 1
REMARK minimizedAffinity 4.46261549
REMARK minimizedRMSD -1
REMARK  2 active torsions:
REMARK  status: ('A' for Active; 'I' for Inactive)
REMARK    1  A    between atoms: C1_2  and  C2_3 
REMARK    2  A    between atoms: C2_3  and  C3_4 
ROOT
ATOM      1  C3  UNL d   1      -5.095   2.110  -0.741  0.00  0.00    -0.075 A 
ATOM      2  C4  UNL d   1      -5.830   1.455   0.258  0.00  0.00     0.002 A 
ATOM      3  C5  UNL d   1      -5.441   1.541   1.595  0.00  0.00     0.002 A 
ATOM      4  C6  UNL d   1      -4.309   2.273   1.949  0.00  0.00    -0.004 A 
ATOM      5  C7  UNL d   1      -3.563   2.914   0.963  0.00  0.00     0.002 A 
ATOM      6  C8  UNL d   1      -3.952   2.833  -0.375  0.00  0.00     0.002 A 
ENDROOT
BRANCH   1   7
ATOM      7  C2  UNL d   1      -5.528   2.046  -2.186  0.00  0.00     0.056 C 
BRANCH   7   8
ATOM      8  C1  UNL d   1      -4.460   2.516  -3.179  0.00  0.00     0.007 C 
ATOM      9  C   UNL d   1      -3.530   1.398  -3.634  0.00  0.00     0.009 C 
ENDBRANCH   7   8
ENDBRANCH   1   7
TORSDOF 2
ENDMDL
