MODEL 1
REMARK minimizedAffinity -0.119241737
REMARK minimizedRMSD -1
REMARK  2 active torsions:
REMARK  status: ('A' for Active; 'I' for Inactive)
REMARK    1  A    between atoms: C1_2  and  C2_3 
REMARK    2  A    between atoms: C2_3  and  C3_4 
ROOT
ATOM      1  C3  UNL d   1       1.795  -3.015   2.971  0.00  0.00    -0.075 A 
ATOM      2  C4  UNL d   1       1.204  -1.759   2.768  0.00  0.00     0.002 A 
ATOM      3  C5  UNL d   1       0.573  -1.460   1.561  0.00  0.00     0.002 A 
ATOM      4  C6  UNL d   1       0.532  -2.406   0.539  0.00  0.00    -0.004 A 
ATOM      5  C7  UNL d   1       1.129  -3.651   0.723  0.00  0.00     0.002 A 
ATOM      6  C8  UNL d   1       1.758  -3.955   1.932  0.00  0.00     0.002 A 
ENDROOT
BRANCH   1   7
ATOM      7  C2  UNL d   1       2.454  -3.356   4.286  0.00  0.00     0.056 C 
BRANCH   7   8
ATOM      8  C1  UNL d   1       2.631  -4.859   4.524  0.00  0.00     0.007 C 
ATOM      9  C   UNL d   1       2.660  -5.234   6.000  0.00  0.00     0.009 C 
ENDBRANCH   7   8
ENDBRANCH   1   7
TORSDOF 2
ENDMDL
