MODEL 1
REMARK minimizedAffinity 0.173628405
REMARK minimizedRMSD -1
REMARK  2 active torsions:
REMARK  status: ('A' for Active; 'I' for Inactive)
REMARK    1  A    between atoms: C1_2  and  C2_3 
REMARK    2  A    between atoms: C2_3  and  C3_4 
ROOT
ATOM      1  C3  UNL d   1      -5.252   1.258  -0.797  0.00  0.00    -0.075 A 
ATOM      2  C4  UNL d   1      -5.998   0.506   0.122  0.00  0.00     0.002 A 
ATOM      3  C5  UNL d   1      -5.986   0.831   1.479  0.00  0.00     0.002 A 
ATOM      4  C6  UNL d   1      -5.222   1.903   1.935  0.00  0.00    -0.004 A 
ATOM      5  C7  UNL d   1      -4.465   2.648   1.033  0.00  0.00     0.002 A 
ATOM      6  C8  UNL d   1      -4.478   2.327  -0.326  0.00  0.00     0.002 A 
ENDROOT
BRANCH   1   7
ATOM      7  C2  UNL d   1      -5.284   0.930  -2.270  0.00  0.00     0.056 C 
BRANCH   7   8
ATOM      8  C1  UNL d   1      -4.416   1.852  -3.134  0.00  0.00     0.007 C 
ATOM      9  C   UNL d   1      -5.184   2.500  -4.278  0.00  0.00     0.009 C 
ENDBRANCH   7   8
ENDBRANCH   1   7
TORSDOF 2
ENDMDL
