MODEL 1
REMARK minimizedAffinity 1.70961237
REMARK minimizedRMSD -1
REMARK  2 active torsions:
REMARK  status: ('A' for Active; 'I' for Inactive)
REMARK    1  A    between atoms: C1_2  and  C2_3 
REMARK    2  A    between atoms: C2_3  and  C3_4 
ROOT
ATOM      1  C3  UNL d   1      -4.922   2.884   0.024  0.00  0.00    -0.075 A 
ATOM      2  C4  UNL d   1      -5.338   3.736   1.057  0.00  0.00     0.002 A 
ATOM      3  C5  UNL d   1      -4.462   4.084   2.085  0.00  0.00     0.002 A 
ATOM      4  C6  UNL d   1      -3.164   3.577   2.099  0.00  0.00    -0.004 A 
ATOM      5  C7  UNL d   1      -2.745   2.716   1.088  0.00  0.00     0.002 A 
ATOM      6  C8  UNL d   1      -3.619   2.370   0.055  0.00  0.00     0.002 A 
ENDROOT
BRANCH   1   7
ATOM      7  C2  UNL d   1      -5.856   2.527  -1.107  0.00  0.00     0.056 C 
BRANCH   7   8
ATOM      8  C1  UNL d   1      -6.000   1.021  -1.347  0.00  0.00     0.007 C 
ATOM      9  C   UNL d   1      -6.000   0.206  -0.060  0.00  0.00     0.009 C 
ENDBRANCH   7   8
ENDBRANCH   1   7
TORSDOF 2
ENDMDL
