MODEL 1
REMARK minimizedAffinity 4.74235535
REMARK minimizedRMSD -1
REMARK  2 active torsions:
REMARK  status: ('A' for Active; 'I' for Inactive)
REMARK    1  A    between atoms: C1_2  and  C2_3 
REMARK    2  A    between atoms: C2_3  and  C3_4 
ROOT
ATOM      1  C3  UNL d   1       1.435  -2.872   1.010  0.00  0.00    -0.075 A 
ATOM      2  C4  UNL d   1       1.339  -1.482   0.843  0.00  0.00     0.002 A 
ATOM      3  C5  UNL d   1       1.530  -0.624   1.927  0.00  0.00     0.002 A 
ATOM      4  C6  UNL d   1       1.809  -1.143   3.189  0.00  0.00    -0.004 A 
ATOM      5  C7  UNL d   1       1.890  -2.522   3.369  0.00  0.00     0.002 A 
ATOM      6  C8  UNL d   1       1.704  -3.383   2.286  0.00  0.00     0.002 A 
ENDROOT
BRANCH   1   7
ATOM      7  C2  UNL d   1       1.258  -3.804  -0.165  0.00  0.00     0.056 C 
BRANCH   7   8
ATOM      8  C1  UNL d   1       1.681  -3.203  -1.509  0.00  0.00     0.007 C 
ATOM      9  C   UNL d   1       2.798  -3.982  -2.190  0.00  0.00     0.009 C 
ENDBRANCH   7   8
ENDBRANCH   1   7
TORSDOF 2
ENDMDL
