MODEL 1
REMARK minimizedAffinity 5.15402555
REMARK minimizedRMSD -1
REMARK  2 active torsions:
REMARK  status: ('A' for Active; 'I' for Inactive)
REMARK    1  A    between atoms: C1_2  and  C2_3 
REMARK    2  A    between atoms: C2_3  and  C3_4 
ROOT
ATOM      1  C3  UNL d   1      -5.971   2.100   0.327  0.00  0.00    -0.075 A 
ATOM      2  C4  UNL d   1      -5.954   3.376   0.908  0.00  0.00     0.002 A 
ATOM      3  C5  UNL d   1      -5.972   4.519   0.108  0.00  0.00     0.002 A 
ATOM      4  C6  UNL d   1      -5.997   4.401  -1.280  0.00  0.00    -0.004 A 
ATOM      5  C7  UNL d   1      -5.998   3.138  -1.868  0.00  0.00     0.002 A 
ATOM      6  C8  UNL d   1      -5.984   1.993  -1.070  0.00  0.00     0.002 A 
ENDROOT
BRANCH   1   7
ATOM      7  C2  UNL d   1      -5.981   0.860   1.188  0.00  0.00     0.056 C 
BRANCH   7   8
ATOM      8  C1  UNL d   1      -4.589   0.398   1.632  0.00  0.00     0.007 C 
ATOM      9  C   UNL d   1      -3.493   1.409   1.322  0.00  0.00     0.009 C 
ENDBRANCH   7   8
ENDBRANCH   1   7
TORSDOF 2
ENDMDL
