MODEL 1
REMARK minimizedAffinity -0.128473833
REMARK minimizedRMSD -1
REMARK  2 active torsions:
REMARK  status: ('A' for Active; 'I' for Inactive)
REMARK    1  A    between atoms: C1_2  and  C2_3 
REMARK    2  A    between atoms: C2_3  and  C3_4 
ROOT
ATOM      1  C3  UNL d   1       1.946  -0.307   3.035  0.00  0.00    -0.075 A 
ATOM      2  C4  UNL d   1       1.888   0.833   3.849  0.00  0.00     0.002 A 
ATOM      3  C5  UNL d   1       2.337   2.066   3.374  0.00  0.00     0.002 A 
ATOM      4  C6  UNL d   1       2.859   2.172   2.087  0.00  0.00    -0.004 A 
ATOM      5  C7  UNL d   1       2.937   1.042   1.275  0.00  0.00     0.002 A 
ATOM      6  C8  UNL d   1       2.484  -0.192   1.746  0.00  0.00     0.002 A 
ENDROOT
BRANCH   1   7
ATOM      7  C2  UNL d   1       1.434  -1.638   3.532  0.00  0.00     0.056 C 
BRANCH   7   8
ATOM      8  C1  UNL d   1       2.426  -2.792   3.359  0.00  0.00     0.007 C 
ATOM      9  C   UNL d   1       3.534  -2.794   4.405  0.00  0.00     0.009 C 
ENDBRANCH   7   8
ENDBRANCH   1   7
TORSDOF 2
ENDMDL
