MODEL 1
REMARK minimizedAffinity 7.29048777
REMARK minimizedRMSD -1
REMARK  0 active torsions:
REMARK  status: ('A' for Active; 'I' for Inactive)
ROOT
ATOM      1  C1  DEN d   1      -4.432  -0.246   3.988  0.00  0.00     0.130 A 
ATOM      2  C2  DEN d   1      -5.072   0.983   4.448  0.00  0.00    -0.031 A 
ATOM      3  C3  DEN d   1      -4.189   2.115   4.103  0.00  0.00     0.027 A 
ATOM      4  C4  DEN d   1      -1.906   2.084   2.903  0.00  0.00     0.027 A 
ATOM      5  C5  DEN d   1      -0.948   1.275   2.333  0.00  0.00    -0.003 A 
ATOM      6  C6  DEN d   1      -1.068  -0.089   2.305  0.00  0.00     0.001 A 
ATOM      7  C7  DEN d   1      -2.191  -0.683   2.817  0.00  0.00     0.017 A 
ATOM      8  C8  DEN d   1      -3.157   0.126   3.400  0.00  0.00    -0.094 A 
ATOM      9  C9  DEN d   1      -3.024   1.504   3.408  0.00  0.00    -0.072 A 
ENDROOT
TORSDOF 0
ENDMDL
