MODEL 1
REMARK minimizedAffinity 11.9699697
REMARK minimizedRMSD -1
REMARK  0 active torsions:
REMARK  status: ('A' for Active; 'I' for Inactive)
ROOT
ATOM      1  C1  DEN d   1      -1.789  -1.601   1.040  0.00  0.00     0.130 A 
ATOM      2  C2  DEN d   1      -2.432  -1.441   2.342  0.00  0.00    -0.031 A 
ATOM      3  C3  DEN d   1      -1.917  -0.201   2.956  0.00  0.00     0.027 A 
ATOM      4  C4  DEN d   1      -0.198   1.480   2.021  0.00  0.00     0.027 A 
ATOM      5  C5  DEN d   1       0.632   1.763   0.959  0.00  0.00    -0.003 A 
ATOM      6  C6  DEN d   1       0.738   0.934  -0.126  0.00  0.00     0.001 A 
ATOM      7  C7  DEN d   1      -0.032  -0.196  -0.194  0.00  0.00     0.017 A 
ATOM      8  C8  DEN d   1      -0.866  -0.492   0.876  0.00  0.00    -0.094 A 
ATOM      9  C9  DEN d   1      -0.969   0.365   1.958  0.00  0.00    -0.072 A 
ENDROOT
TORSDOF 0
ENDMDL
