MODEL 1
REMARK minimizedAffinity 10.9646969
REMARK minimizedRMSD -1
REMARK  0 active torsions:
REMARK  status: ('A' for Active; 'I' for Inactive)
ROOT
ATOM      1  C1  DEN d   1       0.322  -1.346  -3.779  0.00  0.00     0.130 A 
ATOM      2  C2  DEN d   1       0.929  -2.038  -4.912  0.00  0.00    -0.031 A 
ATOM      3  C3  DEN d   1      -0.082  -2.949  -5.485  0.00  0.00     0.027 A 
ATOM      4  C4  DEN d   1      -2.518  -3.348  -4.736  0.00  0.00     0.027 A 
ATOM      5  C5  DEN d   1      -3.480  -2.999  -3.814  0.00  0.00    -0.003 A 
ATOM      6  C6  DEN d   1      -3.234  -2.107  -2.804  0.00  0.00     0.001 A 
ATOM      7  C7  DEN d   1      -2.009  -1.499  -2.718  0.00  0.00     0.017 A 
ATOM      8  C8  DEN d   1      -1.032  -1.852  -3.639  0.00  0.00    -0.094 A 
ATOM      9  C9  DEN d   1      -1.304  -2.746  -4.660  0.00  0.00    -0.072 A 
ENDROOT
TORSDOF 0
ENDMDL
