MODEL 1
REMARK minimizedAffinity 6.11830664
REMARK minimizedRMSD -1
REMARK  0 active torsions:
REMARK  status: ('A' for Active; 'I' for Inactive)
ROOT
ATOM      1  C1  DEN d   1       0.916  -0.674   0.101  0.00  0.00     0.130 A 
ATOM      2  C2  DEN d   1       1.500   0.597  -0.316  0.00  0.00    -0.031 A 
ATOM      3  C3  DEN d   1       0.978   1.654   0.573  0.00  0.00     0.027 A 
ATOM      4  C4  DEN d   1      -0.666   1.445   2.550  0.00  0.00     0.027 A 
ATOM      5  C5  DEN d   1      -1.441   0.569   3.277  0.00  0.00    -0.003 A 
ATOM      6  C6  DEN d   1      -1.511  -0.766   2.978  0.00  0.00     0.001 A 
ATOM      7  C7  DEN d   1      -0.758  -1.272   1.952  0.00  0.00     0.017 A 
ATOM      8  C8  DEN d   1       0.021  -0.394   1.209  0.00  0.00    -0.094 A 
ATOM      9  C9  DEN d   1       0.087   0.950   1.535  0.00  0.00    -0.072 A 
ENDROOT
TORSDOF 0
ENDMDL
