MODEL 1
REMARK minimizedAffinity 4.03430557
REMARK minimizedRMSD -1
REMARK  0 active torsions:
REMARK  status: ('A' for Active; 'I' for Inactive)
ROOT
ATOM      1  C1  DEN d   1      -0.483  -1.598   2.064  0.00  0.00     0.130 A 
ATOM      2  C2  DEN d   1      -1.657  -0.773   2.336  0.00  0.00    -0.031 A 
ATOM      3  C3  DEN d   1      -1.244   0.643   2.278  0.00  0.00     0.027 A 
ATOM      4  C4  DEN d   1       1.087   1.635   1.791  0.00  0.00     0.027 A 
ATOM      5  C5  DEN d   1       2.401   1.329   1.512  0.00  0.00    -0.003 A 
ATOM      6  C6  DEN d   1       2.849   0.037   1.431  0.00  0.00     0.001 A 
ATOM      7  C7  DEN d   1       1.966  -0.998   1.587  0.00  0.00     0.017 A 
ATOM      8  C8  DEN d   1       0.641  -0.698   1.876  0.00  0.00    -0.094 A 
ATOM      9  C9  DEN d   1       0.205   0.614   1.942  0.00  0.00    -0.072 A 
ENDROOT
TORSDOF 0
ENDMDL
