MODEL 1
REMARK minimizedAffinity 13.8942022
REMARK minimizedRMSD -1
REMARK  0 active torsions:
REMARK  status: ('A' for Active; 'I' for Inactive)
ROOT
ATOM      1  C1  DEN d   1       2.216   0.215  -4.720  0.00  0.00     0.130 A 
ATOM      2  C2  DEN d   1       2.361  -0.578  -3.501  0.00  0.00    -0.031 A 
ATOM      3  C3  DEN d   1       3.730  -0.377  -2.986  0.00  0.00     0.027 A 
ATOM      4  C4  DEN d   1       5.628   1.080  -3.949  0.00  0.00     0.027 A 
ATOM      5  C5  DEN d   1       5.982   1.928  -4.974  0.00  0.00    -0.003 A 
ATOM      6  C6  DEN d   1       5.124   2.236  -5.997  0.00  0.00     0.001 A 
ATOM      7  C7  DEN d   1       3.853   1.726  -5.992  0.00  0.00     0.017 A 
ATOM      8  C8  DEN d   1       3.491   0.864  -4.965  0.00  0.00    -0.094 A 
ATOM      9  C9  DEN d   1       4.368   0.575  -3.934  0.00  0.00    -0.072 A 
ENDROOT
TORSDOF 0
ENDMDL
