MODEL 1
REMARK minimizedAffinity -1.34591222
REMARK minimizedRMSD -1
REMARK  0 active torsions:
REMARK  status: ('A' for Active; 'I' for Inactive)
ROOT
ATOM      1  C1  DEN d   1      -0.604  -5.959   1.211  0.00  0.00     0.130 A 
ATOM      2  C2  DEN d   1      -1.932  -5.998   1.817  0.00  0.00    -0.031 A 
ATOM      3  C3  DEN d   1      -1.765  -6.000   3.284  0.00  0.00     0.027 A 
ATOM      4  C4  DEN d   1       0.409  -5.942   4.670  0.00  0.00     0.027 A 
ATOM      5  C5  DEN d   1       1.785  -5.915   4.599  0.00  0.00    -0.003 A 
ATOM      6  C6  DEN d   1       2.455  -5.936   3.405  0.00  0.00     0.001 A 
ATOM      7  C7  DEN d   1       1.750  -5.939   2.231  0.00  0.00     0.017 A 
ATOM      8  C8  DEN d   1       0.364  -5.973   2.294  0.00  0.00    -0.094 A 
ATOM      9  C9  DEN d   1      -0.296  -5.939   3.510  0.00  0.00    -0.072 A 
ENDROOT
TORSDOF 0
ENDMDL
