MODEL 1
REMARK minimizedAffinity 9.81152248
REMARK minimizedRMSD -1
REMARK  0 active torsions:
REMARK  status: ('A' for Active; 'I' for Inactive)
ROOT
ATOM      1  C1  DEN d   1       1.362  -5.995   3.960  0.00  0.00     0.130 A 
ATOM      2  C2  DEN d   1       0.466  -5.970   5.112  0.00  0.00    -0.031 A 
ATOM      3  C3  DEN d   1      -0.923  -5.959   4.610  0.00  0.00     0.027 A 
ATOM      4  C4  DEN d   1      -1.767  -5.982   2.173  0.00  0.00     0.027 A 
ATOM      5  C5  DEN d   1      -1.380  -5.991   0.851  0.00  0.00    -0.003 A 
ATOM      6  C6  DEN d   1      -0.063  -5.968   0.475  0.00  0.00     0.001 A 
ATOM      7  C7  DEN d   1       0.916  -5.980   1.433  0.00  0.00     0.017 A 
ATOM      8  C8  DEN d   1       0.534  -5.963   2.768  0.00  0.00    -0.094 A 
ATOM      9  C9  DEN d   1      -0.803  -6.000   3.127  0.00  0.00    -0.072 A 
ENDROOT
TORSDOF 0
ENDMDL
