MODEL 1
REMARK minimizedAffinity 13.0355663
REMARK minimizedRMSD -1
REMARK  0 active torsions:
REMARK  status: ('A' for Active; 'I' for Inactive)
ROOT
ATOM      1  C1  DEN d   1       0.832   1.836   2.470  0.00  0.00     0.130 A 
ATOM      2  C2  DEN d   1       1.382   2.172   1.160  0.00  0.00    -0.031 A 
ATOM      3  C3  DEN d   1       0.973   1.117   0.210  0.00  0.00     0.027 A 
ATOM      4  C4  DEN d   1      -0.454  -0.988   0.638  0.00  0.00     0.027 A 
ATOM      5  C5  DEN d   1      -1.137  -1.706   1.596  0.00  0.00    -0.003 A 
ATOM      6  C6  DEN d   1      -1.182  -1.314   2.907  0.00  0.00     0.001 A 
ATOM      7  C7  DEN d   1      -0.571  -0.150   3.290  0.00  0.00     0.017 A 
ATOM      8  C8  DEN d   1       0.126   0.575   2.332  0.00  0.00    -0.094 A 
ATOM      9  C9  DEN d   1       0.150   0.170   1.008  0.00  0.00    -0.072 A 
ENDROOT
TORSDOF 0
ENDMDL
