MODEL 1
REMARK minimizedAffinity 3.72150016
REMARK minimizedRMSD -1
REMARK  0 active torsions:
REMARK  status: ('A' for Active; 'I' for Inactive)
ROOT
ATOM      1  C1  DEN d   1       0.480  -0.507  -3.736  0.00  0.00     0.130 A 
ATOM      2  C2  DEN d   1       1.424  -1.547  -4.136  0.00  0.00    -0.031 A 
ATOM      3  C3  DEN d   1       0.668  -2.801  -4.326  0.00  0.00     0.027 A 
ATOM      4  C4  DEN d   1      -1.860  -3.230  -4.048  0.00  0.00     0.027 A 
ATOM      5  C5  DEN d   1      -3.066  -2.656  -3.710  0.00  0.00    -0.003 A 
ATOM      6  C6  DEN d   1      -3.168  -1.344  -3.329  0.00  0.00     0.001 A 
ATOM      7  C7  DEN d   1      -2.052  -0.551  -3.318  0.00  0.00     0.017 A 
ATOM      8  C8  DEN d   1      -0.831  -1.125  -3.650  0.00  0.00    -0.094 A 
ATOM      9  C9  DEN d   1      -0.750  -2.450  -4.045  0.00  0.00    -0.072 A 
ENDROOT
TORSDOF 0
ENDMDL
