MODEL 1
REMARK minimizedAffinity 4.83252573
REMARK minimizedRMSD -1
REMARK  0 active torsions:
REMARK  status: ('A' for Active; 'I' for Inactive)
ROOT
ATOM      1  C1  DEN d   1      -0.017  -5.929   4.644  0.00  0.00     0.130 A 
ATOM      2  C2  DEN d   1       1.440  -5.959   4.555  0.00  0.00    -0.031 A 
ATOM      3  C3  DEN d   1       1.810  -5.992   3.126  0.00  0.00     0.027 A 
ATOM      4  C4  DEN d   1       0.276  -5.997   1.053  0.00  0.00     0.027 A 
ATOM      5  C5  DEN d   1      -1.033  -5.991   0.625  0.00  0.00    -0.003 A 
ATOM      6  C6  DEN d   1      -2.087  -5.998   1.500  0.00  0.00     0.001 A 
ATOM      7  C7  DEN d   1      -1.850  -5.966   2.848  0.00  0.00     0.017 A 
ATOM      8  C8  DEN d   1      -0.532  -5.979   3.287  0.00  0.00    -0.094 A 
ATOM      9  C9  DEN d   1       0.519  -5.960   2.387  0.00  0.00    -0.072 A 
ENDROOT
TORSDOF 0
ENDMDL
