MODEL 1
REMARK minimizedAffinity 3.57176042
REMARK minimizedRMSD -1
REMARK  0 active torsions:
REMARK  status: ('A' for Active; 'I' for Inactive)
ROOT
ATOM      1  C1  DEN d   1       1.134  -5.996   2.171  0.00  0.00     0.130 A 
ATOM      2  C2  DEN d   1       1.543  -5.987   3.573  0.00  0.00    -0.031 A 
ATOM      3  C3  DEN d   1       0.322  -5.972   4.404  0.00  0.00     0.027 A 
ATOM      4  C4  DEN d   1      -2.147  -5.969   3.660  0.00  0.00     0.027 A 
ATOM      5  C5  DEN d   1      -2.992  -5.963   2.572  0.00  0.00    -0.003 A 
ATOM      6  C6  DEN d   1      -2.524  -5.933   1.285  0.00  0.00     0.001 A 
ATOM      7  C7  DEN d   1      -1.174  -5.954   1.053  0.00  0.00     0.017 A 
ATOM      8  C8  DEN d   1      -0.316  -5.953   2.145  0.00  0.00    -0.094 A 
ATOM      9  C9  DEN d   1      -0.809  -5.995   3.438  0.00  0.00    -0.072 A 
ENDROOT
TORSDOF 0
ENDMDL
