MODEL 1
REMARK minimizedAffinity -0.575295806
REMARK minimizedRMSD -1
REMARK  0 active torsions:
REMARK  status: ('A' for Active; 'I' for Inactive)
ROOT
ATOM      1  C1  DEN d   1       1.110  -5.970   2.130  0.00  0.00     0.130 A 
ATOM      2  C2  DEN d   1      -0.253  -5.983   2.653  0.00  0.00    -0.031 A 
ATOM      3  C3  DEN d   1      -0.176  -5.986   4.128  0.00  0.00     0.027 A 
ATOM      4  C4  DEN d   1       1.910  -5.967   5.644  0.00  0.00     0.027 A 
ATOM      5  C5  DEN d   1       3.287  -5.966   5.658  0.00  0.00    -0.003 A 
ATOM      6  C6  DEN d   1       4.029  -6.000   4.507  0.00  0.00     0.001 A 
ATOM      7  C7  DEN d   1       3.398  -5.991   3.291  0.00  0.00     0.017 A 
ATOM      8  C8  DEN d   1       2.009  -6.000   3.269  0.00  0.00    -0.094 A 
ATOM      9  C9  DEN d   1       1.277  -5.952   4.443  0.00  0.00    -0.072 A 
ENDROOT
TORSDOF 0
ENDMDL
