MODEL 1
REMARK minimizedAffinity -2.75956202
REMARK minimizedRMSD -1
REMARK  0 active torsions:
REMARK  status: ('A' for Active; 'I' for Inactive)
ROOT
ATOM      1  C1  DEN d   1       1.555   1.876   0.841  0.00  0.00     0.130 A 
ATOM      2  C2  DEN d   1       2.316   0.634   0.729  0.00  0.00    -0.031 A 
ATOM      3  C3  DEN d   1       1.426  -0.482   1.105  0.00  0.00     0.027 A 
ATOM      4  C4  DEN d   1      -1.045  -0.410   1.841  0.00  0.00     0.027 A 
ATOM      5  C5  DEN d   1      -2.116   0.417   2.098  0.00  0.00    -0.003 A 
ATOM      6  C6  DEN d   1      -2.030   1.780   1.988  0.00  0.00     0.001 A 
ATOM      7  C7  DEN d   1      -0.859   2.354   1.566  0.00  0.00     0.017 A 
ATOM      8  C8  DEN d   1       0.227   1.527   1.313  0.00  0.00    -0.094 A 
ATOM      9  C9  DEN d   1       0.116   0.151   1.419  0.00  0.00    -0.072 A 
ENDROOT
TORSDOF 0
ENDMDL
