MODEL 1
REMARK minimizedAffinity 8.70357895
REMARK minimizedRMSD -1
REMARK  0 active torsions:
REMARK  status: ('A' for Active; 'I' for Inactive)
ROOT
ATOM      1  C1  DEN d   1      -2.699   3.215   3.004  0.00  0.00     0.130 A 
ATOM      2  C2  DEN d   1      -3.380   2.460   4.052  0.00  0.00    -0.031 A 
ATOM      3  C3  DEN d   1      -2.954   1.050   3.948  0.00  0.00     0.027 A 
ATOM      4  C4  DEN d   1      -1.311  -0.030   2.279  0.00  0.00     0.027 A 
ATOM      5  C5  DEN d   1      -0.491   0.207   1.197  0.00  0.00    -0.003 A 
ATOM      6  C6  DEN d   1      -0.377   1.447   0.626  0.00  0.00     0.001 A 
ATOM      7  C7  DEN d   1      -1.060   2.507   1.162  0.00  0.00     0.017 A 
ATOM      8  C8  DEN d   1      -1.894   2.274   2.247  0.00  0.00    -0.094 A 
ATOM      9  C9  DEN d   1      -1.986   1.016   2.818  0.00  0.00    -0.072 A 
ENDROOT
TORSDOF 0
ENDMDL
