MODEL 1
REMARK minimizedAffinity -1.10463095
REMARK minimizedRMSD -1
REMARK  0 active torsions:
REMARK  status: ('A' for Active; 'I' for Inactive)
ROOT
ATOM      1  C1  DEN d   1       0.733   0.856   1.276  0.00  0.00     0.130 A 
ATOM      2  C2  DEN d   1       0.997   2.260   0.973  0.00  0.00    -0.031 A 
ATOM      3  C3  DEN d   1      -0.172   3.049   1.412  0.00  0.00     0.027 A 
ATOM      4  C4  DEN d   1      -2.350   2.237   2.530  0.00  0.00     0.027 A 
ATOM      5  C5  DEN d   1      -3.037   1.131   2.978  0.00  0.00    -0.003 A 
ATOM      6  C6  DEN d   1      -2.535  -0.138   2.860  0.00  0.00     0.001 A 
ATOM      7  C7  DEN d   1      -1.290  -0.327   2.321  0.00  0.00     0.017 A 
ATOM      8  C8  DEN d   1      -0.594   0.783   1.861  0.00  0.00    -0.094 A 
ATOM      9  C9  DEN d   1      -1.114   2.058   1.999  0.00  0.00    -0.072 A 
ENDROOT
TORSDOF 0
ENDMDL
