MODEL 1
REMARK minimizedAffinity 4.73956203
REMARK minimizedRMSD -1
REMARK  0 active torsions:
REMARK  status: ('A' for Active; 'I' for Inactive)
ROOT
ATOM      1  C1  DEN d   1      -2.212   1.434   2.751  0.00  0.00     0.130 A 
ATOM      2  C2  DEN d   1      -2.241   2.891   2.661  0.00  0.00    -0.031 A 
ATOM      3  C3  DEN d   1      -1.125   3.317   1.792  0.00  0.00     0.027 A 
ATOM      4  C4  DEN d   1       0.633   1.869   0.582  0.00  0.00     0.027 A 
ATOM      5  C5  DEN d   1       1.072   0.581   0.368  0.00  0.00    -0.003 A 
ATOM      6  C6  DEN d   1       0.472  -0.501   0.955  0.00  0.00     0.001 A 
ATOM      7  C7  DEN d   1      -0.628  -0.320   1.750  0.00  0.00     0.017 A 
ATOM      8  C8  DEN d   1      -1.072   0.977   1.977  0.00  0.00    -0.094 A 
ATOM      9  C9  DEN d   1      -0.460   2.057   1.365  0.00  0.00    -0.072 A 
ENDROOT
TORSDOF 0
ENDMDL
