MODEL 1
REMARK minimizedAffinity -2.56141114
REMARK minimizedRMSD -1
REMARK  0 active torsions:
REMARK  status: ('A' for Active; 'I' for Inactive)
ROOT
ATOM      1  C1  DEN d   1       0.439   2.349   1.532  0.00  0.00     0.130 A 
ATOM      2  C2  DEN d   1       1.363   1.411   0.900  0.00  0.00    -0.031 A 
ATOM      3  C3  DEN d   1       0.752   0.067   0.946  0.00  0.00     0.027 A 
ATOM      4  C4  DEN d   1      -1.524  -0.648   1.925  0.00  0.00     0.027 A 
ATOM      5  C5  DEN d   1      -2.655  -0.206   2.577  0.00  0.00    -0.003 A 
ATOM      6  C6  DEN d   1      -2.817   1.101   2.953  0.00  0.00     0.001 A 
ATOM      7  C7  DEN d   1      -1.852   2.022   2.640  0.00  0.00     0.017 A 
ATOM      8  C8  DEN d   1      -0.707   1.583   1.990  0.00  0.00    -0.094 A 
ATOM      9  C9  DEN d   1      -0.567   0.260   1.607  0.00  0.00    -0.072 A 
ENDROOT
TORSDOF 0
ENDMDL
