MODEL 1
REMARK minimizedAffinity 9.44289112
REMARK minimizedRMSD -1
REMARK  0 active torsions:
REMARK  status: ('A' for Active; 'I' for Inactive)
ROOT
ATOM      1  C1  DEN d   1      -4.666  -1.962  -0.262  0.00  0.00     0.130 A 
ATOM      2  C2  DEN d   1      -4.430  -3.404  -0.275  0.00  0.00    -0.031 A 
ATOM      3  C3  DEN d   1      -3.870  -3.763  -1.593  0.00  0.00     0.027 A 
ATOM      4  C4  DEN d   1      -3.343  -2.234  -3.603  0.00  0.00     0.027 A 
ATOM      5  C5  DEN d   1      -3.385  -0.939  -4.070  0.00  0.00    -0.003 A 
ATOM      6  C6  DEN d   1      -3.884   0.092  -3.318  0.00  0.00     0.001 A 
ATOM      7  C7  DEN d   1      -4.320  -0.147  -2.042  0.00  0.00     0.017 A 
ATOM      8  C8  DEN d   1      -4.288  -1.452  -1.567  0.00  0.00    -0.094 A 
ATOM      9  C9  DEN d   1      -3.769  -2.478  -2.338  0.00  0.00    -0.072 A 
ENDROOT
TORSDOF 0
ENDMDL
