MODEL 1
REMARK minimizedAffinity 10.0121565
REMARK minimizedRMSD -1
REMARK  0 active torsions:
REMARK  status: ('A' for Active; 'I' for Inactive)
ROOT
ATOM      1  C1  DEN d   1      -1.653  -0.048   3.014  0.00  0.00     0.130 A 
ATOM      2  C2  DEN d   1      -3.049   0.317   3.239  0.00  0.00    -0.031 A 
ATOM      3  C3  DEN d   1      -3.344   1.516   2.429  0.00  0.00     0.027 A 
ATOM      4  C4  DEN d   1      -1.785   2.833   0.852  0.00  0.00     0.027 A 
ATOM      5  C5  DEN d   1      -0.507   2.910   0.345  0.00  0.00    -0.003 A 
ATOM      6  C6  DEN d   1       0.480   2.035   0.714  0.00  0.00     0.001 A 
ATOM      7  C7  DEN d   1       0.192   1.016   1.583  0.00  0.00     0.017 A 
ATOM      8  C8  DEN d   1      -1.092   0.935   2.105  0.00  0.00    -0.094 A 
ATOM      9  C9  DEN d   1      -2.079   1.822   1.709  0.00  0.00    -0.072 A 
ENDROOT
TORSDOF 0
ENDMDL
