MODEL 1
REMARK minimizedAffinity 2.61947799
REMARK minimizedRMSD -1
REMARK  0 active torsions:
REMARK  status: ('A' for Active; 'I' for Inactive)
ROOT
ATOM      1  C1  DEN d   1       0.712  -0.532   0.788  0.00  0.00     0.130 A 
ATOM      2  C2  DEN d   1       1.781   0.431   0.537  0.00  0.00    -0.031 A 
ATOM      3  C3  DEN d   1       1.267   1.778   0.857  0.00  0.00     0.027 A 
ATOM      4  C4  DEN d   1      -1.067   2.462   1.715  0.00  0.00     0.027 A 
ATOM      5  C5  DEN d   1      -2.315   1.995   2.068  0.00  0.00    -0.003 A 
ATOM      6  C6  DEN d   1      -2.648   0.669   1.987  0.00  0.00     0.001 A 
ATOM      7  C7  DEN d   1      -1.709  -0.244   1.586  0.00  0.00     0.017 A 
ATOM      8  C8  DEN d   1      -0.452   0.220   1.221  0.00  0.00    -0.094 A 
ATOM      9  C9  DEN d   1      -0.130   1.563   1.322  0.00  0.00    -0.072 A 
ENDROOT
TORSDOF 0
ENDMDL
