MODEL 1
REMARK minimizedAffinity 4.78609371
REMARK minimizedRMSD -1
REMARK  0 active torsions:
REMARK  status: ('A' for Active; 'I' for Inactive)
ROOT
ATOM      1  C1  DEN d   1      -3.366  -0.224   3.561  0.00  0.00     0.130 A 
ATOM      2  C2  DEN d   1      -4.376   0.794   3.837  0.00  0.00    -0.031 A 
ATOM      3  C3  DEN d   1      -3.898   2.075   3.277  0.00  0.00     0.027 A 
ATOM      4  C4  DEN d   1      -1.706   2.575   2.012  0.00  0.00     0.027 A 
ATOM      5  C5  DEN d   1      -0.530   2.030   1.547  0.00  0.00    -0.003 A 
ATOM      6  C6  DEN d   1      -0.203   0.715   1.748  0.00  0.00     0.001 A 
ATOM      7  C7  DEN d   1      -1.084  -0.111   2.393  0.00  0.00     0.017 A 
ATOM      8  C8  DEN d   1      -2.269   0.432   2.872  0.00  0.00    -0.094 A 
ATOM      9  C9  DEN d   1      -2.586   1.761   2.648  0.00  0.00    -0.072 A 
ENDROOT
TORSDOF 0
ENDMDL
