MODEL 1
REMARK minimizedAffinity -2.7252779
REMARK minimizedRMSD -1
REMARK  0 active torsions:
REMARK  status: ('A' for Active; 'I' for Inactive)
ROOT
ATOM      1  C1  DEN d   1      -0.056   2.550   1.707  0.00  0.00     0.130 A 
ATOM      2  C2  DEN d   1       1.030   1.720   1.192  0.00  0.00    -0.031 A 
ATOM      3  C3  DEN d   1       0.637   0.305   1.349  0.00  0.00     0.027 A 
ATOM      4  C4  DEN d   1      -1.538  -0.676   2.329  0.00  0.00     0.027 A 
ATOM      5  C5  DEN d   1      -2.750  -0.365   2.905  0.00  0.00    -0.003 A 
ATOM      6  C6  DEN d   1      -3.132   0.928   3.151  0.00  0.00     0.001 A 
ATOM      7  C7  DEN d   1      -2.312   1.960   2.778  0.00  0.00     0.017 A 
ATOM      8  C8  DEN d   1      -1.085   1.654   2.204  0.00  0.00    -0.094 A 
ATOM      9  C9  DEN d   1      -0.723   0.342   1.952  0.00  0.00    -0.072 A 
ENDROOT
TORSDOF 0
ENDMDL
