MODEL 1
REMARK minimizedAffinity -5.6074295
REMARK minimizedRMSD -1
REMARK  0 active torsions:
REMARK  status: ('A' for Active; 'I' for Inactive)
ROOT
ATOM      1  C1  DEN d   1      -3.320   1.348   2.924  0.00  0.00     0.130 A 
ATOM      2  C2  DEN d   1      -2.966  -0.041   3.202  0.00  0.00    -0.031 A 
ATOM      3  C3  DEN d   1      -1.608  -0.281   2.674  0.00  0.00     0.027 A 
ATOM      4  C4  DEN d   1      -0.025   1.356   1.463  0.00  0.00     0.027 A 
ATOM      5  C5  DEN d   1       0.110   2.642   0.988  0.00  0.00    -0.003 A 
ATOM      6  C6  DEN d   1      -0.893   3.569   1.093  0.00  0.00     0.001 A 
ATOM      7  C7  DEN d   1      -2.060   3.236   1.729  0.00  0.00     0.017 A 
ATOM      8  C8  DEN d   1      -2.207   1.940   2.204  0.00  0.00    -0.094 A 
ATOM      9  C9  DEN d   1      -1.177   1.021   2.099  0.00  0.00    -0.072 A 
ENDROOT
TORSDOF 0
ENDMDL
