MODEL 1
REMARK minimizedAffinity 6.88698339
REMARK minimizedRMSD -1
REMARK  0 active torsions:
REMARK  status: ('A' for Active; 'I' for Inactive)
ROOT
ATOM      1  C1  DEN d   1      -2.177   0.905   2.281  0.00  0.00     0.130 A 
ATOM      2  C2  DEN d   1      -2.534   2.307   2.083  0.00  0.00    -0.031 A 
ATOM      3  C3  DEN d   1      -1.369   2.995   1.493  0.00  0.00     0.027 A 
ATOM      4  C4  DEN d   1       0.939   2.031   0.865  0.00  0.00     0.027 A 
ATOM      5  C5  DEN d   1       1.716   0.893   0.858  0.00  0.00    -0.003 A 
ATOM      6  C6  DEN d   1       1.266  -0.302   1.352  0.00  0.00     0.001 A 
ATOM      7  C7  DEN d   1      -0.013  -0.399   1.833  0.00  0.00     0.017 A 
ATOM      8  C8  DEN d   1      -0.800   0.745   1.850  0.00  0.00    -0.094 A 
ATOM      9  C9  DEN d   1      -0.331   1.942   1.335  0.00  0.00    -0.072 A 
ENDROOT
TORSDOF 0
ENDMDL
