MODEL 1
REMARK minimizedAffinity 8.15404129
REMARK minimizedRMSD -1
REMARK  0 active torsions:
REMARK  status: ('A' for Active; 'I' for Inactive)
ROOT
ATOM      1  C1  DEN d   1      -2.408  -0.388   2.635  0.00  0.00     0.130 A 
ATOM      2  C2  DEN d   1      -1.974  -1.697   3.113  0.00  0.00    -0.031 A 
ATOM      3  C3  DEN d   1      -0.504  -1.765   2.988  0.00  0.00     0.027 A 
ATOM      4  C4  DEN d   1       1.133   0.024   2.108  0.00  0.00     0.027 A 
ATOM      5  C5  DEN d   1       1.232   1.291   1.579  0.00  0.00    -0.003 A 
ATOM      6  C6  DEN d   1       0.131   2.069   1.335  0.00  0.00     0.001 A 
ATOM      7  C7  DEN d   1      -1.115   1.603   1.663  0.00  0.00     0.017 A 
ATOM      8  C8  DEN d   1      -1.223   0.323   2.190  0.00  0.00    -0.094 A 
ATOM      9  C9  DEN d   1      -0.097  -0.443   2.440  0.00  0.00    -0.072 A 
ENDROOT
TORSDOF 0
ENDMDL
