MODEL 1
REMARK minimizedAffinity -2.54361439
REMARK minimizedRMSD -1
REMARK  0 active torsions:
REMARK  status: ('A' for Active; 'I' for Inactive)
ROOT
ATOM      1  C1  DEN d   1      -2.100  -0.698   1.913  0.00  0.00     0.130 A 
ATOM      2  C2  DEN d   1      -3.193  -0.004   2.587  0.00  0.00    -0.031 A 
ATOM      3  C3  DEN d   1      -2.756   1.380   2.859  0.00  0.00     0.027 A 
ATOM      4  C4  DEN d   1      -0.506   2.511   2.301  0.00  0.00     0.027 A 
ATOM      5  C5  DEN d   1       0.738   2.319   1.741  0.00  0.00    -0.003 A 
ATOM      6  C6  DEN d   1       1.132   1.109   1.235  0.00  0.00     0.001 A 
ATOM      7  C7  DEN d   1       0.258   0.055   1.237  0.00  0.00     0.017 A 
ATOM      8  C8  DEN d   1      -0.996   0.238   1.806  0.00  0.00    -0.094 A 
ATOM      9  C9  DEN d   1      -1.380   1.472   2.301  0.00  0.00    -0.072 A 
ENDROOT
TORSDOF 0
ENDMDL
