MODEL 1
REMARK minimizedAffinity 3.73412275
REMARK minimizedRMSD -1
REMARK  0 active torsions:
REMARK  status: ('A' for Active; 'I' for Inactive)
ROOT
ATOM      1  C1  DEN d   1      -2.543   1.077   4.092  0.00  0.00     0.130 A 
ATOM      2  C2  DEN d   1      -3.885   1.625   3.918  0.00  0.00    -0.031 A 
ATOM      3  C3  DEN d   1      -3.826   2.651   2.858  0.00  0.00     0.027 A 
ATOM      4  C4  DEN d   1      -1.798   3.438   1.473  0.00  0.00     0.027 A 
ATOM      5  C5  DEN d   1      -0.446   3.274   1.270  0.00  0.00    -0.003 A 
ATOM      6  C6  DEN d   1       0.303   2.398   2.010  0.00  0.00     0.001 A 
ATOM      7  C7  DEN d   1      -0.305   1.619   2.959  0.00  0.00     0.017 A 
ATOM      8  C8  DEN d   1      -1.667   1.784   3.174  0.00  0.00    -0.094 A 
ATOM      9  C9  DEN d   1      -2.409   2.666   2.407  0.00  0.00    -0.072 A 
ENDROOT
TORSDOF 0
ENDMDL
