MODEL 1
REMARK minimizedAffinity -3.0828433
REMARK minimizedRMSD -1
REMARK  1 active torsions:
REMARK  status: ('A' for Active; 'I' for Inactive)
REMARK    1  A    between atoms: C3_4  and  O_7 
ROOT
ATOM      1  C   UNL d   1      -2.425   2.830  -1.990  0.00  0.00    -0.033 A 
ATOM      2  C1  UNL d   1      -2.185   1.509  -2.371  0.00  0.00     0.039 A 
ATOM      3  C2  UNL d   1      -0.954   1.153  -2.926  0.00  0.00    -0.080 A 
ATOM      4  C3  UNL d   1       0.027   2.126  -3.093  0.00  0.00     0.150 A 
ATOM      5  C4  UNL d   1      -0.203   3.443  -2.712  0.00  0.00    -0.007 A 
ATOM      6  C5  UNL d   1      -1.433   3.797  -2.159  0.00  0.00     0.039 A 
ENDROOT
BRANCH   4   7
ATOM      7  O   UNL d   1       1.242   1.827  -3.634  0.00  0.00    -0.526 OA
ATOM      8  H5  UNL d   1       1.248   0.886  -3.876  0.00  0.00     0.418 HD
ENDBRANCH   4   7
TORSDOF 1
ENDMDL
