MODEL 1
REMARK minimizedAffinity -1.29950094
REMARK minimizedRMSD -1
REMARK  1 active torsions:
REMARK  status: ('A' for Active; 'I' for Inactive)
REMARK    1  A    between atoms: C3_4  and  O_7 
ROOT
ATOM      1  C   UNL d   1      -0.721  -0.241   2.810  0.00  0.00    -0.033 A 
ATOM      2  C1  UNL d   1       0.212  -0.954   2.054  0.00  0.00     0.039 A 
ATOM      3  C2  UNL d   1       0.346  -0.701   0.688  0.00  0.00    -0.080 A 
ATOM      4  C3  UNL d   1      -0.457   0.267   0.090  0.00  0.00     0.150 A 
ATOM      5  C4  UNL d   1      -1.385   0.984   0.838  0.00  0.00    -0.007 A 
ATOM      6  C5  UNL d   1      -1.518   0.729   2.202  0.00  0.00     0.039 A 
ENDROOT
BRANCH   4   7
ATOM      7  O   UNL d   1      -0.366   0.545  -1.241  0.00  0.00    -0.526 OA
ATOM      8  H5  UNL d   1       0.297  -0.047  -1.635  0.00  0.00     0.418 HD
ENDBRANCH   4   7
TORSDOF 1
ENDMDL
