MODEL 1
REMARK minimizedAffinity -1.03417671
REMARK minimizedRMSD -1
REMARK  1 active torsions:
REMARK  status: ('A' for Active; 'I' for Inactive)
REMARK    1  A    between atoms: C3_4  and  O_7 
ROOT
ATOM      1  C   UNL d   1      -0.701   3.261  -3.016  0.00  0.00    -0.033 A 
ATOM      2  C1  UNL d   1       0.629   2.957  -2.718  0.00  0.00     0.039 A 
ATOM      3  C2  UNL d   1       0.946   1.764  -2.065  0.00  0.00    -0.080 A 
ATOM      4  C3  UNL d   1      -0.075   0.885  -1.717  0.00  0.00     0.150 A 
ATOM      5  C4  UNL d   1      -1.402   1.179  -2.014  0.00  0.00    -0.007 A 
ATOM      6  C5  UNL d   1      -1.716   2.371  -2.665  0.00  0.00     0.039 A 
ENDROOT
BRANCH   4   7
ATOM      7  O   UNL d   1       0.184  -0.289  -1.074  0.00  0.00    -0.526 OA
ATOM      8  H5  UNL d   1       1.140  -0.345  -0.908  0.00  0.00     0.418 HD
ENDBRANCH   4   7
TORSDOF 1
ENDMDL
