MODEL 1
REMARK minimizedAffinity -3.89532804
REMARK minimizedRMSD -1
REMARK  1 active torsions:
REMARK  status: ('A' for Active; 'I' for Inactive)
REMARK    1  A    between atoms: C3_4  and  O_7 
ROOT
ATOM      1  C   UNL d   1       0.762  -1.616   2.026  0.00  0.00    -0.033 A 
ATOM      2  C1  UNL d   1      -0.395  -0.836   2.067  0.00  0.00     0.039 A 
ATOM      3  C2  UNL d   1      -0.821  -0.155   0.926  0.00  0.00    -0.080 A 
ATOM      4  C3  UNL d   1      -0.083  -0.263  -0.250  0.00  0.00     0.150 A 
ATOM      5  C4  UNL d   1       1.069  -1.041  -0.299  0.00  0.00    -0.007 A 
ATOM      6  C5  UNL d   1       1.493  -1.720   0.843  0.00  0.00     0.039 A 
ENDROOT
BRANCH   4   7
ATOM      7  O   UNL d   1      -0.457   0.388  -1.388  0.00  0.00    -0.526 OA
ATOM      8  H5  UNL d   1      -1.254   0.909  -1.197  0.00  0.00     0.418 HD
ENDBRANCH   4   7
TORSDOF 1
ENDMDL
