MODEL 1
REMARK minimizedAffinity -1.06457341
REMARK minimizedRMSD -1
REMARK  1 active torsions:
REMARK  status: ('A' for Active; 'I' for Inactive)
REMARK    1  A    between atoms: C3_4  and  O_7 
ROOT
ATOM      1  C   UNL d   1      -0.199   0.383  -0.902  0.00  0.00    -0.033 A 
ATOM      2  C1  UNL d   1      -0.868  -0.816  -0.650  0.00  0.00     0.039 A 
ATOM      3  C2  UNL d   1      -1.183  -1.180   0.661  0.00  0.00    -0.080 A 
ATOM      4  C3  UNL d   1      -0.825  -0.336   1.709  0.00  0.00     0.150 A 
ATOM      5  C4  UNL d   1      -0.162   0.862   1.464  0.00  0.00    -0.007 A 
ATOM      6  C5  UNL d   1       0.153   1.223   0.155  0.00  0.00     0.039 A 
ENDROOT
BRANCH   4   7
ATOM      7  O   UNL d   1      -1.106  -0.650   3.005  0.00  0.00    -0.526 OA
ATOM      8  H5  UNL d   1      -1.540  -1.520   3.024  0.00  0.00     0.418 HD
ENDBRANCH   4   7
TORSDOF 1
ENDMDL
