MODEL 1
REMARK minimizedAffinity 22.1653805
REMARK minimizedRMSD -1
REMARK  0 active torsions:
REMARK  status: ('A' for Active; 'I' for Inactive)
ROOT
ATOM      1  C   UNL d   1      -1.800  -2.107  -0.703  0.00  0.00     0.124 A 
ATOM      2  C1  UNL d   1      -1.082  -1.104  -0.066  0.00  0.00     0.062 A 
ATOM      3  C2  UNL d   1      -1.626  -0.441   1.029  0.00  0.00     0.162 A 
ATOM      4  C3  UNL d   1      -2.896  -0.779   1.497  0.00  0.00    -0.034 A 
ATOM      5  C4  UNL d   1      -3.612  -1.788   0.851  0.00  0.00     0.162 A 
ATOM      6  C5  UNL d   1      -3.064  -2.448  -0.244  0.00  0.00     0.062 A 
ATOM      7  F   UNL d   1      -3.759  -3.417  -0.857  0.00  0.00    -0.097 F 
ATOM      8  F1  UNL d   1      -4.836  -2.139   1.275  0.00  0.00    -0.096 F 
ATOM      9  I   UNL d   1      -3.714   0.210   3.135  0.00  0.00    -0.060 I 
ATOM     10  F2  UNL d   1      -0.910   0.524   1.625  0.00  0.00    -0.096 F 
ATOM     11  F3  UNL d   1       0.140  -0.772  -0.509  0.00  0.00    -0.097 F 
ATOM     12  F4  UNL d   1      -1.274  -2.743  -1.758  0.00  0.00    -0.092 F 
ENDROOT
TORSDOF 0
ENDMDL
