MODEL 1
REMARK minimizedAffinity 26.0429955
REMARK minimizedRMSD -1
REMARK  0 active torsions:
REMARK  status: ('A' for Active; 'I' for Inactive)
ROOT
ATOM      1  C   UNL d   1      -1.183   0.309   1.339  0.00  0.00     0.124 A 
ATOM      2  C1  UNL d   1      -0.195   0.195   0.371  0.00  0.00     0.062 A 
ATOM      3  C2  UNL d   1       1.017  -0.418   0.677  0.00  0.00     0.162 A 
ATOM      4  C3  UNL d   1       1.247  -0.924   1.956  0.00  0.00    -0.034 A 
ATOM      5  C4  UNL d   1       0.248  -0.804   2.925  0.00  0.00     0.162 A 
ATOM      6  C5  UNL d   1      -0.961  -0.191   2.614  0.00  0.00     0.062 A 
ATOM      7  F   UNL d   1      -1.915  -0.081   3.550  0.00  0.00    -0.097 F 
ATOM      8  F1  UNL d   1       0.436  -1.279   4.165  0.00  0.00    -0.096 F 
ATOM      9  I   UNL d   1       3.057  -1.842   2.417  0.00  0.00    -0.060 I 
ATOM     10  F2  UNL d   1       1.954  -0.515  -0.278  0.00  0.00    -0.096 F 
ATOM     11  F3  UNL d   1      -0.407   0.678  -0.862  0.00  0.00    -0.097 F 
ATOM     12  F4  UNL d   1      -2.347   0.901   1.042  0.00  0.00    -0.092 F 
ENDROOT
TORSDOF 0
ENDMDL
