MODEL 1
REMARK minimizedAffinity 18.2863064
REMARK minimizedRMSD -1
REMARK  0 active torsions:
REMARK  status: ('A' for Active; 'I' for Inactive)
ROOT
ATOM      1  C   UNL d   1       3.800   3.774  -2.005  0.00  0.00     0.124 A 
ATOM      2  C1  UNL d   1       4.271   4.728  -1.114  0.00  0.00     0.062 A 
ATOM      3  C2  UNL d   1       3.518   5.074   0.004  0.00  0.00     0.162 A 
ATOM      4  C3  UNL d   1       2.286   4.463   0.239  0.00  0.00    -0.034 A 
ATOM      5  C4  UNL d   1       1.818   3.505  -0.661  0.00  0.00     0.162 A 
ATOM      6  C5  UNL d   1       2.574   3.163  -1.778  0.00  0.00     0.062 A 
ATOM      7  F   UNL d   1       2.118   2.240  -2.637  0.00  0.00    -0.097 F 
ATOM      8  F1  UNL d   1       0.638   2.898  -0.465  0.00  0.00    -0.096 F 
ATOM      9  I   UNL d   1       1.157   4.977   1.911  0.00  0.00    -0.060 I 
ATOM     10  F2  UNL d   1       3.997   6.000   0.848  0.00  0.00    -0.096 F 
ATOM     11  F3  UNL d   1       5.454   5.321  -1.332  0.00  0.00    -0.097 F 
ATOM     12  F4  UNL d   1       4.526   3.444  -3.081  0.00  0.00    -0.092 F 
ENDROOT
TORSDOF 0
ENDMDL
