MODEL 1
REMARK minimizedAffinity 18.9741306
REMARK minimizedRMSD -1
REMARK  0 active torsions:
REMARK  status: ('A' for Active; 'I' for Inactive)
ROOT
ATOM      1  C   UNL d   1      -3.394  -2.089  -0.154  0.00  0.00     0.124 A 
ATOM      2  C1  UNL d   1      -4.276  -3.160  -0.111  0.00  0.00     0.062 A 
ATOM      3  C2  UNL d   1      -4.061  -4.276  -0.914  0.00  0.00     0.162 A 
ATOM      4  C3  UNL d   1      -2.958  -4.329  -1.766  0.00  0.00    -0.034 A 
ATOM      5  C4  UNL d   1      -2.076  -3.247  -1.804  0.00  0.00     0.162 A 
ATOM      6  C5  UNL d   1      -2.295  -2.134  -1.000  0.00  0.00     0.062 A 
ATOM      7  F   UNL d   1      -1.442  -1.100  -1.043  0.00  0.00    -0.097 F 
ATOM      8  F1  UNL d   1      -1.005  -3.264  -2.612  0.00  0.00    -0.096 F 
ATOM      9  I   UNL d   1      -2.633  -5.996  -2.968  0.00  0.00    -0.060 I 
ATOM     10  F2  UNL d   1      -4.929  -5.297  -0.852  0.00  0.00    -0.096 F 
ATOM     11  F3  UNL d   1      -5.339  -3.119   0.705  0.00  0.00    -0.097 F 
ATOM     12  F4  UNL d   1      -3.604  -1.015   0.619  0.00  0.00    -0.092 F 
ENDROOT
TORSDOF 0
ENDMDL
