MODEL 1
REMARK minimizedAffinity 13.8203297
REMARK minimizedRMSD -1
REMARK  0 active torsions:
REMARK  status: ('A' for Active; 'I' for Inactive)
ROOT
ATOM      1  C   UNL d   1      -0.741   0.425   0.277  0.00  0.00     0.124 A 
ATOM      2  C1  UNL d   1      -0.803   1.406  -0.704  0.00  0.00     0.062 A 
ATOM      3  C2  UNL d   1       0.273   1.604  -1.564  0.00  0.00     0.162 A 
ATOM      4  C3  UNL d   1       1.421   0.820  -1.448  0.00  0.00    -0.034 A 
ATOM      5  C4  UNL d   1       1.476  -0.164  -0.459  0.00  0.00     0.162 A 
ATOM      6  C5  UNL d   1       0.398  -0.358   0.399  0.00  0.00     0.062 A 
ATOM      7  F   UNL d   1       0.460  -1.305   1.346  0.00  0.00    -0.097 F 
ATOM      8  F1  UNL d   1       2.564  -0.936  -0.319  0.00  0.00    -0.096 F 
ATOM      9  I   UNL d   1       3.032   1.113  -2.732  0.00  0.00    -0.060 I 
ATOM     10  F2  UNL d   1       0.186   2.558  -2.502  0.00  0.00    -0.096 F 
ATOM     11  F3  UNL d   1      -1.902   2.165  -0.822  0.00  0.00    -0.097 F 
ATOM     12  F4  UNL d   1      -1.777   0.237   1.104  0.00  0.00    -0.092 F 
ENDROOT
TORSDOF 0
ENDMDL
