MODEL 1
REMARK minimizedAffinity 16.3357525
REMARK minimizedRMSD -1
REMARK  0 active torsions:
REMARK  status: ('A' for Active; 'I' for Inactive)
ROOT
ATOM      1  C   UNL d   1       1.439   5.050   1.829  0.00  0.00     0.124 A 
ATOM      2  C1  UNL d   1       2.279   4.344   0.981  0.00  0.00     0.062 A 
ATOM      3  C2  UNL d   1       1.763   3.355   0.147  0.00  0.00     0.162 A 
ATOM      4  C3  UNL d   1       0.398   3.069   0.158  0.00  0.00    -0.034 A 
ATOM      5  C4  UNL d   1      -0.441   3.783   1.015  0.00  0.00     0.162 A 
ATOM      6  C5  UNL d   1       0.080   4.770   1.846  0.00  0.00     0.062 A 
ATOM      7  F   UNL d   1      -0.734   5.452   2.665  0.00  0.00    -0.097 F 
ATOM      8  F1  UNL d   1      -1.758   3.533   1.050  0.00  0.00    -0.096 F 
ATOM      9  I   UNL d   1      -0.378   1.592  -1.086  0.00  0.00    -0.060 I 
ATOM     10  F2  UNL d   1       2.598   2.688  -0.663  0.00  0.00    -0.096 F 
ATOM     11  F3  UNL d   1       3.593   4.612   0.964  0.00  0.00    -0.097 F 
ATOM     12  F4  UNL d   1       1.939   6.000   2.631  0.00  0.00    -0.092 F 
ENDROOT
TORSDOF 0
ENDMDL
