MODEL 1
REMARK minimizedAffinity 15.1622057
REMARK minimizedRMSD -1
REMARK  0 active torsions:
REMARK  status: ('A' for Active; 'I' for Inactive)
ROOT
ATOM      1  C   UNL d   1       0.519   1.352  -1.765  0.00  0.00     0.124 A 
ATOM      2  C1  UNL d   1      -0.229   1.001  -0.649  0.00  0.00     0.062 A 
ATOM      3  C2  UNL d   1       0.263   0.065   0.256  0.00  0.00     0.162 A 
ATOM      4  C3  UNL d   1       1.510  -0.525   0.051  0.00  0.00    -0.034 A 
ATOM      5  C4  UNL d   1       2.255  -0.168  -1.074  0.00  0.00     0.162 A 
ATOM      6  C5  UNL d   1       1.759   0.768  -1.976  0.00  0.00     0.062 A 
ATOM      7  F   UNL d   1       2.483   1.106  -3.053  0.00  0.00    -0.097 F 
ATOM      8  F1  UNL d   1       3.458  -0.716  -1.301  0.00  0.00    -0.096 F 
ATOM      9  I   UNL d   1       2.248  -1.924   1.403  0.00  0.00    -0.060 I 
ATOM     10  F2  UNL d   1      -0.481  -0.255   1.326  0.00  0.00    -0.096 F 
ATOM     11  F3  UNL d   1      -1.429   1.563  -0.444  0.00  0.00    -0.097 F 
ATOM     12  F4  UNL d   1       0.043   2.252  -2.635  0.00  0.00    -0.092 F 
ENDROOT
TORSDOF 0
ENDMDL
