MODEL 1
REMARK minimizedAffinity 28.8228359
REMARK minimizedRMSD -1
REMARK  0 active torsions:
REMARK  status: ('A' for Active; 'I' for Inactive)
ROOT
ATOM      1  C   UNL d   1       1.352   5.237   2.629  0.00  0.00     0.124 A 
ATOM      2  C1  UNL d   1      -0.021   5.241   2.827  0.00  0.00     0.062 A 
ATOM      3  C2  UNL d   1      -0.846   4.459   2.023  0.00  0.00     0.162 A 
ATOM      4  C3  UNL d   1      -0.300   3.666   1.014  0.00  0.00    -0.034 A 
ATOM      5  C4  UNL d   1       1.083   3.669   0.820  0.00  0.00     0.162 A 
ATOM      6  C5  UNL d   1       1.903   4.452   1.626  0.00  0.00     0.062 A 
ATOM      7  F   UNL d   1       3.230   4.448   1.433  0.00  0.00    -0.097 F 
ATOM      8  F1  UNL d   1       1.642   2.919  -0.141  0.00  0.00    -0.096 F 
ATOM      9  I   UNL d   1      -1.530   2.496  -0.189  0.00  0.00    -0.060 I 
ATOM     10  F2  UNL d   1      -2.170   4.482   2.237  0.00  0.00    -0.096 F 
ATOM     11  F3  UNL d   1      -0.556   6.000   3.795  0.00  0.00    -0.097 F 
ATOM     12  F4  UNL d   1       2.144   5.991   3.403  0.00  0.00    -0.092 F 
ENDROOT
TORSDOF 0
ENDMDL
