MODEL 1
REMARK minimizedAffinity 11.8190804
REMARK minimizedRMSD -1
REMARK  0 active torsions:
REMARK  status: ('A' for Active; 'I' for Inactive)
ROOT
ATOM      1  C   UNL d   1      -3.787  -4.872  -1.127  0.00  0.00     0.124 A 
ATOM      2  C1  UNL d   1      -4.139  -3.749  -0.391  0.00  0.00     0.062 A 
ATOM      3  C2  UNL d   1      -3.266  -2.668  -0.303  0.00  0.00     0.162 A 
ATOM      4  C3  UNL d   1      -2.033  -2.704  -0.954  0.00  0.00    -0.034 A 
ATOM      5  C4  UNL d   1      -1.686  -3.837  -1.692  0.00  0.00     0.162 A 
ATOM      6  C5  UNL d   1      -2.561  -4.915  -1.777  0.00  0.00     0.062 A 
ATOM      7  F   UNL d   1      -2.220  -5.999  -2.489  0.00  0.00    -0.097 F 
ATOM      8  F1  UNL d   1      -0.508  -3.905  -2.330  0.00  0.00    -0.096 F 
ATOM      9  I   UNL d   1      -0.725  -1.090  -0.825  0.00  0.00    -0.060 I 
ATOM     10  F2  UNL d   1      -3.632  -1.596   0.415  0.00  0.00    -0.096 F 
ATOM     11  F3  UNL d   1      -5.322  -3.705   0.238  0.00  0.00    -0.097 F 
ATOM     12  F4  UNL d   1      -4.628  -5.911  -1.210  0.00  0.00    -0.092 F 
ENDROOT
TORSDOF 0
ENDMDL
