MODEL 1
REMARK minimizedAffinity 17.0239239
REMARK minimizedRMSD -1
REMARK  0 active torsions:
REMARK  status: ('A' for Active; 'I' for Inactive)
ROOT
ATOM      1  C   UNL d   1       0.001   0.094   0.564  0.00  0.00     0.124 A 
ATOM      2  C1  UNL d   1      -0.465  -0.103   1.856  0.00  0.00     0.062 A 
ATOM      3  C2  UNL d   1      -1.607   0.558   2.297  0.00  0.00     0.162 A 
ATOM      4  C3  UNL d   1      -2.293   1.423   1.444  0.00  0.00    -0.034 A 
ATOM      5  C4  UNL d   1      -1.819   1.617   0.146  0.00  0.00     0.162 A 
ATOM      6  C5  UNL d   1      -0.676   0.953  -0.290  0.00  0.00     0.062 A 
ATOM      7  F   UNL d   1      -0.228   1.144  -1.539  0.00  0.00    -0.097 F 
ATOM      8  F1  UNL d   1      -2.454   2.441  -0.701  0.00  0.00    -0.096 F 
ATOM      9  I   UNL d   1      -4.002   2.414   2.100  0.00  0.00    -0.060 I 
ATOM     10  F2  UNL d   1      -2.034   0.349   3.552  0.00  0.00    -0.096 F 
ATOM     11  F3  UNL d   1       0.188  -0.932   2.683  0.00  0.00    -0.097 F 
ATOM     12  F4  UNL d   1       1.101  -0.544   0.142  0.00  0.00    -0.092 F 
ENDROOT
TORSDOF 0
ENDMDL
