MODEL 1
REMARK minimizedAffinity 26.6140079
REMARK minimizedRMSD -1
REMARK  0 active torsions:
REMARK  status: ('A' for Active; 'I' for Inactive)
ROOT
ATOM      1  C   UNL d   1      -1.007  -4.001  -2.236  0.00  0.00     0.124 A 
ATOM      2  C1  UNL d   1      -0.895  -2.731  -1.689  0.00  0.00     0.062 A 
ATOM      3  C2  UNL d   1      -1.903  -2.229  -0.871  0.00  0.00     0.162 A 
ATOM      4  C3  UNL d   1      -3.033  -2.998  -0.594  0.00  0.00    -0.034 A 
ATOM      5  C4  UNL d   1      -3.140  -4.275  -1.149  0.00  0.00     0.162 A 
ATOM      6  C5  UNL d   1      -2.129  -4.772  -1.966  0.00  0.00     0.062 A 
ATOM      7  F   UNL d   1      -2.240  -6.000  -2.494  0.00  0.00    -0.097 F 
ATOM      8  F1  UNL d   1      -4.213  -5.041  -0.904  0.00  0.00    -0.096 F 
ATOM      9  I   UNL d   1      -4.543  -2.251   0.628  0.00  0.00    -0.060 I 
ATOM     10  F2  UNL d   1      -1.768  -0.998  -0.356  0.00  0.00    -0.096 F 
ATOM     11  F3  UNL d   1       0.188  -1.984  -1.949  0.00  0.00    -0.097 F 
ATOM     12  F4  UNL d   1      -0.036  -4.481  -3.023  0.00  0.00    -0.092 F 
ENDROOT
TORSDOF 0
ENDMDL
