MODEL 1
REMARK minimizedAffinity 11.2536011
REMARK minimizedRMSD -1
REMARK  0 active torsions:
REMARK  status: ('A' for Active; 'I' for Inactive)
ROOT
ATOM      1  C   UNL d   1      -2.910  -2.096  -0.497  0.00  0.00     0.124 A 
ATOM      2  C1  UNL d   1      -3.878  -3.085  -0.395  0.00  0.00     0.062 A 
ATOM      3  C2  UNL d   1      -3.830  -4.201  -1.226  0.00  0.00     0.162 A 
ATOM      4  C3  UNL d   1      -2.809  -4.333  -2.167  0.00  0.00    -0.034 A 
ATOM      5  C4  UNL d   1      -1.839  -3.334  -2.265  0.00  0.00     0.162 A 
ATOM      6  C5  UNL d   1      -1.892  -2.221  -1.432  0.00  0.00     0.062 A 
ATOM      7  F   UNL d   1      -0.955  -1.267  -1.532  0.00  0.00    -0.097 F 
ATOM      8  F1  UNL d   1      -0.844  -3.430  -3.159  0.00  0.00    -0.096 F 
ATOM      9  I   UNL d   1      -2.734  -6.000  -3.412  0.00  0.00    -0.060 I 
ATOM     10  F2  UNL d   1      -4.779  -5.141  -1.105  0.00  0.00    -0.096 F 
ATOM     11  F3  UNL d   1      -4.863  -2.966   0.507  0.00  0.00    -0.097 F 
ATOM     12  F4  UNL d   1      -2.959  -1.024   0.303  0.00  0.00    -0.092 F 
ENDROOT
TORSDOF 0
ENDMDL
