MODEL 1
REMARK minimizedAffinity 16.8911266
REMARK minimizedRMSD -1
REMARK  0 active torsions:
REMARK  status: ('A' for Active; 'I' for Inactive)
ROOT
ATOM      1  C   UNL d   1       4.868  -1.652  -2.495  0.00  0.00     0.124 A 
ATOM      2  C1  UNL d   1       4.365  -1.363  -3.756  0.00  0.00     0.062 A 
ATOM      3  C2  UNL d   1       4.391  -2.328  -4.759  0.00  0.00     0.162 A 
ATOM      4  C3  UNL d   1       4.920  -3.593  -4.504  0.00  0.00    -0.034 A 
ATOM      5  C4  UNL d   1       5.425  -3.876  -3.233  0.00  0.00     0.162 A 
ATOM      6  C5  UNL d   1       5.397  -2.908  -2.235  0.00  0.00     0.062 A 
ATOM      7  F   UNL d   1       5.884  -3.189  -1.018  0.00  0.00    -0.097 F 
ATOM      8  F1  UNL d   1       5.941  -5.082  -2.954  0.00  0.00    -0.096 F 
ATOM      9  I   UNL d   1       4.960  -5.039  -6.000  0.00  0.00    -0.060 I 
ATOM     10  F2  UNL d   1       3.898  -2.021  -5.968  0.00  0.00    -0.096 F 
ATOM     11  F3  UNL d   1       3.854  -0.149  -4.010  0.00  0.00    -0.097 F 
ATOM     12  F4  UNL d   1       4.843  -0.721  -1.533  0.00  0.00    -0.092 F 
ENDROOT
TORSDOF 0
ENDMDL
