MODEL 1
REMARK minimizedAffinity 24.2194633
REMARK minimizedRMSD -1
REMARK  0 active torsions:
REMARK  status: ('A' for Active; 'I' for Inactive)
ROOT
ATOM      1  C   UNL d   1      -2.291  -3.826  -1.641  0.00  0.00     0.124 A 
ATOM      2  C1  UNL d   1      -3.313  -3.301  -0.863  0.00  0.00     0.062 A 
ATOM      3  C2  UNL d   1      -3.116  -2.122  -0.151  0.00  0.00     0.162 A 
ATOM      4  C3  UNL d   1      -1.890  -1.458  -0.214  0.00  0.00    -0.034 A 
ATOM      5  C4  UNL d   1      -0.866  -1.993  -0.998  0.00  0.00     0.162 A 
ATOM      6  C5  UNL d   1      -1.069  -3.172  -1.708  0.00  0.00     0.062 A 
ATOM      7  F   UNL d   1      -0.080  -3.678  -2.459  0.00  0.00    -0.097 F 
ATOM      8  F1  UNL d   1       0.324  -1.381  -1.081  0.00  0.00    -0.096 F 
ATOM      9  I   UNL d   1      -1.591   0.306   0.849  0.00  0.00    -0.060 I 
ATOM     10  F2  UNL d   1      -4.121  -1.637   0.593  0.00  0.00    -0.096 F 
ATOM     11  F3  UNL d   1      -4.494  -3.932  -0.796  0.00  0.00    -0.097 F 
ATOM     12  F4  UNL d   1      -2.483  -4.962  -2.324  0.00  0.00    -0.092 F 
ENDROOT
TORSDOF 0
ENDMDL
