MODEL 1
REMARK minimizedAffinity 11.7517557
REMARK minimizedRMSD -1
REMARK  0 active torsions:
REMARK  status: ('A' for Active; 'I' for Inactive)
ROOT
ATOM      1  C   UNL d   1      -0.311  -0.617   1.203  0.00  0.00     0.124 A 
ATOM      2  C1  UNL d   1      -1.003   0.407   0.571  0.00  0.00     0.062 A 
ATOM      3  C2  UNL d   1      -0.441   1.060  -0.522  0.00  0.00     0.162 A 
ATOM      4  C3  UNL d   1       0.819   0.691  -0.991  0.00  0.00    -0.034 A 
ATOM      5  C4  UNL d   1       1.510  -0.339  -0.349  0.00  0.00     0.162 A 
ATOM      6  C5  UNL d   1       0.944  -0.989   0.743  0.00  0.00     0.062 A 
ATOM      7  F   UNL d   1       1.614  -1.977   1.352  0.00  0.00    -0.097 F 
ATOM      8  F1  UNL d   1       2.724  -0.718  -0.774  0.00  0.00    -0.096 F 
ATOM      9  I   UNL d   1       1.662   1.666  -2.625  0.00  0.00    -0.060 I 
ATOM     10  F2  UNL d   1      -1.133   2.046  -1.113  0.00  0.00    -0.096 F 
ATOM     11  F3  UNL d   1      -2.215   0.768   1.015  0.00  0.00    -0.097 F 
ATOM     12  F4  UNL d   1      -0.853  -1.243   2.256  0.00  0.00    -0.092 F 
ENDROOT
TORSDOF 0
ENDMDL
