MODEL 1
REMARK minimizedAffinity 17.5560226
REMARK minimizedRMSD -1
REMARK  0 active torsions:
REMARK  status: ('A' for Active; 'I' for Inactive)
ROOT
ATOM      1  C   UNL d   1       2.601   2.401  -2.358  0.00  0.00     0.124 A 
ATOM      2  C1  UNL d   1       3.500   3.263  -1.745  0.00  0.00     0.062 A 
ATOM      3  C2  UNL d   1       3.139   3.943  -0.586  0.00  0.00     0.162 A 
ATOM      4  C3  UNL d   1       1.872   3.764  -0.031  0.00  0.00    -0.034 A 
ATOM      5  C4  UNL d   1       0.972   2.896  -0.653  0.00  0.00     0.162 A 
ATOM      6  C5  UNL d   1       1.339   2.219  -1.812  0.00  0.00     0.062 A 
ATOM      7  F   UNL d   1       0.468   1.386  -2.402  0.00  0.00    -0.097 F 
ATOM      8  F1  UNL d   1      -0.254   2.701  -0.146  0.00  0.00    -0.096 F 
ATOM      9  I   UNL d   1       1.327   4.779   1.702  0.00  0.00    -0.060 I 
ATOM     10  F2  UNL d   1       4.028   4.769  -0.015  0.00  0.00    -0.096 F 
ATOM     11  F3  UNL d   1       4.720   3.441  -2.271  0.00  0.00    -0.097 F 
ATOM     12  F4  UNL d   1       2.951   1.748  -3.474  0.00  0.00    -0.092 F 
ENDROOT
TORSDOF 0
ENDMDL
