MODEL 1
REMARK minimizedAffinity 21.687191
REMARK minimizedRMSD -1
REMARK  0 active torsions:
REMARK  status: ('A' for Active; 'I' for Inactive)
ROOT
ATOM      1  C   UNL d   1       4.565  -1.635  -2.542  0.00  0.00     0.124 A 
ATOM      2  C1  UNL d   1       4.302  -1.659  -3.904  0.00  0.00     0.062 A 
ATOM      3  C2  UNL d   1       4.608  -2.790  -4.656  0.00  0.00     0.162 A 
ATOM      4  C3  UNL d   1       5.180  -3.906  -4.047  0.00  0.00    -0.034 A 
ATOM      5  C4  UNL d   1       5.443  -3.874  -2.677  0.00  0.00     0.162 A 
ATOM      6  C5  UNL d   1       5.135  -2.742  -1.929  0.00  0.00     0.062 A 
ATOM      7  F   UNL d   1       5.390  -2.721  -0.613  0.00  0.00    -0.097 F 
ATOM      8  F1  UNL d   1       5.993  -4.931  -2.059  0.00  0.00    -0.096 F 
ATOM      9  I   UNL d   1       5.640  -5.599  -5.169  0.00  0.00    -0.060 I 
ATOM     10  F2  UNL d   1       4.343  -2.785  -5.971  0.00  0.00    -0.096 F 
ATOM     11  F3  UNL d   1       3.752  -0.590  -4.498  0.00  0.00    -0.097 F 
ATOM     12  F4  UNL d   1       4.270  -0.546  -1.820  0.00  0.00    -0.092 F 
ENDROOT
TORSDOF 0
ENDMDL
