MODEL 1
REMARK minimizedAffinity 11.364954
REMARK minimizedRMSD -1
REMARK  0 active torsions:
REMARK  status: ('A' for Active; 'I' for Inactive)
ROOT
ATOM      1  C2' OXE d   1      -0.872   0.475   1.232  0.00  0.00     0.078 C 
ATOM      2  C1' OXE d   1       1.872  -0.113   1.271  0.00  0.00     0.078 C 
ATOM      3  C1  OXE d   1       0.905  -1.270   1.287  0.00  0.00    -0.078 A 
ATOM      4  C2  OXE d   1      -0.436  -0.972   1.314  0.00  0.00    -0.078 A 
ATOM      5  C3  OXE d   1      -1.372  -2.002   1.274  0.00  0.00     0.003 A 
ATOM      6  C4  OXE d   1      -0.960  -3.337   1.360  0.00  0.00    -0.002 A 
ATOM      7  C5  OXE d   1       0.400  -3.661   1.373  0.00  0.00    -0.002 A 
ATOM      8  C6  OXE d   1       1.344  -2.643   1.294  0.00  0.00     0.003 A 
ENDROOT
TORSDOF 0
ENDMDL
