MODEL 1
REMARK minimizedAffinity 11.65522
REMARK minimizedRMSD -1
REMARK  0 active torsions:
REMARK  status: ('A' for Active; 'I' for Inactive)
ROOT
ATOM      1  C2' OXE d   1       2.952  -0.097   0.138  0.00  0.00     0.078 C 
ATOM      2  C1' OXE d   1       0.829   1.063   1.562  0.00  0.00     0.078 C 
ATOM      3  C1  OXE d   1       1.299  -0.305   1.989  0.00  0.00    -0.078 A 
ATOM      4  C2  OXE d   1       2.307  -0.885   1.257  0.00  0.00    -0.078 A 
ATOM      5  C3  OXE d   1       2.814  -2.123   1.642  0.00  0.00     0.003 A 
ATOM      6  C4  OXE d   1       2.205  -2.849   2.673  0.00  0.00    -0.002 A 
ATOM      7  C5  OXE d   1       1.151  -2.294   3.406  0.00  0.00    -0.002 A 
ATOM      8  C6  OXE d   1       0.715  -1.008   3.105  0.00  0.00     0.003 A 
ENDROOT
TORSDOF 0
ENDMDL
