MODEL 1
REMARK minimizedAffinity 13.4585915
REMARK minimizedRMSD -1
REMARK  0 active torsions:
REMARK  status: ('A' for Active; 'I' for Inactive)
ROOT
ATOM      1  C2' OXE d   1       3.240  -3.055   2.045  0.00  0.00     0.078 C 
ATOM      2  C1' OXE d   1       3.429  -0.794   0.391  0.00  0.00     0.078 C 
ATOM      3  C1  OXE d   1       2.260  -0.875   1.342  0.00  0.00    -0.078 A 
ATOM      4  C2  OXE d   1       2.151  -2.006   2.114  0.00  0.00    -0.078 A 
ATOM      5  C3  OXE d   1       1.122  -2.107   3.047  0.00  0.00     0.003 A 
ATOM      6  C4  OXE d   1       0.114  -1.137   3.098  0.00  0.00    -0.002 A 
ATOM      7  C5  OXE d   1       0.185   0.004   2.292  0.00  0.00    -0.002 A 
ATOM      8  C6  OXE d   1       1.272   0.171   1.441  0.00  0.00     0.003 A 
ENDROOT
TORSDOF 0
ENDMDL
