MODEL 1
REMARK minimizedAffinity 9.18684292
REMARK minimizedRMSD -1
REMARK  0 active torsions:
REMARK  status: ('A' for Active; 'I' for Inactive)
ROOT
ATOM      1  C2' OXE d   1      -4.131  -2.806  -2.761  0.00  0.00     0.078 C 
ATOM      2  C1' OXE d   1      -3.251  -5.464  -2.565  0.00  0.00     0.078 C 
ATOM      3  C1  OXE d   1      -4.034  -5.071  -3.793  0.00  0.00    -0.078 A 
ATOM      4  C2  OXE d   1      -4.501  -3.780  -3.858  0.00  0.00    -0.078 A 
ATOM      5  C3  OXE d   1      -5.182  -3.350  -4.994  0.00  0.00     0.003 A 
ATOM      6  C4  OXE d   1      -5.529  -4.260  -6.000  0.00  0.00    -0.002 A 
ATOM      7  C5  OXE d   1      -5.097  -5.589  -5.934  0.00  0.00    -0.002 A 
ATOM      8  C6  OXE d   1      -4.315  -5.999  -4.860  0.00  0.00     0.003 A 
ENDROOT
TORSDOF 0
ENDMDL
