MODEL 1
REMARK minimizedAffinity 10.8639479
REMARK minimizedRMSD -1
REMARK  0 active torsions:
REMARK  status: ('A' for Active; 'I' for Inactive)
ROOT
ATOM      1  C2' OXE d   1      -4.852   2.255  -5.752  0.00  0.00     0.078 C 
ATOM      2  C1' OXE d   1      -5.999   4.244  -4.138  0.00  0.00     0.078 C 
ATOM      3  C1  OXE d   1      -5.712   2.904  -3.507  0.00  0.00    -0.078 A 
ATOM      4  C2  OXE d   1      -5.195   1.922  -4.316  0.00  0.00    -0.078 A 
ATOM      5  C3  OXE d   1      -4.861   0.685  -3.772  0.00  0.00     0.003 A 
ATOM      6  C4  OXE d   1      -5.190   0.382  -2.445  0.00  0.00    -0.002 A 
ATOM      7  C5  OXE d   1      -5.755   1.356  -1.614  0.00  0.00    -0.002 A 
ATOM      8  C6  OXE d   1      -5.982   2.632  -2.116  0.00  0.00     0.003 A 
ENDROOT
TORSDOF 0
ENDMDL
