MODEL 1
REMARK minimizedAffinity -1.36693573
REMARK minimizedRMSD -1
REMARK  0 active torsions:
REMARK  status: ('A' for Active; 'I' for Inactive)
ROOT
ATOM      1  C2' OXE d   1       3.377  -0.364  -3.749  0.00  0.00     0.078 C 
ATOM      2  C1' OXE d   1       5.448  -0.389  -5.645  0.00  0.00     0.078 C 
ATOM      3  C1  OXE d   1       4.772   0.929  -5.358  0.00  0.00    -0.078 A 
ATOM      4  C2  OXE d   1       3.728   0.923  -4.464  0.00  0.00    -0.078 A 
ATOM      5  C3  OXE d   1       3.106   2.120  -4.122  0.00  0.00     0.003 A 
ATOM      6  C4  OXE d   1       3.431   3.305  -4.795  0.00  0.00    -0.002 A 
ATOM      7  C5  OXE d   1       4.463   3.325  -5.739  0.00  0.00    -0.002 A 
ATOM      8  C6  OXE d   1       5.171   2.157  -6.000  0.00  0.00     0.003 A 
ENDROOT
TORSDOF 0
ENDMDL
