MODEL 1
REMARK minimizedAffinity 17.2820053
REMARK minimizedRMSD -1
REMARK  0 active torsions:
REMARK  status: ('A' for Active; 'I' for Inactive)
ROOT
ATOM      1  C2' OXE d   1       1.891  -2.982   3.004  0.00  0.00     0.078 C 
ATOM      2  C1' OXE d   1       2.531  -5.623   2.300  0.00  0.00     0.078 C 
ATOM      3  C1  OXE d   1       3.653  -4.617   2.350  0.00  0.00    -0.078 A 
ATOM      4  C2  OXE d   1       3.324  -3.317   2.649  0.00  0.00    -0.078 A 
ATOM      5  C3  OXE d   1       4.328  -2.359   2.762  0.00  0.00     0.003 A 
ATOM      6  C4  OXE d   1       5.649  -2.675   2.422  0.00  0.00    -0.002 A 
ATOM      7  C5  OXE d   1       6.000  -3.984   2.076  0.00  0.00    -0.002 A 
ATOM      8  C6  OXE d   1       5.023  -4.974   2.076  0.00  0.00     0.003 A 
ENDROOT
TORSDOF 0
ENDMDL
