MODEL 1
REMARK minimizedAffinity 11.3353987
REMARK minimizedRMSD -1
REMARK  0 active torsions:
REMARK  status: ('A' for Active; 'I' for Inactive)
ROOT
ATOM      1  C2' OXE d   1       0.767  -2.641   3.558  0.00  0.00     0.078 C 
ATOM      2  C1' OXE d   1       1.934  -3.687   1.229  0.00  0.00     0.078 C 
ATOM      3  C1  OXE d   1       1.838  -2.187   1.355  0.00  0.00    -0.078 A 
ATOM      4  C2  OXE d   1       1.224  -1.685   2.477  0.00  0.00    -0.078 A 
ATOM      5  C3  OXE d   1       1.158  -0.308   2.669  0.00  0.00     0.003 A 
ATOM      6  C4  OXE d   1       1.574   0.569   1.660  0.00  0.00    -0.002 A 
ATOM      7  C5  OXE d   1       2.167   0.077   0.492  0.00  0.00    -0.002 A 
ATOM      8  C6  OXE d   1       2.345  -1.294   0.343  0.00  0.00     0.003 A 
ENDROOT
TORSDOF 0
ENDMDL
