MODEL 1
REMARK minimizedAffinity 14.9427052
REMARK minimizedRMSD -1
REMARK  0 active torsions:
REMARK  status: ('A' for Active; 'I' for Inactive)
ROOT
ATOM      1  C2' OXE d   1       2.361   1.594   1.981  0.00  0.00     0.078 C 
ATOM      2  C1' OXE d   1       1.967  -1.113   1.352  0.00  0.00     0.078 C 
ATOM      3  C1  OXE d   1       1.572  -0.647   2.731  0.00  0.00    -0.078 A 
ATOM      4  C2  OXE d   1       1.812   0.669   3.046  0.00  0.00    -0.078 A 
ATOM      5  C3  OXE d   1       1.417   1.164   4.286  0.00  0.00     0.003 A 
ATOM      6  C4  OXE d   1       0.919   0.300   5.268  0.00  0.00    -0.002 A 
ATOM      7  C5  OXE d   1       0.704  -1.052   4.981  0.00  0.00    -0.002 A 
ATOM      8  C6  OXE d   1       0.985  -1.532   3.707  0.00  0.00     0.003 A 
ENDROOT
TORSDOF 0
ENDMDL
