MODEL 1
REMARK minimizedAffinity 8.80452728
REMARK minimizedRMSD -1
REMARK  0 active torsions:
REMARK  status: ('A' for Active; 'I' for Inactive)
ROOT
ATOM      1  C2' OXE d   1      -1.294   2.478   1.264  0.00  0.00     0.078 C 
ATOM      2  C1' OXE d   1      -1.967   3.219  -1.358  0.00  0.00     0.078 C 
ATOM      3  C1  OXE d   1      -3.010   3.405  -0.285  0.00  0.00    -0.078 A 
ATOM      4  C2  OXE d   1      -2.688   2.996   0.987  0.00  0.00    -0.078 A 
ATOM      5  C3  OXE d   1      -3.594   3.195   2.025  0.00  0.00     0.003 A 
ATOM      6  C4  OXE d   1      -4.886   3.665   1.758  0.00  0.00    -0.002 A 
ATOM      7  C5  OXE d   1      -5.248   4.050   0.463  0.00  0.00    -0.002 A 
ATOM      8  C6  OXE d   1      -4.310   3.967  -0.560  0.00  0.00     0.003 A 
ENDROOT
TORSDOF 0
ENDMDL
