MODEL 1
REMARK minimizedAffinity 6.78174257
REMARK minimizedRMSD -1
REMARK  0 active torsions:
REMARK  status: ('A' for Active; 'I' for Inactive)
ROOT
ATOM      1  C2' OXE d   1       1.866  -1.827   1.008  0.00  0.00     0.078 C 
ATOM      2  C1' OXE d   1       1.998  -2.253  -1.764  0.00  0.00     0.078 C 
ATOM      3  C1  OXE d   1       0.637  -2.259  -1.115  0.00  0.00    -0.078 A 
ATOM      4  C2  OXE d   1       0.585  -2.096   0.249  0.00  0.00    -0.078 A 
ATOM      5  C3  OXE d   1      -0.649  -2.038   0.890  0.00  0.00     0.003 A 
ATOM      6  C4  OXE d   1      -1.829  -2.298   0.182  0.00  0.00    -0.002 A 
ATOM      7  C5  OXE d   1      -1.795  -2.506  -1.201  0.00  0.00    -0.002 A 
ATOM      8  C6  OXE d   1      -0.578  -2.447  -1.870  0.00  0.00     0.003 A 
ENDROOT
TORSDOF 0
ENDMDL
