MODEL 1
REMARK minimizedAffinity 6.06643581
REMARK minimizedRMSD -1
REMARK  1 active torsions:
REMARK  status: ('A' for Active; 'I' for Inactive)
REMARK    1  A    between atoms: C3_4  and  O_7 
ROOT
ATOM      1  C   UNL d   1      -0.077  -1.316  -5.018  0.00  0.00    -0.033 A 
ATOM      2  C1  UNL d   1      -1.308  -0.874  -5.506  0.00  0.00     0.039 A 
ATOM      3  C2  UNL d   1      -2.460  -1.014  -4.729  0.00  0.00    -0.080 A 
ATOM      4  C3  UNL d   1      -2.366  -1.595  -3.467  0.00  0.00     0.150 A 
ATOM      5  C4  UNL d   1      -1.142  -2.034  -2.973  0.00  0.00    -0.007 A 
ATOM      6  C5  UNL d   1       0.006  -1.895  -3.751  0.00  0.00     0.039 A 
ENDROOT
BRANCH   4   7
ATOM      7  O   UNL d   1      -3.464  -1.757  -2.675  0.00  0.00    -0.526 OA
ATOM      8  H5  UNL d   1      -4.243  -1.435  -3.158  0.00  0.00     0.418 HD
ENDBRANCH   4   7
TORSDOF 1
ENDMDL
