MODEL 1
REMARK minimizedAffinity 1.77881992
REMARK minimizedRMSD -1
REMARK  1 active torsions:
REMARK  status: ('A' for Active; 'I' for Inactive)
REMARK    1  A    between atoms: C3_4  and  O_7 
ROOT
ATOM      1  C   UNL d   1       0.880   4.339  -5.998  0.00  0.00    -0.033 A 
ATOM      2  C1  UNL d   1      -0.382   3.768  -5.827  0.00  0.00     0.039 A 
ATOM      3  C2  UNL d   1      -1.276   4.310  -4.902  0.00  0.00    -0.080 A 
ATOM      4  C3  UNL d   1      -0.897   5.423  -4.157  0.00  0.00     0.150 A 
ATOM      5  C4  UNL d   1       0.357   6.000  -4.325  0.00  0.00    -0.007 A 
ATOM      6  C5  UNL d   1       1.249   5.457  -5.248  0.00  0.00     0.039 A 
ENDROOT
BRANCH   4   7
ATOM      7  O   UNL d   1      -1.734   5.984  -3.239  0.00  0.00    -0.526 OA
ATOM      8  H5  UNL d   1      -2.554   5.463  -3.210  0.00  0.00     0.418 HD
ENDBRANCH   4   7
TORSDOF 1
ENDMDL
