MODEL 1
REMARK minimizedAffinity -0.857363641
REMARK minimizedRMSD -1
REMARK  1 active torsions:
REMARK  status: ('A' for Active; 'I' for Inactive)
REMARK    1  A    between atoms: C3_4  and  O_7 
ROOT
ATOM      1  C   UNL d   1       1.884   2.695  -1.163  0.00  0.00    -0.033 A 
ATOM      2  C1  UNL d   1       1.681   1.400  -1.644  0.00  0.00     0.039 A 
ATOM      3  C2  UNL d   1       1.169   0.412  -0.801  0.00  0.00    -0.080 A 
ATOM      4  C3  UNL d   1       0.863   0.731   0.519  0.00  0.00     0.150 A 
ATOM      5  C4  UNL d   1       1.058   2.020   1.004  0.00  0.00    -0.007 A 
ATOM      6  C5  UNL d   1       1.571   3.005   0.161  0.00  0.00     0.039 A 
ENDROOT
BRANCH   4   7
ATOM      7  O   UNL d   1       0.365  -0.201   1.380  0.00  0.00    -0.526 OA
ATOM      8  H5  UNL d   1       0.310  -1.052   0.915  0.00  0.00     0.418 HD
ENDBRANCH   4   7
TORSDOF 1
ENDMDL
