MODEL 1
REMARK minimizedAffinity 0.25804022
REMARK minimizedRMSD -1
REMARK  1 active torsions:
REMARK  status: ('A' for Active; 'I' for Inactive)
REMARK    1  A    between atoms: C3_4  and  O_7 
ROOT
ATOM      1  C   UNL d   1      -1.575   5.997  -2.326  0.00  0.00    -0.033 A 
ATOM      2  C1  UNL d   1      -2.077   5.998  -3.630  0.00  0.00     0.039 A 
ATOM      3  C2  UNL d   1      -3.456   5.996  -3.849  0.00  0.00    -0.080 A 
ATOM      4  C3  UNL d   1      -4.321   5.992  -2.759  0.00  0.00     0.150 A 
ATOM      5  C4  UNL d   1      -3.828   5.994  -1.458  0.00  0.00    -0.007 A 
ATOM      6  C5  UNL d   1      -2.451   5.996  -1.240  0.00  0.00     0.039 A 
ENDROOT
BRANCH   4   7
ATOM      7  O   UNL d   1      -5.674   5.985  -2.923  0.00  0.00    -0.526 OA
ATOM      8  H5  UNL d   1      -5.869   5.955  -3.874  0.00  0.00     0.418 HD
ENDBRANCH   4   7
TORSDOF 1
ENDMDL
