MODEL 1
REMARK minimizedAffinity 0.0486917384
REMARK minimizedRMSD -1
REMARK  1 active torsions:
REMARK  status: ('A' for Active; 'I' for Inactive)
REMARK    1  A    between atoms: C3_4  and  O_7 
ROOT
ATOM      1  C   UNL d   1       4.762   5.898  -5.999  0.00  0.00    -0.033 A 
ATOM      2  C1  UNL d   1       3.658   5.480  -5.253  0.00  0.00     0.039 A 
ATOM      3  C2  UNL d   1       3.723   4.300  -4.508  0.00  0.00    -0.080 A 
ATOM      4  C3  UNL d   1       4.895   3.550  -4.517  0.00  0.00     0.150 A 
ATOM      5  C4  UNL d   1       6.000   3.963  -5.255  0.00  0.00    -0.007 A 
ATOM      6  C5  UNL d   1       5.933   5.140  -5.999  0.00  0.00     0.039 A 
ENDROOT
BRANCH   4   7
ATOM      7  O   UNL d   1       5.004   2.389  -3.810  0.00  0.00    -0.526 OA
ATOM      8  H5  UNL d   1       4.155   2.215  -3.372  0.00  0.00     0.418 HD
ENDBRANCH   4   7
TORSDOF 1
ENDMDL
