MODEL 1
REMARK minimizedAffinity -0.234710813
REMARK minimizedRMSD -1
REMARK  1 active torsions:
REMARK  status: ('A' for Active; 'I' for Inactive)
REMARK    1  A    between atoms: C3_4  and  O_7 
ROOT
ATOM      1  C   UNL d   1       5.645   4.990  -4.813  0.00  0.00    -0.033 A 
ATOM      2  C1  UNL d   1       4.797   3.981  -4.352  0.00  0.00     0.039 A 
ATOM      3  C2  UNL d   1       3.448   3.981  -4.712  0.00  0.00    -0.080 A 
ATOM      4  C3  UNL d   1       2.960   4.994  -5.534  0.00  0.00     0.150 A 
ATOM      5  C4  UNL d   1       3.800   6.000  -6.000  0.00  0.00    -0.007 A 
ATOM      6  C5  UNL d   1       5.146   5.999  -5.638  0.00  0.00     0.039 A 
ENDROOT
BRANCH   4   7
ATOM      7  O   UNL d   1       1.650   5.039  -5.908  0.00  0.00    -0.526 OA
ATOM      8  H5  UNL d   1       1.184   4.297  -5.487  0.00  0.00     0.418 HD
ENDBRANCH   4   7
TORSDOF 1
ENDMDL
