MODEL 1
REMARK minimizedAffinity 6.08378696
REMARK minimizedRMSD -1
REMARK  1 active torsions:
REMARK  status: ('A' for Active; 'I' for Inactive)
REMARK    1  A    between atoms: C3_4  and  O_7 
ROOT
ATOM      1  C   UNL d   1      -2.990   5.987  -4.534  0.00  0.00    -0.033 A 
ATOM      2  C1  UNL d   1      -1.613   5.987  -4.766  0.00  0.00     0.039 A 
ATOM      3  C2  UNL d   1      -0.722   5.990  -3.690  0.00  0.00    -0.080 A 
ATOM      4  C3  UNL d   1      -1.220   5.992  -2.390  0.00  0.00     0.150 A 
ATOM      5  C4  UNL d   1      -2.591   5.987  -2.152  0.00  0.00    -0.007 A 
ATOM      6  C5  UNL d   1      -3.479   5.985  -3.227  0.00  0.00     0.039 A 
ENDROOT
BRANCH   4   7
ATOM      7  O   UNL d   1      -0.390   6.000  -1.309  0.00  0.00    -0.526 OA
ATOM      8  H5  UNL d   1       0.528   6.031  -1.626  0.00  0.00     0.418 HD
ENDBRANCH   4   7
TORSDOF 1
ENDMDL
