MODEL 1
REMARK minimizedAffinity 0.108069174
REMARK minimizedRMSD -1
REMARK  1 active torsions:
REMARK  status: ('A' for Active; 'I' for Inactive)
REMARK    1  A    between atoms: C3_4  and  O_7 
ROOT
ATOM      1  C   UNL d   1      -1.076   5.995  -0.916  0.00  0.00    -0.033 A 
ATOM      2  C1  UNL d   1      -0.805   5.998  -2.286  0.00  0.00     0.039 A 
ATOM      3  C2  UNL d   1      -1.855   6.000  -3.207  0.00  0.00    -0.080 A 
ATOM      4  C3  UNL d   1      -3.168   5.999  -2.746  0.00  0.00     0.150 A 
ATOM      5  C4  UNL d   1      -3.446   6.000  -1.383  0.00  0.00    -0.007 A 
ATOM      6  C5  UNL d   1      -2.397   5.997  -0.465  0.00  0.00     0.039 A 
ENDROOT
BRANCH   4   7
ATOM      7  O   UNL d   1      -4.225   5.996  -3.607  0.00  0.00    -0.526 OA
ATOM      8  H5  UNL d   1      -3.882   5.967  -4.516  0.00  0.00     0.418 HD
ENDBRANCH   4   7
TORSDOF 1
ENDMDL
