MODEL 1
REMARK minimizedAffinity -0.0837271437
REMARK minimizedRMSD -1
REMARK  1 active torsions:
REMARK  status: ('A' for Active; 'I' for Inactive)
REMARK    1  A    between atoms: C3_4  and  O_7 
ROOT
ATOM      1  C   UNL d   1      -3.556   5.991  -1.982  0.00  0.00    -0.033 A 
ATOM      2  C1  UNL d   1      -3.783   5.999  -3.360  0.00  0.00     0.039 A 
ATOM      3  C2  UNL d   1      -2.704   6.000  -4.247  0.00  0.00    -0.080 A 
ATOM      4  C3  UNL d   1      -1.406   5.991  -3.744  0.00  0.00     0.150 A 
ATOM      5  C4  UNL d   1      -1.173   5.979  -2.373  0.00  0.00    -0.007 A 
ATOM      6  C5  UNL d   1      -2.251   5.979  -1.489  0.00  0.00     0.039 A 
ENDROOT
BRANCH   4   7
ATOM      7  O   UNL d   1      -0.322   5.996  -4.571  0.00  0.00    -0.526 OA
ATOM      8  H5  UNL d   1      -0.636   6.034  -5.490  0.00  0.00     0.418 HD
ENDBRANCH   4   7
TORSDOF 1
ENDMDL
