MODEL 1
REMARK minimizedAffinity -2.46336722
REMARK minimizedRMSD -1
REMARK  1 active torsions:
REMARK  status: ('A' for Active; 'I' for Inactive)
REMARK    1  A    between atoms: C3_4  and  O_7 
ROOT
ATOM      1  C   UNL d   1       1.151   5.653  -4.945  0.00  0.00    -0.033 A 
ATOM      2  C1  UNL d   1       0.241   5.548  -5.999  0.00  0.00     0.039 A 
ATOM      3  C2  UNL d   1      -1.128   5.663  -5.755  0.00  0.00    -0.080 A 
ATOM      4  C3  UNL d   1      -1.575   5.885  -4.455  0.00  0.00     0.150 A 
ATOM      5  C4  UNL d   1      -0.673   5.994  -3.401  0.00  0.00    -0.007 A 
ATOM      6  C5  UNL d   1       0.694   5.878  -3.647  0.00  0.00     0.039 A 
ENDROOT
BRANCH   4   7
ATOM      7  O   UNL d   1      -2.902   6.000  -4.167  0.00  0.00    -0.526 OA
ATOM      8  H5  UNL d   1      -3.407   5.874  -4.988  0.00  0.00     0.418 HD
ENDBRANCH   4   7
TORSDOF 1
ENDMDL
