MODEL 1
REMARK minimizedAffinity -3.52389932
REMARK minimizedRMSD -1
REMARK  1 active torsions:
REMARK  status: ('A' for Active; 'I' for Inactive)
REMARK    1  A    between atoms: C3_4  and  O_7 
ROOT
ATOM      1  C   UNL d   1       1.001   5.611  -5.999  0.00  0.00    -0.033 A 
ATOM      2  C1  UNL d   1      -0.339   5.249  -5.842  0.00  0.00     0.039 A 
ATOM      3  C2  UNL d   1      -0.923   5.259  -4.574  0.00  0.00    -0.080 A 
ATOM      4  C3  UNL d   1      -0.159   5.634  -3.473  0.00  0.00     0.150 A 
ATOM      5  C4  UNL d   1       1.175   6.000  -3.622  0.00  0.00    -0.007 A 
ATOM      6  C5  UNL d   1       1.757   5.988  -4.888  0.00  0.00     0.039 A 
ENDROOT
BRANCH   4   7
ATOM      7  O   UNL d   1      -0.684   5.655  -2.215  0.00  0.00    -0.526 OA
ATOM      8  H5  UNL d   1      -1.606   5.351  -2.261  0.00  0.00     0.418 HD
ENDBRANCH   4   7
TORSDOF 1
ENDMDL
