MODEL 1
REMARK minimizedAffinity 6.68502951
REMARK minimizedRMSD -1
REMARK  1 active torsions:
REMARK  status: ('A' for Active; 'I' for Inactive)
REMARK    1  A    between atoms: C3_4  and  O_7 
ROOT
ATOM      1  C   UNL d   1      -3.988   5.929   0.228  0.00  0.00    -0.033 A 
ATOM      2  C1  UNL d   1      -2.678   5.922   0.711  0.00  0.00     0.039 A 
ATOM      3  C2  UNL d   1      -1.603   5.947  -0.180  0.00  0.00    -0.080 A 
ATOM      4  C3  UNL d   1      -1.852   5.979  -1.549  0.00  0.00     0.150 A 
ATOM      5  C4  UNL d   1      -3.154   5.990  -2.037  0.00  0.00    -0.007 A 
ATOM      6  C5  UNL d   1      -4.226   5.965  -1.146  0.00  0.00     0.039 A 
ENDROOT
BRANCH   4   7
ATOM      7  O   UNL d   1      -0.835   5.999  -2.457  0.00  0.00    -0.526 OA
ATOM      8  H5  UNL d   1       0.008   5.959  -1.976  0.00  0.00     0.418 HD
ENDBRANCH   4   7
TORSDOF 1
ENDMDL
