MODEL 1
REMARK minimizedAffinity 0.754872859
REMARK minimizedRMSD -1
REMARK  1 active torsions:
REMARK  status: ('A' for Active; 'I' for Inactive)
REMARK    1  A    between atoms: C3_4  and  O_7 
ROOT
ATOM      1  C   UNL d   1      -0.152   5.966  -4.545  0.00  0.00    -0.033 A 
ATOM      2  C1  UNL d   1       0.689   5.979  -3.430  0.00  0.00     0.039 A 
ATOM      3  C2  UNL d   1       2.075   5.992  -3.598  0.00  0.00    -0.080 A 
ATOM      4  C3  UNL d   1       2.607   5.992  -4.885  0.00  0.00     0.150 A 
ATOM      5  C4  UNL d   1       1.775   5.983  -6.000  0.00  0.00    -0.007 A 
ATOM      6  C5  UNL d   1       0.392   5.969  -5.830  0.00  0.00     0.039 A 
ENDROOT
BRANCH   4   7
ATOM      7  O   UNL d   1       3.953   6.000  -5.099  0.00  0.00    -0.526 OA
ATOM      8  H5  UNL d   1       4.402   5.977  -4.237  0.00  0.00     0.418 HD
ENDBRANCH   4   7
TORSDOF 1
ENDMDL
