MODEL 1
REMARK minimizedAffinity -2.70461416
REMARK minimizedRMSD -1
REMARK  1 active torsions:
REMARK  status: ('A' for Active; 'I' for Inactive)
REMARK    1  A    between atoms: C3_4  and  O_7 
ROOT
ATOM      1  C   UNL d   1       0.021   4.687  -4.931  0.00  0.00    -0.033 A 
ATOM      2  C1  UNL d   1       0.546   5.626  -4.040  0.00  0.00     0.039 A 
ATOM      3  C2  UNL d   1       1.889   5.998  -4.126  0.00  0.00    -0.080 A 
ATOM      4  C3  UNL d   1       2.695   5.425  -5.106  0.00  0.00     0.150 A 
ATOM      5  C4  UNL d   1       2.178   4.492  -5.999  0.00  0.00    -0.007 A 
ATOM      6  C5  UNL d   1       0.837   4.122  -5.911  0.00  0.00     0.039 A 
ENDROOT
BRANCH   4   7
ATOM      7  O   UNL d   1       4.013   5.753  -5.226  0.00  0.00    -0.526 OA
ATOM      8  H5  UNL d   1       4.237   6.387  -4.524  0.00  0.00     0.418 HD
ENDBRANCH   4   7
TORSDOF 1
ENDMDL
