MODEL 1
REMARK minimizedAffinity -1.21533978
REMARK minimizedRMSD -1
REMARK  1 active torsions:
REMARK  status: ('A' for Active; 'I' for Inactive)
REMARK    1  A    between atoms: C3_4  and  O_7 
ROOT
ATOM      1  C   UNL d   1      -1.068   5.997  -3.818  0.00  0.00    -0.033 A 
ATOM      2  C1  UNL d   1      -2.242   5.999  -4.574  0.00  0.00     0.039 A 
ATOM      3  C2  UNL d   1      -3.485   5.999  -3.938  0.00  0.00    -0.080 A 
ATOM      4  C3  UNL d   1      -3.540   5.997  -2.547  0.00  0.00     0.150 A 
ATOM      5  C4  UNL d   1      -2.375   5.999  -1.787  0.00  0.00    -0.007 A 
ATOM      6  C5  UNL d   1      -1.135   5.998  -2.424  0.00  0.00     0.039 A 
ENDROOT
BRANCH   4   7
ATOM      7  O   UNL d   1      -4.730   5.992  -1.882  0.00  0.00    -0.526 OA
ATOM      8  H5  UNL d   1      -5.448   5.962  -2.536  0.00  0.00     0.418 HD
ENDBRANCH   4   7
TORSDOF 1
ENDMDL
