MODEL 1
REMARK minimizedAffinity 1.19877887
REMARK minimizedRMSD -1
REMARK  1 active torsions:
REMARK  status: ('A' for Active; 'I' for Inactive)
REMARK    1  A    between atoms: C3_4  and  O_7 
ROOT
ATOM      1  C   UNL d   1       1.068   4.768  -5.667  0.00  0.00    -0.033 A 
ATOM      2  C1  UNL d   1       1.804   3.629  -5.336  0.00  0.00     0.039 A 
ATOM      3  C2  UNL d   1       3.200   3.673  -5.338  0.00  0.00    -0.080 A 
ATOM      4  C3  UNL d   1       3.846   4.860  -5.672  0.00  0.00     0.150 A 
ATOM      5  C4  UNL d   1       3.118   6.000  -6.000  0.00  0.00    -0.007 A 
ATOM      6  C5  UNL d   1       1.725   5.954  -5.998  0.00  0.00     0.039 A 
ENDROOT
BRANCH   4   7
ATOM      7  O   UNL d   1       5.206   4.950  -5.693  0.00  0.00    -0.526 OA
ATOM      8  H5  UNL d   1       5.575   4.078  -5.474  0.00  0.00     0.418 HD
ENDBRANCH   4   7
TORSDOF 1
ENDMDL
