MODEL 1
REMARK minimizedAffinity 12.6055508
REMARK minimizedRMSD -1
REMARK  1 active torsions:
REMARK  status: ('A' for Active; 'I' for Inactive)
REMARK    1  A    between atoms: C1_2  and  C2_3 
ROOT
ATOM      1  C2  UNL d   1       4.348   0.475  -2.925  0.00  0.00    -0.081 A 
ATOM      2  C3  UNL d   1       3.008   0.845  -3.097  0.00  0.00     0.006 A 
ATOM      3  C4  UNL d   1       2.201   1.116  -1.989  0.00  0.00     0.002 A 
ATOM      4  C5  UNL d   1       2.721   1.029  -0.694  0.00  0.00    -0.080 A 
ATOM      5  C6  UNL d   1       1.873   1.347   0.502  0.00  0.00     0.076 C 
ATOM      6  C7  UNL d   1       4.054   0.643  -0.521  0.00  0.00     0.002 A 
ATOM      7  C8  UNL d   1       4.862   0.371  -1.628  0.00  0.00     0.006 A 
ENDROOT
BRANCH   1   8
ATOM      8  C1  UNL d   1       5.239   0.245  -4.119  0.00  0.00     0.054 C 
ATOM      9  C   UNL d   1       6.000   1.509  -4.493  0.00  0.00     0.018 C 
ENDBRANCH   1   8
TORSDOF 1
ENDMDL
