MODEL 1
REMARK minimizedAffinity 13.0854893
REMARK minimizedRMSD -1
REMARK  1 active torsions:
REMARK  status: ('A' for Active; 'I' for Inactive)
REMARK    1  A    between atoms: C1_2  and  C2_3 
ROOT
ATOM      1  C2  UNL d   1      -3.990  -0.976  -4.129  0.00  0.00    -0.081 A 
ATOM      2  C3  UNL d   1      -3.594   0.024  -3.233  0.00  0.00     0.006 A 
ATOM      3  C4  UNL d   1      -3.402  -0.273  -1.881  0.00  0.00     0.002 A 
ATOM      4  C5  UNL d   1      -3.594  -1.574  -1.406  0.00  0.00    -0.080 A 
ATOM      5  C6  UNL d   1      -3.362  -1.912   0.037  0.00  0.00     0.076 C 
ATOM      6  C7  UNL d   1      -4.007  -2.570  -2.298  0.00  0.00     0.002 A 
ATOM      7  C8  UNL d   1      -4.200  -2.274  -3.649  0.00  0.00     0.006 A 
ENDROOT
BRANCH   1   8
ATOM      8  C1  UNL d   1      -4.135  -0.674  -5.599  0.00  0.00     0.054 C 
ATOM      9  C   UNL d   1      -3.317   0.546  -5.997  0.00  0.00     0.018 C 
ENDBRANCH   1   8
TORSDOF 1
ENDMDL
