MODEL 1
REMARK minimizedAffinity 4.07999134
REMARK minimizedRMSD -1
REMARK  1 active torsions:
REMARK  status: ('A' for Active; 'I' for Inactive)
REMARK    1  A    between atoms: C1_2  and  C2_3 
ROOT
ATOM      1  C2  UNL d   1       4.963  -4.775   0.484  0.00  0.00    -0.081 A 
ATOM      2  C3  UNL d   1       5.335  -3.544   1.040  0.00  0.00     0.006 A 
ATOM      3  C4  UNL d   1       4.382  -2.729   1.655  0.00  0.00     0.002 A 
ATOM      4  C5  UNL d   1       3.044  -3.133   1.731  0.00  0.00    -0.080 A 
ATOM      5  C6  UNL d   1       2.017  -2.280   2.415  0.00  0.00     0.076 C 
ATOM      6  C7  UNL d   1       2.670  -4.354   1.160  0.00  0.00     0.002 A 
ATOM      7  C8  UNL d   1       3.622  -5.170   0.545  0.00  0.00     0.006 A 
ENDROOT
BRANCH   1   8
ATOM      8  C1  UNL d   1       6.000  -5.686  -0.122  0.00  0.00     0.054 C 
ATOM      9  C   UNL d   1       5.873  -5.737  -1.638  0.00  0.00     0.018 C 
ENDBRANCH   1   8
TORSDOF 1
ENDMDL
