MODEL 1
REMARK minimizedAffinity 10.4246168
REMARK minimizedRMSD -1
REMARK  1 active torsions:
REMARK  status: ('A' for Active; 'I' for Inactive)
REMARK    1  A    between atoms: C1_2  and  C2_3 
ROOT
ATOM      1  C2  UNL d   1       1.106  -1.429   0.671  0.00  0.00    -0.081 A 
ATOM      2  C3  UNL d   1       0.170  -1.602  -0.357  0.00  0.00     0.006 A 
ATOM      3  C4  UNL d   1       0.218  -0.801  -1.500  0.00  0.00     0.002 A 
ATOM      4  C5  UNL d   1       1.206   0.179  -1.639  0.00  0.00    -0.080 A 
ATOM      5  C6  UNL d   1       1.288   1.025  -2.875  0.00  0.00     0.076 C 
ATOM      6  C7  UNL d   1       2.131   0.364  -0.605  0.00  0.00     0.002 A 
ATOM      7  C8  UNL d   1       2.083  -0.436   0.539  0.00  0.00     0.006 A 
ENDROOT
BRANCH   1   8
ATOM      8  C1  UNL d   1       1.096  -2.334   1.876  0.00  0.00     0.054 C 
ATOM      9  C   UNL d   1       1.735  -3.680   1.563  0.00  0.00     0.018 C 
ENDBRANCH   1   8
TORSDOF 1
ENDMDL
