MODEL 1
REMARK minimizedAffinity 12.979146
REMARK minimizedRMSD -1
REMARK  1 active torsions:
REMARK  status: ('A' for Active; 'I' for Inactive)
REMARK    1  A    between atoms: C1_2  and  C2_3 
ROOT
ATOM      1  C2  UNL d   1       3.307  -2.776   4.348  0.00  0.00    -0.081 A 
ATOM      2  C3  UNL d   1       3.627  -3.431   3.152  0.00  0.00     0.006 A 
ATOM      3  C4  UNL d   1       2.887  -3.188   1.993  0.00  0.00     0.002 A 
ATOM      4  C5  UNL d   1       1.821  -2.281   2.007  0.00  0.00    -0.080 A 
ATOM      5  C6  UNL d   1       1.039  -1.988   0.762  0.00  0.00     0.076 C 
ATOM      6  C7  UNL d   1       1.491  -1.641   3.206  0.00  0.00     0.002 A 
ATOM      7  C8  UNL d   1       2.230  -1.884   4.366  0.00  0.00     0.006 A 
ENDROOT
BRANCH   1   8
ATOM      8  C1  UNL d   1       4.143  -2.988   5.585  0.00  0.00     0.054 C 
ATOM      9  C   UNL d   1       4.158  -4.452   5.999  0.00  0.00     0.018 C 
ENDBRANCH   1   8
TORSDOF 1
ENDMDL
