MODEL 1
REMARK minimizedAffinity 16.0416031
REMARK minimizedRMSD -1
REMARK  1 active torsions:
REMARK  status: ('A' for Active; 'I' for Inactive)
REMARK    1  A    between atoms: C1_2  and  C2_3 
ROOT
ATOM      1  C2  UNL d   1       0.939   0.281  -1.267  0.00  0.00    -0.081 A 
ATOM      2  C3  UNL d   1       1.826   0.383  -0.189  0.00  0.00     0.006 A 
ATOM      3  C4  UNL d   1       1.688  -0.452   0.923  0.00  0.00     0.002 A 
ATOM      4  C5  UNL d   1       0.666  -1.407   0.971  0.00  0.00    -0.080 A 
ATOM      5  C6  UNL d   1       0.526  -2.330   2.145  0.00  0.00     0.076 C 
ATOM      6  C7  UNL d   1      -0.230  -1.497  -0.099  0.00  0.00     0.002 A 
ATOM      7  C8  UNL d   1      -0.093  -0.662  -1.210  0.00  0.00     0.006 A 
ENDROOT
BRANCH   1   8
ATOM      8  C1  UNL d   1       1.124   1.135  -2.495  0.00  0.00     0.054 C 
ATOM      9  C   UNL d   1       2.248   0.605  -3.374  0.00  0.00     0.018 C 
ENDBRANCH   1   8
TORSDOF 1
ENDMDL
