MODEL 1
REMARK minimizedAffinity 12.4607458
REMARK minimizedRMSD -1
REMARK  0 active torsions:
REMARK  status: ('A' for Active; 'I' for Inactive)
ROOT
ATOM      1  C   UNL d   1       2.535   3.912   3.345  0.00  0.00    -0.002 A 
ATOM      2  C1  UNL d   1       1.521   2.978   3.503  0.00  0.00     0.010 A 
ATOM      3  C2  UNL d   1       0.541   2.821   2.521  0.00  0.00     0.041 A 
ATOM      4  C3  UNL d   1       0.599   3.624   1.366  0.00  0.00    -0.075 A 
ATOM      5  S   UNL d   1      -0.492   3.606   0.031  0.00  0.00     0.015 SA
ATOM      6  C4  UNL d   1       0.362   4.837  -0.781  0.00  0.00     0.022 A 
ATOM      7  C5  UNL d   1       1.456   5.263  -0.065  0.00  0.00     0.026 A 
ATOM      8  C6  UNL d   1       1.611   4.571   1.183  0.00  0.00    -0.082 A 
ATOM      9  C7  UNL d   1       2.589   4.707   2.197  0.00  0.00     0.045 A 
ENDROOT
TORSDOF 0
ENDMDL
