MODEL 1
REMARK minimizedAffinity 18.9731922
REMARK minimizedRMSD -1
REMARK  0 active torsions:
REMARK  status: ('A' for Active; 'I' for Inactive)
ROOT
ATOM      1  C   UNL d   1       2.504  -1.500   4.359  0.00  0.00    -0.002 A 
ATOM      2  C1  UNL d   1       3.201  -0.926   5.412  0.00  0.00     0.010 A 
ATOM      3  C2  UNL d   1       4.297  -1.581   5.979  0.00  0.00     0.041 A 
ATOM      4  C3  UNL d   1       4.684  -2.833   5.463  0.00  0.00    -0.075 A 
ATOM      5  S   UNL d   1       5.995  -3.817   5.997  0.00  0.00     0.015 SA
ATOM      6  C4  UNL d   1       5.660  -5.022   4.839  0.00  0.00     0.022 A 
ATOM      7  C5  UNL d   1       4.579  -4.698   4.056  0.00  0.00     0.026 A 
ATOM      8  C6  UNL d   1       3.998  -3.430   4.401  0.00  0.00    -0.082 A 
ATOM      9  C7  UNL d   1       2.891  -2.742   3.849  0.00  0.00     0.045 A 
ENDROOT
TORSDOF 0
ENDMDL
