MODEL 1
REMARK minimizedAffinity 7.00428629
REMARK minimizedRMSD -1
REMARK  0 active torsions:
REMARK  status: ('A' for Active; 'I' for Inactive)
ROOT
ATOM      1  C   UNL d   1      -0.507   5.999   0.046  0.00  0.00    -0.002 A 
ATOM      2  C1  UNL d   1       0.169   5.184  -0.851  0.00  0.00     0.010 A 
ATOM      3  C2  UNL d   1       0.582   3.904  -0.477  0.00  0.00     0.041 A 
ATOM      4  C3  UNL d   1       0.300   3.451   0.827  0.00  0.00    -0.075 A 
ATOM      5  S   UNL d   1       0.709   1.921   1.507  0.00  0.00     0.015 SA
ATOM      6  C4  UNL d   1      -0.005   2.311   3.004  0.00  0.00     0.022 A 
ATOM      7  C5  UNL d   1      -0.546   3.575   3.004  0.00  0.00     0.026 A 
ATOM      8  C6  UNL d   1      -0.379   4.253   1.749  0.00  0.00    -0.082 A 
ATOM      9  C7  UNL d   1      -0.784   5.546   1.339  0.00  0.00     0.045 A 
ENDROOT
TORSDOF 0
ENDMDL
