MODEL 1
REMARK minimizedAffinity 16.7545547
REMARK minimizedRMSD -1
REMARK  0 active torsions:
REMARK  status: ('A' for Active; 'I' for Inactive)
ROOT
ATOM      1  C   UNL d   1      -0.242   1.905   3.954  0.00  0.00    -0.002 A 
ATOM      2  C1  UNL d   1       0.119   0.678   4.492  0.00  0.00     0.010 A 
ATOM      3  C2  UNL d   1      -0.812  -0.359   4.583  0.00  0.00     0.041 A 
ATOM      4  C3  UNL d   1      -2.124  -0.140   4.118  0.00  0.00    -0.075 A 
ATOM      5  S   UNL d   1      -3.431  -1.264   4.127  0.00  0.00     0.015 SA
ATOM      6  C4  UNL d   1      -4.499  -0.141   3.416  0.00  0.00     0.022 A 
ATOM      7  C5  UNL d   1      -3.890   1.066   3.171  0.00  0.00     0.026 A 
ATOM      8  C6  UNL d   1      -2.511   1.087   3.571  0.00  0.00    -0.082 A 
ATOM      9  C7  UNL d   1      -1.544   2.119   3.494  0.00  0.00     0.045 A 
ENDROOT
TORSDOF 0
ENDMDL
