MODEL 1
REMARK minimizedAffinity 13.7794828
REMARK minimizedRMSD -1
REMARK  0 active torsions:
REMARK  status: ('A' for Active; 'I' for Inactive)
ROOT
ATOM      1  C   UNL d   1       0.736   2.266   1.919  0.00  0.00    -0.002 A 
ATOM      2  C1  UNL d   1       0.347   1.525   0.812  0.00  0.00     0.010 A 
ATOM      3  C2  UNL d   1      -0.055   2.163  -0.363  0.00  0.00     0.041 A 
ATOM      4  C3  UNL d   1      -0.057   3.571  -0.408  0.00  0.00    -0.075 A 
ATOM      5  S   UNL d   1      -0.509   4.568  -1.741  0.00  0.00     0.015 SA
ATOM      6  C4  UNL d   1      -0.195   6.000  -0.872  0.00  0.00     0.022 A 
ATOM      7  C5  UNL d   1       0.244   5.743   0.405  0.00  0.00     0.026 A 
ATOM      8  C6  UNL d   1       0.331   4.338   0.693  0.00  0.00    -0.082 A 
ATOM      9  C7  UNL d   1       0.732   3.662   1.871  0.00  0.00     0.045 A 
ENDROOT
TORSDOF 0
ENDMDL
