MODEL 1
REMARK minimizedAffinity 4.38680029
REMARK minimizedRMSD -1
REMARK  1 active torsions:
REMARK  status: ('A' for Active; 'I' for Inactive)
REMARK    1  A    between atoms: C1_2  and  C2_3 
ROOT
ATOM      1  C2  UNL d   1       0.738   4.784  -4.765  0.00  0.00    -0.077 A 
ATOM      2  C3  UNL d   1       0.087   5.107  -3.566  0.00  0.00     0.002 A 
ATOM      3  C4  UNL d   1      -1.170   5.714  -3.586  0.00  0.00     0.002 A 
ATOM      4  C5  UNL d   1      -1.789   5.999  -4.802  0.00  0.00    -0.004 A 
ATOM      5  C6  UNL d   1      -1.149   5.683  -6.000  0.00  0.00     0.002 A 
ATOM      6  C7  UNL d   1       0.108   5.078  -5.982  0.00  0.00     0.002 A 
ENDROOT
BRANCH   1   7
ATOM      7  C1  UNL d   1       2.072   4.085  -4.746  0.00  0.00     0.055 C 
ATOM      8  C   UNL d   1       2.529   3.805  -3.322  0.00  0.00     0.019 C 
ENDBRANCH   1   7
TORSDOF 1
ENDMDL
