MODEL 1
REMARK minimizedAffinity 2.56411433
REMARK minimizedRMSD -1
REMARK  1 active torsions:
REMARK  status: ('A' for Active; 'I' for Inactive)
REMARK    1  A    between atoms: C1_2  and  C2_3 
ROOT
ATOM      1  C2  UNL d   1      -2.311  -2.834   0.868  0.00  0.00    -0.077 A 
ATOM      2  C3  UNL d   1      -1.856  -3.715  -0.123  0.00  0.00     0.002 A 
ATOM      3  C4  UNL d   1      -0.489  -3.949  -0.287  0.00  0.00     0.002 A 
ATOM      4  C5  UNL d   1       0.433  -3.310   0.539  0.00  0.00    -0.004 A 
ATOM      5  C6  UNL d   1      -0.009  -2.431   1.526  0.00  0.00     0.002 A 
ATOM      6  C7  UNL d   1      -1.375  -2.194   1.691  0.00  0.00     0.002 A 
ENDROOT
BRANCH   1   7
ATOM      7  C1  UNL d   1      -3.786  -2.617   1.078  0.00  0.00     0.055 C 
ATOM      8  C   UNL d   1      -4.479  -3.903   1.505  0.00  0.00     0.019 C 
ENDBRANCH   1   7
TORSDOF 1
ENDMDL
