MODEL 1
REMARK minimizedAffinity 4.37355471
REMARK minimizedRMSD -1
REMARK  1 active torsions:
REMARK  status: ('A' for Active; 'I' for Inactive)
REMARK    1  A    between atoms: C1_2  and  C2_3 
ROOT
ATOM      1  C2  UNL d   1       3.590   0.637   2.523  0.00  0.00    -0.077 A 
ATOM      2  C3  UNL d   1       3.572   1.941   3.037  0.00  0.00     0.002 A 
ATOM      3  C4  UNL d   1       4.759   2.561   3.433  0.00  0.00     0.002 A 
ATOM      4  C5  UNL d   1       5.972   1.886   3.316  0.00  0.00    -0.004 A 
ATOM      5  C6  UNL d   1       6.000   0.587   2.808  0.00  0.00     0.002 A 
ATOM      6  C7  UNL d   1       4.814  -0.034   2.412  0.00  0.00     0.002 A 
ENDROOT
BRANCH   1   7
ATOM      7  C1  UNL d   1       2.317  -0.014   2.049  0.00  0.00     0.055 C 
ATOM      8  C   UNL d   1       1.933  -1.190   2.936  0.00  0.00     0.019 C 
ENDBRANCH   1   7
TORSDOF 1
ENDMDL
