MODEL 1
REMARK minimizedAffinity 10.2077351
REMARK minimizedRMSD -1
REMARK  1 active torsions:
REMARK  status: ('A' for Active; 'I' for Inactive)
REMARK    1  A    between atoms: C1_2  and  C2_3 
ROOT
ATOM      1  C2  UNL d   1       1.106   4.533  -3.726  0.00  0.00    -0.077 A 
ATOM      2  C3  UNL d   1      -0.095   5.257  -3.728  0.00  0.00     0.002 A 
ATOM      3  C4  UNL d   1      -0.477   5.988  -4.855  0.00  0.00     0.002 A 
ATOM      4  C5  UNL d   1       0.333   5.998  -5.988  0.00  0.00    -0.004 A 
ATOM      5  C6  UNL d   1       1.530   5.283  -5.995  0.00  0.00     0.002 A 
ATOM      6  C7  UNL d   1       1.914   4.553  -4.870  0.00  0.00     0.002 A 
ENDROOT
BRANCH   1   7
ATOM      7  C1  UNL d   1       1.495   3.704  -2.530  0.00  0.00     0.055 C 
ATOM      8  C   UNL d   1       1.928   4.583  -1.365  0.00  0.00     0.019 C 
ENDBRANCH   1   7
TORSDOF 1
ENDMDL
