MODEL 1
REMARK minimizedAffinity 10.1770697
REMARK minimizedRMSD -1
REMARK  1 active torsions:
REMARK  status: ('A' for Active; 'I' for Inactive)
REMARK    1  A    between atoms: C1_2  and  C2_3 
ROOT
ATOM      1  C2  UNL d   1      -2.979   5.190  -3.691  0.00  0.00    -0.077 A 
ATOM      2  C3  UNL d   1      -1.577   5.190  -3.709  0.00  0.00     0.002 A 
ATOM      3  C4  UNL d   1      -0.886   5.590  -4.855  0.00  0.00     0.002 A 
ATOM      4  C5  UNL d   1      -1.588   5.997  -5.987  0.00  0.00    -0.004 A 
ATOM      5  C6  UNL d   1      -2.982   5.999  -5.979  0.00  0.00     0.002 A 
ATOM      6  C7  UNL d   1      -3.674   5.598  -4.836  0.00  0.00     0.002 A 
ENDROOT
BRANCH   1   7
ATOM      7  C1  UNL d   1      -3.726   4.806  -2.440  0.00  0.00     0.055 C 
ATOM      8  C   UNL d   1      -2.957   5.210  -1.190  0.00  0.00     0.019 C 
ENDBRANCH   1   7
TORSDOF 1
ENDMDL
