MODEL 1
REMARK minimizedAffinity 3.38073468
REMARK minimizedRMSD -1
REMARK  1 active torsions:
REMARK  status: ('A' for Active; 'I' for Inactive)
REMARK    1  A    between atoms: C1_2  and  C2_3 
ROOT
ATOM      1  C2  UNL d   1      -0.198  -2.228   1.820  0.00  0.00    -0.077 A 
ATOM      2  C3  UNL d   1       0.559  -3.023   0.947  0.00  0.00     0.002 A 
ATOM      3  C4  UNL d   1      -0.062  -3.714  -0.096  0.00  0.00     0.002 A 
ATOM      4  C5  UNL d   1      -1.439  -3.613  -0.279  0.00  0.00    -0.004 A 
ATOM      5  C6  UNL d   1      -2.200  -2.826   0.585  0.00  0.00     0.002 A 
ATOM      6  C7  UNL d   1      -1.582  -2.136   1.629  0.00  0.00     0.002 A 
ENDROOT
BRANCH   1   7
ATOM      7  C1  UNL d   1       0.476  -1.443   2.915  0.00  0.00     0.055 C 
ATOM      8  C   UNL d   1       1.876  -1.970   3.193  0.00  0.00     0.019 C 
ENDBRANCH   1   7
TORSDOF 1
ENDMDL
