MODEL 1
REMARK minimizedAffinity 3.62801313
REMARK minimizedRMSD -1
REMARK  1 active torsions:
REMARK  status: ('A' for Active; 'I' for Inactive)
REMARK    1  A    between atoms: C1_2  and  C2_3 
ROOT
ATOM      1  C2  UNL d   1      -3.462   5.977  -3.855  0.00  0.00    -0.077 A 
ATOM      2  C3  UNL d   1      -3.506   5.978  -5.257  0.00  0.00     0.002 A 
ATOM      3  C4  UNL d   1      -2.324   5.991  -6.000  0.00  0.00     0.002 A 
ATOM      4  C5  UNL d   1      -1.091   5.999  -5.351  0.00  0.00    -0.004 A 
ATOM      5  C6  UNL d   1      -1.037   6.000  -3.958  0.00  0.00     0.002 A 
ATOM      6  C7  UNL d   1      -2.217   5.988  -3.213  0.00  0.00     0.002 A 
ENDROOT
BRANCH   1   7
ATOM      7  C1  UNL d   1      -4.735   5.913  -3.052  0.00  0.00     0.055 C 
ATOM      8  C   UNL d   1      -5.512   4.638  -3.347  0.00  0.00     0.019 C 
ENDBRANCH   1   7
TORSDOF 1
ENDMDL
