MODEL 1
REMARK minimizedAffinity 12.0242548
REMARK minimizedRMSD -1
REMARK  1 active torsions:
REMARK  status: ('A' for Active; 'I' for Inactive)
REMARK    1  A    between atoms: C1_2  and  C2_3 
ROOT
ATOM      1  C2  UNL d   1      -0.237  -2.849   2.097  0.00  0.00    -0.077 A 
ATOM      2  C3  UNL d   1      -0.952  -1.681   1.798  0.00  0.00     0.002 A 
ATOM      3  C4  UNL d   1      -1.084  -0.670   2.751  0.00  0.00     0.002 A 
ATOM      4  C5  UNL d   1      -0.500  -0.814   4.008  0.00  0.00    -0.004 A 
ATOM      5  C6  UNL d   1       0.211  -1.972   4.316  0.00  0.00     0.002 A 
ATOM      6  C7  UNL d   1       0.343  -2.985   3.365  0.00  0.00     0.002 A 
ENDROOT
BRANCH   1   7
ATOM      7  C1  UNL d   1      -0.051  -3.920   1.054  0.00  0.00     0.055 C 
ATOM      8  C   UNL d   1      -1.072  -3.783  -0.067  0.00  0.00     0.019 C 
ENDBRANCH   1   7
TORSDOF 1
ENDMDL
