MODEL 1
REMARK minimizedAffinity 1.79869258
REMARK minimizedRMSD -1
REMARK  1 active torsions:
REMARK  status: ('A' for Active; 'I' for Inactive)
REMARK    1  A    between atoms: C1_2  and  C2_3 
ROOT
ATOM      1  C2  UNL d   1      -3.881   0.016  -0.103  0.00  0.00    -0.077 A 
ATOM      2  C3  UNL d   1      -3.971   1.211   0.623  0.00  0.00     0.002 A 
ATOM      3  C4  UNL d   1      -3.210   1.395   1.779  0.00  0.00     0.002 A 
ATOM      4  C5  UNL d   1      -2.351   0.389   2.216  0.00  0.00    -0.004 A 
ATOM      5  C6  UNL d   1      -2.255  -0.805   1.502  0.00  0.00     0.002 A 
ATOM      6  C7  UNL d   1      -3.016  -0.990   0.347  0.00  0.00     0.002 A 
ENDROOT
BRANCH   1   7
ATOM      7  C1  UNL d   1      -4.664  -0.165  -1.378  0.00  0.00     0.055 C 
ATOM      8  C   UNL d   1      -3.751  -0.147  -2.595  0.00  0.00     0.019 C 
ENDBRANCH   1   7
TORSDOF 1
ENDMDL
