MODEL 1
REMARK minimizedAffinity 4.52049589
REMARK minimizedRMSD -1
REMARK  1 active torsions:
REMARK  status: ('A' for Active; 'I' for Inactive)
REMARK    1  A    between atoms: C1_2  and  C2_3 
ROOT
ATOM      1  C2  UNL d   1      -1.938  -4.130  -4.313  0.00  0.00    -0.077 A 
ATOM      2  C3  UNL d   1      -3.335  -4.244  -4.341  0.00  0.00     0.002 A 
ATOM      3  C4  UNL d   1      -3.951  -5.173  -5.182  0.00  0.00     0.002 A 
ATOM      4  C5  UNL d   1      -3.178  -5.997  -5.997  0.00  0.00    -0.004 A 
ATOM      5  C6  UNL d   1      -1.788  -5.890  -5.978  0.00  0.00     0.002 A 
ATOM      6  C7  UNL d   1      -1.170  -4.961  -5.140  0.00  0.00     0.002 A 
ENDROOT
BRANCH   1   7
ATOM      7  C1  UNL d   1      -1.270  -3.162  -3.371  0.00  0.00     0.055 C 
ATOM      8  C   UNL d   1      -2.143  -1.942  -3.120  0.00  0.00     0.019 C 
ENDBRANCH   1   7
TORSDOF 1
ENDMDL
