MODEL 1
REMARK minimizedAffinity 6.49604034
REMARK minimizedRMSD -1
REMARK  1 active torsions:
REMARK  status: ('A' for Active; 'I' for Inactive)
REMARK    1  A    between atoms: C1_2  and  C2_3 
ROOT
ATOM      1  C2  UNL d   1      -0.678   5.421  -5.165  0.00  0.00    -0.077 A 
ATOM      2  C3  UNL d   1      -1.781   5.709  -5.981  0.00  0.00     0.002 A 
ATOM      3  C4  UNL d   1      -3.069   5.740  -5.442  0.00  0.00     0.002 A 
ATOM      4  C5  UNL d   1      -3.265   5.489  -4.086  0.00  0.00    -0.004 A 
ATOM      5  C6  UNL d   1      -2.175   5.200  -3.267  0.00  0.00     0.002 A 
ATOM      6  C7  UNL d   1      -0.887   5.167  -3.804  0.00  0.00     0.002 A 
ENDROOT
BRANCH   1   7
ATOM      7  C1  UNL d   1       0.717   5.435  -5.734  0.00  0.00     0.055 C 
ATOM      8  C   UNL d   1       1.566   4.319  -5.144  0.00  0.00     0.019 C 
ENDBRANCH   1   7
TORSDOF 1
ENDMDL
