MODEL 1
REMARK minimizedAffinity 2.77981019
REMARK minimizedRMSD -1
REMARK  1 active torsions:
REMARK  status: ('A' for Active; 'I' for Inactive)
REMARK    1  A    between atoms: C1_2  and  C2_3 
ROOT
ATOM      1  C2  UNL d   1      -2.796  -0.093   0.907  0.00  0.00    -0.077 A 
ATOM      2  C3  UNL d   1      -3.738   0.917   1.149  0.00  0.00     0.002 A 
ATOM      3  C4  UNL d   1      -4.405   1.529   0.086  0.00  0.00     0.002 A 
ATOM      4  C5  UNL d   1      -4.140   1.137  -1.224  0.00  0.00    -0.004 A 
ATOM      5  C6  UNL d   1      -3.203   0.134  -1.475  0.00  0.00     0.002 A 
ATOM      6  C7  UNL d   1      -2.535  -0.478  -0.414  0.00  0.00     0.002 A 
ENDROOT
BRANCH   1   7
ATOM      7  C1  UNL d   1      -2.112  -0.790   2.054  0.00  0.00     0.055 C 
ATOM      8  C   UNL d   1      -1.696  -2.203   1.675  0.00  0.00     0.019 C 
ENDBRANCH   1   7
TORSDOF 1
ENDMDL
