MODEL 1
REMARK minimizedAffinity -2.38069534
REMARK minimizedRMSD -1
REMARK  0 active torsions:
REMARK  status: ('A' for Active; 'I' for Inactive)
ROOT
ATOM      1  O1  BZF d   1      -0.164  -0.480  -1.396  0.00  0.00    -0.204 OA
ATOM      2  C2  BZF d   1       0.720  -1.528  -1.227  0.00  0.00     0.174 A 
ATOM      3  C3  BZF d   1       1.164  -1.580   0.046  0.00  0.00    -0.012 A 
ATOM      4  C3A BZF d   1       0.446  -0.552   0.736  0.00  0.00    -0.107 A 
ATOM      5  C4  BZF d   1       0.438  -0.120   2.032  0.00  0.00     0.055 A 
ATOM      6  C5  BZF d   1      -0.323   0.955   2.365  0.00  0.00    -0.016 A 
ATOM      7  C6  BZF d   1      -1.084   1.624   1.429  0.00  0.00     0.022 A 
ATOM      8  C7  BZF d   1      -1.112   1.230   0.132  0.00  0.00     0.029 A 
ATOM      9  C7A BZF d   1      -0.370   0.124  -0.201  0.00  0.00     0.058 A 
ENDROOT
TORSDOF 0
ENDMDL
