MODEL 1
REMARK minimizedAffinity -3.41064787
REMARK minimizedRMSD -1
REMARK  0 active torsions:
REMARK  status: ('A' for Active; 'I' for Inactive)
ROOT
ATOM      1  O1  BZF d   1       0.928   1.842  -1.195  0.00  0.00    -0.204 OA
ATOM      2  C2  BZF d   1       1.385   0.613  -1.629  0.00  0.00     0.174 A 
ATOM      3  C3  BZF d   1       1.054  -0.358  -0.754  0.00  0.00    -0.012 A 
ATOM      4  C3A BZF d   1       0.264   0.292   0.247  0.00  0.00    -0.107 A 
ATOM      5  C4  BZF d   1      -0.369  -0.147   1.375  0.00  0.00     0.055 A 
ATOM      6  C5  BZF d   1      -0.994   0.756   2.175  0.00  0.00    -0.016 A 
ATOM      7  C6  BZF d   1      -1.000   2.104   1.883  0.00  0.00     0.022 A 
ATOM      8  C7  BZF d   1      -0.389   2.586   0.773  0.00  0.00     0.029 A 
ATOM      9  C7A BZF d   1       0.215   1.672  -0.056  0.00  0.00     0.058 A 
ENDROOT
TORSDOF 0
ENDMDL
