MODEL 1
REMARK minimizedAffinity 0.76280421
REMARK minimizedRMSD -1
REMARK  0 active torsions:
REMARK  status: ('A' for Active; 'I' for Inactive)
ROOT
ATOM      1  O1  BZF d   1       0.606  -0.167  -1.804  0.00  0.00    -0.204 OA
ATOM      2  C2  BZF d   1       1.083   0.220  -0.567  0.00  0.00     0.174 A 
ATOM      3  C3  BZF d   1       1.491  -0.850   0.145  0.00  0.00    -0.012 A 
ATOM      4  C3A BZF d   1       1.340  -1.967  -0.736  0.00  0.00    -0.107 A 
ATOM      5  C4  BZF d   1       1.594  -3.303  -0.610  0.00  0.00     0.055 A 
ATOM      6  C5  BZF d   1       1.266  -4.137  -1.632  0.00  0.00    -0.016 A 
ATOM      7  C6  BZF d   1       0.679  -3.671  -2.790  0.00  0.00     0.022 A 
ATOM      8  C7  BZF d   1       0.413  -2.353  -2.963  0.00  0.00     0.029 A 
ATOM      9  C7A BZF d   1       0.773  -1.504  -1.946  0.00  0.00     0.058 A 
ENDROOT
TORSDOF 0
ENDMDL
