MODEL 1
REMARK minimizedAffinity -3.53889847
REMARK minimizedRMSD -1
REMARK  0 active torsions:
REMARK  status: ('A' for Active; 'I' for Inactive)
ROOT
ATOM      1  O1  BZF d   1       0.009   1.972  -1.150  0.00  0.00    -0.204 OA
ATOM      2  C2  BZF d   1       0.918   1.234  -1.884  0.00  0.00     0.174 A 
ATOM      3  C3  BZF d   1       1.262   0.109  -1.226  0.00  0.00    -0.012 A 
ATOM      4  C3A BZF d   1       0.453   0.100  -0.046  0.00  0.00    -0.107 A 
ATOM      5  C4  BZF d   1       0.328  -0.769   1.000  0.00  0.00     0.055 A 
ATOM      6  C5  BZF d   1      -0.499  -0.449   2.029  0.00  0.00    -0.016 A 
ATOM      7  C6  BZF d   1      -1.210   0.733   2.048  0.00  0.00     0.022 A 
ATOM      8  C7  BZF d   1      -1.122   1.624   1.031  0.00  0.00     0.029 A 
ATOM      9  C7A BZF d   1      -0.313   1.288  -0.026  0.00  0.00     0.058 A 
ENDROOT
TORSDOF 0
ENDMDL
