MODEL 1
REMARK minimizedAffinity 0.327291578
REMARK minimizedRMSD -1
REMARK  0 active torsions:
REMARK  status: ('A' for Active; 'I' for Inactive)
ROOT
ATOM      1  O1  BZF d   1       0.193  -2.152  -3.301  0.00  0.00    -0.204 OA
ATOM      2  C2  BZF d   1       0.567  -3.438  -2.962  0.00  0.00     0.174 A 
ATOM      3  C3  BZF d   1       0.918  -3.508  -1.662  0.00  0.00    -0.012 A 
ATOM      4  C3A BZF d   1       0.665  -2.202  -1.134  0.00  0.00    -0.107 A 
ATOM      5  C4  BZF d   1       0.801  -1.649   0.107  0.00  0.00     0.055 A 
ATOM      6  C5  BZF d   1       0.536  -0.327   0.274  0.00  0.00    -0.016 A 
ATOM      7  C6  BZF d   1       0.139   0.472  -0.779  0.00  0.00     0.022 A 
ATOM      8  C7  BZF d   1      -0.014  -0.032  -2.027  0.00  0.00     0.029 A 
ATOM      9  C7A BZF d   1       0.221  -1.375  -2.192  0.00  0.00     0.058 A 
ENDROOT
TORSDOF 0
ENDMDL
