MODEL 1
REMARK minimizedAffinity -1.29468858
REMARK minimizedRMSD -1
REMARK  0 active torsions:
REMARK  status: ('A' for Active; 'I' for Inactive)
ROOT
ATOM      1  O1  BZF d   1      -1.041   2.087   0.999  0.00  0.00    -0.204 OA
ATOM      2  C2  BZF d   1      -1.385   1.163   1.968  0.00  0.00     0.174 A 
ATOM      3  C3  BZF d   1      -0.874  -0.050   1.674  0.00  0.00    -0.012 A 
ATOM      4  C3A BZF d   1      -0.091   0.147   0.493  0.00  0.00    -0.107 A 
ATOM      5  C4  BZF d   1       0.676  -0.683  -0.274  0.00  0.00     0.055 A 
ATOM      6  C5  BZF d   1       1.252  -0.193  -1.403  0.00  0.00    -0.016 A 
ATOM      7  C6  BZF d   1       1.077   1.117  -1.798  0.00  0.00     0.022 A 
ATOM      8  C7  BZF d   1       0.330   1.979  -1.067  0.00  0.00     0.029 A 
ATOM      9  C7A BZF d   1      -0.226   1.496   0.093  0.00  0.00     0.058 A 
ENDROOT
TORSDOF 0
ENDMDL
