MODEL 1
REMARK minimizedAffinity -0.891531348
REMARK minimizedRMSD -1
REMARK  0 active torsions:
REMARK  status: ('A' for Active; 'I' for Inactive)
ROOT
ATOM      1  O1  BZF d   1       0.547  -1.874  -0.024  0.00  0.00    -0.204 OA
ATOM      2  C2  BZF d   1       1.167  -1.559  -1.217  0.00  0.00     0.174 A 
ATOM      3  C3  BZF d   1       0.981  -0.260  -1.525  0.00  0.00    -0.012 A 
ATOM      4  C3A BZF d   1       0.272   0.293  -0.412  0.00  0.00    -0.107 A 
ATOM      5  C4  BZF d   1      -0.188   1.545  -0.119  0.00  0.00     0.055 A 
ATOM      6  C5  BZF d   1      -0.905   1.736   1.019  0.00  0.00    -0.016 A 
ATOM      7  C6  BZF d   1      -1.184   0.698   1.884  0.00  0.00     0.022 A 
ATOM      8  C7  BZF d   1      -0.744  -0.560   1.639  0.00  0.00     0.029 A 
ATOM      9  C7A BZF d   1       0.008  -0.750   0.506  0.00  0.00     0.058 A 
ENDROOT
TORSDOF 0
ENDMDL
