MODEL 1
REMARK minimizedAffinity 3.75228
REMARK minimizedRMSD -1
REMARK  0 active torsions:
REMARK  status: ('A' for Active; 'I' for Inactive)
ROOT
ATOM      1  O1  BZF d   1       1.965  -0.803   0.105  0.00  0.00    -0.204 OA
ATOM      2  C2  BZF d   1       1.267  -1.329   1.175  0.00  0.00     0.174 A 
ATOM      3  C3  BZF d   1       0.130  -0.637   1.391  0.00  0.00    -0.012 A 
ATOM      4  C3A BZF d   1       0.071   0.328   0.337  0.00  0.00    -0.107 A 
ATOM      5  C4  BZF d   1      -0.831   1.297   0.000  0.00  0.00     0.055 A 
ATOM      6  C5  BZF d   1      -0.557   2.119  -1.047  0.00  0.00    -0.016 A 
ATOM      7  C6  BZF d   1       0.610   2.005  -1.774  0.00  0.00     0.022 A 
ATOM      8  C7  BZF d   1       1.532   1.056  -1.481  0.00  0.00     0.029 A 
ATOM      9  C7A BZF d   1       1.243   0.202  -0.445  0.00  0.00     0.058 A 
ENDROOT
TORSDOF 0
ENDMDL
