MODEL 1
REMARK minimizedAffinity 0.140009031
REMARK minimizedRMSD -1
REMARK  0 active torsions:
REMARK  status: ('A' for Active; 'I' for Inactive)
ROOT
ATOM      1  O1  BZF d   1      -0.717  -3.350  -1.096  0.00  0.00    -0.204 OA
ATOM      2  C2  BZF d   1      -0.309  -3.552  -2.400  0.00  0.00     0.174 A 
ATOM      3  C3  BZF d   1       0.135  -2.401  -2.946  0.00  0.00    -0.012 A 
ATOM      4  C3A BZF d   1       0.081  -1.438  -1.889  0.00  0.00    -0.107 A 
ATOM      5  C4  BZF d   1       0.408  -0.115  -1.807  0.00  0.00     0.055 A 
ATOM      6  C5  BZF d   1       0.167   0.555  -0.650  0.00  0.00    -0.016 A 
ATOM      7  C6  BZF d   1      -0.404  -0.065   0.442  0.00  0.00     0.022 A 
ATOM      8  C7  BZF d   1      -0.741  -1.378   0.411  0.00  0.00     0.029 A 
ATOM      9  C7A BZF d   1      -0.468  -2.065  -0.747  0.00  0.00     0.058 A 
ENDROOT
TORSDOF 0
ENDMDL
