MODEL 1
REMARK minimizedAffinity -1.97321832
REMARK minimizedRMSD -1
REMARK  0 active torsions:
REMARK  status: ('A' for Active; 'I' for Inactive)
ROOT
ATOM      1  O1  BZF d   1       0.576  -1.400   0.361  0.00  0.00    -0.204 OA
ATOM      2  C2  BZF d   1       1.375  -1.575  -0.752  0.00  0.00     0.174 A 
ATOM      3  C3  BZF d   1       1.493  -0.423  -1.443  0.00  0.00    -0.012 A 
ATOM      4  C3A BZF d   1       0.794   0.555  -0.666  0.00  0.00    -0.107 A 
ATOM      5  C4  BZF d   1       0.570   1.893  -0.822  0.00  0.00     0.055 A 
ATOM      6  C5  BZF d   1      -0.213   2.541   0.079  0.00  0.00    -0.016 A 
ATOM      7  C6  BZF d   1      -0.792   1.882   1.144  0.00  0.00     0.022 A 
ATOM      8  C7  BZF d   1      -0.595   0.556   1.343  0.00  0.00     0.029 A 
ATOM      9  C7A BZF d   1       0.223  -0.095   0.453  0.00  0.00     0.058 A 
ENDROOT
TORSDOF 0
ENDMDL
