MODEL 1
REMARK minimizedAffinity -1.79489303
REMARK minimizedRMSD -1
REMARK  0 active torsions:
REMARK  status: ('A' for Active; 'I' for Inactive)
ROOT
ATOM      1  O1  BZF d   1       0.357  -2.354  -0.511  0.00  0.00    -0.204 OA
ATOM      2  C2  BZF d   1       0.751  -2.069  -1.804  0.00  0.00     0.174 A 
ATOM      3  C3  BZF d   1       0.504  -0.777  -2.105  0.00  0.00    -0.012 A 
ATOM      4  C3A BZF d   1       0.005  -0.198  -0.896  0.00  0.00    -0.107 A 
ATOM      5  C4  BZF d   1      -0.403   1.061  -0.556  0.00  0.00     0.055 A 
ATOM      6  C5  BZF d   1      -0.904   1.279   0.688  0.00  0.00    -0.016 A 
ATOM      7  C6  BZF d   1      -1.017   0.263   1.614  0.00  0.00     0.022 A 
ATOM      8  C7  BZF d   1      -0.621  -1.000   1.325  0.00  0.00     0.029 A 
ATOM      9  C7A BZF d   1      -0.084  -1.218   0.080  0.00  0.00     0.058 A 
ENDROOT
TORSDOF 0
ENDMDL
