MODEL 1
REMARK minimizedAffinity -2.2102375
REMARK minimizedRMSD -1
REMARK  0 active torsions:
REMARK  status: ('A' for Active; 'I' for Inactive)
ROOT
ATOM      1  O1  BZF d   1      -0.542   0.572  -0.296  0.00  0.00    -0.204 OA
ATOM      2  C2  BZF d   1      -0.225   0.357   1.031  0.00  0.00     0.174 A 
ATOM      3  C3  BZF d   1       0.218  -0.903   1.219  0.00  0.00    -0.012 A 
ATOM      4  C3A BZF d   1       0.262  -1.485  -0.087  0.00  0.00    -0.107 A 
ATOM      5  C4  BZF d   1       0.634  -2.712  -0.556  0.00  0.00     0.055 A 
ATOM      6  C5  BZF d   1       0.489  -2.986  -1.879  0.00  0.00    -0.016 A 
ATOM      7  C6  BZF d   1      -0.029  -2.059  -2.759  0.00  0.00     0.022 A 
ATOM      8  C7  BZF d   1      -0.407  -0.826  -2.342  0.00  0.00     0.029 A 
ATOM      9  C7A BZF d   1      -0.231  -0.535  -1.011  0.00  0.00     0.058 A 
ENDROOT
TORSDOF 0
ENDMDL
