MODEL 1
REMARK minimizedAffinity -0.948514342
REMARK minimizedRMSD -1
REMARK  0 active torsions:
REMARK  status: ('A' for Active; 'I' for Inactive)
ROOT
ATOM      1  O1  BZF d   1       0.187   1.178  -0.939  0.00  0.00    -0.204 OA
ATOM      2  C2  BZF d   1       0.611  -0.062  -1.377  0.00  0.00     0.174 A 
ATOM      3  C3  BZF d   1       0.489  -0.982  -0.399  0.00  0.00    -0.012 A 
ATOM      4  C3A BZF d   1      -0.130  -0.293   0.691  0.00  0.00    -0.107 A 
ATOM      5  C4  BZF d   1      -0.526  -0.676   1.941  0.00  0.00     0.055 A 
ATOM      6  C5  BZF d   1      -1.032   0.258   2.789  0.00  0.00    -0.016 A 
ATOM      7  C6  BZF d   1      -1.152   1.582   2.422  0.00  0.00     0.022 A 
ATOM      8  C7  BZF d   1      -0.777   2.009   1.192  0.00  0.00     0.029 A 
ATOM      9  C7A BZF d   1      -0.296   1.062   0.321  0.00  0.00     0.058 A 
ENDROOT
TORSDOF 0
ENDMDL
