MODEL 1
REMARK minimizedAffinity -1.32882619
REMARK minimizedRMSD -1
REMARK  0 active torsions:
REMARK  status: ('A' for Active; 'I' for Inactive)
ROOT
ATOM      1  O1  BZF d   1      -0.084   0.054  -1.473  0.00  0.00    -0.204 OA
ATOM      2  C2  BZF d   1       0.369   0.306  -0.193  0.00  0.00     0.174 A 
ATOM      3  C3  BZF d   1       0.886  -0.811   0.360  0.00  0.00    -0.012 A 
ATOM      4  C3A BZF d   1       0.830  -1.802  -0.670  0.00  0.00    -0.107 A 
ATOM      5  C4  BZF d   1       1.211  -3.111  -0.735  0.00  0.00     0.055 A 
ATOM      6  C5  BZF d   1       0.951  -3.820  -1.865  0.00  0.00    -0.016 A 
ATOM      7  C6  BZF d   1       0.309  -3.252  -2.946  0.00  0.00     0.022 A 
ATOM      8  C7  BZF d   1      -0.084  -1.955  -2.931  0.00  0.00     0.029 A 
ATOM      9  C7A BZF d   1       0.207  -1.228  -1.803  0.00  0.00     0.058 A 
ENDROOT
TORSDOF 0
ENDMDL
