MODEL 1
REMARK minimizedAffinity -4.5486536
REMARK minimizedRMSD -1
REMARK  0 active torsions:
REMARK  status: ('A' for Active; 'I' for Inactive)
ROOT
ATOM      1  O1  BZF d   1       0.659   2.386  -0.916  0.00  0.00    -0.204 OA
ATOM      2  C2  BZF d   1       0.222   3.600  -0.424  0.00  0.00     0.174 A 
ATOM      3  C3  BZF d   1      -0.602   3.421   0.629  0.00  0.00    -0.012 A 
ATOM      4  C3A BZF d   1      -0.612   2.010   0.863  0.00  0.00    -0.107 A 
ATOM      5  C4  BZF d   1      -1.232   1.216   1.784  0.00  0.00     0.055 A 
ATOM      6  C5  BZF d   1      -1.092  -0.133   1.695  0.00  0.00    -0.016 A 
ATOM      7  C6  BZF d   1      -0.344  -0.721   0.696  0.00  0.00     0.022 A 
ATOM      8  C7  BZF d   1       0.294   0.026  -0.238  0.00  0.00     0.029 A 
ATOM      9  C7A BZF d   1       0.182   1.391  -0.130  0.00  0.00     0.058 A 
ENDROOT
TORSDOF 0
ENDMDL
