MODEL 1
REMARK minimizedAffinity -6.19543028
REMARK minimizedRMSD -1
REMARK  0 active torsions:
REMARK  status: ('A' for Active; 'I' for Inactive)
ROOT
ATOM      1  O1  BZF d   1       0.591   1.190  -0.581  0.00  0.00    -0.204 OA
ATOM      2  C2  BZF d   1       0.566  -0.058   0.013  0.00  0.00     0.174 A 
ATOM      3  C3  BZF d   1      -0.275  -0.069   1.067  0.00  0.00    -0.012 A 
ATOM      4  C3A BZF d   1      -0.879   1.228   1.080  0.00  0.00    -0.107 A 
ATOM      5  C4  BZF d   1      -1.813   1.821   1.881  0.00  0.00     0.055 A 
ATOM      6  C5  BZF d   1      -2.132   3.125   1.671  0.00  0.00    -0.016 A 
ATOM      7  C6  BZF d   1      -1.534   3.867   0.673  0.00  0.00     0.022 A 
ATOM      8  C7  BZF d   1      -0.606   3.321  -0.150  0.00  0.00     0.029 A 
ATOM      9  C7A BZF d   1      -0.305   1.994   0.040  0.00  0.00     0.058 A 
ENDROOT
TORSDOF 0
ENDMDL
