MODEL 1
REMARK minimizedAffinity -4.0800705
REMARK minimizedRMSD -1
REMARK  0 active torsions:
REMARK  status: ('A' for Active; 'I' for Inactive)
ROOT
ATOM      1  O1  BZF d   1       0.135   1.682  -0.638  0.00  0.00    -0.204 OA
ATOM      2  C2  BZF d   1       1.061   1.017  -1.418  0.00  0.00     0.174 A 
ATOM      3  C3  BZF d   1       1.388  -0.170  -0.866  0.00  0.00    -0.012 A 
ATOM      4  C3A BZF d   1       0.549  -0.292   0.287  0.00  0.00    -0.107 A 
ATOM      5  C4  BZF d   1       0.395  -1.260   1.237  0.00  0.00     0.055 A 
ATOM      6  C5  BZF d   1      -0.458  -1.040   2.272  0.00  0.00    -0.016 A 
ATOM      7  C6  BZF d   1      -1.168   0.137   2.390  0.00  0.00     0.022 A 
ATOM      8  C7  BZF d   1      -1.052   1.124   1.469  0.00  0.00     0.029 A 
ATOM      9  C7A BZF d   1      -0.216   0.891   0.405  0.00  0.00     0.058 A 
ENDROOT
TORSDOF 0
ENDMDL
