MODEL 1
REMARK minimizedAffinity -0.505930483
REMARK minimizedRMSD -1
REMARK  0 active torsions:
REMARK  status: ('A' for Active; 'I' for Inactive)
ROOT
ATOM      1  O1  BZF d   1       0.352  -0.035  -1.492  0.00  0.00    -0.204 OA
ATOM      2  C2  BZF d   1       0.572  -1.396  -1.409  0.00  0.00     0.174 A 
ATOM      3  C3  BZF d   1       0.367  -1.838  -0.152  0.00  0.00    -0.012 A 
ATOM      4  C3A BZF d   1      -0.095  -0.697   0.577  0.00  0.00    -0.107 A 
ATOM      5  C4  BZF d   1      -0.481  -0.504   1.873  0.00  0.00     0.055 A 
ATOM      6  C5  BZF d   1      -0.807   0.749   2.285  0.00  0.00    -0.016 A 
ATOM      7  C6  BZF d   1      -0.752   1.832   1.432  0.00  0.00     0.022 A 
ATOM      8  C7  BZF d   1      -0.380   1.689   0.137  0.00  0.00     0.029 A 
ATOM      9  C7A BZF d   1      -0.082   0.418  -0.292  0.00  0.00     0.058 A 
ENDROOT
TORSDOF 0
ENDMDL
