MODEL 1
REMARK minimizedAffinity -4.64419127
REMARK minimizedRMSD -1
REMARK  0 active torsions:
REMARK  status: ('A' for Active; 'I' for Inactive)
ROOT
ATOM      1  C1  DEN d   1       1.058  -1.063   1.046  0.00  0.00     0.130 A 
ATOM      2  C2  DEN d   1       1.073  -0.004   0.041  0.00  0.00    -0.031 A 
ATOM      3  C3  DEN d   1      -0.241   0.004  -0.634  0.00  0.00     0.027 A 
ATOM      4  C4  DEN d   1      -2.287  -1.511  -0.219  0.00  0.00     0.027 A 
ATOM      5  C5  DEN d   1      -2.771  -2.564   0.525  0.00  0.00    -0.003 A 
ATOM      6  C6  DEN d   1      -2.008  -3.207   1.463  0.00  0.00     0.001 A 
ATOM      7  C7  DEN d   1      -0.733  -2.774   1.714  0.00  0.00     0.017 A 
ATOM      8  C8  DEN d   1      -0.235  -1.718   0.963  0.00  0.00    -0.094 A 
ATOM      9  C9  DEN d   1      -1.026  -1.073   0.028  0.00  0.00    -0.072 A 
ENDROOT
TORSDOF 0
ENDMDL
