MODEL 1
REMARK minimizedAffinity -4.78399992
REMARK minimizedRMSD -1
REMARK  0 active torsions:
REMARK  status: ('A' for Active; 'I' for Inactive)
ROOT
ATOM      1  C1  DEN d   1       0.602  -0.205   0.516  0.00  0.00     0.130 A 
ATOM      2  C2  DEN d   1       0.614   0.561  -0.727  0.00  0.00    -0.031 A 
ATOM      3  C3  DEN d   1      -0.706   0.408  -1.370  0.00  0.00     0.027 A 
ATOM      4  C4  DEN d   1      -2.758  -0.930  -0.564  0.00  0.00     0.027 A 
ATOM      5  C5  DEN d   1      -3.243  -1.752   0.430  0.00  0.00    -0.003 A 
ATOM      6  C6  DEN d   1      -2.475  -2.140   1.495  0.00  0.00     0.001 A 
ATOM      7  C7  DEN d   1      -1.194  -1.670   1.616  0.00  0.00     0.017 A 
ATOM      8  C8  DEN d   1      -0.696  -0.846   0.615  0.00  0.00    -0.094 A 
ATOM      9  C9  DEN d   1      -1.492  -0.455  -0.448  0.00  0.00    -0.072 A 
ENDROOT
TORSDOF 0
ENDMDL
