MODEL 1
REMARK minimizedAffinity -5.89056444
REMARK minimizedRMSD -1
REMARK  0 active torsions:
REMARK  status: ('A' for Active; 'I' for Inactive)
ROOT
ATOM      1  C1  DEN d   1       1.232  -0.391   0.924  0.00  0.00     0.130 A 
ATOM      2  C2  DEN d   1       1.393   0.389  -0.300  0.00  0.00    -0.031 A 
ATOM      3  C3  DEN d   1       0.113   0.353  -1.036  0.00  0.00     0.027 A 
ATOM      4  C4  DEN d   1      -2.091  -0.826  -0.399  0.00  0.00     0.027 A 
ATOM      5  C5  DEN d   1      -2.708  -1.620   0.542  0.00  0.00    -0.003 A 
ATOM      6  C6  DEN d   1      -2.051  -2.085   1.650  0.00  0.00     0.001 A 
ATOM      7  C7  DEN d   1      -0.748  -1.721   1.868  0.00  0.00     0.017 A 
ATOM      8  C8  DEN d   1      -0.117  -0.927   0.920  0.00  0.00    -0.094 A 
ATOM      9  C9  DEN d   1      -0.803  -0.457  -0.187  0.00  0.00    -0.072 A 
ENDROOT
TORSDOF 0
ENDMDL
