MODEL 1
REMARK minimizedAffinity -4.67488384
REMARK minimizedRMSD -1
REMARK  0 active torsions:
REMARK  status: ('A' for Active; 'I' for Inactive)
ROOT
ATOM      1  C1  DEN d   1      -1.483  -1.097   0.907  0.00  0.00     0.130 A 
ATOM      2  C2  DEN d   1      -2.606  -1.183  -0.023  0.00  0.00    -0.031 A 
ATOM      3  C3  DEN d   1      -2.264  -0.396  -1.225  0.00  0.00     0.027 A 
ATOM      4  C4  DEN d   1      -0.116   0.937  -1.735  0.00  0.00     0.027 A 
ATOM      5  C5  DEN d   1       1.114   1.316  -1.244  0.00  0.00    -0.003 A 
ATOM      6  C6  DEN d   1       1.546   0.948   0.003  0.00  0.00     0.001 A 
ATOM      7  C7  DEN d   1       0.761   0.140   0.783  0.00  0.00     0.017 A 
ATOM      8  C8  DEN d   1      -0.483  -0.239   0.297  0.00  0.00    -0.094 A 
ATOM      9  C9  DEN d   1      -0.897   0.133  -0.971  0.00  0.00    -0.072 A 
ENDROOT
TORSDOF 0
ENDMDL
