MODEL 1
REMARK minimizedAffinity -5.17426968
REMARK minimizedRMSD -1
REMARK  0 active torsions:
REMARK  status: ('A' for Active; 'I' for Inactive)
ROOT
ATOM      1  C1  DEN d   1       0.045   0.061  -1.322  0.00  0.00     0.130 A 
ATOM      2  C2  DEN d   1       1.221  -0.046  -0.462  0.00  0.00    -0.031 A 
ATOM      3  C3  DEN d   1       0.816  -0.730   0.783  0.00  0.00     0.027 A 
ATOM      4  C4  DEN d   1      -1.504  -1.634   1.456  0.00  0.00     0.027 A 
ATOM      5  C5  DEN d   1      -2.816  -1.766   1.058  0.00  0.00    -0.003 A 
ATOM      6  C6  DEN d   1      -3.270  -1.272  -0.137  0.00  0.00     0.001 A 
ATOM      7  C7  DEN d   1      -2.395  -0.662  -0.996  0.00  0.00     0.017 A 
ATOM      8  C8  DEN d   1      -1.072  -0.519  -0.598  0.00  0.00    -0.094 A 
ATOM      9  C9  DEN d   1      -0.630  -1.036   0.607  0.00  0.00    -0.072 A 
ENDROOT
TORSDOF 0
ENDMDL
