MODEL 1
REMARK minimizedAffinity -6.33418512
REMARK minimizedRMSD -1
REMARK  0 active torsions:
REMARK  status: ('A' for Active; 'I' for Inactive)
ROOT
ATOM      1  C1  DEN d   1      -0.108   0.337  -0.557  0.00  0.00     0.130 A 
ATOM      2  C2  DEN d   1       1.115  -0.134   0.088  0.00  0.00    -0.031 A 
ATOM      3  C3  DEN d   1       0.773  -1.309   0.913  0.00  0.00     0.027 A 
ATOM      4  C4  DEN d   1      -1.518  -2.445   1.250  0.00  0.00     0.027 A 
ATOM      5  C5  DEN d   1      -2.854  -2.397   0.918  0.00  0.00    -0.003 A 
ATOM      6  C6  DEN d   1      -3.370  -1.422   0.105  0.00  0.00     0.001 A 
ATOM      7  C7  DEN d   1      -2.537  -0.482  -0.440  0.00  0.00     0.017 A 
ATOM      8  C8  DEN d   1      -1.190  -0.519  -0.104  0.00  0.00    -0.094 A 
ATOM      9  C9  DEN d   1      -0.686  -1.519   0.709  0.00  0.00    -0.072 A 
ENDROOT
TORSDOF 0
ENDMDL
