MODEL 1
REMARK minimizedAffinity -4.12994289
REMARK minimizedRMSD -1
REMARK  0 active torsions:
REMARK  status: ('A' for Active; 'I' for Inactive)
ROOT
ATOM      1  C1  DEN d   1       0.755  -0.331   0.703  0.00  0.00     0.130 A 
ATOM      2  C2  DEN d   1       0.974   0.649  -0.357  0.00  0.00    -0.031 A 
ATOM      3  C3  DEN d   1      -0.249   0.710  -1.182  0.00  0.00     0.027 A 
ATOM      4  C4  DEN d   1      -2.451  -0.607  -0.918  0.00  0.00     0.027 A 
ATOM      5  C5  DEN d   1      -3.105  -1.562  -0.173  0.00  0.00    -0.003 A 
ATOM      6  C6  DEN d   1      -2.511  -2.194   0.888  0.00  0.00     0.001 A 
ATOM      7  C7  DEN d   1      -1.240  -1.844   1.261  0.00  0.00     0.017 A 
ATOM      8  C8  DEN d   1      -0.572  -0.887   0.509  0.00  0.00    -0.094 A 
ATOM      9  C9  DEN d   1      -1.194  -0.252  -0.552  0.00  0.00    -0.072 A 
ENDROOT
TORSDOF 0
ENDMDL
