MODEL 1
REMARK minimizedAffinity -6.63300323
REMARK minimizedRMSD -1
REMARK  0 active torsions:
REMARK  status: ('A' for Active; 'I' for Inactive)
ROOT
ATOM      1  C1  DEN d   1       0.544  -0.366   0.655  0.00  0.00     0.130 A 
ATOM      2  C2  DEN d   1       0.554   0.586  -0.452  0.00  0.00    -0.031 A 
ATOM      3  C3  DEN d   1      -0.803   0.626  -1.033  0.00  0.00     0.027 A 
ATOM      4  C4  DEN d   1      -2.909  -0.684  -0.325  0.00  0.00     0.027 A 
ATOM      5  C5  DEN d   1      -3.406  -1.620   0.554  0.00  0.00    -0.003 A 
ATOM      6  C6  DEN d   1      -2.620  -2.224   1.499  0.00  0.00     0.001 A 
ATOM      7  C7  DEN d   1      -1.303  -1.865   1.617  0.00  0.00     0.017 A 
ATOM      8  C8  DEN d   1      -0.793  -0.927   0.728  0.00  0.00    -0.094 A 
ATOM      9  C9  DEN d   1      -1.607  -0.319  -0.212  0.00  0.00    -0.072 A 
ENDROOT
TORSDOF 0
ENDMDL
