MODEL 1
REMARK minimizedAffinity -6.82516193
REMARK minimizedRMSD -1
REMARK  0 active torsions:
REMARK  status: ('A' for Active; 'I' for Inactive)
ROOT
ATOM      1  C1  DEN d   1      -2.213  -2.285   1.058  0.00  0.00     0.130 A 
ATOM      2  C2  DEN d   1      -3.394  -1.787   0.357  0.00  0.00    -0.031 A 
ATOM      3  C3  DEN d   1      -2.983  -0.629  -0.463  0.00  0.00     0.027 A 
ATOM      4  C4  DEN d   1      -0.646   0.432  -0.717  0.00  0.00     0.027 A 
ATOM      5  C5  DEN d   1       0.668   0.364  -0.311  0.00  0.00    -0.003 A 
ATOM      6  C6  DEN d   1       1.104  -0.563   0.599  0.00  0.00     0.001 A 
ATOM      7  C7  DEN d   1       0.226  -1.489   1.098  0.00  0.00     0.017 A 
ATOM      8  C8  DEN d   1      -1.103  -1.421   0.698  0.00  0.00    -0.094 A 
ATOM      9  C9  DEN d   1      -1.521  -0.484  -0.231  0.00  0.00    -0.072 A 
ENDROOT
TORSDOF 0
ENDMDL
