MODEL 1
REMARK minimizedAffinity -7.06865501
REMARK minimizedRMSD -1
REMARK  0 active torsions:
REMARK  status: ('A' for Active; 'I' for Inactive)
ROOT
ATOM      1  C1  DEN d   1      -1.120  -2.016   1.869  0.00  0.00     0.130 A 
ATOM      2  C2  DEN d   1      -2.458  -2.591   1.768  0.00  0.00    -0.031 A 
ATOM      3  C3  DEN d   1      -3.137  -1.968   0.614  0.00  0.00     0.027 A 
ATOM      4  C4  DEN d   1      -2.247  -0.182  -1.021  0.00  0.00     0.027 A 
ATOM      5  C5  DEN d   1      -1.171   0.620  -1.330  0.00  0.00    -0.003 A 
ATOM      6  C6  DEN d   1      -0.024   0.624  -0.581  0.00  0.00     0.001 A 
ATOM      7  C7  DEN d   1       0.090  -0.223   0.489  0.00  0.00     0.017 A 
ATOM      8  C8  DEN d   1      -0.993  -1.029   0.812  0.00  0.00    -0.094 A 
ATOM      9  C9  DEN d   1      -2.140  -1.027   0.035  0.00  0.00    -0.072 A 
ENDROOT
TORSDOF 0
ENDMDL
