MODEL 1
REMARK minimizedAffinity -6.7857976
REMARK minimizedRMSD -1
REMARK  0 active torsions:
REMARK  status: ('A' for Active; 'I' for Inactive)
ROOT
ATOM      1  C1  DEN d   1      -0.290   0.395  -1.315  0.00  0.00     0.130 A 
ATOM      2  C2  DEN d   1       0.974   0.157  -0.624  0.00  0.00    -0.031 A 
ATOM      3  C3  DEN d   1       0.716  -0.776   0.491  0.00  0.00     0.027 A 
ATOM      4  C4  DEN d   1      -1.505  -1.873   1.208  0.00  0.00     0.027 A 
ATOM      5  C5  DEN d   1      -2.852  -1.965   0.933  0.00  0.00    -0.003 A 
ATOM      6  C6  DEN d   1      -3.440  -1.257  -0.081  0.00  0.00     0.001 A 
ATOM      7  C7  DEN d   1      -2.671  -0.459  -0.887  0.00  0.00     0.017 A 
ATOM      8  C8  DEN d   1      -1.314  -0.355  -0.611  0.00  0.00    -0.094 A 
ATOM      9  C9  DEN d   1      -0.736  -1.089   0.411  0.00  0.00    -0.072 A 
ENDROOT
TORSDOF 0
ENDMDL
