MODEL 1
REMARK minimizedAffinity -2.61321235
REMARK minimizedRMSD -1
REMARK  1 active torsions:
REMARK  status: ('A' for Active; 'I' for Inactive)
REMARK    1  A    between atoms: C1_2  and  C2_3 
ROOT
ATOM      1  C2  UNL d   1       0.491  -1.355  -0.581  0.00  0.00    -0.081 A 
ATOM      2  C3  UNL d   1       0.351  -2.178   0.544  0.00  0.00     0.006 A 
ATOM      3  C4  UNL d   1      -0.300  -1.709   1.687  0.00  0.00     0.002 A 
ATOM      4  C5  UNL d   1      -0.829  -0.414   1.722  0.00  0.00    -0.080 A 
ATOM      5  C6  UNL d   1      -1.558   0.091   2.932  0.00  0.00     0.076 C 
ATOM      6  C7  UNL d   1      -0.675   0.413   0.605  0.00  0.00     0.002 A 
ATOM      7  C8  UNL d   1      -0.023  -0.055  -0.538  0.00  0.00     0.006 A 
ENDROOT
BRANCH   1   8
ATOM      8  C1  UNL d   1       1.136  -1.880  -1.838  0.00  0.00     0.054 C 
ATOM      9  C   UNL d   1       0.773  -1.025  -3.044  0.00  0.00     0.018 C 
ENDBRANCH   1   8
TORSDOF 1
ENDMDL
