MODEL 1
REMARK minimizedAffinity -4.80131245
REMARK minimizedRMSD -1
REMARK  1 active torsions:
REMARK  status: ('A' for Active; 'I' for Inactive)
REMARK    1  A    between atoms: C1_2  and  C2_3 
ROOT
ATOM      1  C2  UNL d   1       0.958   1.369   0.156  0.00  0.00    -0.081 A 
ATOM      2  C3  UNL d   1      -0.146   0.578  -0.182  0.00  0.00     0.006 A 
ATOM      3  C4  UNL d   1      -0.716  -0.283   0.760  0.00  0.00     0.002 A 
ATOM      4  C5  UNL d   1      -0.195  -0.361   2.056  0.00  0.00    -0.080 A 
ATOM      5  C6  UNL d   1      -0.816  -1.258   3.085  0.00  0.00     0.076 C 
ATOM      6  C7  UNL d   1       0.919   0.417   2.389  0.00  0.00     0.002 A 
ATOM      7  C8  UNL d   1       1.489   1.277   1.447  0.00  0.00     0.006 A 
ENDROOT
BRANCH   1   8
ATOM      8  C1  UNL d   1       1.534   2.346  -0.838  0.00  0.00     0.054 C 
ATOM      9  C   UNL d   1       2.318   3.448  -0.140  0.00  0.00     0.018 C 
ENDBRANCH   1   8
TORSDOF 1
ENDMDL
