MODEL 1
REMARK minimizedAffinity -3.74823785
REMARK minimizedRMSD -1
REMARK  1 active torsions:
REMARK  status: ('A' for Active; 'I' for Inactive)
REMARK    1  A    between atoms: C1_2  and  C2_3 
ROOT
ATOM      1  C2  UNL d   1       0.332   0.393  -0.442  0.00  0.00    -0.081 A 
ATOM      2  C3  UNL d   1      -0.900  -0.248  -0.264  0.00  0.00     0.006 A 
ATOM      3  C4  UNL d   1      -1.313  -0.646   1.009  0.00  0.00     0.002 A 
ATOM      4  C5  UNL d   1      -0.506  -0.404   2.126  0.00  0.00    -0.080 A 
ATOM      5  C6  UNL d   1      -0.952  -0.799   3.502  0.00  0.00     0.076 C 
ATOM      6  C7  UNL d   1       0.732   0.221   1.946  0.00  0.00     0.002 A 
ATOM      7  C8  UNL d   1       1.147   0.619   0.673  0.00  0.00     0.006 A 
ENDROOT
BRANCH   1   8
ATOM      8  C1  UNL d   1       0.752   0.882  -1.805  0.00  0.00     0.054 C 
ATOM      9  C   UNL d   1       1.273   2.311  -1.744  0.00  0.00     0.018 C 
ENDBRANCH   1   8
TORSDOF 1
ENDMDL
