MODEL 1
REMARK minimizedAffinity 0.695021331
REMARK minimizedRMSD -1
REMARK  1 active torsions:
REMARK  status: ('A' for Active; 'I' for Inactive)
REMARK    1  A    between atoms: C1_2  and  C2_3 
ROOT
ATOM      1  C2  UNL d   1      -2.113   1.828   2.337  0.00  0.00    -0.081 A 
ATOM      2  C3  UNL d   1      -1.562   2.310   3.530  0.00  0.00     0.006 A 
ATOM      3  C4  UNL d   1      -2.387   2.815   4.538  0.00  0.00     0.002 A 
ATOM      4  C5  UNL d   1      -3.776   2.838   4.373  0.00  0.00    -0.080 A 
ATOM      5  C6  UNL d   1      -4.675   3.350   5.459  0.00  0.00     0.076 C 
ATOM      6  C7  UNL d   1      -4.325   2.373   3.173  0.00  0.00     0.002 A 
ATOM      7  C8  UNL d   1      -3.501   1.869   2.165  0.00  0.00     0.006 A 
ENDROOT
BRANCH   1   8
ATOM      8  C1  UNL d   1      -1.231   1.223   1.275  0.00  0.00     0.054 C 
ATOM      9  C   UNL d   1      -1.757  -0.132   0.823  0.00  0.00     0.018 C 
ENDBRANCH   1   8
TORSDOF 1
ENDMDL
