MODEL 1
REMARK minimizedAffinity 6.34238529
REMARK minimizedRMSD -1
REMARK  1 active torsions:
REMARK  status: ('A' for Active; 'I' for Inactive)
REMARK    1  A    between atoms: C1_2  and  C2_3 
ROOT
ATOM      1  C2  UNL d   1       1.335   1.537   1.353  0.00  0.00    -0.081 A 
ATOM      2  C3  UNL d   1       1.095   0.517   0.425  0.00  0.00     0.006 A 
ATOM      3  C4  UNL d   1      -0.149  -0.117   0.374  0.00  0.00     0.002 A 
ATOM      4  C5  UNL d   1      -1.175   0.265   1.245  0.00  0.00    -0.080 A 
ATOM      5  C6  UNL d   1      -2.525  -0.387   1.181  0.00  0.00     0.076 C 
ATOM      6  C7  UNL d   1      -0.930   1.272   2.184  0.00  0.00     0.002 A 
ATOM      7  C8  UNL d   1       0.314   1.906   2.235  0.00  0.00     0.006 A 
ENDROOT
BRANCH   1   8
ATOM      8  C1  UNL d   1       2.654   2.266   1.366  0.00  0.00     0.054 C 
ATOM      9  C   UNL d   1       3.678   1.543   2.230  0.00  0.00     0.018 C 
ENDBRANCH   1   8
TORSDOF 1
ENDMDL
