MODEL 1
REMARK minimizedAffinity 3.25616884
REMARK minimizedRMSD -1
REMARK  1 active torsions:
REMARK  status: ('A' for Active; 'I' for Inactive)
REMARK    1  A    between atoms: C1_2  and  C2_3 
ROOT
ATOM      1  C2  UNL d   1      -2.969  -3.759   2.242  0.00  0.00    -0.081 A 
ATOM      2  C3  UNL d   1      -3.379  -5.031   2.661  0.00  0.00     0.006 A 
ATOM      3  C4  UNL d   1      -4.322  -5.749   1.922  0.00  0.00     0.002 A 
ATOM      4  C5  UNL d   1      -4.864  -5.213   0.749  0.00  0.00    -0.080 A 
ATOM      5  C6  UNL d   1      -5.854  -5.986  -0.069  0.00  0.00     0.076 C 
ATOM      6  C7  UNL d   1      -4.466  -3.935   0.340  0.00  0.00     0.002 A 
ATOM      7  C8  UNL d   1      -3.524  -3.216   1.079  0.00  0.00     0.006 A 
ENDROOT
BRANCH   1   8
ATOM      8  C1  UNL d   1      -1.904  -3.009   3.002  0.00  0.00     0.054 C 
ATOM      9  C   UNL d   1      -1.433  -1.785   2.230  0.00  0.00     0.018 C 
ENDBRANCH   1   8
TORSDOF 1
ENDMDL
