MODEL 1
REMARK minimizedAffinity 1.34401977
REMARK minimizedRMSD -1
REMARK  1 active torsions:
REMARK  status: ('A' for Active; 'I' for Inactive)
REMARK    1  A    between atoms: C1_2  and  C2_3 
ROOT
ATOM      1  C2  UNL d   1      -3.366  -4.895   3.469  0.00  0.00    -0.081 A 
ATOM      2  C3  UNL d   1      -4.547  -5.602   3.727  0.00  0.00     0.006 A 
ATOM      3  C4  UNL d   1      -5.406  -5.950   2.682  0.00  0.00     0.002 A 
ATOM      4  C5  UNL d   1      -5.095  -5.605   1.362  0.00  0.00    -0.080 A 
ATOM      5  C6  UNL d   1      -5.993  -6.000   0.228  0.00  0.00     0.076 C 
ATOM      6  C7  UNL d   1      -3.924  -4.884   1.107  0.00  0.00     0.002 A 
ATOM      7  C8  UNL d   1      -3.065  -4.534   2.151  0.00  0.00     0.006 A 
ENDROOT
BRANCH   1   8
ATOM      8  C1  UNL d   1      -2.406  -4.574   4.586  0.00  0.00     0.054 C 
ATOM      9  C   UNL d   1      -2.889  -5.145   5.912  0.00  0.00     0.018 C 
ENDBRANCH   1   8
TORSDOF 1
ENDMDL
