MODEL 1
REMARK minimizedAffinity 5.44836283
REMARK minimizedRMSD -1
REMARK  1 active torsions:
REMARK  status: ('A' for Active; 'I' for Inactive)
REMARK    1  A    between atoms: C1_2  and  C2_3 
ROOT
ATOM      1  C2  UNL d   1      -4.941  -4.649   1.067  0.00  0.00    -0.081 A 
ATOM      2  C3  UNL d   1      -3.768  -4.963   0.370  0.00  0.00     0.006 A 
ATOM      3  C4  UNL d   1      -2.813  -3.977   0.110  0.00  0.00     0.002 A 
ATOM      4  C5  UNL d   1      -3.012  -2.664   0.549  0.00  0.00    -0.080 A 
ATOM      5  C6  UNL d   1      -1.981  -1.602   0.303  0.00  0.00     0.076 C 
ATOM      6  C7  UNL d   1      -4.192  -2.346   1.229  0.00  0.00     0.002 A 
ATOM      7  C8  UNL d   1      -5.147  -3.331   1.489  0.00  0.00     0.006 A 
ENDROOT
BRANCH   1   8
ATOM      8  C1  UNL d   1      -5.943  -5.724   1.405  0.00  0.00     0.054 C 
ATOM      9  C   UNL d   1      -5.982  -5.992   2.903  0.00  0.00     0.018 C 
ENDBRANCH   1   8
TORSDOF 1
ENDMDL
