MODEL 1
REMARK minimizedAffinity -5.03496695
REMARK minimizedRMSD -1
REMARK  1 active torsions:
REMARK  status: ('A' for Active; 'I' for Inactive)
REMARK    1  A    between atoms: C1_2  and  C2_3 
ROOT
ATOM      1  C2  UNL d   1       0.676  -0.295  -1.351  0.00  0.00    -0.081 A 
ATOM      2  C3  UNL d   1       1.864  -0.595  -0.672  0.00  0.00     0.006 A 
ATOM      3  C4  UNL d   1       1.946  -0.440   0.714  0.00  0.00     0.002 A 
ATOM      4  C5  UNL d   1       0.841   0.010   1.444  0.00  0.00    -0.080 A 
ATOM      5  C6  UNL d   1       0.906   0.153   2.936  0.00  0.00     0.076 C 
ATOM      6  C7  UNL d   1      -0.340   0.327   0.764  0.00  0.00     0.002 A 
ATOM      7  C8  UNL d   1      -0.422   0.172  -0.622  0.00  0.00     0.006 A 
ENDROOT
BRANCH   1   8
ATOM      8  C1  UNL d   1       0.564  -0.524  -2.837  0.00  0.00     0.054 C 
ATOM      9  C   UNL d   1       0.712  -1.999  -3.183  0.00  0.00     0.018 C 
ENDBRANCH   1   8
TORSDOF 1
ENDMDL
