MODEL 1
REMARK minimizedAffinity -5.03895521
REMARK minimizedRMSD -1
REMARK  1 active torsions:
REMARK  status: ('A' for Active; 'I' for Inactive)
REMARK    1  A    between atoms: C1_2  and  C2_3 
ROOT
ATOM      1  C2  UNL d   1       0.420  -0.105  -0.737  0.00  0.00    -0.081 A 
ATOM      2  C3  UNL d   1       1.016   1.041  -0.197  0.00  0.00     0.006 A 
ATOM      3  C4  UNL d   1       0.950   1.295   1.175  0.00  0.00     0.002 A 
ATOM      4  C5  UNL d   1       0.293   0.404   2.030  0.00  0.00    -0.080 A 
ATOM      5  C6  UNL d   1       0.240   0.649   3.509  0.00  0.00     0.076 C 
ATOM      6  C7  UNL d   1      -0.319  -0.732   1.489  0.00  0.00     0.002 A 
ATOM      7  C8  UNL d   1      -0.253  -0.986   0.117  0.00  0.00     0.006 A 
ENDROOT
BRANCH   1   8
ATOM      8  C1  UNL d   1       0.545  -0.414  -2.207  0.00  0.00     0.054 C 
ATOM      9  C   UNL d   1       1.964  -0.831  -2.565  0.00  0.00     0.018 C 
ENDBRANCH   1   8
TORSDOF 1
ENDMDL
