MODEL 1
REMARK minimizedAffinity 11.3097324
REMARK minimizedRMSD -1
REMARK  1 active torsions:
REMARK  status: ('A' for Active; 'I' for Inactive)
REMARK    1  A    between atoms: C1_2  and  C2_3 
ROOT
ATOM      1  C2  UNL d   1       1.377  -1.854  -3.344  0.00  0.00    -0.081 A 
ATOM      2  C3  UNL d   1       1.427  -0.655  -2.623  0.00  0.00     0.006 A 
ATOM      3  C4  UNL d   1       2.617   0.073  -2.542  0.00  0.00     0.002 A 
ATOM      4  C5  UNL d   1       3.773  -0.381  -3.186  0.00  0.00    -0.080 A 
ATOM      5  C6  UNL d   1       5.048   0.406  -3.132  0.00  0.00     0.076 C 
ATOM      6  C7  UNL d   1       3.727  -1.588  -3.892  0.00  0.00     0.002 A 
ATOM      7  C8  UNL d   1       2.538  -2.317  -3.973  0.00  0.00     0.006 A 
ENDROOT
BRANCH   1   8
ATOM      8  C1  UNL d   1       0.080  -2.608  -3.488  0.00  0.00     0.054 C 
ATOM      9  C   UNL d   1      -0.549  -2.372  -4.854  0.00  0.00     0.018 C 
ENDBRANCH   1   8
TORSDOF 1
ENDMDL
