MODEL 1
REMARK minimizedAffinity -3.4538691
REMARK minimizedRMSD -1
REMARK  1 active torsions:
REMARK  status: ('A' for Active; 'I' for Inactive)
REMARK    1  A    between atoms: C1_2  and  C2_3 
ROOT
ATOM      1  C2  UNL d   1       2.325  -0.920  -2.984  0.00  0.00    -0.081 A 
ATOM      2  C3  UNL d   1       2.440   0.290  -2.289  0.00  0.00     0.006 A 
ATOM      3  C4  UNL d   1       3.533   1.132  -2.509  0.00  0.00     0.002 A 
ATOM      4  C5  UNL d   1       4.524   0.782  -3.433  0.00  0.00    -0.080 A 
ATOM      5  C6  UNL d   1       5.687   1.691  -3.701  0.00  0.00     0.076 C 
ATOM      6  C7  UNL d   1       4.418  -0.434  -4.115  0.00  0.00     0.002 A 
ATOM      7  C8  UNL d   1       3.325  -1.277  -3.895  0.00  0.00     0.006 A 
ENDROOT
BRANCH   1   8
ATOM      8  C1  UNL d   1       1.115  -1.799  -2.797  0.00  0.00     0.054 C 
ATOM      9  C   UNL d   1       0.575  -2.289  -4.133  0.00  0.00     0.018 C 
ENDBRANCH   1   8
TORSDOF 1
ENDMDL
