MODEL 1
REMARK minimizedAffinity 17.5075645
REMARK minimizedRMSD -1
REMARK  1 active torsions:
REMARK  status: ('A' for Active; 'I' for Inactive)
REMARK    1  A    between atoms: C1_2  and  C2_3 
ROOT
ATOM      1  C2  UNL d   1       1.910  -0.626  -2.169  0.00  0.00    -0.081 A 
ATOM      2  C3  UNL d   1       2.059   0.766  -2.198  0.00  0.00     0.006 A 
ATOM      3  C4  UNL d   1       3.251   1.341  -2.645  0.00  0.00     0.002 A 
ATOM      4  C5  UNL d   1       4.310   0.535  -3.076  0.00  0.00    -0.080 A 
ATOM      5  C6  UNL d   1       5.584   1.140  -3.586  0.00  0.00     0.076 C 
ATOM      6  C7  UNL d   1       4.168  -0.856  -3.030  0.00  0.00     0.002 A 
ATOM      7  C8  UNL d   1       2.976  -1.432  -2.583  0.00  0.00     0.006 A 
ENDROOT
BRANCH   1   8
ATOM      8  C1  UNL d   1       0.602  -1.248  -1.749  0.00  0.00     0.054 C 
ATOM      9  C   UNL d   1      -0.334  -1.422  -2.936  0.00  0.00     0.018 C 
ENDBRANCH   1   8
TORSDOF 1
ENDMDL
