MODEL 1
REMARK minimizedAffinity 3.42902136
REMARK minimizedRMSD -1
REMARK  1 active torsions:
REMARK  status: ('A' for Active; 'I' for Inactive)
REMARK    1  A    between atoms: C1_2  and  C2_3 
ROOT
ATOM      1  C2  UNL d   1       2.308  -2.714   3.437  0.00  0.00    -0.081 A 
ATOM      2  C3  UNL d   1       3.148  -1.897   4.205  0.00  0.00     0.006 A 
ATOM      3  C4  UNL d   1       3.824  -0.826   3.617  0.00  0.00     0.002 A 
ATOM      4  C5  UNL d   1       3.666  -0.548   2.255  0.00  0.00    -0.080 A 
ATOM      5  C6  UNL d   1       4.362   0.617   1.617  0.00  0.00     0.076 C 
ATOM      6  C7  UNL d   1       2.841  -1.375   1.484  0.00  0.00     0.002 A 
ATOM      7  C8  UNL d   1       2.165  -2.447   2.071  0.00  0.00     0.006 A 
ENDROOT
BRANCH   1   8
ATOM      8  C1  UNL d   1       1.528  -3.831   4.082  0.00  0.00     0.054 C 
ATOM      9  C   UNL d   1       0.848  -4.705   3.038  0.00  0.00     0.018 C 
ENDBRANCH   1   8
TORSDOF 1
ENDMDL
