MODEL 1
REMARK minimizedAffinity -3.34304595
REMARK minimizedRMSD -1
REMARK  0 active torsions:
REMARK  status: ('A' for Active; 'I' for Inactive)
ROOT
ATOM      1  C4' PXY d   1       1.262  -3.089  -2.247  0.00  0.00     0.077 C 
ATOM      2  C1' PXY d   1       0.572   1.840   0.694  0.00  0.00     0.077 C 
ATOM      3  C1  PXY d   1       0.763   0.552  -0.083  0.00  0.00    -0.082 A 
ATOM      4  C2  PXY d   1      -0.267  -0.255  -0.275  0.00  0.00     0.003 A 
ATOM      5  C3  PXY d   1      -0.105  -1.439  -0.948  0.00  0.00     0.003 A 
ATOM      6  C4  PXY d   1       1.113  -1.774  -1.476  0.00  0.00    -0.082 A 
ATOM      7  C5  PXY d   1       2.167  -0.950  -1.294  0.00  0.00     0.003 A 
ATOM      8  C6  PXY d   1       1.991   0.227  -0.572  0.00  0.00     0.003 A 
ENDROOT
TORSDOF 0
ENDMDL
