MODEL 1
REMARK minimizedAffinity -1.52965593
REMARK minimizedRMSD -1
REMARK  0 active torsions:
REMARK  status: ('A' for Active; 'I' for Inactive)
ROOT
ATOM      1  C4' PXY d   1       2.303  -0.102  -3.087  0.00  0.00     0.077 C 
ATOM      2  C1' PXY d   1      -1.282  -0.286   1.444  0.00  0.00     0.077 C 
ATOM      3  C1  PXY d   1      -0.335  -0.247   0.261  0.00  0.00    -0.082 A 
ATOM      4  C2  PXY d   1      -0.263   0.844  -0.484  0.00  0.00     0.003 A 
ATOM      5  C3  PXY d   1       0.565   0.885  -1.576  0.00  0.00     0.003 A 
ATOM      6  C4  PXY d   1       1.367  -0.183  -1.878  0.00  0.00    -0.082 A 
ATOM      7  C5  PXY d   1       1.307  -1.296  -1.116  0.00  0.00     0.003 A 
ATOM      8  C6  PXY d   1       0.430  -1.332  -0.036  0.00  0.00     0.003 A 
ENDROOT
TORSDOF 0
ENDMDL
