MODEL 1
REMARK minimizedAffinity -3.4775672
REMARK minimizedRMSD -1
REMARK  0 active torsions:
REMARK  status: ('A' for Active; 'I' for Inactive)
ROOT
ATOM      1  C4' PXY d   1      -1.236   1.416   2.702  0.00  0.00     0.077 C 
ATOM      2  C1' PXY d   1       1.864  -1.143  -1.453  0.00  0.00     0.077 C 
ATOM      3  C1  PXY d   1       1.048  -0.462  -0.371  0.00  0.00    -0.082 A 
ATOM      4  C2  PXY d   1       1.313  -0.710   0.901  0.00  0.00     0.003 A 
ATOM      5  C3  PXY d   1       0.564  -0.127   1.892  0.00  0.00     0.003 A 
ATOM      6  C4  PXY d   1      -0.432   0.758   1.577  0.00  0.00    -0.082 A 
ATOM      7  C5  PXY d   1      -0.701   1.024   0.281  0.00  0.00     0.003 A 
ATOM      8  C6  PXY d   1       0.043   0.391  -0.710  0.00  0.00     0.003 A 
ENDROOT
TORSDOF 0
ENDMDL
