MODEL 1
REMARK minimizedAffinity -4.91712189
REMARK minimizedRMSD -1
REMARK  0 active torsions:
REMARK  status: ('A' for Active; 'I' for Inactive)
ROOT
ATOM      1  C4' PXY d   1      -1.612   0.372   0.654  0.00  0.00     0.077 C 
ATOM      2  C1' PXY d   1       3.370  -0.426  -2.167  0.00  0.00     0.077 C 
ATOM      3  C1  PXY d   1       2.061  -0.229  -1.428  0.00  0.00    -0.082 A 
ATOM      4  C2  PXY d   1       1.474   0.956  -1.442  0.00  0.00     0.003 A 
ATOM      5  C3  PXY d   1       0.306   1.160  -0.753  0.00  0.00     0.003 A 
ATOM      6  C4  PXY d   1      -0.294   0.125  -0.086  0.00  0.00    -0.082 A 
ATOM      7  C5  PXY d   1       0.293  -1.090  -0.076  0.00  0.00     0.003 A 
ATOM      8  C6  PXY d   1       1.500  -1.265  -0.748  0.00  0.00     0.003 A 
ENDROOT
TORSDOF 0
ENDMDL
