MODEL 1
REMARK minimizedAffinity -5.44669724
REMARK minimizedRMSD -1
REMARK  0 active torsions:
REMARK  status: ('A' for Active; 'I' for Inactive)
ROOT
ATOM      1  C4' PXY d   1      -1.530   0.007   1.341  0.00  0.00     0.077 C 
ATOM      2  C1' PXY d   1       2.152   0.547  -3.083  0.00  0.00     0.077 C 
ATOM      3  C1  PXY d   1       1.188   0.393  -1.923  0.00  0.00    -0.082 A 
ATOM      4  C2  PXY d   1       0.287   1.333  -1.691  0.00  0.00     0.003 A 
ATOM      5  C3  PXY d   1      -0.571   1.225  -0.628  0.00  0.00     0.003 A 
ATOM      6  C4  PXY d   1      -0.542   0.117   0.176  0.00  0.00    -0.082 A 
ATOM      7  C5  PXY d   1       0.367  -0.852  -0.060  0.00  0.00     0.003 A 
ATOM      8  C6  PXY d   1       1.257  -0.704  -1.120  0.00  0.00     0.003 A 
ENDROOT
TORSDOF 0
ENDMDL
