MODEL 1
REMARK minimizedAffinity -5.26202822
REMARK minimizedRMSD -1
REMARK  0 active torsions:
REMARK  status: ('A' for Active; 'I' for Inactive)
ROOT
ATOM      1  C4' PXY d   1       1.522   2.487  -2.430  0.00  0.00     0.077 C 
ATOM      2  C1' PXY d   1       0.653  -2.503   0.355  0.00  0.00     0.077 C 
ATOM      3  C1  PXY d   1       0.894  -1.198  -0.377  0.00  0.00    -0.082 A 
ATOM      4  C2  PXY d   1       0.113  -0.158  -0.133  0.00  0.00     0.003 A 
ATOM      5  C3  PXY d   1       0.296   1.021  -0.810  0.00  0.00     0.003 A 
ATOM      6  C4  PXY d   1       1.322   1.152  -1.707  0.00  0.00    -0.082 A 
ATOM      7  C5  PXY d   1       2.130   0.099  -1.953  0.00  0.00     0.003 A 
ATOM      8  C6  PXY d   1       1.901  -1.101  -1.286  0.00  0.00     0.003 A 
ENDROOT
TORSDOF 0
ENDMDL
