MODEL 1
REMARK minimizedAffinity -4.70254755
REMARK minimizedRMSD -1
REMARK  0 active torsions:
REMARK  status: ('A' for Active; 'I' for Inactive)
ROOT
ATOM      1  C4' PXY d   1      -0.623   2.640  -1.870  0.00  0.00     0.077 C 
ATOM      2  C1' PXY d   1       1.993  -2.406  -0.817  0.00  0.00     0.077 C 
ATOM      3  C1  PXY d   1       1.296  -1.087  -1.088  0.00  0.00    -0.082 A 
ATOM      4  C2  PXY d   1       1.757  -0.286  -2.035  0.00  0.00     0.003 A 
ATOM      5  C3  PXY d   1       1.158   0.924  -2.272  0.00  0.00     0.003 A 
ATOM      6  C4  PXY d   1       0.043   1.295  -1.568  0.00  0.00    -0.082 A 
ATOM      7  C5  PXY d   1      -0.439   0.479  -0.607  0.00  0.00     0.003 A 
ATOM      8  C6  PXY d   1       0.208  -0.727  -0.354  0.00  0.00     0.003 A 
ENDROOT
TORSDOF 0
ENDMDL
