MODEL 1
REMARK minimizedAffinity -3.76954126
REMARK minimizedRMSD -1
REMARK  0 active torsions:
REMARK  status: ('A' for Active; 'I' for Inactive)
ROOT
ATOM      1  C4' PXY d   1       1.068   2.131  -2.611  0.00  0.00     0.077 C 
ATOM      2  C1' PXY d   1       0.783  -2.982   0.071  0.00  0.00     0.077 C 
ATOM      3  C1  PXY d   1       0.870  -1.644  -0.636  0.00  0.00    -0.082 A 
ATOM      4  C2  PXY d   1       0.031  -0.675  -0.308  0.00  0.00     0.003 A 
ATOM      5  C3  PXY d   1       0.075   0.531  -0.958  0.00  0.00     0.003 A 
ATOM      6  C4  PXY d   1       1.022   0.766  -1.918  0.00  0.00    -0.082 A 
ATOM      7  C5  PXY d   1       1.889  -0.213  -2.251  0.00  0.00     0.003 A 
ATOM      8  C6  PXY d   1       1.802  -1.444  -1.607  0.00  0.00     0.003 A 
ENDROOT
TORSDOF 0
ENDMDL
