MODEL 1
REMARK minimizedAffinity -4.63287163
REMARK minimizedRMSD -1
REMARK  0 active torsions:
REMARK  status: ('A' for Active; 'I' for Inactive)
ROOT
ATOM      1  C4' PXY d   1       1.228   2.410  -2.209  0.00  0.00     0.077 C 
ATOM      2  C1' PXY d   1       0.974  -2.912   0.032  0.00  0.00     0.077 C 
ATOM      3  C1  PXY d   1       1.053  -1.518  -0.559  0.00  0.00    -0.082 A 
ATOM      4  C2  PXY d   1       0.212  -0.584  -0.147  0.00  0.00     0.003 A 
ATOM      5  C3  PXY d   1       0.248   0.673  -0.693  0.00  0.00     0.003 A 
ATOM      6  C4  PXY d   1       1.191   0.992  -1.633  0.00  0.00    -0.082 A 
ATOM      7  C5  PXY d   1       2.060   0.048  -2.052  0.00  0.00     0.003 A 
ATOM      8  C6  PXY d   1       1.980  -1.234  -1.514  0.00  0.00     0.003 A 
ENDROOT
TORSDOF 0
ENDMDL
