MODEL 1
REMARK minimizedAffinity -2.31261587
REMARK minimizedRMSD -1
REMARK  0 active torsions:
REMARK  status: ('A' for Active; 'I' for Inactive)
ROOT
ATOM      1  C4' PXY d   1      -2.407   0.746   1.855  0.00  0.00     0.077 C 
ATOM      2  C1' PXY d   1       1.852  -0.993  -1.646  0.00  0.00     0.077 C 
ATOM      3  C1  PXY d   1       0.734  -0.525  -0.735  0.00  0.00    -0.082 A 
ATOM      4  C2  PXY d   1       0.614  -1.050   0.474  0.00  0.00     0.003 A 
ATOM      5  C3  PXY d   1      -0.410  -0.662   1.300  0.00  0.00     0.003 A 
ATOM      6  C4  PXY d   1      -1.288   0.311   0.904  0.00  0.00    -0.082 A 
ATOM      7  C5  PXY d   1      -1.165   0.859  -0.324  0.00  0.00     0.003 A 
ATOM      8  C6  PXY d   1      -0.144   0.422  -1.162  0.00  0.00     0.003 A 
ENDROOT
TORSDOF 0
ENDMDL
