MODEL 1
REMARK minimizedAffinity -1.42447758
REMARK minimizedRMSD -1
REMARK  0 active torsions:
REMARK  status: ('A' for Active; 'I' for Inactive)
ROOT
ATOM      1  C4' PXY d   1      -1.647   1.061   0.956  0.00  0.00     0.077 C 
ATOM      2  C1' PXY d   1       1.880  -2.847  -1.432  0.00  0.00     0.077 C 
ATOM      3  C1  PXY d   1       0.964  -1.813  -0.807  0.00  0.00    -0.082 A 
ATOM      4  C2  PXY d   1      -0.008  -2.204   0.001  0.00  0.00     0.003 A 
ATOM      5  C3  PXY d   1      -0.865  -1.285   0.550  0.00  0.00     0.003 A 
ATOM      6  C4  PXY d   1      -0.693   0.052   0.310  0.00  0.00    -0.082 A 
ATOM      7  C5  PXY d   1       0.303   0.459  -0.506  0.00  0.00     0.003 A 
ATOM      8  C6  PXY d   1       1.136  -0.493  -1.085  0.00  0.00     0.003 A 
ENDROOT
TORSDOF 0
ENDMDL
