MODEL 1
REMARK minimizedAffinity -4.60494375
REMARK minimizedRMSD -1
REMARK  0 active torsions:
REMARK  status: ('A' for Active; 'I' for Inactive)
ROOT
ATOM      1  C4' PXY d   1      -1.708   2.482   2.435  0.00  0.00     0.077 C 
ATOM      2  C1' PXY d   1      -3.470  -2.777   4.064  0.00  0.00     0.077 C 
ATOM      3  C1  PXY d   1      -3.005  -1.403   3.625  0.00  0.00    -0.082 A 
ATOM      4  C2  PXY d   1      -2.661  -0.507   4.536  0.00  0.00     0.003 A 
ATOM      5  C3  PXY d   1      -2.268   0.751   4.158  0.00  0.00     0.003 A 
ATOM      6  C4  PXY d   1      -2.175   1.079   2.832  0.00  0.00    -0.082 A 
ATOM      7  C5  PXY d   1      -2.513   0.167   1.896  0.00  0.00     0.003 A 
ATOM      8  C6  PXY d   1      -2.949  -1.092   2.302  0.00  0.00     0.003 A 
ENDROOT
TORSDOF 0
ENDMDL
