MODEL 1
REMARK minimizedAffinity -3.97111988
REMARK minimizedRMSD -1
REMARK  0 active torsions:
REMARK  status: ('A' for Active; 'I' for Inactive)
ROOT
ATOM      1  C4' PXY d   1       0.454  -3.130   0.850  0.00  0.00     0.077 C 
ATOM      2  C1' PXY d   1       2.176   1.397  -2.305  0.00  0.00     0.077 C 
ATOM      3  C1  PXY d   1       1.719   0.218  -1.469  0.00  0.00    -0.082 A 
ATOM      4  C2  PXY d   1       2.371  -0.931  -1.547  0.00  0.00     0.003 A 
ATOM      5  C3  PXY d   1       1.951  -2.017  -0.823  0.00  0.00     0.003 A 
ATOM      6  C4  PXY d   1       0.886  -1.910   0.031  0.00  0.00    -0.082 A 
ATOM      7  C5  PXY d   1       0.223  -0.738   0.124  0.00  0.00     0.003 A 
ATOM      8  C6  PXY d   1       0.639   0.340  -0.651  0.00  0.00     0.003 A 
ENDROOT
TORSDOF 0
ENDMDL
