MODEL 1
REMARK minimizedAffinity -3.80256748
REMARK minimizedRMSD -1
REMARK  0 active torsions:
REMARK  status: ('A' for Active; 'I' for Inactive)
ROOT
ATOM      1  C4' PXY d   1       0.215  -3.801   0.092  0.00  0.00     0.077 C 
ATOM      2  C1' PXY d   1       1.492   1.711  -1.090  0.00  0.00     0.077 C 
ATOM      3  C1  PXY d   1       1.160   0.262  -0.792  0.00  0.00    -0.082 A 
ATOM      4  C2  PXY d   1       0.329  -0.029   0.195  0.00  0.00     0.003 A 
ATOM      5  C3  PXY d   1       0.043  -1.335   0.499  0.00  0.00     0.003 A 
ATOM      6  C4  PXY d   1       0.571  -2.352  -0.250  0.00  0.00    -0.082 A 
ATOM      7  C5  PXY d   1       1.412  -2.063  -1.266  0.00  0.00     0.003 A 
ATOM      8  C6  PXY d   1       1.722  -0.732  -1.531  0.00  0.00     0.003 A 
ENDROOT
TORSDOF 0
ENDMDL
