MODEL 1
REMARK minimizedAffinity 0.326708883
REMARK minimizedRMSD -1
REMARK  0 active torsions:
REMARK  status: ('A' for Active; 'I' for Inactive)
ROOT
ATOM      1  C4' PXY d   1      -0.734   2.476   2.598  0.00  0.00     0.077 C 
ATOM      2  C1' PXY d   1      -4.708  -1.498   3.952  0.00  0.00     0.077 C 
ATOM      3  C1  PXY d   1      -3.675  -0.446   3.597  0.00  0.00    -0.082 A 
ATOM      4  C2  PXY d   1      -2.567  -0.804   2.969  0.00  0.00     0.003 A 
ATOM      5  C3  PXY d   1      -1.608   0.129   2.669  0.00  0.00     0.003 A 
ATOM      6  C4  PXY d   1      -1.809   1.450   2.968  0.00  0.00    -0.082 A 
ATOM      7  C5  PXY d   1      -2.941   1.825   3.600  0.00  0.00     0.003 A 
ATOM      8  C6  PXY d   1      -3.884   0.856   3.933  0.00  0.00     0.003 A 
ENDROOT
TORSDOF 0
ENDMDL
