MODEL 1
REMARK minimizedAffinity -1.00320458
REMARK minimizedRMSD -1
REMARK  0 active torsions:
REMARK  status: ('A' for Active; 'I' for Inactive)
ROOT
ATOM      1  C4' PXY d   1      -1.895   0.910   2.127  0.00  0.00     0.077 C 
ATOM      2  C1' PXY d   1       1.607  -2.058  -1.386  0.00  0.00     0.077 C 
ATOM      3  C1  PXY d   1       0.694  -1.268  -0.469  0.00  0.00    -0.082 A 
ATOM      4  C2  PXY d   1       0.206  -1.841   0.620  0.00  0.00     0.003 A 
ATOM      5  C3  PXY d   1      -0.647  -1.152   1.443  0.00  0.00     0.003 A 
ATOM      6  C4  PXY d   1      -0.961   0.154   1.178  0.00  0.00    -0.082 A 
ATOM      7  C5  PXY d   1      -0.459   0.749   0.075  0.00  0.00     0.003 A 
ATOM      8  C6  PXY d   1       0.372   0.019  -0.770  0.00  0.00     0.003 A 
ENDROOT
TORSDOF 0
ENDMDL
