MODEL 1
REMARK minimizedAffinity 7.72692871
REMARK minimizedRMSD -1
REMARK  0 active torsions:
REMARK  status: ('A' for Active; 'I' for Inactive)
ROOT
ATOM      1  C4' PXY d   1      -2.128  -0.526   1.974  0.00  0.00     0.077 C 
ATOM      2  C1' PXY d   1       1.774  -2.579  -1.765  0.00  0.00     0.077 C 
ATOM      3  C1  PXY d   1       0.756  -2.048  -0.775  0.00  0.00    -0.082 A 
ATOM      4  C2  PXY d   1      -0.426  -1.641  -1.207  0.00  0.00     0.003 A 
ATOM      5  C3  PXY d   1      -1.346  -1.127  -0.329  0.00  0.00     0.003 A 
ATOM      6  C4  PXY d   1      -1.073  -1.079   1.011  0.00  0.00    -0.082 A 
ATOM      7  C5  PXY d   1       0.127  -1.503   1.462  0.00  0.00     0.003 A 
ATOM      8  C6  PXY d   1       1.063  -1.982   0.550  0.00  0.00     0.003 A 
ENDROOT
TORSDOF 0
ENDMDL
