MODEL 1
REMARK minimizedAffinity 3.13283086
REMARK minimizedRMSD -1
REMARK  0 active torsions:
REMARK  status: ('A' for Active; 'I' for Inactive)
ROOT
ATOM      1  C4' PXY d   1      -6.000  -3.483   3.662  0.00  0.00     0.077 C 
ATOM      2  C1' PXY d   1      -2.605   1.194   3.760  0.00  0.00     0.077 C 
ATOM      3  C1  PXY d   1      -3.489  -0.037   3.745  0.00  0.00    -0.082 A 
ATOM      4  C2  PXY d   1      -4.070  -0.411   2.616  0.00  0.00     0.003 A 
ATOM      5  C3  PXY d   1      -4.898  -1.504   2.592  0.00  0.00     0.003 A 
ATOM      6  C4  PXY d   1      -5.091  -2.252   3.722  0.00  0.00    -0.082 A 
ATOM      7  C5  PXY d   1      -4.494  -1.883   4.875  0.00  0.00     0.003 A 
ATOM      8  C6  PXY d   1      -3.690  -0.747   4.888  0.00  0.00     0.003 A 
ENDROOT
TORSDOF 0
ENDMDL
