MODEL 1
REMARK minimizedAffinity -4.1765275
REMARK minimizedRMSD -1
REMARK  0 active torsions:
REMARK  status: ('A' for Active; 'I' for Inactive)
ROOT
ATOM      1  C4' PXY d   1      -1.958   0.042   0.882  0.00  0.00     0.077 C 
ATOM      2  C1' PXY d   1       3.035  -0.196  -2.020  0.00  0.00     0.077 C 
ATOM      3  C1  PXY d   1       1.723  -0.145  -1.263  0.00  0.00    -0.082 A 
ATOM      4  C2  PXY d   1       1.182   1.026  -0.969  0.00  0.00     0.003 A 
ATOM      5  C3  PXY d   1       0.012   1.090  -0.257  0.00  0.00     0.003 A 
ATOM      6  C4  PXY d   1      -0.639  -0.057   0.111  0.00  0.00    -0.082 A 
ATOM      7  C5  PXY d   1      -0.099  -1.256  -0.195  0.00  0.00     0.003 A 
ATOM      8  C6  PXY d   1       1.110  -1.299  -0.882  0.00  0.00     0.003 A 
ENDROOT
TORSDOF 0
ENDMDL
