MODEL 1
REMARK minimizedAffinity -3.86769795
REMARK minimizedRMSD -1
REMARK  0 active torsions:
REMARK  status: ('A' for Active; 'I' for Inactive)
ROOT
ATOM      1  C4' PXY d   1       3.767  -0.460  -1.843  0.00  0.00     0.077 C 
ATOM      2  C1' PXY d   1      -1.659  -0.012   0.100  0.00  0.00     0.077 C 
ATOM      3  C1  PXY d   1      -0.236  -0.142  -0.407  0.00  0.00    -0.082 A 
ATOM      4  C2  PXY d   1       0.556   0.918  -0.413  0.00  0.00     0.003 A 
ATOM      5  C3  PXY d   1       1.835   0.825  -0.897  0.00  0.00     0.003 A 
ATOM      6  C4  PXY d   1       2.326  -0.377  -1.331  0.00  0.00    -0.082 A 
ATOM      7  C5  PXY d   1       1.528  -1.466  -1.319  0.00  0.00     0.003 A 
ATOM      8  C6  PXY d   1       0.220  -1.342  -0.861  0.00  0.00     0.003 A 
ENDROOT
TORSDOF 0
ENDMDL
