MODEL 1
REMARK minimizedAffinity -5.46009111
REMARK minimizedRMSD -1
REMARK  0 active torsions:
REMARK  status: ('A' for Active; 'I' for Inactive)
ROOT
ATOM      1  N1  IND d   1       0.497  -1.514  -0.767  0.00  0.00    -0.196 N 
ATOM      2  C2  IND d   1      -0.185  -1.252   0.388  0.00  0.00     0.054 A 
ATOM      3  C3  IND d   1      -0.050   0.049   0.729  0.00  0.00    -0.031 A 
ATOM      4  C4  IND d   1       1.159   1.949  -0.517  0.00  0.00     0.051 A 
ATOM      5  C5  IND d   1       1.958   2.190  -1.600  0.00  0.00    -0.031 A 
ATOM      6  C6  IND d   1       2.316   1.189  -2.479  0.00  0.00     0.015 A 
ATOM      7  C7  IND d   1       1.876  -0.094  -2.314  0.00  0.00    -0.016 A 
ATOM      8  C8  IND d   1       1.071  -0.344  -1.213  0.00  0.00    -0.047 A 
ATOM      9  C9  IND d   1       0.739   0.659  -0.293  0.00  0.00    -0.096 A 
ATOM     10  HN1 IND d   1       0.557  -2.281  -1.151  0.00  0.00     0.298 HD
ENDROOT
TORSDOF 0
ENDMDL
