MODEL 1
REMARK minimizedAffinity -2.33329558
REMARK minimizedRMSD -1
REMARK  0 active torsions:
REMARK  status: ('A' for Active; 'I' for Inactive)
ROOT
ATOM      1  N1  IND d   1      -0.175  -1.463  -0.077  0.00  0.00    -0.196 N 
ATOM      2  C2  IND d   1      -0.854  -1.158   1.069  0.00  0.00     0.054 A 
ATOM      3  C3  IND d   1      -0.502   0.070   1.513  0.00  0.00    -0.031 A 
ATOM      4  C4  IND d   1       1.094   1.793   0.459  0.00  0.00     0.051 A 
ATOM      5  C5  IND d   1       1.976   1.955  -0.573  0.00  0.00    -0.031 A 
ATOM      6  C6  IND d   1       2.189   0.967  -1.512  0.00  0.00     0.015 A 
ATOM      7  C7  IND d   1       1.516  -0.221  -1.461  0.00  0.00    -0.016 A 
ATOM      8  C8  IND d   1       0.624  -0.391  -0.411  0.00  0.00    -0.047 A 
ATOM      9  C9  IND d   1       0.436   0.591   0.569  0.00  0.00    -0.096 A 
ATOM     10  HN1 IND d   1      -0.236  -2.200  -0.516  0.00  0.00     0.298 HD
ENDROOT
TORSDOF 0
ENDMDL
