MODEL 1
REMARK minimizedAffinity -5.61551809
REMARK minimizedRMSD -1
REMARK  0 active torsions:
REMARK  status: ('A' for Active; 'I' for Inactive)
ROOT
ATOM      1  N1  IND d   1       0.949  -1.983  -0.553  0.00  0.00    -0.196 N 
ATOM      2  C2  IND d   1       1.710  -2.563  -1.529  0.00  0.00     0.054 A 
ATOM      3  C3  IND d   1       2.286  -1.614  -2.301  0.00  0.00    -0.031 A 
ATOM      4  C4  IND d   1       2.198   0.949  -2.082  0.00  0.00     0.051 A 
ATOM      5  C5  IND d   1       1.601   1.949  -1.367  0.00  0.00    -0.031 A 
ATOM      6  C6  IND d   1       0.741   1.684  -0.321  0.00  0.00     0.015 A 
ATOM      7  C7  IND d   1       0.453   0.404   0.058  0.00  0.00    -0.016 A 
ATOM      8  C8  IND d   1       1.052  -0.614  -0.671  0.00  0.00    -0.047 A 
ATOM      9  C9  IND d   1       1.892  -0.352  -1.760  0.00  0.00    -0.096 A 
ATOM     10  HN1 IND d   1       0.484  -2.403   0.036  0.00  0.00     0.298 HD
ENDROOT
TORSDOF 0
ENDMDL
