MODEL 1
REMARK minimizedAffinity -5.38082838
REMARK minimizedRMSD -1
REMARK  0 active torsions:
REMARK  status: ('A' for Active; 'I' for Inactive)
ROOT
ATOM      1  N1  IND d   1       1.672   2.297  -1.090  0.00  0.00    -0.196 N 
ATOM      2  C2  IND d   1       1.059   2.585   0.097  0.00  0.00     0.054 A 
ATOM      3  C3  IND d   1       0.389   1.504   0.556  0.00  0.00    -0.031 A 
ATOM      4  C4  IND d   1       0.247  -0.870  -0.428  0.00  0.00     0.051 A 
ATOM      5  C5  IND d   1       0.612  -1.608  -1.520  0.00  0.00    -0.031 A 
ATOM      6  C6  IND d   1       1.366  -1.071  -2.543  0.00  0.00     0.015 A 
ATOM      7  C7  IND d   1       1.795   0.225  -2.508  0.00  0.00    -0.016 A 
ATOM      8  C8  IND d   1       1.421   0.979  -1.404  0.00  0.00    -0.047 A 
ATOM      9  C9  IND d   1       0.620   0.452  -0.383  0.00  0.00    -0.096 A 
ATOM     10  HN1 IND d   1       2.136   2.846  -1.562  0.00  0.00     0.298 HD
ENDROOT
TORSDOF 0
ENDMDL
