MODEL 1
REMARK minimizedAffinity -1.75883722
REMARK minimizedRMSD -1
REMARK  0 active torsions:
REMARK  status: ('A' for Active; 'I' for Inactive)
ROOT
ATOM      1  N1  IND d   1       0.640   1.401  -1.076  0.00  0.00    -0.196 N 
ATOM      2  C2  IND d   1       1.130   0.904  -2.252  0.00  0.00     0.054 A 
ATOM      3  C3  IND d   1       1.253  -0.440  -2.179  0.00  0.00    -0.031 A 
ATOM      4  C4  IND d   1       0.615  -2.040  -0.266  0.00  0.00     0.051 A 
ATOM      5  C5  IND d   1       0.164  -2.051   1.023  0.00  0.00    -0.031 A 
ATOM      6  C6  IND d   1      -0.161  -0.889   1.692  0.00  0.00     0.015 A 
ATOM      7  C7  IND d   1      -0.057   0.333   1.089  0.00  0.00    -0.016 A 
ATOM      8  C8  IND d   1       0.408   0.348  -0.218  0.00  0.00    -0.047 A 
ATOM      9  C9  IND d   1       0.780  -0.825  -0.888  0.00  0.00    -0.096 A 
ATOM     10  HN1 IND d   1       0.501   2.231  -0.901  0.00  0.00     0.298 HD
ENDROOT
TORSDOF 0
ENDMDL
