MODEL 1
REMARK minimizedAffinity -3.98963881
REMARK minimizedRMSD -1
REMARK  0 active torsions:
REMARK  status: ('A' for Active; 'I' for Inactive)
ROOT
ATOM      1  N1  IND d   1       0.238   0.770   0.609  0.00  0.00    -0.196 N 
ATOM      2  C2  IND d   1      -0.921   0.080   0.384  0.00  0.00     0.054 A 
ATOM      3  C3  IND d   1      -0.935  -0.418  -0.873  0.00  0.00    -0.031 A 
ATOM      4  C4  IND d   1       0.880  -0.310  -2.696  0.00  0.00     0.051 A 
ATOM      5  C5  IND d   1       2.099   0.243  -2.970  0.00  0.00    -0.031 A 
ATOM      6  C6  IND d   1       2.775   1.013  -2.046  0.00  0.00     0.015 A 
ATOM      7  C7  IND d   1       2.260   1.251  -0.803  0.00  0.00    -0.016 A 
ATOM      8  C8  IND d   1       1.019   0.697  -0.524  0.00  0.00    -0.047 A 
ATOM      9  C9  IND d   1       0.309  -0.050  -1.472  0.00  0.00    -0.096 A 
ATOM     10  HN1 IND d   1       0.444   1.181   1.335  0.00  0.00     0.298 HD
ENDROOT
TORSDOF 0
ENDMDL
