MODEL 1
REMARK minimizedAffinity -2.77262163
REMARK minimizedRMSD -1
REMARK  0 active torsions:
REMARK  status: ('A' for Active; 'I' for Inactive)
ROOT
ATOM      1  N1  IND d   1      -0.969  -0.773  -0.130  0.00  0.00    -0.196 N 
ATOM      2  C2  IND d   1      -0.873  -0.080   1.044  0.00  0.00     0.054 A 
ATOM      3  C3  IND d   1       0.232   0.700   1.040  0.00  0.00    -0.031 A 
ATOM      4  C4  IND d   1       1.965   1.071  -0.826  0.00  0.00     0.051 A 
ATOM      5  C5  IND d   1       2.320   0.630  -2.070  0.00  0.00    -0.031 A 
ATOM      6  C6  IND d   1       1.580  -0.318  -2.746  0.00  0.00     0.015 A 
ATOM      7  C7  IND d   1       0.446  -0.855  -2.205  0.00  0.00    -0.016 A 
ATOM      8  C8  IND d   1       0.087  -0.415  -0.939  0.00  0.00    -0.047 A 
ATOM      9  C9  IND d   1       0.858   0.516  -0.231  0.00  0.00    -0.096 A 
ATOM     10  HN1 IND d   1      -1.586  -1.338  -0.330  0.00  0.00     0.298 HD
ENDROOT
TORSDOF 0
ENDMDL
