MODEL 1
REMARK minimizedAffinity -4.84288836
REMARK minimizedRMSD -1
REMARK  0 active torsions:
REMARK  status: ('A' for Active; 'I' for Inactive)
ROOT
ATOM      1  N1  IND d   1      -0.244  -0.692   0.345  0.00  0.00    -0.196 N 
ATOM      2  C2  IND d   1      -0.402   0.654   0.529  0.00  0.00     0.054 A 
ATOM      3  C3  IND d   1       0.403   1.341  -0.312  0.00  0.00    -0.031 A 
ATOM      4  C4  IND d   1       1.987   0.465  -2.142  0.00  0.00     0.051 A 
ATOM      5  C5  IND d   1       2.497  -0.692  -2.662  0.00  0.00    -0.031 A 
ATOM      6  C6  IND d   1       2.109  -1.933  -2.199  0.00  0.00     0.015 A 
ATOM      7  C7  IND d   1       1.184  -2.064  -1.201  0.00  0.00    -0.016 A 
ATOM      8  C8  IND d   1       0.670  -0.891  -0.666  0.00  0.00    -0.047 A 
ATOM      9  C9  IND d   1       1.091   0.371  -1.103  0.00  0.00    -0.096 A 
ATOM     10  HN1 IND d   1      -0.648  -1.309   0.787  0.00  0.00     0.298 HD
ENDROOT
TORSDOF 0
ENDMDL
