MODEL 1
REMARK minimizedAffinity -3.89184284
REMARK minimizedRMSD -1
REMARK  0 active torsions:
REMARK  status: ('A' for Active; 'I' for Inactive)
ROOT
ATOM      1  N1  IND d   1       0.544   0.669   0.907  0.00  0.00    -0.196 N 
ATOM      2  C2  IND d   1      -0.382  -0.337   0.890  0.00  0.00     0.054 A 
ATOM      3  C3  IND d   1      -0.479  -0.865  -0.350  0.00  0.00    -0.031 A 
ATOM      4  C4  IND d   1       0.856  -0.302  -2.478  0.00  0.00     0.051 A 
ATOM      5  C5  IND d   1       1.787   0.572  -2.966  0.00  0.00    -0.031 A 
ATOM      6  C6  IND d   1       2.364   1.541  -2.171  0.00  0.00     0.015 A 
ATOM      7  C7  IND d   1       2.040   1.665  -0.849  0.00  0.00    -0.016 A 
ATOM      8  C8  IND d   1       1.090   0.784  -0.352  0.00  0.00    -0.047 A 
ATOM      9  C9  IND d   1       0.469  -0.174  -1.165  0.00  0.00    -0.096 A 
ATOM     10  HN1 IND d   1       0.750   1.150   1.590  0.00  0.00     0.298 HD
ENDROOT
TORSDOF 0
ENDMDL
