MODEL 1
REMARK minimizedAffinity -4.50585699
REMARK minimizedRMSD -1
REMARK  0 active torsions:
REMARK  status: ('A' for Active; 'I' for Inactive)
ROOT
ATOM      1  N1  IND d   1       1.272  -0.308  -1.511  0.00  0.00    -0.196 N 
ATOM      2  C2  IND d   1       1.477   1.043  -1.453  0.00  0.00     0.054 A 
ATOM      3  C3  IND d   1       0.895   1.559  -0.347  0.00  0.00    -0.031 A 
ATOM      4  C4  IND d   1      -0.358   0.359   1.555  0.00  0.00     0.051 A 
ATOM      5  C5  IND d   1      -0.830  -0.868   1.927  0.00  0.00    -0.031 A 
ATOM      6  C6  IND d   1      -0.619  -1.995   1.158  0.00  0.00     0.015 A 
ATOM      7  C7  IND d   1       0.085  -1.937  -0.011  0.00  0.00    -0.016 A 
ATOM      8  C8  IND d   1       0.560  -0.691  -0.396  0.00  0.00    -0.047 A 
ATOM      9  C9  IND d   1       0.312   0.463   0.358  0.00  0.00    -0.096 A 
ATOM     10  HN1 IND d   1       1.542  -0.829  -2.139  0.00  0.00     0.298 HD
ENDROOT
TORSDOF 0
ENDMDL
