MODEL 1
REMARK minimizedAffinity -4.91619587
REMARK minimizedRMSD -1
REMARK  0 active torsions:
REMARK  status: ('A' for Active; 'I' for Inactive)
ROOT
ATOM      1  N1  IND d   1       0.044   0.796   0.290  0.00  0.00    -0.196 N 
ATOM      2  C2  IND d   1      -0.766   0.133   1.170  0.00  0.00     0.054 A 
ATOM      3  C3  IND d   1      -0.804  -1.185   0.873  0.00  0.00    -0.031 A 
ATOM      4  C4  IND d   1       0.463  -2.488  -0.950  0.00  0.00     0.051 A 
ATOM      5  C5  IND d   1       1.293  -2.311  -2.021  0.00  0.00    -0.031 A 
ATOM      6  C6  IND d   1       1.761  -1.064  -2.382  0.00  0.00     0.015 A 
ATOM      7  C7  IND d   1       1.424   0.055  -1.675  0.00  0.00    -0.016 A 
ATOM      8  C8  IND d   1       0.575  -0.120  -0.592  0.00  0.00    -0.047 A 
ATOM      9  C9  IND d   1       0.063  -1.377  -0.246  0.00  0.00    -0.096 A 
ATOM     10  HN1 IND d   1       0.197   1.642   0.288  0.00  0.00     0.298 HD
ENDROOT
TORSDOF 0
ENDMDL
