MODEL 1
REMARK minimizedAffinity -5.16171885
REMARK minimizedRMSD -1
REMARK  0 active torsions:
REMARK  status: ('A' for Active; 'I' for Inactive)
ROOT
ATOM      1  N1  IND d   1       0.851   1.218  -1.148  0.00  0.00    -0.196 N 
ATOM      2  C2  IND d   1       1.337   0.763  -2.343  0.00  0.00     0.054 A 
ATOM      3  C3  IND d   1       1.326  -0.588  -2.371  0.00  0.00    -0.031 A 
ATOM      4  C4  IND d   1       0.460  -2.254  -0.610  0.00  0.00     0.051 A 
ATOM      5  C5  IND d   1      -0.042  -2.316   0.660  0.00  0.00    -0.031 A 
ATOM      6  C6  IND d   1      -0.279  -1.179   1.406  0.00  0.00     0.015 A 
ATOM      7  C7  IND d   1      -0.033   0.067   0.903  0.00  0.00    -0.016 A 
ATOM      8  C8  IND d   1       0.483   0.133  -0.383  0.00  0.00    -0.047 A 
ATOM      9  C9  IND d   1       0.766  -1.019  -1.129  0.00  0.00    -0.096 A 
ATOM     10  HN1 IND d   1       0.785   2.043  -0.915  0.00  0.00     0.298 HD
ENDROOT
TORSDOF 0
ENDMDL
