MODEL 1
REMARK minimizedAffinity -4.06285381
REMARK minimizedRMSD -1
REMARK  0 active torsions:
REMARK  status: ('A' for Active; 'I' for Inactive)
ROOT
ATOM      1  N1  IND d   1      -1.516  -0.738  -0.054  0.00  0.00    -0.196 N 
ATOM      2  C2  IND d   1      -1.523  -0.313   1.245  0.00  0.00     0.054 A 
ATOM      3  C3  IND d   1      -0.438   0.453   1.496  0.00  0.00    -0.031 A 
ATOM      4  C4  IND d   1       1.424   1.225  -0.105  0.00  0.00     0.051 A 
ATOM      5  C5  IND d   1       1.881   1.065  -1.383  0.00  0.00    -0.031 A 
ATOM      6  C6  IND d   1       1.214   0.281  -2.303  0.00  0.00     0.015 A 
ATOM      7  C7  IND d   1       0.054  -0.364  -1.981  0.00  0.00    -0.016 A 
ATOM      8  C8  IND d   1      -0.409  -0.209  -0.682  0.00  0.00    -0.047 A 
ATOM      9  C9  IND d   1       0.286   0.550   0.268  0.00  0.00    -0.096 A 
ATOM     10  HN1 IND d   1      -2.103  -1.249  -0.419  0.00  0.00     0.298 HD
ENDROOT
TORSDOF 0
ENDMDL
