MODEL 1
REMARK minimizedAffinity -5.06047058
REMARK minimizedRMSD -1
REMARK  0 active torsions:
REMARK  status: ('A' for Active; 'I' for Inactive)
ROOT
ATOM      1  N1  IND d   1       0.271   0.633   0.689  0.00  0.00    -0.196 N 
ATOM      2  C2  IND d   1      -0.354  -0.398   1.334  0.00  0.00     0.054 A 
ATOM      3  C3  IND d   1      -0.327  -1.514   0.572  0.00  0.00    -0.031 A 
ATOM      4  C4  IND d   1       0.777  -1.903  -1.721  0.00  0.00     0.051 A 
ATOM      5  C5  IND d   1       1.434  -1.248  -2.725  0.00  0.00    -0.031 A 
ATOM      6  C6  IND d   1       1.745   0.093  -2.640  0.00  0.00     0.015 A 
ATOM      7  C7  IND d   1       1.420   0.831  -1.537  0.00  0.00    -0.016 A 
ATOM      8  C8  IND d   1       0.746   0.171  -0.518  0.00  0.00    -0.047 A 
ATOM      9  C9  IND d   1       0.390  -1.180  -0.618  0.00  0.00    -0.096 A 
ATOM     10  HN1 IND d   1       0.352   1.435   0.988  0.00  0.00     0.298 HD
ENDROOT
TORSDOF 0
ENDMDL
