MODEL 1
REMARK minimizedAffinity -2.75565672
REMARK minimizedRMSD -1
REMARK  0 active torsions:
REMARK  status: ('A' for Active; 'I' for Inactive)
ROOT
ATOM      1  N1  IND d   1       1.245  -0.997  -2.402  0.00  0.00    -0.196 N 
ATOM      2  C2  IND d   1       1.955   0.038  -2.945  0.00  0.00     0.054 A 
ATOM      3  C3  IND d   1       1.953   1.100  -2.108  0.00  0.00    -0.031 A 
ATOM      4  C4  IND d   1       0.936   1.326   0.245  0.00  0.00     0.051 A 
ATOM      5  C5  IND d   1       0.160   0.660   1.152  0.00  0.00    -0.031 A 
ATOM      6  C6  IND d   1      -0.301  -0.620   0.917  0.00  0.00     0.015 A 
ATOM      7  C7  IND d   1       0.008  -1.288  -0.234  0.00  0.00    -0.016 A 
ATOM      8  C8  IND d   1       0.790  -0.611  -1.160  0.00  0.00    -0.047 A 
ATOM      9  C9  IND d   1       1.225   0.703  -0.946  0.00  0.00    -0.096 A 
ATOM     10  HN1 IND d   1       1.107  -1.760  -2.773  0.00  0.00     0.298 HD
ENDROOT
TORSDOF 0
ENDMDL
