MODEL 1
REMARK minimizedAffinity -3.68336487
REMARK minimizedRMSD -1
REMARK  0 active torsions:
REMARK  status: ('A' for Active; 'I' for Inactive)
ROOT
ATOM      1  N1  IND d   1      -0.346  -1.114  -0.448  0.00  0.00    -0.196 N 
ATOM      2  C2  IND d   1      -0.995  -0.722   0.690  0.00  0.00     0.054 A 
ATOM      3  C3  IND d   1      -0.638   0.539   1.024  0.00  0.00    -0.031 A 
ATOM      4  C4  IND d   1       0.915   2.180  -0.210  0.00  0.00     0.051 A 
ATOM      5  C5  IND d   1       1.766   2.263  -1.276  0.00  0.00    -0.031 A 
ATOM      6  C6  IND d   1       1.959   1.204  -2.139  0.00  0.00     0.015 A 
ATOM      7  C7  IND d   1       1.295   0.021  -1.975  0.00  0.00    -0.016 A 
ATOM      8  C8  IND d   1       0.435  -0.069  -0.889  0.00  0.00    -0.047 A 
ATOM      9  C9  IND d   1       0.268   0.988   0.015  0.00  0.00    -0.096 A 
ATOM     10  HN1 IND d   1      -0.415  -1.884  -0.825  0.00  0.00     0.298 HD
ENDROOT
TORSDOF 0
ENDMDL
