MODEL 1
REMARK minimizedAffinity -4.89148855
REMARK minimizedRMSD -1
REMARK  0 active torsions:
REMARK  status: ('A' for Active; 'I' for Inactive)
ROOT
ATOM      1  N1  IND d   1      -0.397  -1.118  -0.408  0.00  0.00    -0.196 N 
ATOM      2  C2  IND d   1      -0.929  -0.858   0.824  0.00  0.00     0.054 A 
ATOM      3  C3  IND d   1      -0.528   0.357   1.263  0.00  0.00    -0.031 A 
ATOM      4  C4  IND d   1       0.918   2.127   0.080  0.00  0.00     0.051 A 
ATOM      5  C5  IND d   1       1.665   2.331  -1.046  0.00  0.00    -0.031 A 
ATOM      6  C6  IND d   1       1.762   1.377  -2.039  0.00  0.00     0.015 A 
ATOM      7  C7  IND d   1       1.104   0.184  -1.947  0.00  0.00    -0.016 A 
ATOM      8  C8  IND d   1       0.351  -0.030  -0.801  0.00  0.00    -0.047 A 
ATOM      9  C9  IND d   1       0.283   0.917   0.229  0.00  0.00    -0.096 A 
ATOM     10  HN1 IND d   1      -0.510  -1.840  -0.861  0.00  0.00     0.298 HD
ENDROOT
TORSDOF 0
ENDMDL
