MODEL 1
REMARK minimizedAffinity -3.36098552
REMARK minimizedRMSD -1
REMARK  0 active torsions:
REMARK  status: ('A' for Active; 'I' for Inactive)
ROOT
ATOM      1  N1  IND d   1       0.255  -1.836  -1.428  0.00  0.00    -0.196 N 
ATOM      2  C2  IND d   1       1.051  -1.366  -2.435  0.00  0.00     0.054 A 
ATOM      3  C3  IND d   1       1.422  -0.090  -2.185  0.00  0.00    -0.031 A 
ATOM      4  C4  IND d   1       0.924   1.386  -0.135  0.00  0.00     0.051 A 
ATOM      5  C5  IND d   1       0.208   1.407   1.029  0.00  0.00    -0.031 A 
ATOM      6  C6  IND d   1      -0.542   0.325   1.443  0.00  0.00     0.015 A 
ATOM      7  C7  IND d   1      -0.595  -0.828   0.711  0.00  0.00    -0.016 A 
ATOM      8  C8  IND d   1       0.126  -0.850  -0.475  0.00  0.00    -0.047 A 
ATOM      9  C9  IND d   1       0.854   0.260  -0.921  0.00  0.00    -0.096 A 
ATOM     10  HN1 IND d   1      -0.104  -2.617  -1.395  0.00  0.00     0.298 HD
ENDROOT
TORSDOF 0
ENDMDL
