MODEL 1
REMARK minimizedAffinity -4.28731823
REMARK minimizedRMSD -1
REMARK  0 active torsions:
REMARK  status: ('A' for Active; 'I' for Inactive)
ROOT
ATOM      1  N1  IND d   1       0.952  -2.412  -0.690  0.00  0.00    -0.196 N 
ATOM      2  C2  IND d   1       1.817  -2.822  -1.666  0.00  0.00     0.054 A 
ATOM      3  C3  IND d   1       2.405  -1.754  -2.253  0.00  0.00    -0.031 A 
ATOM      4  C4  IND d   1       2.170   0.749  -1.701  0.00  0.00     0.051 A 
ATOM      5  C5  IND d   1       1.469   1.618  -0.912  0.00  0.00    -0.031 A 
ATOM      6  C6  IND d   1       0.542   1.178   0.011  0.00  0.00     0.015 A 
ATOM      7  C7  IND d   1       0.290  -0.153   0.189  0.00  0.00    -0.016 A 
ATOM      8  C8  IND d   1       0.996  -1.037  -0.615  0.00  0.00    -0.047 A 
ATOM      9  C9  IND d   1       1.906  -0.595  -1.583  0.00  0.00    -0.096 A 
ATOM     10  HN1 IND d   1       0.463  -2.926  -0.205  0.00  0.00     0.298 HD
ENDROOT
TORSDOF 0
ENDMDL
