MODEL 1
REMARK minimizedAffinity 10.3182192
REMARK minimizedRMSD -1
REMARK  2 active torsions:
REMARK  status: ('A' for Active; 'I' for Inactive)
REMARK    1  A    between atoms: C2'_3  and  C1'_4 
REMARK    2  A    between atoms: C1'_4  and  C1_5 
ROOT
ATOM      1  C1  I4B d   1       3.049   1.927   0.458  0.00  0.00    -0.075 A 
ATOM      2  C2  I4B d   1       1.862   2.373  -0.068  0.00  0.00     0.003 A 
ATOM      3  C3  I4B d   1       0.638   1.792   0.342  0.00  0.00     0.002 A 
ATOM      4  C4  I4B d   1       0.650   0.741   1.237  0.00  0.00    -0.004 A 
ATOM      5  C5  I4B d   1       1.853   0.306   1.787  0.00  0.00     0.002 A 
ATOM      6  C6  I4B d   1       3.059   0.911   1.405  0.00  0.00     0.003 A 
ENDROOT
BRANCH   1   7
ATOM      7  C1' I4B d   1       4.326   2.541  -0.022  0.00  0.00     0.060 C 
BRANCH   7   8
ATOM      8  C2' I4B d   1       4.320   4.003   0.376  0.00  0.00    -0.013 C 
ATOM      9  C4' I4B d   1       3.005   4.655   0.035  0.00  0.00     0.013 C 
ATOM     10  C3' I4B d   1       4.599   4.084   1.847  0.00  0.00     0.013 C 
ENDBRANCH   7   8
ENDBRANCH   1   7
TORSDOF 2
ENDMDL
