MODEL 1
REMARK minimizedAffinity 10.266613
REMARK minimizedRMSD -1
REMARK  2 active torsions:
REMARK  status: ('A' for Active; 'I' for Inactive)
REMARK    1  A    between atoms: C2'_3  and  C1'_4 
REMARK    2  A    between atoms: C1'_4  and  C1_5 
ROOT
ATOM      1  C1  I4B d   1       0.015   0.282   1.321  0.00  0.00    -0.075 A 
ATOM      2  C2  I4B d   1       0.833   1.007   0.492  0.00  0.00     0.003 A 
ATOM      3  C3  I4B d   1       0.735   2.419   0.450  0.00  0.00     0.002 A 
ATOM      4  C4  I4B d   1      -0.224   3.056   1.212  0.00  0.00    -0.004 A 
ATOM      5  C5  I4B d   1      -1.037   2.321   2.069  0.00  0.00     0.002 A 
ATOM      6  C6  I4B d   1      -0.909   0.926   2.134  0.00  0.00     0.003 A 
ENDROOT
BRANCH   1   7
ATOM      7  C1' I4B d   1       0.123  -1.210   1.316  0.00  0.00     0.060 C 
BRANCH   7   8
ATOM      8  C2' I4B d   1      -1.280  -1.780   1.325  0.00  0.00    -0.013 C 
ATOM      9  C4' I4B d   1      -1.523  -2.651   0.120  0.00  0.00     0.013 C 
ATOM     10  C3' I4B d   1      -1.458  -2.554   2.597  0.00  0.00     0.013 C 
ENDBRANCH   7   8
ENDBRANCH   1   7
TORSDOF 2
ENDMDL
