MODEL 1
REMARK minimizedAffinity -1.32925487
REMARK minimizedRMSD -1
REMARK  2 active torsions:
REMARK  status: ('A' for Active; 'I' for Inactive)
REMARK    1  A    between atoms: C2'_3  and  C1'_4 
REMARK    2  A    between atoms: C1'_4  and  C1_5 
ROOT
ATOM      1  C1  I4B d   1      -1.831   3.130  -0.663  0.00  0.00    -0.075 A 
ATOM      2  C2  I4B d   1      -3.011   2.462  -0.452  0.00  0.00     0.003 A 
ATOM      3  C3  I4B d   1      -3.127   1.540   0.617  0.00  0.00     0.002 A 
ATOM      4  C4  I4B d   1      -2.030   1.283   1.414  0.00  0.00    -0.004 A 
ATOM      5  C5  I4B d   1      -0.842   1.978   1.212  0.00  0.00     0.002 A 
ATOM      6  C6  I4B d   1      -0.745   2.917   0.175  0.00  0.00     0.003 A 
ENDROOT
BRANCH   1   7
ATOM      7  C1' I4B d   1      -1.733   4.072  -1.822  0.00  0.00     0.060 C 
BRANCH   7   8
ATOM      8  C2' I4B d   1      -1.878   3.262  -3.095  0.00  0.00    -0.013 C 
ATOM      9  C4' I4B d   1      -1.969   4.157  -4.302  0.00  0.00     0.013 C 
ATOM     10  C3' I4B d   1      -0.701   2.338  -3.192  0.00  0.00     0.013 C 
ENDBRANCH   7   8
ENDBRANCH   1   7
TORSDOF 2
ENDMDL
