MODEL 1
REMARK minimizedAffinity 10.5624723
REMARK minimizedRMSD -1
REMARK  2 active torsions:
REMARK  status: ('A' for Active; 'I' for Inactive)
REMARK    1  A    between atoms: C2'_3  and  C1'_4 
REMARK    2  A    between atoms: C1'_4  and  C1_5 
ROOT
ATOM      1  C1  I4B d   1      -0.966   3.634   2.082  0.00  0.00    -0.075 A 
ATOM      2  C2  I4B d   1      -0.044   2.697   2.475  0.00  0.00     0.003 A 
ATOM      3  C3  I4B d   1      -0.028   2.229   3.812  0.00  0.00     0.002 A 
ATOM      4  C4  I4B d   1      -0.913   2.759   4.728  0.00  0.00    -0.004 A 
ATOM      5  C5  I4B d   1      -1.863   3.693   4.322  0.00  0.00     0.002 A 
ATOM      6  C6  I4B d   1      -1.898   4.124   2.988  0.00  0.00     0.003 A 
ENDROOT
BRANCH   1   7
ATOM      7  C1' I4B d   1      -0.933   4.130   0.671  0.00  0.00     0.060 C 
BRANCH   7   8
ATOM      8  C2' I4B d   1       0.479   4.590   0.371  0.00  0.00    -0.013 C 
ATOM      9  C4' I4B d   1       1.145   3.685  -0.633  0.00  0.00     0.013 C 
ATOM     10  C3' I4B d   1       0.409   6.000  -0.134  0.00  0.00     0.013 C 
ENDBRANCH   7   8
ENDBRANCH   1   7
TORSDOF 2
ENDMDL
