MODEL 1
REMARK minimizedAffinity 16.2722683
REMARK minimizedRMSD -1
REMARK  2 active torsions:
REMARK  status: ('A' for Active; 'I' for Inactive)
REMARK    1  A    between atoms: C2'_3  and  C1'_4 
REMARK    2  A    between atoms: C1'_4  and  C1_5 
ROOT
ATOM      1  C1  I4B d   1       1.165   1.476   1.574  0.00  0.00    -0.075 A 
ATOM      2  C2  I4B d   1       2.001   2.043   2.503  0.00  0.00     0.003 A 
ATOM      3  C3  I4B d   1       3.013   2.945   2.094  0.00  0.00     0.002 A 
ATOM      4  C4  I4B d   1       3.185   3.210   0.751  0.00  0.00    -0.004 A 
ATOM      5  C5  I4B d   1       2.322   2.652  -0.188  0.00  0.00     0.002 A 
ATOM      6  C6  I4B d   1       1.297   1.789   0.227  0.00  0.00     0.003 A 
ENDROOT
BRANCH   1   7
ATOM      7  C1' I4B d   1       0.128   0.502   2.036  0.00  0.00     0.060 C 
BRANCH   7   8
ATOM      8  C2' I4B d   1       0.350  -0.803   1.299  0.00  0.00    -0.013 C 
ATOM      9  C4' I4B d   1       1.722  -1.359   1.577  0.00  0.00     0.013 C 
ATOM     10  C3' I4B d   1      -0.720  -1.764   1.725  0.00  0.00     0.013 C 
ENDBRANCH   7   8
ENDBRANCH   1   7
TORSDOF 2
ENDMDL
