MODEL 1
REMARK minimizedAffinity 7.68810511
REMARK minimizedRMSD -1
REMARK  2 active torsions:
REMARK  status: ('A' for Active; 'I' for Inactive)
REMARK    1  A    between atoms: C2'_3  and  C1'_4 
REMARK    2  A    between atoms: C1'_4  and  C1_5 
ROOT
ATOM      1  C1  I4B d   1      -0.970   0.357   1.426  0.00  0.00    -0.075 A 
ATOM      2  C2  I4B d   1      -1.999  -0.241   2.110  0.00  0.00     0.003 A 
ATOM      3  C3  I4B d   1      -2.433  -1.540   1.752  0.00  0.00     0.002 A 
ATOM      4  C4  I4B d   1      -1.846  -2.181   0.680  0.00  0.00    -0.004 A 
ATOM      5  C5  I4B d   1      -0.787  -1.583   0.003  0.00  0.00     0.002 A 
ATOM      6  C6  I4B d   1      -0.338  -0.311   0.386  0.00  0.00     0.003 A 
ENDROOT
BRANCH   1   7
ATOM      7  C1' I4B d   1      -0.560   1.744   1.809  0.00  0.00     0.060 C 
BRANCH   7   8
ATOM      8  C2' I4B d   1       0.794   2.019   1.185  0.00  0.00    -0.013 C 
ATOM      9  C4' I4B d   1       0.771   3.285   0.370  0.00  0.00     0.013 C 
ATOM     10  C3' I4B d   1       1.804   2.105   2.290  0.00  0.00     0.013 C 
ENDBRANCH   7   8
ENDBRANCH   1   7
TORSDOF 2
ENDMDL
