MODEL 1
REMARK minimizedAffinity 10.2671318
REMARK minimizedRMSD -1
REMARK  2 active torsions:
REMARK  status: ('A' for Active; 'I' for Inactive)
REMARK    1  A    between atoms: C2'_3  and  C1'_4 
REMARK    2  A    between atoms: C1'_4  and  C1_5 
ROOT
ATOM      1  C1  I4B d   1       4.008   2.626   2.582  0.00  0.00    -0.075 A 
ATOM      2  C2  I4B d   1       3.310   2.153   1.499  0.00  0.00     0.003 A 
ATOM      3  C3  I4B d   1       3.266   2.901   0.298  0.00  0.00     0.002 A 
ATOM      4  C4  I4B d   1       3.887   4.132   0.240  0.00  0.00    -0.004 A 
ATOM      5  C5  I4B d   1       4.613   4.600   1.331  0.00  0.00     0.002 A 
ATOM      6  C6  I4B d   1       4.685   3.837   2.506  0.00  0.00     0.003 A 
ENDROOT
BRANCH   1   7
ATOM      7  C1' I4B d   1       4.007   1.826   3.846  0.00  0.00     0.060 C 
BRANCH   7   8
ATOM      8  C2' I4B d   1       4.855   2.561   4.864  0.00  0.00    -0.013 C 
ATOM      9  C4' I4B d   1       4.000   3.206   5.923  0.00  0.00     0.013 C 
ATOM     10  C3' I4B d   1       5.812   1.576   5.467  0.00  0.00     0.013 C 
ENDBRANCH   7   8
ENDBRANCH   1   7
TORSDOF 2
ENDMDL
