MODEL 1
REMARK minimizedAffinity 4.81682825
REMARK minimizedRMSD -1
REMARK  2 active torsions:
REMARK  status: ('A' for Active; 'I' for Inactive)
REMARK    1  A    between atoms: C2'_3  and  C1'_4 
REMARK    2  A    between atoms: C1'_4  and  C1_5 
ROOT
ATOM      1  C1  I4B d   1       3.336   2.173   2.256  0.00  0.00    -0.075 A 
ATOM      2  C2  I4B d   1       3.211   2.617   0.963  0.00  0.00     0.003 A 
ATOM      3  C3  I4B d   1       4.056   3.644   0.477  0.00  0.00     0.002 A 
ATOM      4  C4  I4B d   1       4.972   4.230   1.327  0.00  0.00    -0.004 A 
ATOM      5  C5  I4B d   1       5.114   3.762   2.630  0.00  0.00     0.002 A 
ATOM      6  C6  I4B d   1       4.299   2.719   3.094  0.00  0.00     0.003 A 
ENDROOT
BRANCH   1   7
ATOM      7  C1' I4B d   1       2.405   1.110   2.746  0.00  0.00     0.060 C 
BRANCH   7   8
ATOM      8  C2' I4B d   1       1.335   0.905   1.694  0.00  0.00    -0.013 C 
ATOM      9  C4' I4B d   1       1.057  -0.559   1.476  0.00  0.00     0.013 C 
ATOM     10  C3' I4B d   1       0.101   1.630   2.141  0.00  0.00     0.013 C 
ENDBRANCH   7   8
ENDBRANCH   1   7
TORSDOF 2
ENDMDL
