MODEL 1
REMARK minimizedAffinity 14.3029833
REMARK minimizedRMSD -1
REMARK  2 active torsions:
REMARK  status: ('A' for Active; 'I' for Inactive)
REMARK    1  A    between atoms: C2'_3  and  C1'_4 
REMARK    2  A    between atoms: C1'_4  and  C1_5 
ROOT
ATOM      1  C1  I4B d   1       5.153   2.369  -5.824  0.00  0.00    -0.075 A 
ATOM      2  C2  I4B d   1       3.784   2.263  -5.838  0.00  0.00     0.003 A 
ATOM      3  C3  I4B d   1       2.978   3.411  -5.644  0.00  0.00     0.002 A 
ATOM      4  C4  I4B d   1       3.578   4.628  -5.393  0.00  0.00    -0.004 A 
ATOM      5  C5  I4B d   1       4.965   4.738  -5.403  0.00  0.00     0.002 A 
ATOM      6  C6  I4B d   1       5.758   3.604  -5.632  0.00  0.00     0.003 A 
ENDROOT
BRANCH   1   7
ATOM      7  C1' I4B d   1       5.974   1.131  -5.999  0.00  0.00     0.060 C 
BRANCH   7   8
ATOM      8  C2' I4B d   1       5.988   0.390  -4.677  0.00  0.00    -0.013 C 
ATOM      9  C4' I4B d   1       5.339   1.204  -3.589  0.00  0.00     0.013 C 
ATOM     10  C3' I4B d   1       5.280  -0.917  -4.871  0.00  0.00     0.013 C 
ENDBRANCH   7   8
ENDBRANCH   1   7
TORSDOF 2
ENDMDL
