MODEL 1
REMARK minimizedAffinity -2.23734307
REMARK minimizedRMSD -1
REMARK  2 active torsions:
REMARK  status: ('A' for Active; 'I' for Inactive)
REMARK    1  A    between atoms: C2'_3  and  C1'_4 
REMARK    2  A    between atoms: C1'_4  and  C1_5 
ROOT
ATOM      1  C1  I4B d   1       3.212   2.036   1.966  0.00  0.00    -0.075 A 
ATOM      2  C2  I4B d   1       3.726   3.177   1.402  0.00  0.00     0.003 A 
ATOM      3  C3  I4B d   1       4.683   3.950   2.103  0.00  0.00     0.002 A 
ATOM      4  C4  I4B d   1       5.058   3.575   3.377  0.00  0.00    -0.004 A 
ATOM      5  C5  I4B d   1       4.554   2.406   3.938  0.00  0.00     0.002 A 
ATOM      6  C6  I4B d   1       3.634   1.624   3.224  0.00  0.00     0.003 A 
ENDROOT
BRANCH   1   7
ATOM      7  C1' I4B d   1       2.178   1.262   1.212  0.00  0.00     0.060 C 
BRANCH   7   8
ATOM      8  C2' I4B d   1       0.876   2.033   1.280  0.00  0.00    -0.013 C 
ATOM      9  C4' I4B d   1       0.640   2.817   0.016  0.00  0.00     0.013 C 
ATOM     10  C3' I4B d   1      -0.232   1.051   1.523  0.00  0.00     0.013 C 
ENDBRANCH   7   8
ENDBRANCH   1   7
TORSDOF 2
ENDMDL
