MODEL 1
REMARK minimizedAffinity -5.20824862
REMARK minimizedRMSD -1
REMARK  0 active torsions:
REMARK  status: ('A' for Active; 'I' for Inactive)
ROOT
ATOM      1  O1  BZF d   1       0.632  -0.236  -1.215  0.00  0.00    -0.204 OA
ATOM      2  C2  BZF d   1      -0.494   0.467  -0.834  0.00  0.00     0.174 A 
ATOM      3  C3  BZF d   1      -0.695   0.364   0.496  0.00  0.00    -0.012 A 
ATOM      4  C3A BZF d   1       0.424  -0.379   0.989  0.00  0.00    -0.107 A 
ATOM      5  C4  BZF d   1       0.802  -0.792   2.235  0.00  0.00     0.055 A 
ATOM      6  C5  BZF d   1       1.913  -1.562   2.367  0.00  0.00    -0.016 A 
ATOM      7  C6  BZF d   1       2.667  -1.943   1.276  0.00  0.00     0.022 A 
ATOM      8  C7  BZF d   1       2.335  -1.553   0.021  0.00  0.00     0.029 A 
ATOM      9  C7A BZF d   1       1.231  -0.747  -0.112  0.00  0.00     0.058 A 
ENDROOT
TORSDOF 0
ENDMDL
