MODEL 1
REMARK minimizedAffinity -3.93164444
REMARK minimizedRMSD -1
REMARK  0 active torsions:
REMARK  status: ('A' for Active; 'I' for Inactive)
ROOT
ATOM      1  O1  BZF d   1       1.201  -0.399  -0.598  0.00  0.00    -0.204 OA
ATOM      2  C2  BZF d   1       0.152  -0.035  -1.420  0.00  0.00     0.174 A 
ATOM      3  C3  BZF d   1      -1.015  -0.055  -0.744  0.00  0.00    -0.012 A 
ATOM      4  C3A BZF d   1      -0.661  -0.366   0.607  0.00  0.00    -0.107 A 
ATOM      5  C4  BZF d   1      -1.384  -0.511   1.757  0.00  0.00     0.055 A 
ATOM      6  C5  BZF d   1      -0.745  -0.890   2.895  0.00  0.00    -0.016 A 
ATOM      7  C6  BZF d   1       0.613  -1.135   2.918  0.00  0.00     0.022 A 
ATOM      8  C7  BZF d   1       1.372  -0.999   1.804  0.00  0.00     0.029 A 
ATOM      9  C7A BZF d   1       0.735  -0.585   0.660  0.00  0.00     0.058 A 
ENDROOT
TORSDOF 0
ENDMDL
