MODEL 1
REMARK minimizedAffinity -3.95745993
REMARK minimizedRMSD -1
REMARK  0 active torsions:
REMARK  status: ('A' for Active; 'I' for Inactive)
ROOT
ATOM      1  O1  BZF d   1       0.555  -0.373  -1.010  0.00  0.00    -0.204 OA
ATOM      2  C2  BZF d   1      -0.779  -0.228  -1.340  0.00  0.00     0.174 A 
ATOM      3  C3  BZF d   1      -1.548  -0.225  -0.233  0.00  0.00    -0.012 A 
ATOM      4  C3A BZF d   1      -0.631  -0.285   0.863  0.00  0.00    -0.107 A 
ATOM      5  C4  BZF d   1      -0.788  -0.295   2.220  0.00  0.00     0.055 A 
ATOM      6  C5  BZF d   1       0.308  -0.434   3.011  0.00  0.00    -0.016 A 
ATOM      7  C6  BZF d   1       1.574  -0.570   2.480  0.00  0.00     0.022 A 
ATOM      8  C7  BZF d   1       1.781  -0.561   1.140  0.00  0.00     0.029 A 
ATOM      9  C7A BZF d   1       0.679  -0.387   0.339  0.00  0.00     0.058 A 
ENDROOT
TORSDOF 0
ENDMDL
