MODEL 1
REMARK minimizedAffinity 0.706922412
REMARK minimizedRMSD -1
REMARK  0 active torsions:
REMARK  status: ('A' for Active; 'I' for Inactive)
ROOT
ATOM      1  O1  BZF d   1      -2.368   3.856  -2.571  0.00  0.00    -0.204 OA
ATOM      2  C2  BZF d   1      -3.426   3.093  -2.116  0.00  0.00     0.174 A 
ATOM      3  C3  BZF d   1      -3.073   1.795  -2.020  0.00  0.00    -0.012 A 
ATOM      4  C3A BZF d   1      -1.682   1.757  -2.353  0.00  0.00    -0.107 A 
ATOM      5  C4  BZF d   1      -0.760   0.752  -2.422  0.00  0.00     0.055 A 
ATOM      6  C5  BZF d   1       0.497   1.038  -2.850  0.00  0.00    -0.016 A 
ATOM      7  C6  BZF d   1       0.865   2.314  -3.223  0.00  0.00     0.022 A 
ATOM      8  C7  BZF d   1      -0.014   3.345  -3.167  0.00  0.00     0.029 A 
ATOM      9  C7A BZF d   1      -1.276   3.066  -2.703  0.00  0.00     0.058 A 
ENDROOT
TORSDOF 0
ENDMDL
