MODEL 1
REMARK minimizedAffinity -2.99219346
REMARK minimizedRMSD -1
REMARK  0 active torsions:
REMARK  status: ('A' for Active; 'I' for Inactive)
ROOT
ATOM      1  O1  BZF d   1      -1.367   1.224  -0.215  0.00  0.00    -0.204 OA
ATOM      2  C2  BZF d   1      -0.297   1.371  -1.077  0.00  0.00     0.174 A 
ATOM      3  C3  BZF d   1       0.772   0.677  -0.635  0.00  0.00    -0.012 A 
ATOM      4  C3A BZF d   1       0.315  -0.017   0.530  0.00  0.00    -0.107 A 
ATOM      5  C4  BZF d   1       0.912  -0.881   1.403  0.00  0.00     0.055 A 
ATOM      6  C5  BZF d   1       0.210  -1.322   2.479  0.00  0.00    -0.016 A 
ATOM      7  C6  BZF d   1      -1.087  -0.916   2.717  0.00  0.00     0.022 A 
ATOM      8  C7  BZF d   1      -1.723  -0.064   1.876  0.00  0.00     0.029 A 
ATOM      9  C7A BZF d   1      -1.027   0.358   0.770  0.00  0.00     0.058 A 
ENDROOT
TORSDOF 0
ENDMDL
