MODEL 1
REMARK minimizedAffinity -3.32527757
REMARK minimizedRMSD -1
REMARK  0 active torsions:
REMARK  status: ('A' for Active; 'I' for Inactive)
ROOT
ATOM      1  O1  BZF d   1       0.395  -0.023  -1.131  0.00  0.00    -0.204 OA
ATOM      2  C2  BZF d   1      -0.763   0.572  -1.594  0.00  0.00     0.174 A 
ATOM      3  C3  BZF d   1      -1.639   0.761  -0.586  0.00  0.00    -0.012 A 
ATOM      4  C3A BZF d   1      -0.952   0.337   0.595  0.00  0.00    -0.107 A 
ATOM      5  C4  BZF d   1      -1.294   0.296   1.917  0.00  0.00     0.055 A 
ATOM      6  C5  BZF d   1      -0.421  -0.243   2.808  0.00  0.00    -0.016 A 
ATOM      7  C6  BZF d   1       0.798  -0.755   2.413  0.00  0.00     0.022 A 
ATOM      8  C7  BZF d   1       1.183  -0.732   1.113  0.00  0.00     0.029 A 
ATOM      9  C7A BZF d   1       0.317  -0.158   0.215  0.00  0.00     0.058 A 
ENDROOT
TORSDOF 0
ENDMDL
