MODEL 1
REMARK minimizedAffinity -6.39291716
REMARK minimizedRMSD -1
REMARK  0 active torsions:
REMARK  status: ('A' for Active; 'I' for Inactive)
ROOT
ATOM      1  O1  BZF d   1       1.564  -1.456  -1.206  0.00  0.00    -0.204 OA
ATOM      2  C2  BZF d   1       0.542  -0.667  -1.699  0.00  0.00     0.174 A 
ATOM      3  C3  BZF d   1      -0.121  -0.060  -0.694  0.00  0.00    -0.012 A 
ATOM      4  C3A BZF d   1       0.586  -0.423   0.496  0.00  0.00    -0.107 A 
ATOM      5  C4  BZF d   1       0.419  -0.118   1.817  0.00  0.00     0.055 A 
ATOM      6  C5  BZF d   1       1.237  -0.695   2.736  0.00  0.00    -0.016 A 
ATOM      7  C6  BZF d   1       2.226  -1.584   2.371  0.00  0.00     0.022 A 
ATOM      8  C7  BZF d   1       2.433  -1.913   1.073  0.00  0.00     0.029 A 
ATOM      9  C7A BZF d   1       1.630  -1.307   0.138  0.00  0.00     0.058 A 
ENDROOT
TORSDOF 0
ENDMDL
