MODEL 1
REMARK minimizedAffinity -4.51537037
REMARK minimizedRMSD -1
REMARK  0 active torsions:
REMARK  status: ('A' for Active; 'I' for Inactive)
ROOT
ATOM      1  O1  BZF d   1       0.435  -0.415   2.830  0.00  0.00    -0.204 OA
ATOM      2  C2  BZF d   1       1.815  -0.428   2.777  0.00  0.00     0.174 A 
ATOM      3  C3  BZF d   1       2.246  -0.271   1.508  0.00  0.00    -0.012 A 
ATOM      4  C3A BZF d   1       1.063  -0.060   0.732  0.00  0.00    -0.107 A 
ATOM      5  C4  BZF d   1       0.839   0.173  -0.595  0.00  0.00     0.055 A 
ATOM      6  C5  BZF d   1      -0.441   0.262  -1.043  0.00  0.00    -0.016 A 
ATOM      7  C6  BZF d   1      -1.519   0.118  -0.195  0.00  0.00     0.022 A 
ATOM      8  C7  BZF d   1      -1.347  -0.109   1.130  0.00  0.00     0.029 A 
ATOM      9  C7A BZF d   1      -0.055  -0.166   1.592  0.00  0.00     0.058 A 
ENDROOT
TORSDOF 0
ENDMDL
