MODEL 1
REMARK minimizedAffinity -3.88780832
REMARK minimizedRMSD -1
REMARK  0 active torsions:
REMARK  status: ('A' for Active; 'I' for Inactive)
ROOT
ATOM      1  O1  BZF d   1      -0.332   0.172  -2.099  0.00  0.00    -0.204 OA
ATOM      2  C2  BZF d   1      -1.579   0.394  -2.650  0.00  0.00     0.174 A 
ATOM      3  C3  BZF d   1      -2.554   0.044  -1.786  0.00  0.00    -0.012 A 
ATOM      4  C3A BZF d   1      -1.874  -0.339  -0.587  0.00  0.00    -0.107 A 
ATOM      5  C4  BZF d   1      -2.299  -0.771   0.637  0.00  0.00     0.055 A 
ATOM      6  C5  BZF d   1      -1.376  -1.133   1.567  0.00  0.00    -0.016 A 
ATOM      7  C6  BZF d   1      -0.023  -1.080   1.306  0.00  0.00     0.022 A 
ATOM      8  C7  BZF d   1       0.447  -0.653   0.108  0.00  0.00     0.029 A 
ATOM      9  C7A BZF d   1      -0.482  -0.256  -0.822  0.00  0.00     0.058 A 
ENDROOT
TORSDOF 0
ENDMDL
