MODEL 1
REMARK minimizedAffinity -3.56637907
REMARK minimizedRMSD -1
REMARK  1 active torsions:
REMARK  status: ('A' for Active; 'I' for Inactive)
REMARK    1  A    between atoms: C1_2  and  C2_3 
ROOT
ATOM      1  C2  UNL d   1       0.267   0.723   1.055  0.00  0.00    -0.073 A 
ATOM      2  C3  UNL d   1       1.437   0.148   1.564  0.00  0.00    -0.002 A 
ATOM      3  C4  UNL d   1       2.195  -0.721   0.778  0.00  0.00     0.004 A 
ATOM      4  C5  UNL d   1       1.796  -1.018  -0.525  0.00  0.00    -0.004 A 
ATOM      5  C6  UNL d   1       0.636  -0.443  -1.056  0.00  0.00    -0.075 A 
ATOM      6  C7  UNL d   1       0.192  -0.754  -2.455  0.00  0.00     0.076 C 
ATOM      7  C8  UNL d   1      -0.121   0.426  -0.259  0.00  0.00     0.001 A 
ENDROOT
BRANCH   1   8
ATOM      8  C1  UNL d   1      -0.551   1.667   1.898  0.00  0.00     0.053 C 
ATOM      9  C   UNL d   1      -1.549   0.929   2.775  0.00  0.00     0.018 C 
ENDBRANCH   1   8
TORSDOF 1
ENDMDL
