MODEL 1
REMARK minimizedAffinity -0.835054934
REMARK minimizedRMSD -1
REMARK  1 active torsions:
REMARK  status: ('A' for Active; 'I' for Inactive)
REMARK    1  A    between atoms: C1_2  and  C2_3 
ROOT
ATOM      1  C2  UNL d   1      -0.651  -0.392  -0.861  0.00  0.00    -0.073 A 
ATOM      2  C3  UNL d   1      -1.758   0.173  -0.217  0.00  0.00    -0.002 A 
ATOM      3  C4  UNL d   1      -1.648   0.644   1.092  0.00  0.00     0.004 A 
ATOM      4  C5  UNL d   1      -0.430   0.562   1.768  0.00  0.00    -0.004 A 
ATOM      5  C6  UNL d   1       0.691   0.012   1.137  0.00  0.00    -0.075 A 
ATOM      6  C7  UNL d   1       2.007  -0.086   1.851  0.00  0.00     0.076 C 
ATOM      7  C8  UNL d   1       0.571  -0.461  -0.177  0.00  0.00     0.001 A 
ENDROOT
BRANCH   1   8
ATOM      8  C1  UNL d   1      -0.763  -0.895  -2.276  0.00  0.00     0.053 C 
ATOM      9  C   UNL d   1       0.165  -0.149  -3.222  0.00  0.00     0.018 C 
ENDBRANCH   1   8
TORSDOF 1
ENDMDL
