MODEL 1
REMARK minimizedAffinity -2.95447397
REMARK minimizedRMSD -1
REMARK  1 active torsions:
REMARK  status: ('A' for Active; 'I' for Inactive)
REMARK    1  A    between atoms: C1_2  and  C2_3 
ROOT
ATOM      1  C2  UNL d   1       0.643   0.823   1.695  0.00  0.00    -0.073 A 
ATOM      2  C3  UNL d   1       1.900   0.280   1.984  0.00  0.00    -0.002 A 
ATOM      3  C4  UNL d   1       2.463  -0.683   1.145  0.00  0.00     0.004 A 
ATOM      4  C5  UNL d   1       1.778  -1.107   0.006  0.00  0.00    -0.004 A 
ATOM      5  C6  UNL d   1       0.526  -0.568  -0.306  0.00  0.00    -0.075 A 
ATOM      6  C7  UNL d   1      -0.224  -1.016  -1.526  0.00  0.00     0.076 C 
ATOM      7  C8  UNL d   1      -0.033   0.396   0.543  0.00  0.00     0.001 A 
ENDROOT
BRANCH   1   8
ATOM      8  C1  UNL d   1       0.035   1.867   2.595  0.00  0.00     0.053 C 
ATOM      9  C   UNL d   1      -1.059   1.291   3.479  0.00  0.00     0.018 C 
ENDBRANCH   1   8
TORSDOF 1
ENDMDL
