MODEL 1
REMARK minimizedAffinity -1.07179177
REMARK minimizedRMSD -1
REMARK  1 active torsions:
REMARK  status: ('A' for Active; 'I' for Inactive)
REMARK    1  A    between atoms: C1_2  and  C2_3 
ROOT
ATOM      1  C2  UNL d   1      -0.204   1.104   1.230  0.00  0.00    -0.073 A 
ATOM      2  C3  UNL d   1      -1.348   0.854   1.997  0.00  0.00    -0.002 A 
ATOM      3  C4  UNL d   1      -2.367   0.041   1.499  0.00  0.00     0.004 A 
ATOM      4  C5  UNL d   1      -2.251  -0.534   0.234  0.00  0.00    -0.004 A 
ATOM      5  C6  UNL d   1      -1.111  -0.306  -0.544  0.00  0.00    -0.075 A 
ATOM      6  C7  UNL d   1      -0.972  -0.916  -1.907  0.00  0.00     0.076 C 
ATOM      7  C8  UNL d   1      -0.093   0.513  -0.038  0.00  0.00     0.001 A 
ENDROOT
BRANCH   1   8
ATOM      8  C1  UNL d   1       0.902   1.975   1.766  0.00  0.00     0.053 C 
ATOM      9  C   UNL d   1       2.206   1.208   1.923  0.00  0.00     0.018 C 
ENDBRANCH   1   8
TORSDOF 1
ENDMDL
