MODEL 1
REMARK minimizedAffinity 6.32319832
REMARK minimizedRMSD -1
REMARK  1 active torsions:
REMARK  status: ('A' for Active; 'I' for Inactive)
REMARK    1  A    between atoms: C1_2  and  C2_3 
ROOT
ATOM      1  C2  UNL d   1      -0.825  -0.202  -0.157  0.00  0.00    -0.073 A 
ATOM      2  C3  UNL d   1      -2.201  -0.202  -0.408  0.00  0.00    -0.002 A 
ATOM      3  C4  UNL d   1      -3.105   0.065   0.622  0.00  0.00     0.004 A 
ATOM      4  C5  UNL d   1      -2.642   0.342   1.908  0.00  0.00    -0.004 A 
ATOM      5  C6  UNL d   1      -1.270   0.359   2.175  0.00  0.00    -0.075 A 
ATOM      6  C7  UNL d   1      -0.756   0.653   3.554  0.00  0.00     0.076 C 
ATOM      7  C8  UNL d   1      -0.368   0.087   1.137  0.00  0.00     0.001 A 
ENDROOT
BRANCH   1   8
ATOM      8  C1  UNL d   1       0.155  -0.484  -1.267  0.00  0.00     0.053 C 
ATOM      9  C   UNL d   1      -0.499  -0.412  -2.637  0.00  0.00     0.018 C 
ENDBRANCH   1   8
TORSDOF 1
ENDMDL
