MODEL 1
REMARK minimizedAffinity -3.03676176
REMARK minimizedRMSD -1
REMARK  1 active torsions:
REMARK  status: ('A' for Active; 'I' for Inactive)
REMARK    1  A    between atoms: C1_2  and  C2_3 
ROOT
ATOM      1  C2  UNL d   1       0.286   0.258  -0.863  0.00  0.00    -0.073 A 
ATOM      2  C3  UNL d   1      -0.762  -0.658  -1.002  0.00  0.00    -0.002 A 
ATOM      3  C4  UNL d   1      -1.659  -0.868   0.046  0.00  0.00     0.004 A 
ATOM      4  C5  UNL d   1      -1.521  -0.161   1.241  0.00  0.00    -0.004 A 
ATOM      5  C6  UNL d   1      -0.487   0.768   1.395  0.00  0.00    -0.075 A 
ATOM      6  C7  UNL d   1      -0.323   1.535   2.674  0.00  0.00     0.076 C 
ATOM      7  C8  UNL d   1       0.411   0.971   0.338  0.00  0.00     0.001 A 
ENDROOT
BRANCH   1   8
ATOM      8  C1  UNL d   1       1.253   0.494  -1.995  0.00  0.00     0.053 C 
ATOM      9  C   UNL d   1       0.590   0.329  -3.353  0.00  0.00     0.018 C 
ENDBRANCH   1   8
TORSDOF 1
ENDMDL
