MODEL 1
REMARK minimizedAffinity -5.50488186
REMARK minimizedRMSD -1
REMARK  1 active torsions:
REMARK  status: ('A' for Active; 'I' for Inactive)
REMARK    1  A    between atoms: C1_2  and  C2_3 
ROOT
ATOM      1  C2  UNL d   1       0.221  -0.711  -1.873  0.00  0.00    -0.073 A 
ATOM      2  C3  UNL d   1       0.762   0.404  -2.522  0.00  0.00    -0.002 A 
ATOM      3  C4  UNL d   1       0.507   0.624  -3.877  0.00  0.00     0.004 A 
ATOM      4  C5  UNL d   1      -0.297  -0.264  -4.592  0.00  0.00    -0.004 A 
ATOM      5  C6  UNL d   1      -0.857  -1.377  -3.958  0.00  0.00    -0.075 A 
ATOM      6  C7  UNL d   1      -1.721  -2.343  -4.714  0.00  0.00     0.076 C 
ATOM      7  C8  UNL d   1      -0.593  -1.592  -2.598  0.00  0.00     0.001 A 
ENDROOT
BRANCH   1   8
ATOM      8  C1  UNL d   1       0.488  -0.948  -0.409  0.00  0.00     0.053 C 
ATOM      9  C   UNL d   1       0.075   0.239   0.446  0.00  0.00     0.018 C 
ENDBRANCH   1   8
TORSDOF 1
ENDMDL
