MODEL 1
REMARK minimizedAffinity 7.67311811
REMARK minimizedRMSD -1
REMARK  1 active torsions:
REMARK  status: ('A' for Active; 'I' for Inactive)
REMARK    1  A    between atoms: C1_2  and  C2_3 
ROOT
ATOM      1  C2  UNL d   1       2.457  -1.078  -1.223  0.00  0.00    -0.073 A 
ATOM      2  C3  UNL d   1       3.773  -1.443  -1.531  0.00  0.00    -0.002 A 
ATOM      3  C4  UNL d   1       4.388  -0.953  -2.683  0.00  0.00     0.004 A 
ATOM      4  C5  UNL d   1       3.699  -0.089  -3.534  0.00  0.00    -0.004 A 
ATOM      5  C6  UNL d   1       2.388   0.296  -3.237  0.00  0.00    -0.075 A 
ATOM      6  C7  UNL d   1       1.632   1.223  -4.144  0.00  0.00     0.076 C 
ATOM      7  C8  UNL d   1       1.775  -0.202  -2.080  0.00  0.00     0.001 A 
ENDROOT
BRANCH   1   8
ATOM      8  C1  UNL d   1       1.790  -1.600   0.024  0.00  0.00     0.053 C 
ATOM      9  C   UNL d   1       1.854  -0.598   1.166  0.00  0.00     0.018 C 
ENDBRANCH   1   8
TORSDOF 1
ENDMDL
