MODEL 1
REMARK minimizedAffinity -2.7485559
REMARK minimizedRMSD -1
REMARK  0 active torsions:
REMARK  status: ('A' for Active; 'I' for Inactive)
ROOT
ATOM      1  C   UNL d   1       3.380   5.006   2.492  0.00  0.00     0.077 C 
ATOM      2  C1  UNL d   1       4.057   4.966   1.154  0.00  0.00    -0.074 A 
ATOM      3  C2  UNL d   1       4.908   6.000   0.748  0.00  0.00    -0.005 A 
ATOM      4  C3  UNL d   1       5.538   5.945  -0.495  0.00  0.00     0.006 A 
ATOM      5  C4  UNL d   1       5.325   4.857  -1.343  0.00  0.00    -0.005 A 
ATOM      6  C5  UNL d   1       4.479   3.814  -0.954  0.00  0.00    -0.074 A 
ATOM      7  C6  UNL d   1       4.246   2.634  -1.849  0.00  0.00     0.077 C 
ATOM      8  C7  UNL d   1       3.855   3.874   0.300  0.00  0.00    -0.001 A 
ENDROOT
TORSDOF 0
ENDMDL
