MODEL 1
REMARK minimizedAffinity -0.863504827
REMARK minimizedRMSD -1
REMARK  0 active torsions:
REMARK  status: ('A' for Active; 'I' for Inactive)
ROOT
ATOM      1  C   UNL d   1       0.349  -3.758  -0.880  0.00  0.00     0.077 C 
ATOM      2  C1  UNL d   1       0.684  -2.474  -0.181  0.00  0.00    -0.074 A 
ATOM      3  C2  UNL d   1       1.995  -1.988  -0.158  0.00  0.00    -0.005 A 
ATOM      4  C3  UNL d   1       2.290  -0.788   0.488  0.00  0.00     0.006 A 
ATOM      5  C4  UNL d   1       1.278  -0.062   1.117  0.00  0.00    -0.005 A 
ATOM      6  C5  UNL d   1      -0.040  -0.532   1.105  0.00  0.00    -0.074 A 
ATOM      7  C6  UNL d   1      -1.141   0.241   1.768  0.00  0.00     0.077 C 
ATOM      8  C7  UNL d   1      -0.329  -1.735   0.447  0.00  0.00    -0.001 A 
ENDROOT
TORSDOF 0
ENDMDL
