MODEL 1
REMARK minimizedAffinity -2.55446243
REMARK minimizedRMSD -1
REMARK  0 active torsions:
REMARK  status: ('A' for Active; 'I' for Inactive)
ROOT
ATOM      1  C   UNL d   1       0.584  -3.229  -0.550  0.00  0.00     0.077 C 
ATOM      2  C1  UNL d   1       0.494  -1.958   0.241  0.00  0.00    -0.074 A 
ATOM      3  C2  UNL d   1       1.629  -1.401   0.839  0.00  0.00    -0.005 A 
ATOM      4  C3  UNL d   1       1.531  -0.213   1.563  0.00  0.00     0.006 A 
ATOM      5  C4  UNL d   1       0.299   0.429   1.697  0.00  0.00    -0.005 A 
ATOM      6  C5  UNL d   1      -0.847  -0.113   1.105  0.00  0.00    -0.074 A 
ATOM      7  C6  UNL d   1      -2.177   0.569   1.231  0.00  0.00     0.077 C 
ATOM      8  C7  UNL d   1      -0.739  -1.303   0.373  0.00  0.00    -0.001 A 
ENDROOT
TORSDOF 0
ENDMDL
