MODEL 1
REMARK minimizedAffinity -2.60327506
REMARK minimizedRMSD -1
REMARK  0 active torsions:
REMARK  status: ('A' for Active; 'I' for Inactive)
ROOT
ATOM      1  C   UNL d   1       4.165   2.208  -2.479  0.00  0.00     0.077 C 
ATOM      2  C1  UNL d   1       4.577   3.273  -1.507  0.00  0.00    -0.074 A 
ATOM      3  C2  UNL d   1       5.626   4.150  -1.801  0.00  0.00    -0.005 A 
ATOM      4  C3  UNL d   1       5.991   5.141  -0.891  0.00  0.00     0.006 A 
ATOM      5  C4  UNL d   1       5.311   5.267   0.321  0.00  0.00    -0.005 A 
ATOM      6  C5  UNL d   1       4.259   4.400   0.633  0.00  0.00    -0.074 A 
ATOM      7  C6  UNL d   1       3.512   4.528   1.927  0.00  0.00     0.077 C 
ATOM      8  C7  UNL d   1       3.894   3.411  -0.290  0.00  0.00    -0.001 A 
ENDROOT
TORSDOF 0
ENDMDL
