MODEL 1
REMARK minimizedAffinity 1.55275118
REMARK minimizedRMSD -1
REMARK  0 active torsions:
REMARK  status: ('A' for Active; 'I' for Inactive)
ROOT
ATOM      1  C   UNL d   1       0.754  -0.502   3.653  0.00  0.00     0.077 C 
ATOM      2  C1  UNL d   1       0.763  -0.821   2.188  0.00  0.00    -0.074 A 
ATOM      3  C2  UNL d   1       1.249   0.101   1.254  0.00  0.00    -0.005 A 
ATOM      4  C3  UNL d   1       1.261  -0.214  -0.104  0.00  0.00     0.006 A 
ATOM      5  C4  UNL d   1       0.787  -1.451  -0.543  0.00  0.00    -0.005 A 
ATOM      6  C5  UNL d   1       0.299  -2.386   0.376  0.00  0.00    -0.074 A 
ATOM      7  C6  UNL d   1      -0.204  -3.724  -0.078  0.00  0.00     0.077 C 
ATOM      8  C7  UNL d   1       0.297  -2.065   1.740  0.00  0.00    -0.001 A 
ENDROOT
TORSDOF 0
ENDMDL
