MODEL 1
REMARK minimizedAffinity -2.8615129
REMARK minimizedRMSD -1
REMARK  0 active torsions:
REMARK  status: ('A' for Active; 'I' for Inactive)
ROOT
ATOM      1  C   UNL d   1       2.820   0.091   0.746  0.00  0.00     0.077 C 
ATOM      2  C1  UNL d   1       1.507  -0.632   0.812  0.00  0.00    -0.074 A 
ATOM      3  C2  UNL d   1       1.421  -1.994   0.507  0.00  0.00    -0.005 A 
ATOM      4  C3  UNL d   1       0.195  -2.655   0.582  0.00  0.00     0.006 A 
ATOM      5  C4  UNL d   1      -0.955  -1.962   0.962  0.00  0.00    -0.005 A 
ATOM      6  C5  UNL d   1      -0.888  -0.600   1.271  0.00  0.00    -0.074 A 
ATOM      7  C6  UNL d   1      -2.112   0.158   1.691  0.00  0.00     0.077 C 
ATOM      8  C7  UNL d   1       0.349   0.056   1.200  0.00  0.00    -0.001 A 
ENDROOT
TORSDOF 0
ENDMDL
