MODEL 1
REMARK minimizedAffinity -0.748720884
REMARK minimizedRMSD -1
REMARK  0 active torsions:
REMARK  status: ('A' for Active; 'I' for Inactive)
ROOT
ATOM      1  C   UNL d   1       3.258  -2.052  -0.219  0.00  0.00     0.077 C 
ATOM      2  C1  UNL d   1       1.812  -1.891   0.145  0.00  0.00    -0.074 A 
ATOM      3  C2  UNL d   1       0.858  -2.825  -0.273  0.00  0.00    -0.005 A 
ATOM      4  C3  UNL d   1      -0.482  -2.667   0.081  0.00  0.00     0.006 A 
ATOM      5  C4  UNL d   1      -0.881  -1.577   0.854  0.00  0.00    -0.005 A 
ATOM      6  C5  UNL d   1       0.058  -0.633   1.282  0.00  0.00    -0.074 A 
ATOM      7  C6  UNL d   1      -0.352   0.539   2.122  0.00  0.00     0.077 C 
ATOM      8  C7  UNL d   1       1.404  -0.802   0.928  0.00  0.00    -0.001 A 
ENDROOT
TORSDOF 0
ENDMDL
