MODEL 1
REMARK minimizedAffinity 3.82330012
REMARK minimizedRMSD -1
REMARK  0 active torsions:
REMARK  status: ('A' for Active; 'I' for Inactive)
ROOT
ATOM      1  C   UNL d   1      -2.122  -0.734   0.851  0.00  0.00     0.077 C 
ATOM      2  C1  UNL d   1      -0.630  -0.778   0.713  0.00  0.00    -0.074 A 
ATOM      3  C2  UNL d   1      -0.030  -1.232  -0.466  0.00  0.00    -0.005 A 
ATOM      4  C3  UNL d   1       1.360  -1.258  -0.583  0.00  0.00     0.006 A 
ATOM      5  C4  UNL d   1       2.162  -0.831   0.476  0.00  0.00    -0.005 A 
ATOM      6  C5  UNL d   1       1.580  -0.372   1.662  0.00  0.00    -0.074 A 
ATOM      7  C6  UNL d   1       2.428   0.100   2.806  0.00  0.00     0.077 C 
ATOM      8  C7  UNL d   1       0.183  -0.343   1.769  0.00  0.00    -0.001 A 
ENDROOT
TORSDOF 0
ENDMDL
