MODEL 1
REMARK minimizedAffinity -1.393121
REMARK minimizedRMSD -1
REMARK  0 active torsions:
REMARK  status: ('A' for Active; 'I' for Inactive)
ROOT
ATOM      1  C   UNL d   1       3.718  -1.820  -0.123  0.00  0.00     0.077 C 
ATOM      2  C1  UNL d   1       2.254  -1.960   0.167  0.00  0.00    -0.074 A 
ATOM      3  C2  UNL d   1       1.518  -3.032  -0.348  0.00  0.00    -0.005 A 
ATOM      4  C3  UNL d   1       0.159  -3.155  -0.062  0.00  0.00     0.006 A 
ATOM      5  C4  UNL d   1      -0.478  -2.209   0.741  0.00  0.00    -0.005 A 
ATOM      6  C5  UNL d   1       0.241  -1.131   1.267  0.00  0.00    -0.074 A 
ATOM      7  C6  UNL d   1      -0.426  -0.110   2.140  0.00  0.00     0.077 C 
ATOM      8  C7  UNL d   1       1.608  -1.018   0.980  0.00  0.00    -0.001 A 
ENDROOT
TORSDOF 0
ENDMDL
