MODEL 1
REMARK minimizedAffinity 2.88356853
REMARK minimizedRMSD -1
REMARK  0 active torsions:
REMARK  status: ('A' for Active; 'I' for Inactive)
ROOT
ATOM      1  C   UNL d   1       5.561   6.000   3.374  0.00  0.00     0.077 C 
ATOM      2  C1  UNL d   1       4.627   5.242   2.479  0.00  0.00    -0.074 A 
ATOM      3  C2  UNL d   1       4.499   3.853   2.584  0.00  0.00    -0.005 A 
ATOM      4  C3  UNL d   1       3.619   3.163   1.750  0.00  0.00     0.006 A 
ATOM      5  C4  UNL d   1       2.859   3.853   0.805  0.00  0.00    -0.005 A 
ATOM      6  C5  UNL d   1       2.973   5.242   0.686  0.00  0.00    -0.074 A 
ATOM      7  C6  UNL d   1       2.157   6.000  -0.318  0.00  0.00     0.077 C 
ATOM      8  C7  UNL d   1       3.854   5.929   1.532  0.00  0.00    -0.001 A 
ENDROOT
TORSDOF 0
ENDMDL
