MODEL 1
REMARK minimizedAffinity -1.65239418
REMARK minimizedRMSD -1
REMARK  0 active torsions:
REMARK  status: ('A' for Active; 'I' for Inactive)
ROOT
ATOM      1  C   UNL d   1       4.112  -2.175  -0.121  0.00  0.00     0.077 C 
ATOM      2  C1  UNL d   1       2.618  -2.272  -0.025  0.00  0.00    -0.074 A 
ATOM      3  C2  UNL d   1       1.960  -3.485  -0.253  0.00  0.00    -0.005 A 
ATOM      4  C3  UNL d   1       0.571  -3.562  -0.152  0.00  0.00     0.006 A 
ATOM      5  C4  UNL d   1      -0.173  -2.428   0.178  0.00  0.00    -0.005 A 
ATOM      6  C5  UNL d   1       0.468  -1.207   0.411  0.00  0.00    -0.074 A 
ATOM      7  C6  UNL d   1      -0.316   0.018   0.776  0.00  0.00     0.077 C 
ATOM      8  C7  UNL d   1       1.865  -1.140   0.313  0.00  0.00    -0.001 A 
ENDROOT
TORSDOF 0
ENDMDL
