MODEL 1
REMARK minimizedAffinity -0.929581344
REMARK minimizedRMSD -1
REMARK  0 active torsions:
REMARK  status: ('A' for Active; 'I' for Inactive)
ROOT
ATOM      1  C   UNL d   1      -1.135  -0.379   0.752  0.00  0.00     0.077 C 
ATOM      2  C1  UNL d   1      -0.071  -1.344   0.319  0.00  0.00    -0.074 A 
ATOM      3  C2  UNL d   1      -0.385  -2.674   0.022  0.00  0.00    -0.005 A 
ATOM      4  C3  UNL d   1       0.614  -3.557  -0.389  0.00  0.00     0.006 A 
ATOM      5  C4  UNL d   1       1.934  -3.120  -0.507  0.00  0.00    -0.005 A 
ATOM      6  C5  UNL d   1       2.266  -1.793  -0.215  0.00  0.00    -0.074 A 
ATOM      7  C6  UNL d   1       3.678  -1.304  -0.346  0.00  0.00     0.077 C 
ATOM      8  C7  UNL d   1       1.256  -0.910   0.190  0.00  0.00    -0.001 A 
ENDROOT
TORSDOF 0
ENDMDL
