MODEL 1
REMARK minimizedAffinity -0.91491878
REMARK minimizedRMSD -1
REMARK  0 active torsions:
REMARK  status: ('A' for Active; 'I' for Inactive)
ROOT
ATOM      1  C   UNL d   1       4.019  -1.917  -0.273  0.00  0.00     0.077 C 
ATOM      2  C1  UNL d   1       2.542  -2.034  -0.043  0.00  0.00    -0.074 A 
ATOM      3  C2  UNL d   1       1.852  -3.203  -0.379  0.00  0.00    -0.005 A 
ATOM      4  C3  UNL d   1       0.480  -3.301  -0.150  0.00  0.00     0.006 A 
ATOM      5  C4  UNL d   1      -0.216  -2.231   0.415  0.00  0.00    -0.005 A 
ATOM      6  C5  UNL d   1       0.457  -1.054   0.758  0.00  0.00    -0.074 A 
ATOM      7  C6  UNL d   1      -0.274   0.100   1.376  0.00  0.00     0.077 C 
ATOM      8  C7  UNL d   1       1.837  -0.967   0.532  0.00  0.00    -0.001 A 
ENDROOT
TORSDOF 0
ENDMDL
