MODEL 1
REMARK minimizedAffinity 0.195878059
REMARK minimizedRMSD -1
REMARK  0 active torsions:
REMARK  status: ('A' for Active; 'I' for Inactive)
ROOT
ATOM      1  C   UNL d   1       3.777  -2.364  -0.117  0.00  0.00     0.077 C 
ATOM      2  C1  UNL d   1       2.298  -2.160   0.026  0.00  0.00    -0.074 A 
ATOM      3  C2  UNL d   1       1.390  -3.037  -0.578  0.00  0.00    -0.005 A 
ATOM      4  C3  UNL d   1       0.017  -2.840  -0.429  0.00  0.00     0.006 A 
ATOM      5  C4  UNL d   1      -0.461  -1.767   0.324  0.00  0.00    -0.005 A 
ATOM      6  C5  UNL d   1       0.431  -0.881   0.935  0.00  0.00    -0.074 A 
ATOM      7  C6  UNL d   1      -0.066   0.272   1.756  0.00  0.00     0.077 C 
ATOM      8  C7  UNL d   1       1.809  -1.089   0.787  0.00  0.00    -0.001 A 
ENDROOT
TORSDOF 0
ENDMDL
