MODEL 1
REMARK minimizedAffinity 5.1799984
REMARK minimizedRMSD -1
REMARK  0 active torsions:
REMARK  status: ('A' for Active; 'I' for Inactive)
ROOT
ATOM      1  C   UNL d   1       1.484  -0.173   2.412  0.00  0.00     0.077 C 
ATOM      2  C1  UNL d   1       1.038  -0.905   1.182  0.00  0.00    -0.074 A 
ATOM      3  C2  UNL d   1       1.819  -0.905   0.022  0.00  0.00    -0.005 A 
ATOM      4  C3  UNL d   1       1.396  -1.599  -1.112  0.00  0.00     0.006 A 
ATOM      5  C4  UNL d   1       0.188  -2.298  -1.097  0.00  0.00    -0.005 A 
ATOM      6  C5  UNL d   1      -0.606  -2.310   0.054  0.00  0.00    -0.074 A 
ATOM      7  C6  UNL d   1      -1.902  -3.065   0.090  0.00  0.00     0.077 C 
ATOM      8  C7  UNL d   1      -0.170  -1.617   1.191  0.00  0.00    -0.001 A 
ENDROOT
TORSDOF 0
ENDMDL
