MODEL 1
REMARK minimizedAffinity 6.49155045
REMARK minimizedRMSD -1
REMARK  0 active torsions:
REMARK  status: ('A' for Active; 'I' for Inactive)
ROOT
ATOM      1  C   UNL d   1       5.690   5.312  -1.191  0.00  0.00     0.077 C 
ATOM      2  C1  UNL d   1       5.141   5.542   0.185  0.00  0.00    -0.074 A 
ATOM      3  C2  UNL d   1       5.993   5.687   1.284  0.00  0.00    -0.005 A 
ATOM      4  C3  UNL d   1       5.467   5.910   2.557  0.00  0.00     0.006 A 
ATOM      5  C4  UNL d   1       4.087   5.989   2.743  0.00  0.00    -0.005 A 
ATOM      6  C5  UNL d   1       3.219   5.847   1.656  0.00  0.00    -0.074 A 
ATOM      7  C6  UNL d   1       1.733   5.939   1.837  0.00  0.00     0.077 C 
ATOM      8  C7  UNL d   1       3.755   5.630   0.379  0.00  0.00    -0.001 A 
ENDROOT
TORSDOF 0
ENDMDL
