MODEL 1
REMARK minimizedAffinity 0.394267172
REMARK minimizedRMSD -1
REMARK  0 active torsions:
REMARK  status: ('A' for Active; 'I' for Inactive)
ROOT
ATOM      1  C   UNL d   1      -0.853   5.335  -2.499  0.00  0.00     0.077 C 
ATOM      2  C1  UNL d   1       0.228   5.178  -3.526  0.00  0.00    -0.074 A 
ATOM      3  C2  UNL d   1       0.269   6.000  -4.658  0.00  0.00    -0.005 A 
ATOM      4  C3  UNL d   1       1.286   5.849  -5.600  0.00  0.00     0.006 A 
ATOM      5  C4  UNL d   1       2.271   4.877  -5.421  0.00  0.00    -0.005 A 
ATOM      6  C5  UNL d   1       2.248   4.047  -4.296  0.00  0.00    -0.074 A 
ATOM      7  C6  UNL d   1       3.304   3.004  -4.083  0.00  0.00     0.077 C 
ATOM      8  C7  UNL d   1       1.226   4.210  -3.350  0.00  0.00    -0.001 A 
ENDROOT
TORSDOF 0
ENDMDL
