MODEL 1
REMARK minimizedAffinity 16.9433746
REMARK minimizedRMSD -1
REMARK  0 active torsions:
REMARK  status: ('A' for Active; 'I' for Inactive)
ROOT
ATOM      1  C   UNL d   1      -5.877  -5.909   3.765  0.00  0.00     0.020 A 
ATOM      2  C1  UNL d   1      -5.755  -5.924   5.153  0.00  0.00     0.020 A 
ATOM      3  C2  UNL d   1      -5.212  -4.823   5.818  0.00  0.00     0.034 A 
ATOM      4  C3  UNL d   1      -4.788  -3.702   5.095  0.00  0.00     0.017 A 
ATOM      5  C4  UNL d   1      -4.911  -3.688   3.701  0.00  0.00     0.017 A 
ATOM      6  C5  UNL d   1      -5.456  -4.794   3.040  0.00  0.00     0.034 A 
ATOM      7 Cl   UNL d   1      -4.411  -2.342   2.739  0.00  0.00    -0.070 Cl
ATOM      8 Cl1  UNL d   1      -4.126  -2.376   5.982  0.00  0.00    -0.070 Cl
ENDROOT
TORSDOF 0
ENDMDL
