MODEL 1
REMARK minimizedAffinity 2.77679229
REMARK minimizedRMSD -1
REMARK  0 active torsions:
REMARK  status: ('A' for Active; 'I' for Inactive)
ROOT
ATOM      1  C   UNL d   1      -1.334   5.504  -5.474  0.00  0.00     0.020 A 
ATOM      2  C1  UNL d   1      -1.248   4.877  -4.232  0.00  0.00     0.020 A 
ATOM      3  C2  UNL d   1      -2.410   4.587  -3.514  0.00  0.00     0.034 A 
ATOM      4  C3  UNL d   1      -3.664   4.924  -4.038  0.00  0.00     0.017 A 
ATOM      5  C4  UNL d   1      -3.749   5.553  -5.285  0.00  0.00     0.017 A 
ATOM      6  C5  UNL d   1      -2.582   5.841  -6.000  0.00  0.00     0.034 A 
ATOM      7 Cl   UNL d   1      -5.260   5.999  -5.997  0.00  0.00    -0.070 Cl
ATOM      8 Cl1  UNL d   1      -5.059   4.535  -3.096  0.00  0.00    -0.070 Cl
ENDROOT
TORSDOF 0
ENDMDL
