MODEL 1
REMARK minimizedAffinity 7.43005371
REMARK minimizedRMSD -1
REMARK  0 active torsions:
REMARK  status: ('A' for Active; 'I' for Inactive)
ROOT
ATOM      1  C   UNL d   1      -1.615  -1.068   1.435  0.00  0.00     0.020 A 
ATOM      2  C1  UNL d   1      -0.898  -1.090   2.631  0.00  0.00     0.020 A 
ATOM      3  C2  UNL d   1      -1.468  -0.574   3.797  0.00  0.00     0.034 A 
ATOM      4  C3  UNL d   1      -2.759  -0.034   3.769  0.00  0.00     0.017 A 
ATOM      5  C4  UNL d   1      -3.478  -0.012   2.569  0.00  0.00     0.017 A 
ATOM      6  C5  UNL d   1      -2.903  -0.530   1.405  0.00  0.00     0.034 A 
ATOM      7 Cl   UNL d   1      -5.076   0.637   2.457  0.00  0.00    -0.070 Cl
ATOM      8 Cl1  UNL d   1      -3.402   0.586   5.249  0.00  0.00    -0.070 Cl
ENDROOT
TORSDOF 0
ENDMDL
