MODEL 1
REMARK minimizedAffinity 9.94829273
REMARK minimizedRMSD -1
REMARK  0 active torsions:
REMARK  status: ('A' for Active; 'I' for Inactive)
ROOT
ATOM      1  C   UNL d   1      -2.494   0.033   3.010  0.00  0.00     0.020 A 
ATOM      2  C1  UNL d   1      -1.362   0.093   2.198  0.00  0.00     0.020 A 
ATOM      3  C2  UNL d   1      -1.027  -0.991   1.385  0.00  0.00     0.034 A 
ATOM      4  C3  UNL d   1      -1.824  -2.142   1.382  0.00  0.00     0.017 A 
ATOM      5  C4  UNL d   1      -2.960  -2.202   2.198  0.00  0.00     0.017 A 
ATOM      6  C5  UNL d   1      -3.291  -1.112   3.010  0.00  0.00     0.034 A 
ATOM      7 Cl   UNL d   1      -3.993  -3.587   2.248  0.00  0.00    -0.070 Cl
ATOM      8 Cl1  UNL d   1      -1.351  -3.445   0.352  0.00  0.00    -0.070 Cl
ENDROOT
TORSDOF 0
ENDMDL
