MODEL 1
REMARK minimizedAffinity 10.5416374
REMARK minimizedRMSD -1
REMARK  0 active torsions:
REMARK  status: ('A' for Active; 'I' for Inactive)
ROOT
ATOM      1  C   UNL d   1       4.337  -0.105   1.022  0.00  0.00     0.020 A 
ATOM      2  C1  UNL d   1       5.070  -0.729   0.013  0.00  0.00     0.020 A 
ATOM      3  C2  UNL d   1       4.621  -1.934  -0.532  0.00  0.00     0.034 A 
ATOM      4  C3  UNL d   1       3.437  -2.519  -0.068  0.00  0.00     0.017 A 
ATOM      5  C4  UNL d   1       2.703  -1.892   0.945  0.00  0.00     0.017 A 
ATOM      6  C5  UNL d   1       3.156  -0.685   1.487  0.00  0.00     0.034 A 
ATOM      7 Cl   UNL d   1       1.232  -2.552   1.568  0.00  0.00    -0.070 Cl
ATOM      8 Cl1  UNL d   1       2.942  -4.010  -0.788  0.00  0.00    -0.070 Cl
ENDROOT
TORSDOF 0
ENDMDL
