MODEL 1
REMARK minimizedAffinity 5.63046455
REMARK minimizedRMSD -1
REMARK  0 active torsions:
REMARK  status: ('A' for Active; 'I' for Inactive)
ROOT
ATOM      1  C   UNL d   1      -3.448  -0.604   2.738  0.00  0.00     0.020 A 
ATOM      2  C1  UNL d   1      -2.454   0.088   3.429  0.00  0.00     0.020 A 
ATOM      3  C2  UNL d   1      -1.110  -0.123   3.115  0.00  0.00     0.034 A 
ATOM      4  C3  UNL d   1      -0.755  -1.028   2.108  0.00  0.00     0.017 A 
ATOM      5  C4  UNL d   1      -1.754  -1.722   1.415  0.00  0.00     0.017 A 
ATOM      6  C5  UNL d   1      -3.098  -1.507   1.733  0.00  0.00     0.034 A 
ATOM      7 Cl   UNL d   1      -1.394  -2.854   0.159  0.00  0.00    -0.070 Cl
ATOM      8 Cl1  UNL d   1       0.926  -1.238   1.772  0.00  0.00    -0.070 Cl
ENDROOT
TORSDOF 0
ENDMDL
