MODEL 1
REMARK minimizedAffinity -1.98278952
REMARK minimizedRMSD -1
REMARK  0 active torsions:
REMARK  status: ('A' for Active; 'I' for Inactive)
ROOT
ATOM      1  C   UNL d   1      -2.767   1.426   5.497  0.00  0.00     0.020 A 
ATOM      2  C1  UNL d   1      -2.360   1.263   4.173  0.00  0.00     0.020 A 
ATOM      3  C2  UNL d   1      -3.009   0.339   3.352  0.00  0.00     0.034 A 
ATOM      4  C3  UNL d   1      -4.069  -0.426   3.853  0.00  0.00     0.017 A 
ATOM      5  C4  UNL d   1      -4.476  -0.262   5.182  0.00  0.00     0.017 A 
ATOM      6  C5  UNL d   1      -3.823   0.664   6.000  0.00  0.00     0.034 A 
ATOM      7 Cl   UNL d   1      -5.775  -1.170   5.872  0.00  0.00    -0.070 Cl
ATOM      8 Cl1  UNL d   1      -4.826  -1.550   2.781  0.00  0.00    -0.070 Cl
ENDROOT
TORSDOF 0
ENDMDL
