MODEL 1
REMARK minimizedAffinity 3.41948485
REMARK minimizedRMSD -1
REMARK  0 active torsions:
REMARK  status: ('A' for Active; 'I' for Inactive)
ROOT
ATOM      1  C   UNL d   1      -4.698  -1.086   2.598  0.00  0.00     0.020 A 
ATOM      2  C1  UNL d   1      -5.085  -0.561   3.830  0.00  0.00     0.020 A 
ATOM      3  C2  UNL d   1      -4.152   0.100   4.633  0.00  0.00     0.034 A 
ATOM      4  C3  UNL d   1      -2.827   0.237   4.204  0.00  0.00     0.017 A 
ATOM      5  C4  UNL d   1      -2.439  -0.291   2.967  0.00  0.00     0.017 A 
ATOM      6  C5  UNL d   1      -3.377  -0.951   2.168  0.00  0.00     0.034 A 
ATOM      7 Cl   UNL d   1      -0.822  -0.161   2.371  0.00  0.00    -0.070 Cl
ATOM      8 Cl1  UNL d   1      -1.727   1.065   5.247  0.00  0.00    -0.070 Cl
ENDROOT
TORSDOF 0
ENDMDL
