MODEL 1
REMARK minimizedAffinity 6.60304451
REMARK minimizedRMSD -1
REMARK  0 active torsions:
REMARK  status: ('A' for Active; 'I' for Inactive)
ROOT
ATOM      1  C   UNL d   1      -5.998   5.731  -4.837  0.00  0.00     0.020 A 
ATOM      2  C1  UNL d   1      -5.257   5.997  -5.987  0.00  0.00     0.020 A 
ATOM      3  C2  UNL d   1      -3.878   5.772  -5.997  0.00  0.00     0.034 A 
ATOM      4  C3  UNL d   1      -3.237   5.278  -4.855  0.00  0.00     0.017 A 
ATOM      5  C4  UNL d   1      -3.982   5.011  -3.701  0.00  0.00     0.017 A 
ATOM      6  C5  UNL d   1      -5.362   5.238  -3.696  0.00  0.00     0.034 A 
ATOM      7 Cl   UNL d   1      -3.262   4.400  -2.254  0.00  0.00    -0.070 Cl
ATOM      8 Cl1  UNL d   1      -1.531   5.023  -4.939  0.00  0.00    -0.070 Cl
ENDROOT
TORSDOF 0
ENDMDL
