MODEL 1
REMARK minimizedAffinity 2.34988999
REMARK minimizedRMSD -1
REMARK  0 active torsions:
REMARK  status: ('A' for Active; 'I' for Inactive)
ROOT
ATOM      1  C   UNL d   1      -2.366   1.185   5.817  0.00  0.00     0.020 A 
ATOM      2  C1  UNL d   1      -1.741   1.013   4.582  0.00  0.00     0.020 A 
ATOM      3  C2  UNL d   1      -2.430   0.408   3.530  0.00  0.00     0.034 A 
ATOM      4  C3  UNL d   1      -3.748  -0.028   3.709  0.00  0.00     0.017 A 
ATOM      5  C4  UNL d   1      -4.374   0.145   4.949  0.00  0.00     0.017 A 
ATOM      6  C5  UNL d   1      -3.680   0.752   6.000  0.00  0.00     0.034 A 
ATOM      7 Cl   UNL d   1      -5.998  -0.367   5.247  0.00  0.00    -0.070 Cl
ATOM      8 Cl1  UNL d   1      -4.540  -0.769   2.364  0.00  0.00    -0.070 Cl
ENDROOT
TORSDOF 0
ENDMDL
