MODEL 1
REMARK minimizedAffinity -0.677165449
REMARK minimizedRMSD -1
REMARK  0 active torsions:
REMARK  status: ('A' for Active; 'I' for Inactive)
ROOT
ATOM      1  C   UNL d   1       5.555   3.383   1.681  0.00  0.00     0.020 A 
ATOM      2  C1  UNL d   1       5.999   3.571   0.373  0.00  0.00     0.020 A 
ATOM      3  C2  UNL d   1       5.200   3.171  -0.700  0.00  0.00     0.034 A 
ATOM      4  C3  UNL d   1       3.953   2.580  -0.468  0.00  0.00     0.017 A 
ATOM      5  C4  UNL d   1       3.508   2.391   0.846  0.00  0.00     0.017 A 
ATOM      6  C5  UNL d   1       4.312   2.794   1.917  0.00  0.00     0.034 A 
ATOM      7 Cl   UNL d   1       1.981   1.669   1.212  0.00  0.00    -0.070 Cl
ATOM      8 Cl1  UNL d   1       3.018   2.109  -1.842  0.00  0.00    -0.070 Cl
ENDROOT
TORSDOF 0
ENDMDL
