MODEL 1
REMARK minimizedAffinity 12.8406954
REMARK minimizedRMSD -1
REMARK  0 active torsions:
REMARK  status: ('A' for Active; 'I' for Inactive)
ROOT
ATOM      1  C   UNL d   1      -4.047   5.716  -5.483  0.00  0.00     0.020 A 
ATOM      2  C1  UNL d   1      -4.188   5.107  -4.237  0.00  0.00     0.020 A 
ATOM      3  C2  UNL d   1      -3.055   4.743  -3.505  0.00  0.00     0.034 A 
ATOM      4  C3  UNL d   1      -1.776   4.987  -4.020  0.00  0.00     0.017 A 
ATOM      5  C4  UNL d   1      -1.636   5.599  -5.271  0.00  0.00     0.017 A 
ATOM      6  C5  UNL d   1      -2.773   5.961  -5.999  0.00  0.00     0.034 A 
ATOM      7 Cl   UNL d   1      -0.091   5.933  -5.971  0.00  0.00    -0.070 Cl
ATOM      8 Cl1  UNL d   1      -0.420   4.511  -3.061  0.00  0.00    -0.070 Cl
ENDROOT
TORSDOF 0
ENDMDL
