MODEL 1
REMARK minimizedAffinity 10.0555115
REMARK minimizedRMSD -1
REMARK  0 active torsions:
REMARK  status: ('A' for Active; 'I' for Inactive)
ROOT
ATOM      1  C   UNL d   1      -0.232  -0.761   2.490  0.00  0.00     0.020 A 
ATOM      2  C1  UNL d   1      -1.116  -1.157   1.488  0.00  0.00     0.020 A 
ATOM      3  C2  UNL d   1      -2.482  -0.897   1.620  0.00  0.00     0.034 A 
ATOM      4  C3  UNL d   1      -2.967  -0.240   2.756  0.00  0.00     0.017 A 
ATOM      5  C4  UNL d   1      -2.078   0.157   3.762  0.00  0.00     0.017 A 
ATOM      6  C5  UNL d   1      -0.711  -0.105   3.625  0.00  0.00     0.034 A 
ATOM      7 Cl   UNL d   1      -2.601   0.973   5.193  0.00  0.00    -0.070 Cl
ATOM      8 Cl1  UNL d   1      -4.668   0.049   2.853  0.00  0.00    -0.070 Cl
ENDROOT
TORSDOF 0
ENDMDL
