MODEL 1
REMARK minimizedAffinity 7.41209888
REMARK minimizedRMSD -1
REMARK  0 active torsions:
REMARK  status: ('A' for Active; 'I' for Inactive)
ROOT
ATOM      1  C   UNL d   1      -1.608  -0.831   1.393  0.00  0.00     0.020 A 
ATOM      2  C1  UNL d   1      -0.774  -0.957   2.503  0.00  0.00     0.020 A 
ATOM      3  C2  UNL d   1      -1.215  -0.536   3.759  0.00  0.00     0.034 A 
ATOM      4  C3  UNL d   1      -2.493   0.013   3.909  0.00  0.00     0.017 A 
ATOM      5  C4  UNL d   1      -3.330   0.139   2.794  0.00  0.00     0.017 A 
ATOM      6  C5  UNL d   1      -2.884  -0.284   1.538  0.00  0.00     0.034 A 
ATOM      7 Cl   UNL d   1      -4.921   0.807   2.900  0.00  0.00    -0.070 Cl
ATOM      8 Cl1  UNL d   1      -2.973   0.513   5.492  0.00  0.00    -0.070 Cl
ENDROOT
TORSDOF 0
ENDMDL
