MODEL 1
REMARK minimizedAffinity 9.01036453
REMARK minimizedRMSD -1
REMARK  0 active torsions:
REMARK  status: ('A' for Active; 'I' for Inactive)
ROOT
ATOM      1  C   UNL d   1       5.144   4.040  -0.999  0.00  0.00     0.020 A 
ATOM      2  C1  UNL d   1       6.000   4.329  -2.061  0.00  0.00     0.020 A 
ATOM      3  C2  UNL d   1       5.623   4.011  -3.368  0.00  0.00     0.034 A 
ATOM      4  C3  UNL d   1       4.388   3.401  -3.615  0.00  0.00     0.017 A 
ATOM      5  C4  UNL d   1       3.530   3.111  -2.549  0.00  0.00     0.017 A 
ATOM      6  C5  UNL d   1       3.912   3.432  -1.242  0.00  0.00     0.034 A 
ATOM      7 Cl   UNL d   1       1.990   2.360  -2.776  0.00  0.00    -0.070 Cl
ATOM      8 Cl1  UNL d   1       3.987   3.035  -5.256  0.00  0.00    -0.070 Cl
ENDROOT
TORSDOF 0
ENDMDL
