MODEL 1
REMARK minimizedAffinity 6.33926725
REMARK minimizedRMSD -1
REMARK  0 active torsions:
REMARK  status: ('A' for Active; 'I' for Inactive)
ROOT
ATOM      1  C   UNL d   1      -4.432  -1.426   2.585  0.00  0.00     0.020 A 
ATOM      2  C1  UNL d   1      -5.496  -0.536   2.727  0.00  0.00     0.020 A 
ATOM      3  C2  UNL d   1      -5.341   0.621   3.494  0.00  0.00     0.034 A 
ATOM      4  C3  UNL d   1      -4.119   0.890   4.122  0.00  0.00     0.017 A 
ATOM      5  C4  UNL d   1      -3.052  -0.005   3.979  0.00  0.00     0.017 A 
ATOM      6  C5  UNL d   1      -3.213  -1.161   3.210  0.00  0.00     0.034 A 
ATOM      7 Cl   UNL d   1      -1.515   0.260   4.725  0.00  0.00    -0.070 Cl
ATOM      8 Cl1  UNL d   1      -3.998   2.339   5.055  0.00  0.00    -0.070 Cl
ENDROOT
TORSDOF 0
ENDMDL
