MODEL 1
REMARK minimizedAffinity 2.07954669
REMARK minimizedRMSD -1
REMARK  2 active torsions:
REMARK  status: ('A' for Active; 'I' for Inactive)
REMARK    1  A    between atoms: C2'_3  and  C1'_4 
REMARK    2  A    between atoms: C1'_4  and  C1_5 
ROOT
ATOM      1  C1  I4B d   1      -0.105  -0.549   0.281  0.00  0.00    -0.075 A 
ATOM      2  C2  I4B d   1      -0.588   0.122  -0.814  0.00  0.00     0.003 A 
ATOM      3  C3  I4B d   1      -0.623   1.537  -0.825  0.00  0.00     0.002 A 
ATOM      4  C4  I4B d   1      -0.215   2.236   0.292  0.00  0.00    -0.004 A 
ATOM      5  C5  I4B d   1       0.296   1.555   1.393  0.00  0.00     0.002 A 
ATOM      6  C6  I4B d   1       0.363   0.154   1.384  0.00  0.00     0.003 A 
ENDROOT
BRANCH   1   7
ATOM      7  C1' I4B d   1      -0.113  -2.045   0.272  0.00  0.00     0.060 C 
BRANCH   7   8
ATOM      8  C2' I4B d   1      -1.512  -2.506   0.627  0.00  0.00    -0.013 C 
ATOM      9  C4' I4B d   1      -1.666  -3.990   0.418  0.00  0.00     0.013 C 
ATOM     10  C3' I4B d   1      -1.775  -2.130   2.055  0.00  0.00     0.013 C 
ENDBRANCH   7   8
ENDBRANCH   1   7
TORSDOF 2
ENDMDL
