MODEL 1
REMARK minimizedAffinity 6.93534184
REMARK minimizedRMSD -1
REMARK  2 active torsions:
REMARK  status: ('A' for Active; 'I' for Inactive)
REMARK    1  A    between atoms: C2'_3  and  C1'_4 
REMARK    2  A    between atoms: C1'_4  and  C1_5 
ROOT
ATOM      1  C1  I4B d   1      -5.889   3.497  -1.344  0.00  0.00    -0.075 A 
ATOM      2  C2  I4B d   1      -5.977   4.693  -0.677  0.00  0.00     0.003 A 
ATOM      3  C3  I4B d   1      -5.946   5.913  -1.394  0.00  0.00     0.002 A 
ATOM      4  C4  I4B d   1      -5.776   5.892  -2.764  0.00  0.00    -0.004 A 
ATOM      5  C5  I4B d   1      -5.710   4.678  -3.441  0.00  0.00     0.002 A 
ATOM      6  C6  I4B d   1      -5.779   3.472  -2.729  0.00  0.00     0.003 A 
ENDROOT
BRANCH   1   7
ATOM      7  C1' I4B d   1      -5.892   2.228  -0.552  0.00  0.00     0.060 C 
BRANCH   7   8
ATOM      8  C2' I4B d   1      -5.087   2.463   0.710  0.00  0.00    -0.013 C 
ATOM      9  C4' I4B d   1      -5.978   2.853   1.860  0.00  0.00     0.013 C 
ATOM     10  C3' I4B d   1      -4.327   1.207   1.015  0.00  0.00     0.013 C 
ENDBRANCH   7   8
ENDBRANCH   1   7
TORSDOF 2
ENDMDL
