MODEL 1
REMARK minimizedAffinity 0.491315544
REMARK minimizedRMSD -1
REMARK  2 active torsions:
REMARK  status: ('A' for Active; 'I' for Inactive)
REMARK    1  A    between atoms: C2'_3  and  C1'_4 
REMARK    2  A    between atoms: C1'_4  and  C1_5 
ROOT
ATOM      1  C1  I4B d   1      -5.814   3.864  -2.525  0.00  0.00    -0.075 A 
ATOM      2  C2  I4B d   1      -5.913   4.988  -1.743  0.00  0.00     0.003 A 
ATOM      3  C3  I4B d   1      -5.942   4.874  -0.332  0.00  0.00     0.002 A 
ATOM      4  C4  I4B d   1      -5.922   3.623   0.249  0.00  0.00    -0.004 A 
ATOM      5  C5  I4B d   1      -5.799   2.486  -0.544  0.00  0.00     0.002 A 
ATOM      6  C6  I4B d   1      -5.732   2.608  -1.940  0.00  0.00     0.003 A 
ENDROOT
BRANCH   1   7
ATOM      7  C1' I4B d   1      -5.818   4.019  -4.013  0.00  0.00     0.060 C 
BRANCH   7   8
ATOM      8  C2' I4B d   1      -5.562   5.477  -4.332  0.00  0.00    -0.013 C 
ATOM      9  C4' I4B d   1      -4.110   5.830  -4.142  0.00  0.00     0.013 C 
ATOM     10  C3' I4B d   1      -5.999   5.727  -5.744  0.00  0.00     0.013 C 
ENDBRANCH   7   8
ENDBRANCH   1   7
TORSDOF 2
ENDMDL
