MODEL 1
REMARK minimizedAffinity 8.04575348
REMARK minimizedRMSD -1
REMARK  2 active torsions:
REMARK  status: ('A' for Active; 'I' for Inactive)
REMARK    1  A    between atoms: C2'_3  and  C1'_4 
REMARK    2  A    between atoms: C1'_4  and  C1_5 
ROOT
ATOM      1  C1  I4B d   1       0.975   2.279   1.327  0.00  0.00    -0.075 A 
ATOM      2  C2  I4B d   1       0.318   1.313   0.606  0.00  0.00     0.003 A 
ATOM      3  C3  I4B d   1       1.039   0.237   0.035  0.00  0.00     0.002 A 
ATOM      4  C4  I4B d   1       2.412   0.193   0.166  0.00  0.00    -0.004 A 
ATOM      5  C5  I4B d   1       3.073   1.161   0.916  0.00  0.00     0.002 A 
ATOM      6  C6  I4B d   1       2.349   2.204   1.511  0.00  0.00     0.003 A 
ENDROOT
BRANCH   1   7
ATOM      7  C1' I4B d   1       0.186   3.420   1.888  0.00  0.00     0.060 C 
BRANCH   7   8
ATOM      8  C2' I4B d   1      -0.272   3.031   3.279  0.00  0.00    -0.013 C 
ATOM      9  C4' I4B d   1       0.122   4.071   4.294  0.00  0.00     0.013 C 
ATOM     10  C3' I4B d   1      -1.760   2.847   3.241  0.00  0.00     0.013 C 
ENDBRANCH   7   8
ENDBRANCH   1   7
TORSDOF 2
ENDMDL
