MODEL 1
REMARK minimizedAffinity 0.907871246
REMARK minimizedRMSD -1
REMARK  2 active torsions:
REMARK  status: ('A' for Active; 'I' for Inactive)
REMARK    1  A    between atoms: C2'_3  and  C1'_4 
REMARK    2  A    between atoms: C1'_4  and  C1_5 
ROOT
ATOM      1  C1  I4B d   1      -5.923   3.473  -3.658  0.00  0.00    -0.075 A 
ATOM      2  C2  I4B d   1      -5.996   3.591  -2.292  0.00  0.00     0.003 A 
ATOM      3  C3  I4B d   1      -6.000   4.871  -1.687  0.00  0.00     0.002 A 
ATOM      4  C4  I4B d   1      -5.879   5.997  -2.476  0.00  0.00    -0.004 A 
ATOM      5  C5  I4B d   1      -5.828   5.876  -3.861  0.00  0.00     0.002 A 
ATOM      6  C6  I4B d   1      -5.863   4.607  -4.457  0.00  0.00     0.003 A 
ENDROOT
BRANCH   1   7
ATOM      7  C1' I4B d   1      -5.888   2.105  -4.262  0.00  0.00     0.060 C 
BRANCH   7   8
ATOM      8  C2' I4B d   1      -4.618   1.988  -5.080  0.00  0.00    -0.013 C 
ATOM      9  C4' I4B d   1      -4.451   3.170  -5.999  0.00  0.00     0.013 C 
ATOM     10  C3' I4B d   1      -3.464   1.875  -4.129  0.00  0.00     0.013 C 
ENDBRANCH   7   8
ENDBRANCH   1   7
TORSDOF 2
ENDMDL
