MODEL 1
REMARK minimizedAffinity 6.80159521
REMARK minimizedRMSD -1
REMARK  2 active torsions:
REMARK  status: ('A' for Active; 'I' for Inactive)
REMARK    1  A    between atoms: C2'_3  and  C1'_4 
REMARK    2  A    between atoms: C1'_4  and  C1_5 
ROOT
ATOM      1  C1  I4B d   1      -1.983  -1.033   1.240  0.00  0.00    -0.075 A 
ATOM      2  C2  I4B d   1      -3.013  -1.495   2.021  0.00  0.00     0.003 A 
ATOM      3  C3  I4B d   1      -3.121  -2.877   2.314  0.00  0.00     0.002 A 
ATOM      4  C4  I4B d   1      -2.213  -3.760   1.767  0.00  0.00    -0.004 A 
ATOM      5  C5  I4B d   1      -1.156  -3.287   0.994  0.00  0.00     0.002 A 
ATOM      6  C6  I4B d   1      -1.033  -1.913   0.739  0.00  0.00     0.003 A 
ENDROOT
BRANCH   1   7
ATOM      7  C1' I4B d   1      -1.919   0.428   0.924  0.00  0.00     0.060 C 
BRANCH   7   8
ATOM      8  C2' I4B d   1      -0.851   1.048   1.802  0.00  0.00    -0.013 C 
ATOM      9  C4' I4B d   1       0.392   1.359   1.010  0.00  0.00     0.013 C 
ATOM     10  C3' I4B d   1      -1.423   2.289   2.420  0.00  0.00     0.013 C 
ENDBRANCH   7   8
ENDBRANCH   1   7
TORSDOF 2
ENDMDL
