MODEL 1
REMARK minimizedAffinity -2.82738543
REMARK minimizedRMSD -1
REMARK  2 active torsions:
REMARK  status: ('A' for Active; 'I' for Inactive)
REMARK    1  A    between atoms: C2'_3  and  C1'_4 
REMARK    2  A    between atoms: C1'_4  and  C1_5 
ROOT
ATOM      1  C1  I4B d   1      -2.809  -3.690  -0.044  0.00  0.00    -0.075 A 
ATOM      2  C2  I4B d   1      -2.036  -4.339   0.887  0.00  0.00     0.003 A 
ATOM      3  C3  I4B d   1      -1.361  -3.603   1.891  0.00  0.00     0.002 A 
ATOM      4  C4  I4B d   1      -1.445  -2.226   1.896  0.00  0.00    -0.004 A 
ATOM      5  C5  I4B d   1      -2.247  -1.571   0.965  0.00  0.00     0.002 A 
ATOM      6  C6  I4B d   1      -2.943  -2.309  -0.003  0.00  0.00     0.003 A 
ENDROOT
BRANCH   1   7
ATOM      7  C1' I4B d   1      -3.481  -4.496  -1.110  0.00  0.00     0.060 C 
BRANCH   7   8
ATOM      8  C2' I4B d   1      -2.505  -4.661  -2.257  0.00  0.00    -0.013 C 
ATOM      9  C4' I4B d   1      -2.807  -5.900  -3.057  0.00  0.00     0.013 C 
ATOM     10  C3' I4B d   1      -2.583  -3.431  -3.112  0.00  0.00     0.013 C 
ENDBRANCH   7   8
ENDBRANCH   1   7
TORSDOF 2
ENDMDL
