MODEL 1
REMARK minimizedAffinity 10.346221
REMARK minimizedRMSD -1
REMARK  3 active torsions:
REMARK  status: ('A' for Active; 'I' for Inactive)
REMARK    1  A    between atoms: C3'_2  and  C2'_3 
REMARK    2  A    between atoms: C2'_3  and  C1'_4 
REMARK    3  A    between atoms: C1'_4  and  C1_5 
ROOT
ATOM      1  C1  N4B d   1       2.978  -2.238   2.676  0.00  0.00    -0.075 A 
ATOM      2  C2  N4B d   1       1.883  -1.481   3.148  0.00  0.00     0.002 A 
ATOM      3  C3  N4B d   1       0.877  -1.118   2.286  0.00  0.00     0.002 A 
ATOM      4  C4  N4B d   1       0.954  -1.483   0.950  0.00  0.00    -0.004 A 
ATOM      5  C5  N4B d   1       2.002  -2.236   0.508  0.00  0.00     0.002 A 
ATOM      6  C6  N4B d   1       3.018  -2.611   1.364  0.00  0.00     0.002 A 
ENDROOT
BRANCH   1   7
ATOM      7  C1' N4B d   1       4.143  -2.586   3.561  0.00  0.00     0.057 C 
BRANCH   7   8
ATOM      8  C2' N4B d   1       3.809  -2.207   5.001  0.00  0.00     0.009 C 
BRANCH   8   9
ATOM      9  C3' N4B d   1       4.714  -2.910   5.998  0.00  0.00     0.004 C 
ATOM     10  C4' N4B d   1       4.552  -4.400   5.980  0.00  0.00     0.003 C 
ENDBRANCH   8   9
ENDBRANCH   7   8
ENDBRANCH   1   7
TORSDOF 3
ENDMDL
