MODEL 1
REMARK minimizedAffinity 8.5143795
REMARK minimizedRMSD -1
REMARK  3 active torsions:
REMARK  status: ('A' for Active; 'I' for Inactive)
REMARK    1  A    between atoms: C3'_2  and  C2'_3 
REMARK    2  A    between atoms: C2'_3  and  C1'_4 
REMARK    3  A    between atoms: C1'_4  and  C1_5 
ROOT
ATOM      1  C1  N4B d   1       1.209  -1.822   1.934  0.00  0.00    -0.075 A 
ATOM      2  C2  N4B d   1       2.053  -1.339   0.909  0.00  0.00     0.002 A 
ATOM      3  C3  N4B d   1       2.492  -2.189  -0.076  0.00  0.00     0.002 A 
ATOM      4  C4  N4B d   1       2.119  -3.524  -0.046  0.00  0.00    -0.004 A 
ATOM      5  C5  N4B d   1       1.284  -3.977   0.933  0.00  0.00     0.002 A 
ATOM      6  C6  N4B d   1       0.831  -3.133   1.927  0.00  0.00     0.002 A 
ENDROOT
BRANCH   1   7
ATOM      7  C1' N4B d   1       0.773  -0.951   3.080  0.00  0.00     0.057 C 
BRANCH   7   8
ATOM      8  C2' N4B d   1       1.884  -0.903   4.124  0.00  0.00     0.009 C 
BRANCH   8   9
ATOM      9  C3' N4B d   1       2.923  -1.988   3.898  0.00  0.00     0.004 C 
ATOM     10  C4' N4B d   1       3.782  -2.229   5.103  0.00  0.00     0.003 C 
ENDBRANCH   8   9
ENDBRANCH   7   8
ENDBRANCH   1   7
TORSDOF 3
ENDMDL
