MODEL 1
REMARK minimizedAffinity 9.05297661
REMARK minimizedRMSD -1
REMARK  3 active torsions:
REMARK  status: ('A' for Active; 'I' for Inactive)
REMARK    1  A    between atoms: C3'_2  and  C2'_3 
REMARK    2  A    between atoms: C2'_3  and  C1'_4 
REMARK    3  A    between atoms: C1'_4  and  C1_5 
ROOT
ATOM      1  C1  N4B d   1      -4.858   2.197  -4.452  0.00  0.00    -0.075 A 
ATOM      2  C2  N4B d   1      -3.717   1.831  -3.706  0.00  0.00     0.002 A 
ATOM      3  C3  N4B d   1      -2.885   2.802  -3.203  0.00  0.00     0.002 A 
ATOM      4  C4  N4B d   1      -3.163   4.138  -3.448  0.00  0.00    -0.004 A 
ATOM      5  C5  N4B d   1      -4.282   4.484  -4.148  0.00  0.00     0.002 A 
ATOM      6  C6  N4B d   1      -5.129   3.520  -4.656  0.00  0.00     0.002 A 
ENDROOT
BRANCH   1   7
ATOM      7  C1' N4B d   1      -5.750   1.170  -5.095  0.00  0.00     0.057 C 
BRANCH   7   8
ATOM      8  C2' N4B d   1      -5.989   0.029  -4.111  0.00  0.00     0.009 C 
BRANCH   8   9
ATOM      9  C3' N4B d   1      -5.791  -1.331  -4.760  0.00  0.00     0.004 C 
ATOM     10  C4' N4B d   1      -4.906  -1.274  -5.969  0.00  0.00     0.003 C 
ENDBRANCH   8   9
ENDBRANCH   7   8
ENDBRANCH   1   7
TORSDOF 3
ENDMDL
