MODEL 1
REMARK minimizedAffinity 9.20440197
REMARK minimizedRMSD -1
REMARK  3 active torsions:
REMARK  status: ('A' for Active; 'I' for Inactive)
REMARK    1  A    between atoms: C3'_2  and  C2'_3 
REMARK    2  A    between atoms: C2'_3  and  C1'_4 
REMARK    3  A    between atoms: C1'_4  and  C1_5 
ROOT
ATOM      1  C1  N4B d   1       1.882  -3.796   0.747  0.00  0.00    -0.075 A 
ATOM      2  C2  N4B d   1       0.651  -3.137   0.960  0.00  0.00     0.002 A 
ATOM      3  C3  N4B d   1       0.635  -1.835   1.395  0.00  0.00     0.002 A 
ATOM      4  C4  N4B d   1       1.832  -1.179   1.641  0.00  0.00    -0.004 A 
ATOM      5  C5  N4B d   1       3.017  -1.814   1.408  0.00  0.00     0.002 A 
ATOM      6  C6  N4B d   1       3.048  -3.122   0.967  0.00  0.00     0.002 A 
ENDROOT
BRANCH   1   7
ATOM      7  C1' N4B d   1       1.949  -5.246   0.354  0.00  0.00     0.057 C 
BRANCH   7   8
ATOM      8  C2' N4B d   1       3.400  -5.715   0.414  0.00  0.00     0.009 C 
BRANCH   8   9
ATOM      9  C3' N4B d   1       3.964  -5.996  -0.968  0.00  0.00     0.004 C 
ATOM     10  C4' N4B d   1       5.463  -5.999  -0.994  0.00  0.00     0.003 C 
ENDBRANCH   8   9
ENDBRANCH   7   8
ENDBRANCH   1   7
TORSDOF 3
ENDMDL
