MODEL 1
REMARK minimizedAffinity 10.7508888
REMARK minimizedRMSD -1
REMARK  3 active torsions:
REMARK  status: ('A' for Active; 'I' for Inactive)
REMARK    1  A    between atoms: C3'_2  and  C2'_3 
REMARK    2  A    between atoms: C2'_3  and  C1'_4 
REMARK    3  A    between atoms: C1'_4  and  C1_5 
ROOT
ATOM      1  C1  N4B d   1       3.161  -1.927   1.037  0.00  0.00    -0.075 A 
ATOM      2  C2  N4B d   1       2.142  -1.122   1.593  0.00  0.00     0.002 A 
ATOM      3  C3  N4B d   1       0.829  -1.509   1.489  0.00  0.00     0.002 A 
ATOM      4  C4  N4B d   1       0.510  -2.682   0.821  0.00  0.00    -0.004 A 
ATOM      5  C5  N4B d   1       1.502  -3.466   0.309  0.00  0.00     0.002 A 
ATOM      6  C6  N4B d   1       2.827  -3.091   0.409  0.00  0.00     0.002 A 
ENDROOT
BRANCH   1   7
ATOM      7  C1' N4B d   1       4.604  -1.502   1.050  0.00  0.00     0.057 C 
BRANCH   7   8
ATOM      8  C2' N4B d   1       4.809  -0.393   0.023  0.00  0.00     0.009 C 
BRANCH   8   9
ATOM      9  C3' N4B d   1       6.000   0.486   0.366  0.00  0.00     0.004 C 
ATOM     10  C4' N4B d   1       5.649   1.943   0.423  0.00  0.00     0.003 C 
ENDBRANCH   8   9
ENDBRANCH   7   8
ENDBRANCH   1   7
TORSDOF 3
ENDMDL
