MODEL 1
REMARK minimizedAffinity 10.5666342
REMARK minimizedRMSD -1
REMARK  3 active torsions:
REMARK  status: ('A' for Active; 'I' for Inactive)
REMARK    1  A    between atoms: C3'_2  and  C2'_3 
REMARK    2  A    between atoms: C2'_3  and  C1'_4 
REMARK    3  A    between atoms: C1'_4  and  C1_5 
ROOT
ATOM      1  C1  N4B d   1       5.936   0.567   0.319  0.00  0.00    -0.075 A 
ATOM      2  C2  N4B d   1       5.979   1.218   1.572  0.00  0.00     0.002 A 
ATOM      3  C3  N4B d   1       5.999   2.590   1.632  0.00  0.00     0.002 A 
ATOM      4  C4  N4B d   1       5.996   3.328   0.458  0.00  0.00    -0.004 A 
ATOM      5  C5  N4B d   1       5.928   2.692  -0.747  0.00  0.00     0.002 A 
ATOM      6  C6  N4B d   1       5.904   1.314  -0.823  0.00  0.00     0.002 A 
ENDROOT
BRANCH   1   7
ATOM      7  C1' N4B d   1       6.000  -0.931   0.201  0.00  0.00     0.057 C 
BRANCH   7   8
ATOM      8  C2' N4B d   1       5.602  -1.556   1.534  0.00  0.00     0.009 C 
BRANCH   8   9
ATOM      9  C3' N4B d   1       4.480  -2.568   1.375  0.00  0.00     0.004 C 
ATOM     10  C4' N4B d   1       3.149  -1.925   1.125  0.00  0.00     0.003 C 
ENDBRANCH   8   9
ENDBRANCH   7   8
ENDBRANCH   1   7
TORSDOF 3
ENDMDL
