MODEL 1
REMARK minimizedAffinity -4.45575571
REMARK minimizedRMSD -1
REMARK  1 active torsions:
REMARK  status: ('A' for Active; 'I' for Inactive)
REMARK    1  A    between atoms: C3_4  and  O_7 
ROOT
ATOM      1  C   UNL d   1       2.215  -1.932   2.320  0.00  0.00    -0.033 A 
ATOM      2  C1  UNL d   1       1.121  -1.127   2.644  0.00  0.00     0.039 A 
ATOM      3  C2  UNL d   1       0.399  -0.488   1.633  0.00  0.00    -0.080 A 
ATOM      4  C3  UNL d   1       0.780  -0.663   0.306  0.00  0.00     0.150 A 
ATOM      5  C4  UNL d   1       1.866  -1.467  -0.024  0.00  0.00    -0.007 A 
ATOM      6  C5  UNL d   1       2.587  -2.103   0.987  0.00  0.00     0.039 A 
ENDROOT
BRANCH   4   7
ATOM      7  O   UNL d   1       0.109  -0.057  -0.714  0.00  0.00    -0.526 OA
ATOM      8  H5  UNL d   1      -0.600   0.489  -0.334  0.00  0.00     0.418 HD
ENDBRANCH   4   7
TORSDOF 1
ENDMDL
