MODEL 1
REMARK minimizedAffinity -4.55740738
REMARK minimizedRMSD -1
REMARK  1 active torsions:
REMARK  status: ('A' for Active; 'I' for Inactive)
REMARK    1  A    between atoms: C3_4  and  O_7 
ROOT
ATOM      1  C   UNL d   1       1.094  -1.114   2.645  0.00  0.00    -0.033 A 
ATOM      2  C1  UNL d   1       2.049  -0.774   1.685  0.00  0.00     0.039 A 
ATOM      3  C2  UNL d   1       1.653  -0.188   0.481  0.00  0.00    -0.080 A 
ATOM      4  C3  UNL d   1       0.301   0.053   0.251  0.00  0.00     0.150 A 
ATOM      5  C4  UNL d   1      -0.655  -0.280   1.204  0.00  0.00    -0.007 A 
ATOM      6  C5  UNL d   1      -0.258  -0.866   2.405  0.00  0.00     0.039 A 
ENDROOT
BRANCH   4   7
ATOM      7  O   UNL d   1      -0.134   0.619  -0.911  0.00  0.00    -0.526 OA
ATOM      8  H5  UNL d   1       0.634   0.769  -1.487  0.00  0.00     0.418 HD
ENDBRANCH   4   7
TORSDOF 1
ENDMDL
