MODEL 1
REMARK minimizedAffinity -4.56957054
REMARK minimizedRMSD -1
REMARK  1 active torsions:
REMARK  status: ('A' for Active; 'I' for Inactive)
REMARK    1  A    between atoms: C3_4  and  O_7 
ROOT
ATOM      1  C   UNL d   1       1.995  -1.047  -0.222  0.00  0.00    -0.033 A 
ATOM      2  C1  UNL d   1       0.946  -0.232   0.210  0.00  0.00     0.039 A 
ATOM      3  C2  UNL d   1       0.550  -0.252   1.548  0.00  0.00    -0.080 A 
ATOM      4  C3  UNL d   1       1.210  -1.089   2.444  0.00  0.00     0.150 A 
ATOM      5  C4  UNL d   1       2.258  -1.901   2.021  0.00  0.00    -0.007 A 
ATOM      6  C5  UNL d   1       2.651  -1.880   0.684  0.00  0.00     0.039 A 
ENDROOT
BRANCH   4   7
ATOM      7  O   UNL d   1       0.856  -1.147   3.759  0.00  0.00    -0.526 OA
ATOM      8  H5  UNL d   1       0.099  -0.554   3.900  0.00  0.00     0.418 HD
ENDBRANCH   4   7
TORSDOF 1
ENDMDL
