MODEL 1
REMARK minimizedAffinity -5.62070942
REMARK minimizedRMSD -1
REMARK  1 active torsions:
REMARK  status: ('A' for Active; 'I' for Inactive)
REMARK    1  A    between atoms: C3_4  and  O_7 
ROOT
ATOM      1  C   UNL d   1       1.172  -0.686   2.640  0.00  0.00    -0.033 A 
ATOM      2  C1  UNL d   1       0.443  -0.030   1.646  0.00  0.00     0.039 A 
ATOM      3  C2  UNL d   1       0.666  -0.329   0.301  0.00  0.00    -0.080 A 
ATOM      4  C3  UNL d   1       1.619  -1.286  -0.037  0.00  0.00     0.150 A 
ATOM      5  C4  UNL d   1       2.346  -1.946   0.948  0.00  0.00    -0.007 A 
ATOM      6  C5  UNL d   1       2.123  -1.645   2.291  0.00  0.00     0.039 A 
ENDROOT
BRANCH   4   7
ATOM      7  O   UNL d   1       1.876  -1.609  -1.336  0.00  0.00    -0.526 OA
ATOM      8  H5  UNL d   1       1.319  -1.053  -1.907  0.00  0.00     0.418 HD
ENDBRANCH   4   7
TORSDOF 1
ENDMDL
