MODEL 1
REMARK minimizedAffinity -3.58053946
REMARK minimizedRMSD -1
REMARK  1 active torsions:
REMARK  status: ('A' for Active; 'I' for Inactive)
REMARK    1  A    between atoms: C3_4  and  O_7 
ROOT
ATOM      1  C   UNL d   1      -0.153   1.000  -2.602  0.00  0.00    -0.033 A 
ATOM      2  C1  UNL d   1      -0.285   2.290  -3.117  0.00  0.00     0.039 A 
ATOM      3  C2  UNL d   1      -1.402   3.063  -2.793  0.00  0.00    -0.080 A 
ATOM      4  C3  UNL d   1      -2.377   2.534  -1.952  0.00  0.00     0.150 A 
ATOM      5  C4  UNL d   1      -2.250   1.251  -1.431  0.00  0.00    -0.007 A 
ATOM      6  C5  UNL d   1      -1.135   0.480  -1.757  0.00  0.00     0.039 A 
ENDROOT
BRANCH   4   7
ATOM      7  O   UNL d   1      -3.487   3.249  -1.610  0.00  0.00    -0.526 OA
ATOM      8  H5  UNL d   1      -3.454   4.106  -2.067  0.00  0.00     0.418 HD
ENDBRANCH   4   7
TORSDOF 1
ENDMDL
