MODEL 1
REMARK minimizedAffinity -2.16132641
REMARK minimizedRMSD -1
REMARK  1 active torsions:
REMARK  status: ('A' for Active; 'I' for Inactive)
REMARK    1  A    between atoms: C3_4  and  O_7 
ROOT
ATOM      1  C   UNL d   1      -1.527  -0.177  -0.270  0.00  0.00    -0.033 A 
ATOM      2  C1  UNL d   1      -2.287  -0.750   0.752  0.00  0.00     0.039 A 
ATOM      3  C2  UNL d   1      -1.694  -1.055   1.978  0.00  0.00    -0.080 A 
ATOM      4  C3  UNL d   1      -0.342  -0.781   2.171  0.00  0.00     0.150 A 
ATOM      5  C4  UNL d   1       0.420  -0.207   1.158  0.00  0.00    -0.007 A 
ATOM      6  C5  UNL d   1      -0.174   0.095  -0.066  0.00  0.00     0.039 A 
ENDROOT
BRANCH   4   7
ATOM      7  O   UNL d   1       0.282  -1.065   3.349  0.00  0.00    -0.526 OA
ATOM      8  H5  UNL d   1      -0.362  -1.485   3.945  0.00  0.00     0.418 HD
ENDBRANCH   4   7
TORSDOF 1
ENDMDL
