MODEL 1
REMARK minimizedAffinity -4.21058846
REMARK minimizedRMSD -1
REMARK  1 active torsions:
REMARK  status: ('A' for Active; 'I' for Inactive)
REMARK    1  A    between atoms: C3_4  and  O_7 
ROOT
ATOM      1  C   UNL d   1      -0.552   0.114  -0.071  0.00  0.00    -0.033 A 
ATOM      2  C1  UNL d   1       0.839   0.108  -0.190  0.00  0.00     0.039 A 
ATOM      3  C2  UNL d   1       1.637  -0.095   0.937  0.00  0.00    -0.080 A 
ATOM      4  C3  UNL d   1       1.033  -0.292   2.176  0.00  0.00     0.150 A 
ATOM      5  C4  UNL d   1      -0.352  -0.292   2.301  0.00  0.00    -0.007 A 
ATOM      6  C5  UNL d   1      -1.148  -0.088   1.174  0.00  0.00     0.039 A 
ENDROOT
BRANCH   4   7
ATOM      7  O   UNL d   1       1.771  -0.490   3.305  0.00  0.00    -0.526 OA
ATOM      8  H5  UNL d   1       2.712  -0.436   3.071  0.00  0.00     0.418 HD
ENDBRANCH   4   7
TORSDOF 1
ENDMDL
