MODEL 1
REMARK minimizedAffinity -4.65183067
REMARK minimizedRMSD -1
REMARK  1 active torsions:
REMARK  status: ('A' for Active; 'I' for Inactive)
REMARK    1  A    between atoms: C3_4  and  O_7 
ROOT
ATOM      1  C   UNL d   1      -1.351  -0.282   0.591  0.00  0.00    -0.033 A 
ATOM      2  C1  UNL d   1       0.013  -0.405   0.321  0.00  0.00     0.039 A 
ATOM      3  C2  UNL d   1       0.940  -0.355   1.365  0.00  0.00    -0.080 A 
ATOM      4  C3  UNL d   1       0.490  -0.183   2.671  0.00  0.00     0.150 A 
ATOM      5  C4  UNL d   1      -0.868  -0.064   2.947  0.00  0.00    -0.007 A 
ATOM      6  C5  UNL d   1      -1.792  -0.113   1.904  0.00  0.00     0.039 A 
ENDROOT
BRANCH   4   7
ATOM      7  O   UNL d   1       1.357  -0.123   3.721  0.00  0.00    -0.526 OA
ATOM      8  H5  UNL d   1       2.263  -0.191   3.377  0.00  0.00     0.418 HD
ENDBRANCH   4   7
TORSDOF 1
ENDMDL
