MODEL 1
REMARK minimizedAffinity -4.46310472
REMARK minimizedRMSD -1
REMARK  0 active torsions:
REMARK  status: ('A' for Active; 'I' for Inactive)
ROOT
ATOM      1  C   UNL d   1       1.516  -0.221   3.577  0.00  0.00     0.078 C 
ATOM      2  C1  UNL d   1       0.503   0.110   2.522  0.00  0.00    -0.077 A 
ATOM      3  C2  UNL d   1      -0.820   0.417   2.863  0.00  0.00    -0.001 A 
ATOM      4  C3  UNL d   1      -1.754   0.713   1.870  0.00  0.00     0.003 A 
ATOM      5  C4  UNL d   1      -1.377   0.704   0.528  0.00  0.00    -0.005 A 
ATOM      6  C5  UNL d   1      -0.063   0.397   0.179  0.00  0.00     0.003 A 
ATOM      7  C6  UNL d   1       0.873   0.101   1.171  0.00  0.00    -0.001 A 
ENDROOT
TORSDOF 0
ENDMDL
