MODEL 1
REMARK minimizedAffinity -5.04500437
REMARK minimizedRMSD -1
REMARK  0 active torsions:
REMARK  status: ('A' for Active; 'I' for Inactive)
ROOT
ATOM      1  C   UNL d   1      -1.671   0.329  -5.257  0.00  0.00     0.078 C 
ATOM      2  C1  UNL d   1      -0.477   0.243  -4.354  0.00  0.00    -0.077 A 
ATOM      3  C2  UNL d   1       0.682   0.984  -4.618  0.00  0.00    -0.001 A 
ATOM      4  C3  UNL d   1       1.789   0.886  -3.774  0.00  0.00     0.003 A 
ATOM      5  C4  UNL d   1       1.750   0.047  -2.662  0.00  0.00    -0.005 A 
ATOM      6  C5  UNL d   1       0.602  -0.696  -2.393  0.00  0.00     0.003 A 
ATOM      7  C6  UNL d   1      -0.506  -0.599  -3.235  0.00  0.00    -0.001 A 
ENDROOT
TORSDOF 0
ENDMDL
