MODEL 1
REMARK minimizedAffinity -5.0051198
REMARK minimizedRMSD -1
REMARK  0 active torsions:
REMARK  status: ('A' for Active; 'I' for Inactive)
ROOT
ATOM      1  C   UNL d   1       0.288  -0.574  -0.491  0.00  0.00     0.078 C 
ATOM      2  C1  UNL d   1       0.368  -0.040   0.908  0.00  0.00    -0.077 A 
ATOM      3  C2  UNL d   1       1.342  -0.503   1.802  0.00  0.00    -0.001 A 
ATOM      4  C3  UNL d   1       1.399  -0.004   3.104  0.00  0.00     0.003 A 
ATOM      5  C4  UNL d   1       0.485   0.959   3.525  0.00  0.00    -0.005 A 
ATOM      6  C5  UNL d   1      -0.489   1.424   2.644  0.00  0.00     0.003 A 
ATOM      7  C6  UNL d   1      -0.548   0.927   1.341  0.00  0.00    -0.001 A 
ENDROOT
TORSDOF 0
ENDMDL
