MODEL 1
REMARK minimizedAffinity -4.08491182
REMARK minimizedRMSD -1
REMARK  0 active torsions:
REMARK  status: ('A' for Active; 'I' for Inactive)
ROOT
ATOM      1  C   UNL d   1       1.754  -0.625   2.927  0.00  0.00     0.078 C 
ATOM      2  C1  UNL d   1       0.571  -0.330   2.055  0.00  0.00    -0.077 A 
ATOM      3  C2  UNL d   1       0.629  -0.526   0.670  0.00  0.00    -0.001 A 
ATOM      4  C3  UNL d   1      -0.477  -0.239  -0.131  0.00  0.00     0.003 A 
ATOM      5  C4  UNL d   1      -1.650   0.248   0.444  0.00  0.00    -0.005 A 
ATOM      6  C5  UNL d   1      -1.717   0.448   1.821  0.00  0.00     0.003 A 
ATOM      7  C6  UNL d   1      -0.611   0.161   2.623  0.00  0.00    -0.001 A 
ENDROOT
TORSDOF 0
ENDMDL
