MODEL 1
REMARK minimizedAffinity -5.25164318
REMARK minimizedRMSD -1
REMARK  0 active torsions:
REMARK  status: ('A' for Active; 'I' for Inactive)
ROOT
ATOM      1  C   UNL d   1      -0.863   1.383   2.486  0.00  0.00     0.078 C 
ATOM      2  C1  UNL d   1      -0.084   0.370   1.701  0.00  0.00    -0.077 A 
ATOM      3  C2  UNL d   1      -0.634  -0.242   0.568  0.00  0.00    -0.001 A 
ATOM      4  C3  UNL d   1       0.099  -1.190  -0.147  0.00  0.00     0.003 A 
ATOM      5  C4  UNL d   1       1.385  -1.536   0.263  0.00  0.00    -0.005 A 
ATOM      6  C5  UNL d   1       1.939  -0.934   1.391  0.00  0.00     0.003 A 
ATOM      7  C6  UNL d   1       1.208   0.014   2.108  0.00  0.00    -0.001 A 
ENDROOT
TORSDOF 0
ENDMDL
