MODEL 1
REMARK minimizedAffinity -0.0852978602
REMARK minimizedRMSD -1
REMARK  0 active torsions:
REMARK  status: ('A' for Active; 'I' for Inactive)
ROOT
ATOM      1  C   UNL d   1       0.035   0.581   0.046  0.00  0.00     0.078 C 
ATOM      2  C1  UNL d   1       0.096   0.462   1.540  0.00  0.00    -0.077 A 
ATOM      3  C2  UNL d   1      -0.331   1.509   2.365  0.00  0.00    -0.001 A 
ATOM      4  C3  UNL d   1      -0.260   1.388   3.754  0.00  0.00     0.003 A 
ATOM      5  C4  UNL d   1       0.239   0.221   4.329  0.00  0.00    -0.005 A 
ATOM      6  C5  UNL d   1       0.669  -0.826   3.516  0.00  0.00     0.003 A 
ATOM      7  C6  UNL d   1       0.598  -0.706   2.127  0.00  0.00    -0.001 A 
ENDROOT
TORSDOF 0
ENDMDL
