MODEL 1
REMARK minimizedAffinity -4.67061234
REMARK minimizedRMSD -1
REMARK  0 active torsions:
REMARK  status: ('A' for Active; 'I' for Inactive)
ROOT
ATOM      1  C   UNL d   1      -0.119  -0.966  -0.599  0.00  0.00     0.078 C 
ATOM      2  C1  UNL d   1      -0.110  -0.117   0.637  0.00  0.00    -0.077 A 
ATOM      3  C2  UNL d   1      -1.294   0.157   1.333  0.00  0.00    -0.001 A 
ATOM      4  C3  UNL d   1      -1.272   0.957   2.476  0.00  0.00     0.003 A 
ATOM      5  C4  UNL d   1      -0.069   1.491   2.933  0.00  0.00    -0.005 A 
ATOM      6  C5  UNL d   1       1.114   1.226   2.246  0.00  0.00     0.003 A 
ATOM      7  C6  UNL d   1       1.094   0.427   1.102  0.00  0.00    -0.001 A 
ENDROOT
TORSDOF 0
ENDMDL
