MODEL 1
REMARK minimizedAffinity 11.6992416
REMARK minimizedRMSD -1
REMARK  0 active torsions:
REMARK  status: ('A' for Active; 'I' for Inactive)
ROOT
ATOM      1  C   UNL d   1       3.915  -1.544   0.557  0.00  0.00     0.077 C 
ATOM      2  C1  UNL d   1       3.684  -0.745  -0.691  0.00  0.00    -0.074 A 
ATOM      3  C2  UNL d   1       4.748  -0.396  -1.528  0.00  0.00    -0.005 A 
ATOM      4  C3  UNL d   1       4.516   0.339  -2.691  0.00  0.00     0.006 A 
ATOM      5  C4  UNL d   1       3.220   0.732  -3.026  0.00  0.00    -0.005 A 
ATOM      6  C5  UNL d   1       2.143   0.392  -2.201  0.00  0.00    -0.074 A 
ATOM      7  C6  UNL d   1       0.743   0.798  -2.552  0.00  0.00     0.077 C 
ATOM      8  C7  UNL d   1       2.383  -0.353  -1.039  0.00  0.00    -0.001 A 
ENDROOT
TORSDOF 0
ENDMDL
