MODEL 1
REMARK minimizedAffinity 17.2215595
REMARK minimizedRMSD -1
REMARK  0 active torsions:
REMARK  status: ('A' for Active; 'I' for Inactive)
ROOT
ATOM      1  C   UNL d   1       2.298  -3.115  -0.741  0.00  0.00     0.077 C 
ATOM      2  C1  UNL d   1       1.690  -2.325  -1.862  0.00  0.00    -0.074 A 
ATOM      3  C2  UNL d   1       0.977  -2.959  -2.884  0.00  0.00    -0.005 A 
ATOM      4  C3  UNL d   1       0.409  -2.210  -3.914  0.00  0.00     0.006 A 
ATOM      5  C4  UNL d   1       0.548  -0.822  -3.933  0.00  0.00    -0.005 A 
ATOM      6  C5  UNL d   1       1.258  -0.170  -2.919  0.00  0.00    -0.074 A 
ATOM      7  C6  UNL d   1       1.409   1.322  -2.919  0.00  0.00     0.077 C 
ATOM      8  C7  UNL d   1       1.819  -0.929  -1.883  0.00  0.00    -0.001 A 
ENDROOT
TORSDOF 0
ENDMDL
