MODEL 1
REMARK minimizedAffinity 1.83828473
REMARK minimizedRMSD -1
REMARK  0 active torsions:
REMARK  status: ('A' for Active; 'I' for Inactive)
ROOT
ATOM      1  C   UNL d   1       2.140   3.535  -2.757  0.00  0.00     0.077 C 
ATOM      2  C1  UNL d   1       1.836   2.129  -2.334  0.00  0.00    -0.074 A 
ATOM      3  C2  UNL d   1       0.593   1.549  -2.607  0.00  0.00    -0.005 A 
ATOM      4  C3  UNL d   1       0.328   0.237  -2.215  0.00  0.00     0.006 A 
ATOM      5  C4  UNL d   1       1.302  -0.508  -1.549  0.00  0.00    -0.005 A 
ATOM      6  C5  UNL d   1       2.551   0.055  -1.268  0.00  0.00    -0.074 A 
ATOM      7  C6  UNL d   1       3.612  -0.735  -0.561  0.00  0.00     0.077 C 
ATOM      8  C7  UNL d   1       2.812   1.372  -1.671  0.00  0.00    -0.001 A 
ENDROOT
TORSDOF 0
ENDMDL
