MODEL 1
REMARK minimizedAffinity 6.13102198
REMARK minimizedRMSD -1
REMARK  0 active torsions:
REMARK  status: ('A' for Active; 'I' for Inactive)
ROOT
ATOM      1  C   UNL d   1       0.069   1.234  -3.514  0.00  0.00     0.077 C 
ATOM      2  C1  UNL d   1       0.763  -0.014  -3.057  0.00  0.00    -0.074 A 
ATOM      3  C2  UNL d   1       0.266  -1.277  -3.393  0.00  0.00    -0.005 A 
ATOM      4  C3  UNL d   1       0.927  -2.429  -2.969  0.00  0.00     0.006 A 
ATOM      5  C4  UNL d   1       2.092  -2.331  -2.206  0.00  0.00    -0.005 A 
ATOM      6  C5  UNL d   1       2.605  -1.076  -1.861  0.00  0.00    -0.074 A 
ATOM      7  C6  UNL d   1       3.860  -0.952  -1.050  0.00  0.00     0.077 C 
ATOM      8  C7  UNL d   1       1.938   0.077  -2.297  0.00  0.00    -0.001 A 
ENDROOT
TORSDOF 0
ENDMDL
