MODEL 1
REMARK minimizedAffinity -0.469792575
REMARK minimizedRMSD -1
REMARK  0 active torsions:
REMARK  status: ('A' for Active; 'I' for Inactive)
ROOT
ATOM      1  C   UNL d   1       0.569   4.429   0.389  0.00  0.00     0.077 C 
ATOM      2  C1  UNL d   1       0.637   3.070  -0.243  0.00  0.00    -0.074 A 
ATOM      3  C2  UNL d   1      -0.518   2.302  -0.422  0.00  0.00    -0.005 A 
ATOM      4  C3  UNL d   1      -0.440   1.044  -1.020  0.00  0.00     0.006 A 
ATOM      5  C4  UNL d   1       0.792   0.542  -1.442  0.00  0.00    -0.005 A 
ATOM      6  C5  UNL d   1       1.957   1.296  -1.271  0.00  0.00    -0.074 A 
ATOM      7  C6  UNL d   1       3.287   0.776  -1.729  0.00  0.00     0.077 C 
ATOM      8  C7  UNL d   1       1.870   2.563  -0.677  0.00  0.00    -0.001 A 
ENDROOT
TORSDOF 0
ENDMDL
