MODEL 1
REMARK minimizedAffinity 18.3850555
REMARK minimizedRMSD -1
REMARK  0 active torsions:
REMARK  status: ('A' for Active; 'I' for Inactive)
ROOT
ATOM      1  C   UNL d   1      -2.824   2.030   2.986  0.00  0.00     0.077 C 
ATOM      2  C1  UNL d   1      -3.419   3.168   3.761  0.00  0.00    -0.074 A 
ATOM      3  C2  UNL d   1      -4.802   3.378   3.781  0.00  0.00    -0.005 A 
ATOM      4  C3  UNL d   1      -5.342   4.435   4.514  0.00  0.00     0.006 A 
ATOM      5  C4  UNL d   1      -4.506   5.291   5.233  0.00  0.00    -0.005 A 
ATOM      6  C5  UNL d   1      -3.121   5.095   5.225  0.00  0.00    -0.074 A 
ATOM      7  C6  UNL d   1      -2.210   6.000   6.000  0.00  0.00     0.077 C 
ATOM      8  C7  UNL d   1      -2.587   4.027   4.492  0.00  0.00    -0.001 A 
ENDROOT
TORSDOF 0
ENDMDL
