MODEL 1
REMARK minimizedAffinity 15.2229929
REMARK minimizedRMSD -1
REMARK  0 active torsions:
REMARK  status: ('A' for Active; 'I' for Inactive)
ROOT
ATOM      1  C   UNL d   1       2.614   4.229  -2.484  0.00  0.00     0.077 C 
ATOM      2  C1  UNL d   1       2.926   4.788  -1.128  0.00  0.00    -0.074 A 
ATOM      3  C2  UNL d   1       1.962   5.494  -0.402  0.00  0.00    -0.005 A 
ATOM      4  C3  UNL d   1       2.264   6.000   0.862  0.00  0.00     0.006 A 
ATOM      5  C4  UNL d   1       3.532   5.806   1.412  0.00  0.00    -0.005 A 
ATOM      6  C5  UNL d   1       4.509   5.103   0.701  0.00  0.00    -0.074 A 
ATOM      7  C6  UNL d   1       5.874   4.877   1.281  0.00  0.00     0.077 C 
ATOM      8  C7  UNL d   1       4.195   4.591  -0.566  0.00  0.00    -0.001 A 
ENDROOT
TORSDOF 0
ENDMDL
