MODEL 1
REMARK minimizedAffinity 5.69905901
REMARK minimizedRMSD -1
REMARK  0 active torsions:
REMARK  status: ('A' for Active; 'I' for Inactive)
ROOT
ATOM      1  C   UNL d   1       2.307  -0.153  -1.321  0.00  0.00     0.077 C 
ATOM      2  C1  UNL d   1       1.878   0.798  -2.400  0.00  0.00    -0.074 A 
ATOM      3  C2  UNL d   1       0.853   0.460  -3.289  0.00  0.00    -0.005 A 
ATOM      4  C3  UNL d   1       0.458   1.358  -4.281  0.00  0.00     0.006 A 
ATOM      5  C4  UNL d   1       1.084   2.600  -4.393  0.00  0.00    -0.005 A 
ATOM      6  C5  UNL d   1       2.110   2.956  -3.512  0.00  0.00    -0.074 A 
ATOM      7  C6  UNL d   1       2.785   4.291  -3.613  0.00  0.00     0.077 C 
ATOM      8  C7  UNL d   1       2.496   2.051  -2.514  0.00  0.00    -0.001 A 
ENDROOT
TORSDOF 0
ENDMDL
