MODEL 1
REMARK minimizedAffinity 15.177887
REMARK minimizedRMSD -1
REMARK  0 active torsions:
REMARK  status: ('A' for Active; 'I' for Inactive)
ROOT
ATOM      1  C   UNL d   1      -2.130   0.133  -0.174  0.00  0.00     0.077 C 
ATOM      2  C1  UNL d   1      -1.051   0.633  -1.088  0.00  0.00    -0.074 A 
ATOM      3  C2  UNL d   1      -1.287   1.699  -1.962  0.00  0.00    -0.005 A 
ATOM      4  C3  UNL d   1      -0.271   2.159  -2.800  0.00  0.00     0.006 A 
ATOM      5  C4  UNL d   1       0.989   1.560  -2.771  0.00  0.00    -0.005 A 
ATOM      6  C5  UNL d   1       1.244   0.494  -1.902  0.00  0.00    -0.074 A 
ATOM      7  C6  UNL d   1       2.595  -0.155  -1.851  0.00  0.00     0.077 C 
ATOM      8  C7  UNL d   1       0.220   0.042  -1.059  0.00  0.00    -0.001 A 
ENDROOT
TORSDOF 0
ENDMDL
