MODEL 1
REMARK minimizedAffinity 14.0380487
REMARK minimizedRMSD -1
REMARK  0 active torsions:
REMARK  status: ('A' for Active; 'I' for Inactive)
ROOT
ATOM      1  C   UNL d   1      -6.000  -0.752   3.097  0.00  0.00     0.077 C 
ATOM      2  C1  UNL d   1      -4.944   0.313   3.055  0.00  0.00    -0.074 A 
ATOM      3  C2  UNL d   1      -3.662   0.073   3.560  0.00  0.00    -0.005 A 
ATOM      4  C3  UNL d   1      -2.687   1.069   3.505  0.00  0.00     0.006 A 
ATOM      5  C4  UNL d   1      -2.984   2.313   2.947  0.00  0.00    -0.005 A 
ATOM      6  C5  UNL d   1      -4.260   2.570   2.436  0.00  0.00    -0.074 A 
ATOM      7  C6  UNL d   1      -4.593   3.898   1.823  0.00  0.00     0.077 C 
ATOM      8  C7  UNL d   1      -5.232   1.562   2.488  0.00  0.00    -0.001 A 
ENDROOT
TORSDOF 0
ENDMDL
