MODEL 1
REMARK minimizedAffinity 6.23484373
REMARK minimizedRMSD -1
REMARK  0 active torsions:
REMARK  status: ('A' for Active; 'I' for Inactive)
ROOT
ATOM      1  C   UNL d   1       1.756   3.982   0.135  0.00  0.00     0.077 C 
ATOM      2  C1  UNL d   1       1.648   3.242  -1.165  0.00  0.00    -0.074 A 
ATOM      3  C2  UNL d   1       2.205   3.762  -2.337  0.00  0.00    -0.005 A 
ATOM      4  C3  UNL d   1       2.105   3.058  -3.537  0.00  0.00     0.006 A 
ATOM      5  C4  UNL d   1       1.447   1.827  -3.576  0.00  0.00    -0.005 A 
ATOM      6  C5  UNL d   1       0.885   1.290  -2.414  0.00  0.00    -0.074 A 
ATOM      7  C6  UNL d   1       0.184  -0.035  -2.436  0.00  0.00     0.077 C 
ATOM      8  C7  UNL d   1       0.996   2.001  -1.211  0.00  0.00    -0.001 A 
ENDROOT
TORSDOF 0
ENDMDL
