MODEL 1
REMARK minimizedAffinity 0.599061131
REMARK minimizedRMSD -1
REMARK  0 active torsions:
REMARK  status: ('A' for Active; 'I' for Inactive)
ROOT
ATOM      1  C   UNL d   1       0.971   3.404   0.108  0.00  0.00     0.077 C 
ATOM      2  C1  UNL d   1       0.889   2.395  -0.999  0.00  0.00    -0.074 A 
ATOM      3  C2  UNL d   1       0.236   1.172  -0.810  0.00  0.00    -0.005 A 
ATOM      4  C3  UNL d   1       0.159   0.248  -1.852  0.00  0.00     0.006 A 
ATOM      5  C4  UNL d   1       0.733   0.536  -3.090  0.00  0.00    -0.005 A 
ATOM      6  C5  UNL d   1       1.390   1.753  -3.298  0.00  0.00    -0.074 A 
ATOM      7  C6  UNL d   1       2.004   2.082  -4.626  0.00  0.00     0.077 C 
ATOM      8  C7  UNL d   1       1.457   2.680  -2.249  0.00  0.00    -0.001 A 
ENDROOT
TORSDOF 0
ENDMDL
