MODEL 1
REMARK minimizedAffinity 1.90776408
REMARK minimizedRMSD -1
REMARK  0 active torsions:
REMARK  status: ('A' for Active; 'I' for Inactive)
ROOT
ATOM      1  C   UNL d   1       2.251  -1.351  -1.095  0.00  0.00     0.077 C 
ATOM      2  C1  UNL d   1       1.822  -0.144  -1.876  0.00  0.00    -0.074 A 
ATOM      3  C2  UNL d   1       0.598   0.482  -1.617  0.00  0.00    -0.005 A 
ATOM      4  C3  UNL d   1       0.217   1.609  -2.345  0.00  0.00     0.006 A 
ATOM      5  C4  UNL d   1       1.055   2.122  -3.336  0.00  0.00    -0.005 A 
ATOM      6  C5  UNL d   1       2.283   1.511  -3.608  0.00  0.00    -0.074 A 
ATOM      7  C6  UNL d   1       3.199   2.055  -4.663  0.00  0.00     0.077 C 
ATOM      8  C7  UNL d   1       2.662   0.382  -2.868  0.00  0.00    -0.001 A 
ENDROOT
TORSDOF 0
ENDMDL
