MODEL 1
REMARK minimizedAffinity 6.83876801
REMARK minimizedRMSD -1
REMARK  0 active torsions:
REMARK  status: ('A' for Active; 'I' for Inactive)
ROOT
ATOM      1  C   UNL d   1      -3.102   1.922   5.229  0.00  0.00     0.077 C 
ATOM      2  C1  UNL d   1      -3.422   0.699   4.422  0.00  0.00    -0.074 A 
ATOM      3  C2  UNL d   1      -2.687  -0.480   4.582  0.00  0.00    -0.005 A 
ATOM      4  C3  UNL d   1      -3.003  -1.613   3.832  0.00  0.00     0.006 A 
ATOM      5  C4  UNL d   1      -4.054  -1.578   2.915  0.00  0.00    -0.005 A 
ATOM      6  C5  UNL d   1      -4.800  -0.407   2.741  0.00  0.00    -0.074 A 
ATOM      7  C6  UNL d   1      -5.939  -0.356   1.767  0.00  0.00     0.077 C 
ATOM      8  C7  UNL d   1      -4.481   0.724   3.504  0.00  0.00    -0.001 A 
ENDROOT
TORSDOF 0
ENDMDL
