MODEL 1
REMARK minimizedAffinity 3.25859022
REMARK minimizedRMSD -1
REMARK  0 active torsions:
REMARK  status: ('A' for Active; 'I' for Inactive)
ROOT
ATOM      1  C   UNL d   1       1.122   5.249  -5.993  0.00  0.00     0.077 C 
ATOM      2  C1  UNL d   1       1.794   4.029  -5.436  0.00  0.00    -0.074 A 
ATOM      3  C2  UNL d   1       3.111   3.712  -5.783  0.00  0.00    -0.005 A 
ATOM      4  C3  UNL d   1       3.725   2.579  -5.249  0.00  0.00     0.006 A 
ATOM      5  C4  UNL d   1       3.030   1.754  -4.364  0.00  0.00    -0.005 A 
ATOM      6  C5  UNL d   1       1.713   2.056  -4.005  0.00  0.00    -0.074 A 
ATOM      7  C6  UNL d   1       0.955   1.185  -3.048  0.00  0.00     0.077 C 
ATOM      8  C7  UNL d   1       1.105   3.199  -4.540  0.00  0.00    -0.001 A 
ENDROOT
TORSDOF 0
ENDMDL
