MODEL 1
REMARK minimizedAffinity 2.91822004
REMARK minimizedRMSD -1
REMARK  0 active torsions:
REMARK  status: ('A' for Active; 'I' for Inactive)
ROOT
ATOM      1  C   UNL d   1       3.335   4.888  -2.304  0.00  0.00     0.077 C 
ATOM      2  C1  UNL d   1       3.083   3.571  -2.977  0.00  0.00    -0.074 A 
ATOM      3  C2  UNL d   1       3.904   3.127  -4.019  0.00  0.00    -0.005 A 
ATOM      4  C3  UNL d   1       3.662   1.896  -4.628  0.00  0.00     0.006 A 
ATOM      5  C4  UNL d   1       2.600   1.098  -4.203  0.00  0.00    -0.005 A 
ATOM      6  C5  UNL d   1       1.769   1.525  -3.163  0.00  0.00    -0.074 A 
ATOM      7  C6  UNL d   1       0.628   0.675  -2.687  0.00  0.00     0.077 C 
ATOM      8  C7  UNL d   1       2.022   2.760  -2.550  0.00  0.00    -0.001 A 
ENDROOT
TORSDOF 0
ENDMDL
