MODEL 1
REMARK minimizedAffinity 4.74112225
REMARK minimizedRMSD -1
REMARK  0 active torsions:
REMARK  status: ('A' for Active; 'I' for Inactive)
ROOT
ATOM      1  C   UNL d   1      -0.573   1.475  -1.200  0.00  0.00     0.077 C 
ATOM      2  C1  UNL d   1       0.717   1.129  -1.882  0.00  0.00    -0.074 A 
ATOM      3  C2  UNL d   1       1.505   0.064  -1.433  0.00  0.00    -0.005 A 
ATOM      4  C3  UNL d   1       2.698  -0.252  -2.084  0.00  0.00     0.006 A 
ATOM      5  C4  UNL d   1       3.114   0.493  -3.189  0.00  0.00    -0.005 A 
ATOM      6  C5  UNL d   1       2.338   1.560  -3.653  0.00  0.00    -0.074 A 
ATOM      7  C6  UNL d   1       2.766   2.365  -4.844  0.00  0.00     0.077 C 
ATOM      8  C7  UNL d   1       1.138   1.867  -2.997  0.00  0.00    -0.001 A 
ENDROOT
TORSDOF 0
ENDMDL
