MODEL 1
REMARK minimizedAffinity 12.1256485
REMARK minimizedRMSD -1
REMARK  0 active torsions:
REMARK  status: ('A' for Active; 'I' for Inactive)
ROOT
ATOM      1  C   UNL d   1      -1.136   1.786  -1.008  0.00  0.00     0.077 C 
ATOM      2  C1  UNL d   1      -0.213   1.082  -1.958  0.00  0.00    -0.074 A 
ATOM      3  C2  UNL d   1       0.782   1.784  -2.646  0.00  0.00    -0.005 A 
ATOM      4  C3  UNL d   1       1.639   1.114  -3.519  0.00  0.00     0.006 A 
ATOM      5  C4  UNL d   1       1.509  -0.262  -3.714  0.00  0.00    -0.005 A 
ATOM      6  C5  UNL d   1       0.519  -0.980  -3.035  0.00  0.00    -0.074 A 
ATOM      7  C6  UNL d   1       0.372  -2.460  -3.226  0.00  0.00     0.077 C 
ATOM      8  C7  UNL d   1      -0.333  -0.301  -2.154  0.00  0.00    -0.001 A 
ENDROOT
TORSDOF 0
ENDMDL
