MODEL 1
REMARK minimizedAffinity -2.55426311
REMARK minimizedRMSD -1
REMARK  0 active torsions:
REMARK  status: ('A' for Active; 'I' for Inactive)
ROOT
ATOM      1  C   UNL d   1      -3.048   5.991  -5.951  0.00  0.00     0.077 C 
ATOM      2  C1  UNL d   1      -1.995   4.922  -5.958  0.00  0.00    -0.074 A 
ATOM      3  C2  UNL d   1      -2.346   3.568  -5.970  0.00  0.00    -0.005 A 
ATOM      4  C3  UNL d   1      -1.356   2.585  -5.987  0.00  0.00     0.006 A 
ATOM      5  C4  UNL d   1      -0.008   2.946  -5.992  0.00  0.00    -0.005 A 
ATOM      6  C5  UNL d   1       0.361   4.295  -5.981  0.00  0.00    -0.074 A 
ATOM      7  C6  UNL d   1       1.806   4.699  -5.997  0.00  0.00     0.077 C 
ATOM      8  C7  UNL d   1      -0.639   5.276  -5.972  0.00  0.00    -0.001 A 
ENDROOT
TORSDOF 0
ENDMDL
