MODEL 1
REMARK minimizedAffinity -1.75713372
REMARK minimizedRMSD -1
REMARK  0 active torsions:
REMARK  status: ('A' for Active; 'I' for Inactive)
ROOT
ATOM      1  C   UNL d   1      -4.071   3.668  -5.982  0.00  0.00     0.077 C 
ATOM      2  C1  UNL d   1      -2.659   4.175  -5.957  0.00  0.00    -0.074 A 
ATOM      3  C2  UNL d   1      -2.388   5.545  -5.886  0.00  0.00    -0.005 A 
ATOM      4  C3  UNL d   1      -1.070   6.000  -5.854  0.00  0.00     0.006 A 
ATOM      5  C4  UNL d   1      -0.011   5.091  -5.894  0.00  0.00    -0.005 A 
ATOM      6  C5  UNL d   1      -0.263   3.718  -5.965  0.00  0.00    -0.074 A 
ATOM      7  C6  UNL d   1       0.862   2.727  -5.999  0.00  0.00     0.077 C 
ATOM      8  C7  UNL d   1      -1.591   3.268  -5.989  0.00  0.00    -0.001 A 
ENDROOT
TORSDOF 0
ENDMDL
