MODEL 1
REMARK minimizedAffinity -2.60479164
REMARK minimizedRMSD -1
REMARK  0 active torsions:
REMARK  status: ('A' for Active; 'I' for Inactive)
ROOT
ATOM      1  C   UNL d   1      -2.757   5.977  -6.000  0.00  0.00     0.077 C 
ATOM      2  C1  UNL d   1      -1.705   4.908  -5.992  0.00  0.00    -0.074 A 
ATOM      3  C2  UNL d   1      -2.055   3.554  -5.997  0.00  0.00    -0.005 A 
ATOM      4  C3  UNL d   1      -1.065   2.571  -5.999  0.00  0.00     0.006 A 
ATOM      5  C4  UNL d   1       0.283   2.932  -5.996  0.00  0.00    -0.005 A 
ATOM      6  C5  UNL d   1       0.652   4.280  -5.993  0.00  0.00    -0.074 A 
ATOM      7  C6  UNL d   1       2.096   4.685  -6.000  0.00  0.00     0.077 C 
ATOM      8  C7  UNL d   1      -0.348   5.262  -5.997  0.00  0.00    -0.001 A 
ENDROOT
TORSDOF 0
ENDMDL
