MODEL 1
REMARK minimizedAffinity -1.98527551
REMARK minimizedRMSD -1
REMARK  0 active torsions:
REMARK  status: ('A' for Active; 'I' for Inactive)
ROOT
ATOM      1  C   UNL d   1       2.297   4.811  -5.999  0.00  0.00     0.077 C 
ATOM      2  C1  UNL d   1       0.864   4.368  -6.000  0.00  0.00    -0.074 A 
ATOM      3  C2  UNL d   1       0.532   3.010  -5.983  0.00  0.00    -0.005 A 
ATOM      4  C3  UNL d   1      -0.805   2.613  -5.975  0.00  0.00     0.006 A 
ATOM      5  C4  UNL d   1      -1.822   3.569  -5.982  0.00  0.00    -0.005 A 
ATOM      6  C5  UNL d   1      -1.509   4.932  -5.998  0.00  0.00    -0.074 A 
ATOM      7  C6  UNL d   1      -2.589   5.972  -5.997  0.00  0.00     0.077 C 
ATOM      8  C7  UNL d   1      -0.163   5.323  -6.000  0.00  0.00    -0.001 A 
ENDROOT
TORSDOF 0
ENDMDL
