MODEL 1
REMARK minimizedAffinity -2.90528178
REMARK minimizedRMSD -1
REMARK  0 active torsions:
REMARK  status: ('A' for Active; 'I' for Inactive)
ROOT
ATOM      1  C   UNL d   1      -2.605   5.968  -5.974  0.00  0.00     0.077 C 
ATOM      2  C1  UNL d   1      -1.521   4.932  -5.976  0.00  0.00    -0.074 A 
ATOM      3  C2  UNL d   1      -1.830   3.568  -5.985  0.00  0.00    -0.005 A 
ATOM      4  C3  UNL d   1      -0.811   2.616  -5.996  0.00  0.00     0.006 A 
ATOM      5  C4  UNL d   1       0.526   3.017  -5.997  0.00  0.00    -0.005 A 
ATOM      6  C5  UNL d   1       0.854   4.376  -5.988  0.00  0.00    -0.074 A 
ATOM      7  C6  UNL d   1       2.286   4.824  -6.000  0.00  0.00     0.077 C 
ATOM      8  C7  UNL d   1      -0.175   5.327  -5.985  0.00  0.00    -0.001 A 
ENDROOT
TORSDOF 0
ENDMDL
