MODEL 1
REMARK minimizedAffinity -2.63087726
REMARK minimizedRMSD -1
REMARK  0 active torsions:
REMARK  status: ('A' for Active; 'I' for Inactive)
ROOT
ATOM      1  C   UNL d   1      -2.468   6.000  -5.996  0.00  0.00     0.077 C 
ATOM      2  C1  UNL d   1      -1.296   5.063  -5.984  0.00  0.00    -0.074 A 
ATOM      3  C2  UNL d   1      -1.484   3.677  -6.000  0.00  0.00    -0.005 A 
ATOM      4  C3  UNL d   1      -0.384   2.819  -5.998  0.00  0.00     0.006 A 
ATOM      5  C4  UNL d   1       0.911   3.337  -5.979  0.00  0.00    -0.005 A 
ATOM      6  C5  UNL d   1       1.118   4.720  -5.964  0.00  0.00    -0.074 A 
ATOM      7  C6  UNL d   1       2.504   5.293  -5.955  0.00  0.00     0.077 C 
ATOM      8  C7  UNL d   1       0.008   5.576  -5.974  0.00  0.00    -0.001 A 
ENDROOT
TORSDOF 0
ENDMDL
