MODEL 1
REMARK minimizedAffinity 1.87995112
REMARK minimizedRMSD -1
REMARK  0 active torsions:
REMARK  status: ('A' for Active; 'I' for Inactive)
ROOT
ATOM      1  C   UNL d   1      -1.657   2.211  -5.517  0.00  0.00     0.077 C 
ATOM      2  C1  UNL d   1      -0.952   3.523  -5.692  0.00  0.00    -0.074 A 
ATOM      3  C2  UNL d   1      -1.670   4.720  -5.767  0.00  0.00    -0.005 A 
ATOM      4  C3  UNL d   1      -0.999   5.934  -5.920  0.00  0.00     0.006 A 
ATOM      5  C4  UNL d   1       0.394   5.962  -5.999  0.00  0.00    -0.005 A 
ATOM      6  C5  UNL d   1       1.129   4.775  -5.925  0.00  0.00    -0.074 A 
ATOM      7  C6  UNL d   1       2.627   4.788  -5.998  0.00  0.00     0.077 C 
ATOM      8  C7  UNL d   1       0.448   3.560  -5.764  0.00  0.00    -0.001 A 
ENDROOT
TORSDOF 0
ENDMDL
