MODEL 1
REMARK minimizedAffinity -0.495537251
REMARK minimizedRMSD -1
REMARK  0 active torsions:
REMARK  status: ('A' for Active; 'I' for Inactive)
ROOT
ATOM      1  C   UNL d   1      -3.446   6.000  -5.878  0.00  0.00     0.077 C 
ATOM      2  C1  UNL d   1      -2.353   4.973  -5.914  0.00  0.00    -0.074 A 
ATOM      3  C2  UNL d   1      -2.651   3.607  -5.943  0.00  0.00    -0.005 A 
ATOM      4  C3  UNL d   1      -1.624   2.664  -5.985  0.00  0.00     0.006 A 
ATOM      5  C4  UNL d   1      -0.291   3.077  -6.000  0.00  0.00    -0.005 A 
ATOM      6  C5  UNL d   1       0.026   4.439  -5.972  0.00  0.00    -0.074 A 
ATOM      7  C6  UNL d   1       1.453   4.900  -5.997  0.00  0.00     0.077 C 
ATOM      8  C7  UNL d   1      -1.012   5.380  -5.937  0.00  0.00    -0.001 A 
ENDROOT
TORSDOF 0
ENDMDL
