MODEL 1
REMARK minimizedAffinity -1.30820382
REMARK minimizedRMSD -1
REMARK  0 active torsions:
REMARK  status: ('A' for Active; 'I' for Inactive)
ROOT
ATOM      1  C   UNL d   1      -0.858   2.668  -5.999  0.00  0.00     0.077 C 
ATOM      2  C1  UNL d   1      -1.947   3.694  -5.881  0.00  0.00    -0.074 A 
ATOM      3  C2  UNL d   1      -1.664   5.058  -6.000  0.00  0.00    -0.005 A 
ATOM      4  C3  UNL d   1      -2.688   6.000  -5.897  0.00  0.00     0.006 A 
ATOM      5  C4  UNL d   1      -4.003   5.587  -5.675  0.00  0.00    -0.005 A 
ATOM      6  C5  UNL d   1      -4.304   4.227  -5.554  0.00  0.00    -0.074 A 
ATOM      7  C6  UNL d   1      -5.713   3.766  -5.325  0.00  0.00     0.077 C 
ATOM      8  C7  UNL d   1      -3.271   3.286  -5.665  0.00  0.00    -0.001 A 
ENDROOT
TORSDOF 0
ENDMDL
