MODEL 1
REMARK minimizedAffinity -2.35520554
REMARK minimizedRMSD -1
REMARK  0 active torsions:
REMARK  status: ('A' for Active; 'I' for Inactive)
ROOT
ATOM      1  C   UNL d   1      -2.783   5.983  -5.997  0.00  0.00     0.077 C 
ATOM      2  C1  UNL d   1      -1.746   4.899  -5.988  0.00  0.00    -0.074 A 
ATOM      3  C2  UNL d   1      -2.116   3.551  -5.990  0.00  0.00    -0.005 A 
ATOM      4  C3  UNL d   1      -1.141   2.554  -5.991  0.00  0.00     0.006 A 
ATOM      5  C4  UNL d   1       0.212   2.895  -5.991  0.00  0.00    -0.005 A 
ATOM      6  C5  UNL d   1       0.601   4.238  -5.990  0.00  0.00    -0.074 A 
ATOM      7  C6  UNL d   1       2.051   4.621  -6.000  0.00  0.00     0.077 C 
ATOM      8  C7  UNL d   1      -0.385   5.234  -5.996  0.00  0.00    -0.001 A 
ENDROOT
TORSDOF 0
ENDMDL
