MODEL 1
REMARK minimizedAffinity -1.78049922
REMARK minimizedRMSD -1
REMARK  0 active torsions:
REMARK  status: ('A' for Active; 'I' for Inactive)
ROOT
ATOM      1  C   UNL d   1      -1.364   5.775  -6.000  0.00  0.00     0.077 C 
ATOM      2  C1  UNL d   1      -0.351   4.669  -5.988  0.00  0.00    -0.074 A 
ATOM      3  C2  UNL d   1      -0.751   3.328  -5.987  0.00  0.00    -0.005 A 
ATOM      4  C3  UNL d   1       0.202   2.310  -5.986  0.00  0.00     0.006 A 
ATOM      5  C4  UNL d   1       1.562   2.621  -5.986  0.00  0.00    -0.005 A 
ATOM      6  C5  UNL d   1       1.981   3.955  -5.988  0.00  0.00    -0.074 A 
ATOM      7  C6  UNL d   1       3.439   4.307  -5.998  0.00  0.00     0.077 C 
ATOM      8  C7  UNL d   1       1.017   4.973  -5.996  0.00  0.00    -0.001 A 
ENDROOT
TORSDOF 0
ENDMDL
