MODEL 1
REMARK minimizedAffinity -3.49388981
REMARK minimizedRMSD -1
REMARK  0 active torsions:
REMARK  status: ('A' for Active; 'I' for Inactive)
ROOT
ATOM      1  C   UNL d   1       1.945   5.266  -5.997  0.00  0.00     0.077 C 
ATOM      2  C1  UNL d   1       0.660   4.492  -6.000  0.00  0.00    -0.074 A 
ATOM      3  C2  UNL d   1       0.664   3.093  -5.985  0.00  0.00    -0.005 A 
ATOM      4  C3  UNL d   1      -0.539   2.387  -5.977  0.00  0.00     0.006 A 
ATOM      5  C4  UNL d   1      -1.755   3.070  -5.985  0.00  0.00    -0.005 A 
ATOM      6  C5  UNL d   1      -1.779   4.468  -5.999  0.00  0.00    -0.074 A 
ATOM      7  C6  UNL d   1      -3.077   5.218  -5.998  0.00  0.00     0.077 C 
ATOM      8  C7  UNL d   1      -0.566   5.171  -5.999  0.00  0.00    -0.001 A 
ENDROOT
TORSDOF 0
ENDMDL
