MODEL 1
REMARK minimizedAffinity 4.403543
REMARK minimizedRMSD -1
REMARK  0 active torsions:
REMARK  status: ('A' for Active; 'I' for Inactive)
ROOT
ATOM      1  C   UNL d   1      -1.507   4.787  -6.000  0.00  0.00     0.077 C 
ATOM      2  C1  UNL d   1      -0.201   4.049  -5.991  0.00  0.00    -0.074 A 
ATOM      3  C2  UNL d   1      -0.166   2.651  -5.995  0.00  0.00    -0.005 A 
ATOM      4  C3  UNL d   1       1.056   1.979  -5.997  0.00  0.00     0.006 A 
ATOM      5  C4  UNL d   1       2.253   2.696  -5.995  0.00  0.00    -0.005 A 
ATOM      6  C5  UNL d   1       2.237   4.094  -5.992  0.00  0.00    -0.074 A 
ATOM      7  C6  UNL d   1       3.515   4.881  -5.999  0.00  0.00     0.077 C 
ATOM      8  C7  UNL d   1       1.005   4.763  -5.997  0.00  0.00    -0.001 A 
ENDROOT
TORSDOF 0
ENDMDL
