MODEL 1
REMARK minimizedAffinity 0.910824239
REMARK minimizedRMSD -1
REMARK  0 active torsions:
REMARK  status: ('A' for Active; 'I' for Inactive)
ROOT
ATOM      1  C4' PXY d   1      -1.758   0.379   1.775  0.00  0.00     0.077 C 
ATOM      2  C1' PXY d   1       2.443  -3.452   0.729  0.00  0.00     0.077 C 
ATOM      3  C1  PXY d   1       1.337  -2.455   1.013  0.00  0.00    -0.082 A 
ATOM      4  C2  PXY d   1       0.980  -1.590   0.077  0.00  0.00     0.003 A 
ATOM      5  C3  PXY d   1       0.004  -0.661   0.327  0.00  0.00     0.003 A 
ATOM      6  C4  PXY d   1      -0.652  -0.652   1.530  0.00  0.00    -0.082 A 
ATOM      7  C5  PXY d   1      -0.301  -1.538   2.485  0.00  0.00     0.003 A 
ATOM      8  C6  PXY d   1       0.721  -2.446   2.226  0.00  0.00     0.003 A 
ENDROOT
TORSDOF 0
ENDMDL
