MODEL 1
REMARK minimizedAffinity 3.43773437
REMARK minimizedRMSD -1
REMARK  0 active torsions:
REMARK  status: ('A' for Active; 'I' for Inactive)
ROOT
ATOM      1  C4' PXY d   1       0.195   2.651  -1.336  0.00  0.00     0.077 C 
ATOM      2  C1' PXY d   1       5.234   0.338   0.301  0.00  0.00     0.077 C 
ATOM      3  C1  PXY d   1       3.908   0.933  -0.132  0.00  0.00    -0.082 A 
ATOM      4  C2  PXY d   1       3.825   2.229  -0.388  0.00  0.00     0.003 A 
ATOM      5  C3  PXY d   1       2.627   2.789  -0.750  0.00  0.00     0.003 A 
ATOM      6  C4  PXY d   1       1.515   2.006  -0.904  0.00  0.00    -0.082 A 
ATOM      7  C5  PXY d   1       1.594   0.681  -0.656  0.00  0.00     0.003 A 
ATOM      8  C6  PXY d   1       2.810   0.139  -0.249  0.00  0.00     0.003 A 
ENDROOT
TORSDOF 0
ENDMDL
