MODEL 1
REMARK minimizedAffinity 6.48051167
REMARK minimizedRMSD -1
REMARK  0 active torsions:
REMARK  status: ('A' for Active; 'I' for Inactive)
ROOT
ATOM      1  C4' PXY d   1       1.082  -0.260   0.743  0.00  0.00     0.077 C 
ATOM      2  C1' PXY d   1      -2.065  -3.316   4.508  0.00  0.00     0.077 C 
ATOM      3  C1  PXY d   1      -1.251  -2.507   3.518  0.00  0.00    -0.082 A 
ATOM      4  C2  PXY d   1      -0.164  -3.036   2.978  0.00  0.00     0.003 A 
ATOM      5  C3  PXY d   1       0.602  -2.307   2.105  0.00  0.00     0.003 A 
ATOM      6  C4  PXY d   1       0.223  -1.043   1.740  0.00  0.00    -0.082 A 
ATOM      7  C5  PXY d   1      -0.889  -0.500   2.279  0.00  0.00     0.003 A 
ATOM      8  C6  PXY d   1      -1.631  -1.242   3.194  0.00  0.00     0.003 A 
ENDROOT
TORSDOF 0
ENDMDL
