MODEL 1
REMARK minimizedAffinity 2.87886977
REMARK minimizedRMSD -1
REMARK  0 active torsions:
REMARK  status: ('A' for Active; 'I' for Inactive)
ROOT
ATOM      1  C4' PXY d   1       3.065  -4.103   0.455  0.00  0.00     0.077 C 
ATOM      2  C1' PXY d   1      -1.150  -0.843   2.696  0.00  0.00     0.077 C 
ATOM      3  C1  PXY d   1      -0.043  -1.704   2.120  0.00  0.00    -0.082 A 
ATOM      4  C2  PXY d   1       0.641  -1.275   1.072  0.00  0.00     0.003 A 
ATOM      5  C3  PXY d   1       1.623  -2.055   0.518  0.00  0.00     0.003 A 
ATOM      6  C4  PXY d   1       1.945  -3.263   1.076  0.00  0.00    -0.082 A 
ATOM      7  C5  PXY d   1       1.259  -3.703   2.152  0.00  0.00     0.003 A 
ATOM      8  C6  PXY d   1       0.237  -2.914   2.674  0.00  0.00     0.003 A 
ENDROOT
TORSDOF 0
ENDMDL
