MODEL 1
REMARK minimizedAffinity 0.479375124
REMARK minimizedRMSD -1
REMARK  0 active torsions:
REMARK  status: ('A' for Active; 'I' for Inactive)
ROOT
ATOM      1  C4' PXY d   1      -1.469  -3.168   3.592  0.00  0.00     0.077 C 
ATOM      2  C1' PXY d   1       2.172   0.059   0.470  0.00  0.00     0.077 C 
ATOM      3  C1  PXY d   1       1.223  -0.798   1.285  0.00  0.00    -0.082 A 
ATOM      4  C2  PXY d   1       0.032  -0.325   1.612  0.00  0.00     0.003 A 
ATOM      5  C3  PXY d   1      -0.826  -1.074   2.376  0.00  0.00     0.003 A 
ATOM      6  C4  PXY d   1      -0.482  -2.341   2.763  0.00  0.00    -0.082 A 
ATOM      7  C5  PXY d   1       0.728  -2.835   2.424  0.00  0.00     0.003 A 
ATOM      8  C6  PXY d   1       1.600  -2.043   1.683  0.00  0.00     0.003 A 
ENDROOT
TORSDOF 0
ENDMDL
