MODEL 1
REMARK minimizedAffinity 9.12775993
REMARK minimizedRMSD -1
REMARK  0 active torsions:
REMARK  status: ('A' for Active; 'I' for Inactive)
ROOT
ATOM      1  C4' PXY d   1       4.233   1.405  -0.019  0.00  0.00     0.077 C 
ATOM      2  C1' PXY d   1       5.234  -4.287   0.102  0.00  0.00     0.077 C 
ATOM      3  C1  PXY d   1       4.982  -2.793   0.078  0.00  0.00    -0.082 A 
ATOM      4  C2  PXY d   1       3.772  -2.338  -0.204  0.00  0.00     0.003 A 
ATOM      5  C3  PXY d   1       3.533  -0.989  -0.262  0.00  0.00     0.003 A 
ATOM      6  C4  PXY d   1       4.531  -0.096   0.026  0.00  0.00    -0.082 A 
ATOM      7  C5  PXY d   1       5.766  -0.553   0.326  0.00  0.00     0.003 A 
ATOM      8  C6  PXY d   1       5.997  -1.925   0.338  0.00  0.00     0.003 A 
ENDROOT
TORSDOF 0
ENDMDL
