MODEL 1
REMARK minimizedAffinity 4.27166033
REMARK minimizedRMSD -1
REMARK  0 active torsions:
REMARK  status: ('A' for Active; 'I' for Inactive)
ROOT
ATOM      1  C4' PXY d   1      -2.631   0.999   3.516  0.00  0.00     0.077 C 
ATOM      2  C1' PXY d   1       1.893  -2.148   1.772  0.00  0.00     0.077 C 
ATOM      3  C1  PXY d   1       0.699  -1.330   2.222  0.00  0.00    -0.082 A 
ATOM      4  C2  PXY d   1       0.876  -0.086   2.634  0.00  0.00     0.003 A 
ATOM      5  C3  PXY d   1      -0.188   0.658   3.075  0.00  0.00     0.003 A 
ATOM      6  C4  PXY d   1      -1.455   0.139   3.043  0.00  0.00    -0.082 A 
ATOM      7  C5  PXY d   1      -1.646  -1.126   2.615  0.00  0.00     0.003 A 
ATOM      8  C6  PXY d   1      -0.547  -1.878   2.210  0.00  0.00     0.003 A 
ENDROOT
TORSDOF 0
ENDMDL
