MODEL 1
REMARK minimizedAffinity -1.40018678
REMARK minimizedRMSD -1
REMARK  0 active torsions:
REMARK  status: ('A' for Active; 'I' for Inactive)
ROOT
ATOM      1  C4' PXY d   1      -1.885   0.482  -2.625  0.00  0.00     0.077 C 
ATOM      2  C1' PXY d   1      -0.476  -1.051   2.768  0.00  0.00     0.077 C 
ATOM      3  C1  PXY d   1      -0.833  -0.646   1.352  0.00  0.00    -0.082 A 
ATOM      4  C2  PXY d   1      -2.080  -0.310   1.062  0.00  0.00     0.003 A 
ATOM      5  C3  PXY d   1      -2.427   0.028  -0.221  0.00  0.00     0.003 A 
ATOM      6  C4  PXY d   1      -1.477   0.075  -1.206  0.00  0.00    -0.082 A 
ATOM      7  C5  PXY d   1      -0.201  -0.255  -0.916  0.00  0.00     0.003 A 
ATOM      8  C6  PXY d   1       0.123  -0.635   0.383  0.00  0.00     0.003 A 
ENDROOT
TORSDOF 0
ENDMDL
