MODEL 1
REMARK minimizedAffinity -4.35121775
REMARK minimizedRMSD -1
REMARK  0 active torsions:
REMARK  status: ('A' for Active; 'I' for Inactive)
ROOT
ATOM      1  C   UNL d   1       3.292  -1.153   0.772  0.00  0.00     0.077 C 
ATOM      2  C1  UNL d   1       2.092  -0.290   0.517  0.00  0.00    -0.074 A 
ATOM      3  C2  UNL d   1       2.102   1.069   0.845  0.00  0.00    -0.005 A 
ATOM      4  C3  UNL d   1       0.982   1.862   0.594  0.00  0.00     0.006 A 
ATOM      5  C4  UNL d   1      -0.158   1.303   0.013  0.00  0.00    -0.005 A 
ATOM      6  C5  UNL d   1      -0.186  -0.054  -0.322  0.00  0.00    -0.074 A 
ATOM      7  C6  UNL d   1      -1.399  -0.668  -0.956  0.00  0.00     0.077 C 
ATOM      8  C7  UNL d   1       0.946  -0.842  -0.073  0.00  0.00    -0.001 A 
ENDROOT
TORSDOF 0
ENDMDL
