MODEL 1
REMARK minimizedAffinity -4.8242774
REMARK minimizedRMSD -1
REMARK  0 active torsions:
REMARK  status: ('A' for Active; 'I' for Inactive)
ROOT
ATOM      1  C   UNL d   1      -1.458   0.697  -0.770  0.00  0.00     0.077 C 
ATOM      2  C1  UNL d   1      -0.064   0.570  -0.232  0.00  0.00    -0.074 A 
ATOM      3  C2  UNL d   1       0.909   1.532  -0.524  0.00  0.00    -0.005 A 
ATOM      4  C3  UNL d   1       2.199   1.406  -0.009  0.00  0.00     0.006 A 
ATOM      5  C4  UNL d   1       2.529   0.318   0.800  0.00  0.00    -0.005 A 
ATOM      6  C5  UNL d   1       1.570  -0.653   1.103  0.00  0.00    -0.074 A 
ATOM      7  C6  UNL d   1       1.905  -1.823   1.980  0.00  0.00     0.077 C 
ATOM      8  C7  UNL d   1       0.274  -0.515   0.588  0.00  0.00    -0.001 A 
ENDROOT
TORSDOF 0
ENDMDL
