MODEL 1
REMARK minimizedAffinity -0.866562963
REMARK minimizedRMSD -1
REMARK  0 active torsions:
REMARK  status: ('A' for Active; 'I' for Inactive)
ROOT
ATOM      1  C   UNL d   1      -0.978   0.753  -0.667  0.00  0.00     0.077 C 
ATOM      2  C1  UNL d   1       0.412   0.816  -0.107  0.00  0.00    -0.074 A 
ATOM      3  C2  UNL d   1       1.382   1.644  -0.682  0.00  0.00    -0.005 A 
ATOM      4  C3  UNL d   1       2.667   1.700  -0.144  0.00  0.00     0.006 A 
ATOM      5  C4  UNL d   1       2.996   0.929   0.972  0.00  0.00    -0.005 A 
ATOM      6  C5  UNL d   1       2.040   0.096   1.560  0.00  0.00    -0.074 A 
ATOM      7  C6  UNL d   1       2.374  -0.731   2.766  0.00  0.00     0.077 C 
ATOM      8  C7  UNL d   1       0.748   0.051   1.018  0.00  0.00    -0.001 A 
ENDROOT
TORSDOF 0
ENDMDL
