MODEL 1
REMARK minimizedAffinity -5.31998825
REMARK minimizedRMSD -1
REMARK  0 active torsions:
REMARK  status: ('A' for Active; 'I' for Inactive)
ROOT
ATOM      1  C   UNL d   1       1.988  -2.401   1.776  0.00  0.00     0.077 C 
ATOM      2  C1  UNL d   1       1.543  -1.119   1.137  0.00  0.00    -0.074 A 
ATOM      3  C2  UNL d   1       2.303   0.048   1.262  0.00  0.00    -0.005 A 
ATOM      4  C3  UNL d   1       1.881   1.231   0.655  0.00  0.00     0.006 A 
ATOM      5  C4  UNL d   1       0.697   1.259  -0.082  0.00  0.00    -0.005 A 
ATOM      6  C5  UNL d   1      -0.076   0.101  -0.219  0.00  0.00    -0.074 A 
ATOM      7  C6  UNL d   1      -1.347   0.111  -1.016  0.00  0.00     0.077 C 
ATOM      8  C7  UNL d   1       0.358  -1.085   0.388  0.00  0.00    -0.001 A 
ENDROOT
TORSDOF 0
ENDMDL
