MODEL 1
REMARK minimizedAffinity -3.79260278
REMARK minimizedRMSD -1
REMARK  0 active torsions:
REMARK  status: ('A' for Active; 'I' for Inactive)
ROOT
ATOM      1  C   UNL d   1       1.764   2.069  -1.903  0.00  0.00     0.077 C 
ATOM      2  C1  UNL d   1       1.608   1.204  -0.688  0.00  0.00    -0.074 A 
ATOM      3  C2  UNL d   1       2.667   1.026   0.209  0.00  0.00    -0.005 A 
ATOM      4  C3  UNL d   1       2.503   0.226   1.339  0.00  0.00     0.006 A 
ATOM      5  C4  UNL d   1       1.282  -0.404   1.585  0.00  0.00    -0.005 A 
ATOM      6  C5  UNL d   1       0.213  -0.237   0.700  0.00  0.00    -0.074 A 
ATOM      7  C6  UNL d   1      -1.109  -0.898   0.953  0.00  0.00     0.077 C 
ATOM      8  C7  UNL d   1       0.382   0.574  -0.431  0.00  0.00    -0.001 A 
ENDROOT
TORSDOF 0
ENDMDL
