MODEL 1
REMARK minimizedAffinity -3.08511257
REMARK minimizedRMSD -1
REMARK  0 active torsions:
REMARK  status: ('A' for Active; 'I' for Inactive)
ROOT
ATOM      1  C   UNL d   1      -1.180  -1.886   1.284  0.00  0.00     0.077 C 
ATOM      2  C1  UNL d   1      -0.004  -0.970   1.122  0.00  0.00    -0.074 A 
ATOM      3  C2  UNL d   1      -0.094   0.186   0.339  0.00  0.00    -0.005 A 
ATOM      4  C3  UNL d   1       1.005   1.033   0.205  0.00  0.00     0.006 A 
ATOM      5  C4  UNL d   1       2.205   0.734   0.852  0.00  0.00    -0.005 A 
ATOM      6  C5  UNL d   1       2.315  -0.416   1.640  0.00  0.00    -0.074 A 
ATOM      7  C6  UNL d   1       3.594  -0.746   2.350  0.00  0.00     0.077 C 
ATOM      8  C7  UNL d   1       1.203  -1.259   1.775  0.00  0.00    -0.001 A 
ENDROOT
TORSDOF 0
ENDMDL
