MODEL 1
REMARK minimizedAffinity -4.33843708
REMARK minimizedRMSD -1
REMARK  0 active torsions:
REMARK  status: ('A' for Active; 'I' for Inactive)
ROOT
ATOM      1  C   UNL d   1      -1.236   0.000  -0.768  0.00  0.00     0.077 C 
ATOM      2  C1  UNL d   1       0.004  -0.007   0.075  0.00  0.00    -0.074 A 
ATOM      3  C2  UNL d   1       1.000   0.959  -0.103  0.00  0.00    -0.005 A 
ATOM      4  C3  UNL d   1       2.143   0.946   0.696  0.00  0.00     0.006 A 
ATOM      5  C4  UNL d   1       2.303  -0.033   1.678  0.00  0.00    -0.005 A 
ATOM      6  C5  UNL d   1       1.318  -1.006   1.870  0.00  0.00    -0.074 A 
ATOM      7  C6  UNL d   1       1.469  -2.059   2.928  0.00  0.00     0.077 C 
ATOM      8  C7  UNL d   1       0.168  -0.982   1.069  0.00  0.00    -0.001 A 
ENDROOT
TORSDOF 0
ENDMDL
