MODEL 1
REMARK minimizedAffinity -5.09633112
REMARK minimizedRMSD -1
REMARK  0 active torsions:
REMARK  status: ('A' for Active; 'I' for Inactive)
ROOT
ATOM      1  C   UNL d   1       3.200   0.011   0.673  0.00  0.00     0.077 C 
ATOM      2  C1  UNL d   1       1.802  -0.530   0.708  0.00  0.00    -0.074 A 
ATOM      3  C2  UNL d   1       1.505  -1.709   1.398  0.00  0.00    -0.005 A 
ATOM      4  C3  UNL d   1       0.198  -2.195   1.430  0.00  0.00     0.006 A 
ATOM      5  C4  UNL d   1      -0.824  -1.509   0.772  0.00  0.00    -0.005 A 
ATOM      6  C5  UNL d   1      -0.545  -0.327   0.077  0.00  0.00    -0.074 A 
ATOM      7  C6  UNL d   1      -1.633   0.429  -0.626  0.00  0.00     0.077 C 
ATOM      8  C7  UNL d   1       0.769   0.158   0.056  0.00  0.00    -0.001 A 
ENDROOT
TORSDOF 0
ENDMDL
