MODEL 1
REMARK minimizedAffinity -4.47711563
REMARK minimizedRMSD -1
REMARK  0 active torsions:
REMARK  status: ('A' for Active; 'I' for Inactive)
ROOT
ATOM      1  C   UNL d   1       3.027   0.929   1.752  0.00  0.00     0.077 C 
ATOM      2  C1  UNL d   1       2.180   0.272   0.703  0.00  0.00    -0.074 A 
ATOM      3  C2  UNL d   1       2.673  -0.796  -0.054  0.00  0.00    -0.005 A 
ATOM      4  C3  UNL d   1       1.870  -1.403  -1.020  0.00  0.00     0.006 A 
ATOM      5  C4  UNL d   1       0.568  -0.951  -1.237  0.00  0.00    -0.005 A 
ATOM      6  C5  UNL d   1       0.058   0.115  -0.489  0.00  0.00    -0.074 A 
ATOM      7  C6  UNL d   1      -1.343   0.607  -0.704  0.00  0.00     0.077 C 
ATOM      8  C7  UNL d   1       0.868   0.716   0.484  0.00  0.00    -0.001 A 
ENDROOT
TORSDOF 0
ENDMDL
