MODEL 1
REMARK minimizedAffinity -5.02928019
REMARK minimizedRMSD -1
REMARK  0 active torsions:
REMARK  status: ('A' for Active; 'I' for Inactive)
ROOT
ATOM      1  C   UNL d   1       0.722  -2.287   1.652  0.00  0.00     0.077 C 
ATOM      2  C1  UNL d   1       0.623  -0.973   0.935  0.00  0.00    -0.074 A 
ATOM      3  C2  UNL d   1       1.697  -0.077   0.926  0.00  0.00    -0.005 A 
ATOM      4  C3  UNL d   1       1.594   1.137   0.248  0.00  0.00     0.006 A 
ATOM      5  C4  UNL d   1       0.418   1.467  -0.428  0.00  0.00    -0.005 A 
ATOM      6  C5  UNL d   1      -0.665   0.583  -0.431  0.00  0.00    -0.074 A 
ATOM      7  C6  UNL d   1      -1.933   0.917  -1.160  0.00  0.00     0.077 C 
ATOM      8  C7  UNL d   1      -0.552  -0.638   0.248  0.00  0.00    -0.001 A 
ENDROOT
TORSDOF 0
ENDMDL
