MODEL 1
REMARK minimizedAffinity -3.50765228
REMARK minimizedRMSD -1
REMARK  0 active torsions:
REMARK  status: ('A' for Active; 'I' for Inactive)
ROOT
ATOM      1  C   UNL d   1      -1.677   0.044  -0.739  0.00  0.00     0.077 C 
ATOM      2  C1  UNL d   1      -0.276   0.440  -0.381  0.00  0.00    -0.074 A 
ATOM      3  C2  UNL d   1       0.306   1.593  -0.919  0.00  0.00    -0.005 A 
ATOM      4  C3  UNL d   1       1.607   1.953  -0.569  0.00  0.00     0.006 A 
ATOM      5  C4  UNL d   1       2.338   1.167   0.321  0.00  0.00    -0.005 A 
ATOM      6  C5  UNL d   1       1.773   0.012   0.871  0.00  0.00    -0.074 A 
ATOM      7  C6  UNL d   1       2.542  -0.840   1.837  0.00  0.00     0.077 C 
ATOM      8  C7  UNL d   1       0.463  -0.340   0.520  0.00  0.00    -0.001 A 
ENDROOT
TORSDOF 0
ENDMDL
