MODEL 1
REMARK minimizedAffinity 11.7844267
REMARK minimizedRMSD -1
REMARK  0 active torsions:
REMARK  status: ('A' for Active; 'I' for Inactive)
ROOT
ATOM      1  C   UNL d   1      -1.476   0.469   0.010  0.00  0.00    -0.002 A 
ATOM      2  C1  UNL d   1      -1.865  -0.469  -0.936  0.00  0.00     0.010 A 
ATOM      3  C2  UNL d   1      -2.643  -1.569  -0.567  0.00  0.00     0.041 A 
ATOM      4  C3  UNL d   1      -3.028  -1.710   0.781  0.00  0.00    -0.075 A 
ATOM      5  S   UNL d   1      -3.981  -2.975   1.462  0.00  0.00     0.015 SA
ATOM      6  C4  UNL d   1      -3.894  -2.299   3.025  0.00  0.00     0.022 A 
ATOM      7  C5  UNL d   1      -3.160  -1.137   3.044  0.00  0.00     0.026 A 
ATOM      8  C6  UNL d   1      -2.649  -0.778   1.751  0.00  0.00    -0.082 A 
ATOM      9  C7  UNL d   1      -1.860   0.325   1.346  0.00  0.00     0.045 A 
ENDROOT
TORSDOF 0
ENDMDL
