MODEL 1
REMARK minimizedAffinity -1.08279967
REMARK minimizedRMSD -1
REMARK  0 active torsions:
REMARK  status: ('A' for Active; 'I' for Inactive)
ROOT
ATOM      1  C   UNL d   1       2.236  -1.662   4.387  0.00  0.00    -0.002 A 
ATOM      2  C1  UNL d   1       1.167  -1.442   5.244  0.00  0.00     0.010 A 
ATOM      3  C2  UNL d   1      -0.040  -0.935   4.760  0.00  0.00     0.041 A 
ATOM      4  C3  UNL d   1      -0.157  -0.652   3.384  0.00  0.00    -0.075 A 
ATOM      5  S   UNL d   1      -1.540  -0.026   2.566  0.00  0.00     0.015 SA
ATOM      6  C4  UNL d   1      -0.745  -0.038   1.058  0.00  0.00     0.022 A 
ATOM      7  C5  UNL d   1       0.544  -0.504   1.159  0.00  0.00     0.026 A 
ATOM      8  C6  UNL d   1       0.904  -0.866   2.501  0.00  0.00    -0.082 A 
ATOM      9  C7  UNL d   1       2.115  -1.380   3.023  0.00  0.00     0.045 A 
ENDROOT
TORSDOF 0
ENDMDL
