MODEL 1
REMARK minimizedAffinity 12.2582111
REMARK minimizedRMSD -1
REMARK  0 active torsions:
REMARK  status: ('A' for Active; 'I' for Inactive)
ROOT
ATOM      1  C   UNL d   1       2.979   1.544  -0.452  0.00  0.00    -0.002 A 
ATOM      2  C1  UNL d   1       2.238   0.439  -0.058  0.00  0.00     0.010 A 
ATOM      3  C2  UNL d   1       2.449  -0.150   1.190  0.00  0.00     0.041 A 
ATOM      4  C3  UNL d   1       3.426   0.397   2.045  0.00  0.00    -0.075 A 
ATOM      5  S   UNL d   1       3.856  -0.156   3.620  0.00  0.00     0.015 SA
ATOM      6  C4  UNL d   1       5.033   1.062   3.809  0.00  0.00     0.022 A 
ATOM      7  C5  UNL d   1       5.109   1.880   2.706  0.00  0.00     0.026 A 
ATOM      8  C6  UNL d   1       4.184   1.511   1.672  0.00  0.00    -0.082 A 
ATOM      9  C7  UNL d   1       3.947   2.084   0.400  0.00  0.00     0.045 A 
ENDROOT
TORSDOF 0
ENDMDL
