MODEL 1
REMARK minimizedAffinity 6.08604336
REMARK minimizedRMSD -1
REMARK  0 active torsions:
REMARK  status: ('A' for Active; 'I' for Inactive)
ROOT
ATOM      1  C   UNL d   1      -2.401   0.117   1.489  0.00  0.00    -0.002 A 
ATOM      2  C1  UNL d   1      -1.528   0.204   0.414  0.00  0.00     0.010 A 
ATOM      3  C2  UNL d   1      -0.177  -0.114   0.569  0.00  0.00     0.041 A 
ATOM      4  C3  UNL d   1       0.285  -0.526   1.834  0.00  0.00    -0.075 A 
ATOM      5  S   UNL d   1       1.897  -0.965   2.259  0.00  0.00     0.015 SA
ATOM      6  C4  UNL d   1       1.464  -1.280   3.878  0.00  0.00     0.022 A 
ATOM      7  C5  UNL d   1       0.126  -1.059   4.106  0.00  0.00     0.026 A 
ATOM      8  C6  UNL d   1      -0.575  -0.621   2.932  0.00  0.00    -0.082 A 
ATOM      9  C7  UNL d   1      -1.939  -0.292   2.742  0.00  0.00     0.045 A 
ENDROOT
TORSDOF 0
ENDMDL
