MODEL 1
REMARK minimizedAffinity -2.0042994
REMARK minimizedRMSD -1
REMARK  0 active torsions:
REMARK  status: ('A' for Active; 'I' for Inactive)
ROOT
ATOM      1  C   UNL d   1       3.027  -1.127   4.493  0.00  0.00    -0.002 A 
ATOM      2  C1  UNL d   1       1.665  -1.278   4.711  0.00  0.00     0.010 A 
ATOM      3  C2  UNL d   1       0.740  -0.783   3.790  0.00  0.00     0.041 A 
ATOM      4  C3  UNL d   1       1.211  -0.128   2.635  0.00  0.00    -0.075 A 
ATOM      5  S   UNL d   1       0.263   0.558   1.369  0.00  0.00     0.015 SA
ATOM      6  C4  UNL d   1       1.644   1.067   0.510  0.00  0.00     0.022 A 
ATOM      7  C5  UNL d   1       2.808   0.731   1.158  0.00  0.00     0.026 A 
ATOM      8  C6  UNL d   1       2.578   0.035   2.393  0.00  0.00    -0.082 A 
ATOM      9  C7  UNL d   1       3.491  -0.477   3.346  0.00  0.00     0.045 A 
ENDROOT
TORSDOF 0
ENDMDL
