MODEL 1
REMARK minimizedAffinity -1.98576915
REMARK minimizedRMSD -1
REMARK  0 active torsions:
REMARK  status: ('A' for Active; 'I' for Inactive)
ROOT
ATOM      1  C   UNL d   1       0.354  -0.029   1.496  0.00  0.00     0.020 A 
ATOM      2  C1  UNL d   1       0.666  -1.388   1.518  0.00  0.00     0.020 A 
ATOM      3  C2  UNL d   1       1.664  -1.889   0.680  0.00  0.00     0.034 A 
ATOM      4  C3  UNL d   1       2.355  -1.031  -0.184  0.00  0.00     0.017 A 
ATOM      5  C4  UNL d   1       2.041   0.333  -0.205  0.00  0.00     0.017 A 
ATOM      6  C5  UNL d   1       1.041   0.830   0.636  0.00  0.00     0.034 A 
ATOM      7 Cl   UNL d   1       2.849   1.454  -1.244  0.00  0.00    -0.070 Cl
ATOM      8 Cl1  UNL d   1       3.577  -1.719  -1.192  0.00  0.00    -0.070 Cl
ENDROOT
TORSDOF 0
ENDMDL
