MODEL 1
REMARK minimizedAffinity -2.14606094
REMARK minimizedRMSD -1
REMARK  0 active torsions:
REMARK  status: ('A' for Active; 'I' for Inactive)
ROOT
ATOM      1  C   UNL d   1       1.075  -0.082   0.343  0.00  0.00     0.020 A 
ATOM      2  C1  UNL d   1       1.539  -1.345  -0.024  0.00  0.00     0.020 A 
ATOM      3  C2  UNL d   1       2.689  -1.466  -0.806  0.00  0.00     0.034 A 
ATOM      4  C3  UNL d   1       3.379  -0.322  -1.225  0.00  0.00     0.017 A 
ATOM      5  C4  UNL d   1       2.912   0.945  -0.857  0.00  0.00     0.017 A 
ATOM      6  C5  UNL d   1       1.760   1.060  -0.073  0.00  0.00     0.034 A 
ATOM      7 Cl   UNL d   1       3.709   2.402  -1.335  0.00  0.00    -0.070 Cl
ATOM      8 Cl1  UNL d   1       4.794  -0.546  -2.191  0.00  0.00    -0.070 Cl
ENDROOT
TORSDOF 0
ENDMDL
