MODEL 1
REMARK minimizedAffinity -1.85019875
REMARK minimizedRMSD -1
REMARK  0 active torsions:
REMARK  status: ('A' for Active; 'I' for Inactive)
ROOT
ATOM      1  C   UNL d   1       1.217  -0.273   0.353  0.00  0.00     0.020 A 
ATOM      2  C1  UNL d   1       1.780  -1.542   0.226  0.00  0.00     0.020 A 
ATOM      3  C2  UNL d   1       2.946  -1.717  -0.523  0.00  0.00     0.034 A 
ATOM      4  C3  UNL d   1       3.553  -0.621  -1.147  0.00  0.00     0.017 A 
ATOM      5  C4  UNL d   1       2.987   0.653  -1.018  0.00  0.00     0.017 A 
ATOM      6  C5  UNL d   1       1.820   0.822  -0.267  0.00  0.00     0.034 A 
ATOM      7 Cl   UNL d   1       3.679   2.053  -1.758  0.00  0.00    -0.070 Cl
ATOM      8 Cl1  UNL d   1       4.993  -0.910  -2.057  0.00  0.00    -0.070 Cl
ENDROOT
TORSDOF 0
ENDMDL
