MODEL 1
REMARK minimizedAffinity -1.91508186
REMARK minimizedRMSD -1
REMARK  0 active torsions:
REMARK  status: ('A' for Active; 'I' for Inactive)
ROOT
ATOM      1  C   UNL d   1       0.724  -0.896   0.520  0.00  0.00     0.020 A 
ATOM      2  C1  UNL d   1       0.461   0.473   0.473  0.00  0.00     0.020 A 
ATOM      3  C2  UNL d   1       1.363   1.336  -0.153  0.00  0.00     0.034 A 
ATOM      4  C3  UNL d   1       2.532   0.832  -0.734  0.00  0.00     0.017 A 
ATOM      5  C4  UNL d   1       2.796  -0.542  -0.687  0.00  0.00     0.017 A 
ATOM      6  C5  UNL d   1       1.889  -1.402  -0.059  0.00  0.00     0.034 A 
ATOM      7 Cl   UNL d   1       4.217  -1.238  -1.381  0.00  0.00    -0.070 Cl
ATOM      8 Cl1  UNL d   1       3.603   1.957  -1.492  0.00  0.00    -0.070 Cl
ENDROOT
TORSDOF 0
ENDMDL
