MODEL 1
REMARK minimizedAffinity -3.09245658
REMARK minimizedRMSD -1
REMARK  0 active torsions:
REMARK  status: ('A' for Active; 'I' for Inactive)
ROOT
ATOM      1  C   UNL d   1       3.822   0.495  -2.263  0.00  0.00     0.020 A 
ATOM      2  C1  UNL d   1       3.721  -0.838  -1.869  0.00  0.00     0.020 A 
ATOM      3  C2  UNL d   1       2.830  -1.202  -0.857  0.00  0.00     0.034 A 
ATOM      4  C3  UNL d   1       2.037  -0.231  -0.234  0.00  0.00     0.017 A 
ATOM      5  C4  UNL d   1       2.139   1.107  -0.630  0.00  0.00     0.017 A 
ATOM      6  C5  UNL d   1       3.032   1.466  -1.645  0.00  0.00     0.034 A 
ATOM      7 Cl   UNL d   1       1.193   2.361   0.091  0.00  0.00    -0.070 Cl
ATOM      8 Cl1  UNL d   1       0.958  -0.753   1.010  0.00  0.00    -0.070 Cl
ENDROOT
TORSDOF 0
ENDMDL
