MODEL 1
REMARK minimizedAffinity 3.09641981
REMARK minimizedRMSD -1
REMARK  0 active torsions:
REMARK  status: ('A' for Active; 'I' for Inactive)
ROOT
ATOM      1  C   UNL d   1       1.097  -1.805   0.170  0.00  0.00     0.020 A 
ATOM      2  C1  UNL d   1       0.673  -0.546   0.592  0.00  0.00     0.020 A 
ATOM      3  C2  UNL d   1       1.368   0.596   0.188  0.00  0.00     0.034 A 
ATOM      4  C3  UNL d   1       2.490   0.481  -0.641  0.00  0.00     0.017 A 
ATOM      5  C4  UNL d   1       2.915  -0.784  -1.064  0.00  0.00     0.017 A 
ATOM      6  C5  UNL d   1       2.215  -1.924  -0.656  0.00  0.00     0.034 A 
ATOM      7 Cl   UNL d   1       4.290  -1.005  -2.087  0.00  0.00    -0.070 Cl
ATOM      8 Cl1  UNL d   1       3.301   1.936  -1.103  0.00  0.00    -0.070 Cl
ENDROOT
TORSDOF 0
ENDMDL
