MODEL 1
REMARK minimizedAffinity -0.810376525
REMARK minimizedRMSD -1
REMARK  0 active torsions:
REMARK  status: ('A' for Active; 'I' for Inactive)
ROOT
ATOM      1  C   UNL d   1       0.286  -0.618   1.476  0.00  0.00     0.020 A 
ATOM      2  C1  UNL d   1       1.086  -1.738   1.251  0.00  0.00     0.020 A 
ATOM      3  C2  UNL d   1       2.136  -1.673   0.332  0.00  0.00     0.034 A 
ATOM      4  C3  UNL d   1       2.388  -0.486  -0.365  0.00  0.00     0.017 A 
ATOM      5  C4  UNL d   1       1.585   0.637  -0.139  0.00  0.00     0.017 A 
ATOM      6  C5  UNL d   1       0.535   0.567   0.782  0.00  0.00     0.034 A 
ATOM      7 Cl   UNL d   1       1.835   2.137  -0.962  0.00  0.00    -0.070 Cl
ATOM      8 Cl1  UNL d   1       3.703  -0.477  -1.486  0.00  0.00    -0.070 Cl
ENDROOT
TORSDOF 0
ENDMDL
