MODEL 1
REMARK minimizedAffinity -3.68338609
REMARK minimizedRMSD -1
REMARK  0 active torsions:
REMARK  status: ('A' for Active; 'I' for Inactive)
ROOT
ATOM      1  C   UNL d   1       0.547   0.080   1.003  0.00  0.00     0.020 A 
ATOM      2  C1  UNL d   1       0.925  -1.255   1.143  0.00  0.00     0.020 A 
ATOM      3  C2  UNL d   1       1.993  -1.760   0.398  0.00  0.00     0.034 A 
ATOM      4  C3  UNL d   1       2.688  -0.930  -0.488  0.00  0.00     0.017 A 
ATOM      5  C4  UNL d   1       2.308   0.410  -0.628  0.00  0.00     0.017 A 
ATOM      6  C5  UNL d   1       1.238   0.910   0.120  0.00  0.00     0.034 A 
ATOM      7 Cl   UNL d   1       3.118   1.496  -1.702  0.00  0.00    -0.070 Cl
ATOM      8 Cl1  UNL d   1       3.999  -1.621  -1.376  0.00  0.00    -0.070 Cl
ENDROOT
TORSDOF 0
ENDMDL
