MODEL 1
REMARK minimizedAffinity -0.333656341
REMARK minimizedRMSD -1
REMARK  0 active torsions:
REMARK  status: ('A' for Active; 'I' for Inactive)
ROOT
ATOM      1  C   UNL d   1       0.787  -1.431   0.767  0.00  0.00     0.020 A 
ATOM      2  C1  UNL d   1       1.374  -2.457   0.028  0.00  0.00     0.020 A 
ATOM      3  C2  UNL d   1       2.402  -2.169  -0.872  0.00  0.00     0.034 A 
ATOM      4  C3  UNL d   1       2.847  -0.852  -1.035  0.00  0.00     0.017 A 
ATOM      5  C4  UNL d   1       2.257   0.177  -0.292  0.00  0.00     0.017 A 
ATOM      6  C5  UNL d   1       1.228  -0.117   0.608  0.00  0.00     0.034 A 
ATOM      7 Cl   UNL d   1       2.752   1.827  -0.438  0.00  0.00    -0.070 Cl
ATOM      8 Cl1  UNL d   1       4.123  -0.569  -2.165  0.00  0.00    -0.070 Cl
ENDROOT
TORSDOF 0
ENDMDL
