MODEL 1
REMARK minimizedAffinity -3.0139606
REMARK minimizedRMSD -1
REMARK  0 active torsions:
REMARK  status: ('A' for Active; 'I' for Inactive)
ROOT
ATOM      1  C   UNL d   1       0.616  -1.455   0.562  0.00  0.00     0.020 A 
ATOM      2  C1  UNL d   1       1.553  -2.372   0.089  0.00  0.00     0.020 A 
ATOM      3  C2  UNL d   1       2.662  -1.928  -0.634  0.00  0.00     0.034 A 
ATOM      4  C3  UNL d   1       2.837  -0.562  -0.886  0.00  0.00     0.017 A 
ATOM      5  C4  UNL d   1       1.895   0.358  -0.410  0.00  0.00     0.017 A 
ATOM      6  C5  UNL d   1       0.787  -0.092   0.313  0.00  0.00     0.034 A 
ATOM      7 Cl   UNL d   1       2.043   2.059  -0.681  0.00  0.00    -0.070 Cl
ATOM      8 Cl1  UNL d   1       4.232  -0.083  -1.786  0.00  0.00    -0.070 Cl
ENDROOT
TORSDOF 0
ENDMDL
