MODEL 1
REMARK minimizedAffinity -2.79748988
REMARK minimizedRMSD -1
REMARK  0 active torsions:
REMARK  status: ('A' for Active; 'I' for Inactive)
ROOT
ATOM      1  C   UNL d   1       1.886  -2.426   0.197  0.00  0.00     0.020 A 
ATOM      2  C1  UNL d   1       0.987  -1.395   0.470  0.00  0.00     0.020 A 
ATOM      3  C2  UNL d   1       1.200  -0.123  -0.065  0.00  0.00     0.034 A 
ATOM      4  C3  UNL d   1       2.314   0.122  -0.876  0.00  0.00     0.017 A 
ATOM      5  C4  UNL d   1       3.215  -0.913  -1.150  0.00  0.00     0.017 A 
ATOM      6  C5  UNL d   1       2.998  -2.185  -0.611  0.00  0.00     0.034 A 
ATOM      7 Cl   UNL d   1       4.612  -0.687  -2.142  0.00  0.00    -0.070 Cl
ATOM      8 Cl1  UNL d   1       2.514   1.719  -1.505  0.00  0.00    -0.070 Cl
ENDROOT
TORSDOF 0
ENDMDL
