MODEL 1
REMARK minimizedAffinity -3.77934456
REMARK minimizedRMSD -1
REMARK  0 active torsions:
REMARK  status: ('A' for Active; 'I' for Inactive)
ROOT
ATOM      1  C   UNL d   1       1.371  -1.349   0.414  0.00  0.00     0.020 A 
ATOM      2  C1  UNL d   1       0.836  -0.064   0.499  0.00  0.00     0.020 A 
ATOM      3  C2  UNL d   1       1.444   0.992  -0.182  0.00  0.00     0.034 A 
ATOM      4  C3  UNL d   1       2.591   0.766  -0.952  0.00  0.00     0.017 A 
ATOM      5  C4  UNL d   1       3.128  -0.524  -1.037  0.00  0.00     0.017 A 
ATOM      6  C5  UNL d   1       2.514  -1.578  -0.353  0.00  0.00     0.034 A 
ATOM      7 Cl   UNL d   1       4.540  -0.881  -1.967  0.00  0.00    -0.070 Cl
ATOM      8 Cl1  UNL d   1       3.291   2.118  -1.768  0.00  0.00    -0.070 Cl
ENDROOT
TORSDOF 0
ENDMDL
