MODEL 1
REMARK minimizedAffinity -4.9778471
REMARK minimizedRMSD -1
REMARK  0 active torsions:
REMARK  status: ('A' for Active; 'I' for Inactive)
ROOT
ATOM      1  C   UNL d   1       1.269   1.562  -0.130  0.00  0.00     0.020 A 
ATOM      2  C1  UNL d   1       0.765   0.388   0.430  0.00  0.00     0.020 A 
ATOM      3  C2  UNL d   1       1.376  -0.837   0.151  0.00  0.00     0.034 A 
ATOM      4  C3  UNL d   1       2.494  -0.890  -0.690  0.00  0.00     0.017 A 
ATOM      5  C4  UNL d   1       2.999   0.289  -1.251  0.00  0.00     0.017 A 
ATOM      6  C5  UNL d   1       2.383   1.512  -0.968  0.00  0.00     0.034 A 
ATOM      7 Cl   UNL d   1       4.374   0.302  -2.297  0.00  0.00    -0.070 Cl
ATOM      8 Cl1  UNL d   1       3.199  -2.439  -0.991  0.00  0.00    -0.070 Cl
ENDROOT
TORSDOF 0
ENDMDL
