MODEL 1
REMARK minimizedAffinity -1.27588749
REMARK minimizedRMSD -1
REMARK  0 active torsions:
REMARK  status: ('A' for Active; 'I' for Inactive)
ROOT
ATOM      1  C   UNL d   1       4.027  -1.235  -2.037  0.00  0.00     0.020 A 
ATOM      2  C1  UNL d   1       4.332   0.108  -2.255  0.00  0.00     0.020 A 
ATOM      3  C2  UNL d   1       3.689   1.100  -1.511  0.00  0.00     0.034 A 
ATOM      4  C3  UNL d   1       2.738   0.750  -0.545  0.00  0.00     0.017 A 
ATOM      5  C4  UNL d   1       2.432  -0.598  -0.328  0.00  0.00     0.017 A 
ATOM      6  C5  UNL d   1       3.079  -1.587  -1.076  0.00  0.00     0.034 A 
ATOM      7 Cl   UNL d   1       1.269  -1.108   0.846  0.00  0.00    -0.070 Cl
ATOM      8 Cl1  UNL d   1       1.982   2.028   0.338  0.00  0.00    -0.070 Cl
ENDROOT
TORSDOF 0
ENDMDL
