MODEL 1
REMARK minimizedAffinity -1.7119149
REMARK minimizedRMSD -1
REMARK  0 active torsions:
REMARK  status: ('A' for Active; 'I' for Inactive)
ROOT
ATOM      1  C   UNL d   1       3.486  -0.000  -2.022  0.00  0.00     0.020 A 
ATOM      2  C1  UNL d   1       3.431  -1.368  -1.757  0.00  0.00     0.020 A 
ATOM      3  C2  UNL d   1       2.615  -1.849  -0.731  0.00  0.00     0.034 A 
ATOM      4  C3  UNL d   1       1.851  -0.961   0.035  0.00  0.00     0.017 A 
ATOM      5  C4  UNL d   1       1.906   0.412  -0.231  0.00  0.00     0.017 A 
ATOM      6  C5  UNL d   1       2.725   0.887  -1.260  0.00  0.00     0.034 A 
ATOM      7 Cl   UNL d   1       0.992   1.568   0.671  0.00  0.00    -0.070 Cl
ATOM      8 Cl1  UNL d   1       0.864  -1.625   1.288  0.00  0.00    -0.070 Cl
ENDROOT
TORSDOF 0
ENDMDL
