MODEL 1
REMARK minimizedAffinity -4.57128954
REMARK minimizedRMSD -1
REMARK  2 active torsions:
REMARK  status: ('A' for Active; 'I' for Inactive)
REMARK    1  A    between atoms: C2'_3  and  C1'_4 
REMARK    2  A    between atoms: C1'_4  and  C1_5 
ROOT
ATOM      1  C1  I4B d   1      -1.060   0.455   1.690  0.00  0.00    -0.075 A 
ATOM      2  C2  I4B d   1      -2.398   0.148   1.656  0.00  0.00     0.003 A 
ATOM      3  C3  I4B d   1      -3.009  -0.244   0.441  0.00  0.00     0.002 A 
ATOM      4  C4  I4B d   1      -2.263  -0.265  -0.720  0.00  0.00    -0.004 A 
ATOM      5  C5  I4B d   1      -0.902   0.026  -0.680  0.00  0.00     0.002 A 
ATOM      6  C6  I4B d   1      -0.294   0.376   0.534  0.00  0.00     0.003 A 
ENDROOT
BRANCH   1   7
ATOM      7  C1' I4B d   1      -0.454   0.896   2.984  0.00  0.00     0.060 C 
BRANCH   7   8
ATOM      8  C2' I4B d   1       0.472  -0.203   3.464  0.00  0.00    -0.013 C 
ATOM      9  C4' I4B d   1       1.157   0.184   4.748  0.00  0.00     0.013 C 
ATOM     10  C3' I4B d   1      -0.342  -1.450   3.639  0.00  0.00     0.013 C 
ENDBRANCH   7   8
ENDBRANCH   1   7
TORSDOF 2
ENDMDL
