MODEL 1
REMARK minimizedAffinity 6.95173883
REMARK minimizedRMSD -1
REMARK  2 active torsions:
REMARK  status: ('A' for Active; 'I' for Inactive)
REMARK    1  A    between atoms: C2'_3  and  C1'_4 
REMARK    2  A    between atoms: C1'_4  and  C1_5 
ROOT
ATOM      1  C1  I4B d   1       1.442   0.519   0.329  0.00  0.00    -0.075 A 
ATOM      2  C2  I4B d   1       0.479  -0.123  -0.411  0.00  0.00     0.003 A 
ATOM      3  C3  I4B d   1      -0.758  -0.474   0.182  0.00  0.00     0.002 A 
ATOM      4  C4  I4B d   1      -0.970  -0.211   1.520  0.00  0.00    -0.004 A 
ATOM      5  C5  I4B d   1      -0.002   0.460   2.262  0.00  0.00     0.002 A 
ATOM      6  C6  I4B d   1       1.207   0.838   1.660  0.00  0.00     0.003 A 
ENDROOT
BRANCH   1   7
ATOM      7  C1' I4B d   1       2.750   0.846  -0.320  0.00  0.00     0.060 C 
BRANCH   7   8
ATOM      8  C2' I4B d   1       3.372   1.999   0.441  0.00  0.00    -0.013 C 
ATOM      9  C4' I4B d   1       4.744   1.639   0.949  0.00  0.00     0.013 C 
ATOM     10  C3' I4B d   1       3.428   3.183  -0.477  0.00  0.00     0.013 C 
ENDBRANCH   7   8
ENDBRANCH   1   7
TORSDOF 2
ENDMDL
