MODEL 1
REMARK minimizedAffinity 13.494935
REMARK minimizedRMSD -1
REMARK  0 active torsions:
REMARK  status: ('A' for Active; 'I' for Inactive)
ROOT
ATOM      1  O1  BZF d   1       5.982  -1.996  -5.989  0.00  0.00    -0.204 OA
ATOM      2  C2  BZF d   1       5.992  -3.367  -5.818  0.00  0.00     0.174 A 
ATOM      3  C3  BZF d   1       4.748  -3.828  -5.576  0.00  0.00    -0.012 A 
ATOM      4  C3A BZF d   1       3.894  -2.685  -5.688  0.00  0.00    -0.107 A 
ATOM      5  C4  BZF d   1       2.546  -2.505  -5.570  0.00  0.00     0.055 A 
ATOM      6  C5  BZF d   1       2.037  -1.248  -5.664  0.00  0.00    -0.016 A 
ATOM      7  C6  BZF d   1       2.846  -0.150  -5.871  0.00  0.00     0.022 A 
ATOM      8  C7  BZF d   1       4.189  -0.280  -6.000  0.00  0.00     0.029 A 
ATOM      9  C7A BZF d   1       4.703  -1.552  -5.937  0.00  0.00     0.058 A 
ENDROOT
TORSDOF 0
ENDMDL
