MODEL 1
REMARK minimizedAffinity 23.0432167
REMARK minimizedRMSD -1
REMARK  0 active torsions:
REMARK  status: ('A' for Active; 'I' for Inactive)
ROOT
ATOM      1  O1  BZF d   1       3.041   1.780   3.754  0.00  0.00    -0.204 OA
ATOM      2  C2  BZF d   1       2.866   1.869   2.386  0.00  0.00     0.174 A 
ATOM      3  C3  BZF d   1       1.564   2.044   2.081  0.00  0.00    -0.012 A 
ATOM      4  C3A BZF d   1       0.894   2.157   3.341  0.00  0.00    -0.107 A 
ATOM      5  C4  BZF d   1      -0.409   2.358   3.697  0.00  0.00     0.055 A 
ATOM      6  C5  BZF d   1      -0.743   2.346   5.014  0.00  0.00    -0.016 A 
ATOM      7  C6  BZF d   1       0.198   2.132   6.000  0.00  0.00     0.022 A 
ATOM      8  C7  BZF d   1       1.503   1.933   5.696  0.00  0.00     0.029 A 
ATOM      9  C7A BZF d   1       1.850   1.977   4.368  0.00  0.00     0.058 A 
ENDROOT
TORSDOF 0
ENDMDL
