MODEL 1
REMARK minimizedAffinity 14.0581751
REMARK minimizedRMSD -1
REMARK  0 active torsions:
REMARK  status: ('A' for Active; 'I' for Inactive)
ROOT
ATOM      1  O1  BZF d   1       0.456  -1.653  -1.154  0.00  0.00    -0.204 OA
ATOM      2  C2  BZF d   1       1.824  -1.479  -1.073  0.00  0.00     0.174 A 
ATOM      3  C3  BZF d   1       2.472  -2.466  -1.725  0.00  0.00    -0.012 A 
ATOM      4  C3A BZF d   1       1.442  -3.260  -2.323  0.00  0.00    -0.107 A 
ATOM      5  C4  BZF d   1       1.455  -4.375  -3.112  0.00  0.00     0.055 A 
ATOM      6  C5  BZF d   1       0.275  -4.947  -3.467  0.00  0.00    -0.016 A 
ATOM      7  C6  BZF d   1      -0.935  -4.434  -3.048  0.00  0.00     0.022 A 
ATOM      8  C7  BZF d   1      -0.999  -3.326  -2.269  0.00  0.00     0.029 A 
ATOM      9  C7A BZF d   1       0.191  -2.727  -1.936  0.00  0.00     0.058 A 
ENDROOT
TORSDOF 0
ENDMDL
