MODEL 1
REMARK minimizedAffinity 11.3097095
REMARK minimizedRMSD -1
REMARK  0 active torsions:
REMARK  status: ('A' for Active; 'I' for Inactive)
ROOT
ATOM      1  O1  BZF d   1      -4.129  -1.335   3.756  0.00  0.00    -0.204 OA
ATOM      2  C2  BZF d   1      -4.242  -2.040   4.939  0.00  0.00     0.174 A 
ATOM      3  C3  BZF d   1      -4.074  -1.226   6.000  0.00  0.00    -0.012 A 
ATOM      4  C3A BZF d   1      -3.933   0.087   5.448  0.00  0.00    -0.107 A 
ATOM      5  C4  BZF d   1      -3.753   1.323   6.000  0.00  0.00     0.055 A 
ATOM      6  C5  BZF d   1      -3.579   2.393   5.181  0.00  0.00    -0.016 A 
ATOM      7  C6  BZF d   1      -3.573   2.263   3.807  0.00  0.00     0.022 A 
ATOM      8  C7  BZF d   1      -3.753   1.058   3.214  0.00  0.00     0.029 A 
ATOM      9  C7A BZF d   1      -3.962  -0.020   4.038  0.00  0.00     0.058 A 
ENDROOT
TORSDOF 0
ENDMDL
