MODEL 1
REMARK minimizedAffinity -4.51938963
REMARK minimizedRMSD -1
REMARK  0 active torsions:
REMARK  status: ('A' for Active; 'I' for Inactive)
ROOT
ATOM      1  O1  BZF d   1      -3.930  -3.000  -5.229  0.00  0.00    -0.204 OA
ATOM      2  C2  BZF d   1      -4.486  -4.003  -6.000  0.00  0.00     0.174 A 
ATOM      3  C3  BZF d   1      -3.698  -5.098  -6.000  0.00  0.00    -0.012 A 
ATOM      4  C3A BZF d   1      -2.627  -4.791  -5.103  0.00  0.00    -0.107 A 
ATOM      5  C4  BZF d   1      -1.534  -5.488  -4.673  0.00  0.00     0.055 A 
ATOM      6  C5  BZF d   1      -0.641  -4.875  -3.852  0.00  0.00    -0.016 A 
ATOM      7  C6  BZF d   1      -0.807  -3.567  -3.446  0.00  0.00     0.022 A 
ATOM      8  C7  BZF d   1      -1.877  -2.837  -3.843  0.00  0.00     0.029 A 
ATOM      9  C7A BZF d   1      -2.799  -3.464  -4.646  0.00  0.00     0.058 A 
ENDROOT
TORSDOF 0
ENDMDL
