MODEL 1
REMARK minimizedAffinity 12.5518618
REMARK minimizedRMSD -1
REMARK  0 active torsions:
REMARK  status: ('A' for Active; 'I' for Inactive)
ROOT
ATOM      1  O1  BZF d   1       3.148  -1.771  -0.131  0.00  0.00    -0.204 OA
ATOM      2  C2  BZF d   1       1.873  -1.871  -0.653  0.00  0.00     0.174 A 
ATOM      3  C3  BZF d   1       1.512  -0.721  -1.258  0.00  0.00    -0.012 A 
ATOM      4  C3A BZF d   1       2.666   0.122  -1.185  0.00  0.00    -0.107 A 
ATOM      5  C4  BZF d   1       2.935   1.386  -1.624  0.00  0.00     0.055 A 
ATOM      6  C5  BZF d   1       4.137   1.947  -1.327  0.00  0.00    -0.016 A 
ATOM      7  C6  BZF d   1       5.089   1.275  -0.590  0.00  0.00     0.022 A 
ATOM      8  C7  BZF d   1       4.870   0.017  -0.136  0.00  0.00     0.029 A 
ATOM      9  C7A BZF d   1       3.670  -0.565  -0.463  0.00  0.00     0.058 A 
ENDROOT
TORSDOF 0
ENDMDL
