MODEL 1
REMARK minimizedAffinity 3.0655756
REMARK minimizedRMSD -1
REMARK  0 active torsions:
REMARK  status: ('A' for Active; 'I' for Inactive)
ROOT
ATOM      1  O1  BZF d   1      -2.224  -2.781  -3.184  0.00  0.00    -0.204 OA
ATOM      2  C2  BZF d   1      -1.318  -3.596  -2.533  0.00  0.00     0.174 A 
ATOM      3  C3  BZF d   1      -1.324  -4.836  -3.062  0.00  0.00    -0.012 A 
ATOM      4  C3A BZF d   1      -2.229  -4.769  -4.168  0.00  0.00    -0.107 A 
ATOM      5  C4  BZF d   1      -2.646  -5.680  -5.097  0.00  0.00     0.055 A 
ATOM      6  C5  BZF d   1      -3.594  -5.315  -6.000  0.00  0.00    -0.016 A 
ATOM      7  C6  BZF d   1      -4.150  -4.053  -6.000  0.00  0.00     0.022 A 
ATOM      8  C7  BZF d   1      -3.764  -3.114  -5.102  0.00  0.00     0.029 A 
ATOM      9  C7A BZF d   1      -2.783  -3.469  -4.209  0.00  0.00     0.058 A 
ENDROOT
TORSDOF 0
ENDMDL
