MODEL 1
REMARK minimizedAffinity 7.37182236
REMARK minimizedRMSD -1
REMARK  0 active torsions:
REMARK  status: ('A' for Active; 'I' for Inactive)
ROOT
ATOM      1  O1  BZF d   1      -1.249  -5.990  -4.741  0.00  0.00    -0.204 OA
ATOM      2  C2  BZF d   1      -0.537  -5.585  -3.629  0.00  0.00     0.174 A 
ATOM      3  C3  BZF d   1      -0.984  -4.394  -3.182  0.00  0.00    -0.012 A 
ATOM      4  C3A BZF d   1      -2.103  -4.076  -4.014  0.00  0.00    -0.107 A 
ATOM      5  C4  BZF d   1      -2.976  -3.026  -4.053  0.00  0.00     0.055 A 
ATOM      6  C5  BZF d   1      -3.912  -2.982  -5.037  0.00  0.00    -0.016 A 
ATOM      7  C6  BZF d   1      -4.001  -3.965  -6.000  0.00  0.00     0.022 A 
ATOM      8  C7  BZF d   1      -3.161  -5.029  -6.000  0.00  0.00     0.029 A 
ATOM      9  C7A BZF d   1      -2.234  -5.093  -4.987  0.00  0.00     0.058 A 
ENDROOT
TORSDOF 0
ENDMDL
