MODEL 1
REMARK minimizedAffinity 5.51836205
REMARK minimizedRMSD -1
REMARK  0 active torsions:
REMARK  status: ('A' for Active; 'I' for Inactive)
ROOT
ATOM      1  O1  BZF d   1      -3.699  -2.268  -4.482  0.00  0.00    -0.204 OA
ATOM      2  C2  BZF d   1      -4.846  -2.242  -5.251  0.00  0.00     0.174 A 
ATOM      3  C3  BZF d   1      -4.946  -3.359  -6.000  0.00  0.00    -0.012 A 
ATOM      4  C3A BZF d   1      -3.835  -4.173  -5.611  0.00  0.00    -0.107 A 
ATOM      5  C4  BZF d   1      -3.401  -5.411  -5.990  0.00  0.00     0.055 A 
ATOM      6  C5  BZF d   1      -2.239  -5.890  -5.472  0.00  0.00    -0.016 A 
ATOM      7  C6  BZF d   1      -1.486  -5.158  -4.579  0.00  0.00     0.022 A 
ATOM      8  C7  BZF d   1      -1.879  -3.927  -4.169  0.00  0.00     0.029 A 
ATOM      9  C7A BZF d   1      -3.069  -3.454  -4.665  0.00  0.00     0.058 A 
ENDROOT
TORSDOF 0
ENDMDL
