MODEL 1
REMARK minimizedAffinity -0.324055403
REMARK minimizedRMSD -1
REMARK  0 active torsions:
REMARK  status: ('A' for Active; 'I' for Inactive)
ROOT
ATOM      1  O1  BZF d   1      -1.314  -5.453  -5.152  0.00  0.00    -0.204 OA
ATOM      2  C2  BZF d   1      -0.342  -4.775  -4.442  0.00  0.00     0.174 A 
ATOM      3  C3  BZF d   1      -0.727  -3.506  -4.195  0.00  0.00    -0.012 A 
ATOM      4  C3A BZF d   1      -2.059  -3.411  -4.708  0.00  0.00    -0.107 A 
ATOM      5  C4  BZF d   1      -2.980  -2.403  -4.747  0.00  0.00     0.055 A 
ATOM      6  C5  BZF d   1      -4.162  -2.613  -5.385  0.00  0.00    -0.016 A 
ATOM      7  C6  BZF d   1      -4.452  -3.813  -5.999  0.00  0.00     0.022 A 
ATOM      8  C7  BZF d   1      -3.572  -4.844  -5.983  0.00  0.00     0.029 A 
ATOM      9  C7A BZF d   1      -2.391  -4.647  -5.310  0.00  0.00     0.058 A 
ENDROOT
TORSDOF 0
ENDMDL
