MODEL 1
REMARK minimizedAffinity 3.08084297
REMARK minimizedRMSD -1
REMARK  0 active torsions:
REMARK  status: ('A' for Active; 'I' for Inactive)
ROOT
ATOM      1  O1  BZF d   1      -4.921  -4.088  -5.205  0.00  0.00    -0.204 OA
ATOM      2  C2  BZF d   1      -5.123  -5.200  -6.000  0.00  0.00     0.174 A 
ATOM      3  C3  BZF d   1      -4.031  -5.992  -6.000  0.00  0.00    -0.012 A 
ATOM      4  C3A BZF d   1      -3.123  -5.381  -5.078  0.00  0.00    -0.107 A 
ATOM      5  C4  BZF d   1      -1.873  -5.708  -4.637  0.00  0.00     0.055 A 
ATOM      6  C5  BZF d   1      -1.229  -4.861  -3.791  0.00  0.00    -0.016 A 
ATOM      7  C6  BZF d   1      -1.803  -3.679  -3.371  0.00  0.00     0.022 A 
ATOM      8  C7  BZF d   1      -3.043  -3.315  -3.778  0.00  0.00     0.029 A 
ATOM      9  C7A BZF d   1      -3.709  -4.184  -4.607  0.00  0.00     0.058 A 
ENDROOT
TORSDOF 0
ENDMDL
