MODEL 1
REMARK minimizedAffinity 0.688824296
REMARK minimizedRMSD -1
REMARK  0 active torsions:
REMARK  status: ('A' for Active; 'I' for Inactive)
ROOT
ATOM      1  O1  BZF d   1      -3.731  -2.570  -4.297  0.00  0.00    -0.204 OA
ATOM      2  C2  BZF d   1      -4.806  -2.558  -5.164  0.00  0.00     0.174 A 
ATOM      3  C3  BZF d   1      -4.758  -3.616  -6.000  0.00  0.00    -0.012 A 
ATOM      4  C3A BZF d   1      -3.629  -4.383  -5.571  0.00  0.00    -0.107 A 
ATOM      5  C4  BZF d   1      -3.074  -5.555  -5.999  0.00  0.00     0.055 A 
ATOM      6  C5  BZF d   1      -1.930  -5.997  -5.413  0.00  0.00    -0.016 A 
ATOM      7  C6  BZF d   1      -1.313  -5.290  -4.401  0.00  0.00     0.022 A 
ATOM      8  C7  BZF d   1      -1.829  -4.125  -3.940  0.00  0.00     0.029 A 
ATOM      9  C7A BZF d   1      -3.003  -3.693  -4.508  0.00  0.00     0.058 A 
ENDROOT
TORSDOF 0
ENDMDL
