MODEL 1
REMARK minimizedAffinity 10.5620232
REMARK minimizedRMSD -1
REMARK  0 active torsions:
REMARK  status: ('A' for Active; 'I' for Inactive)
ROOT
ATOM      1  O1  BZF d   1      -4.575  -3.747  -6.000  0.00  0.00    -0.204 OA
ATOM      2  C2  BZF d   1      -4.703  -2.510  -5.397  0.00  0.00     0.174 A 
ATOM      3  C3  BZF d   1      -3.765  -2.344  -4.443  0.00  0.00    -0.012 A 
ATOM      4  C3A BZF d   1      -2.945  -3.514  -4.512  0.00  0.00    -0.107 A 
ATOM      5  C4  BZF d   1      -1.838  -3.928  -3.827  0.00  0.00     0.055 A 
ATOM      6  C5  BZF d   1      -1.321  -5.157  -4.088  0.00  0.00    -0.016 A 
ATOM      7  C6  BZF d   1      -1.887  -6.000  -5.022  0.00  0.00     0.022 A 
ATOM      8  C7  BZF d   1      -2.982  -5.632  -5.730  0.00  0.00     0.029 A 
ATOM      9  C7A BZF d   1      -3.488  -4.377  -5.493  0.00  0.00     0.058 A 
ENDROOT
TORSDOF 0
ENDMDL
