MODEL 1
REMARK minimizedAffinity -3.29883528
REMARK minimizedRMSD -1
REMARK  0 active torsions:
REMARK  status: ('A' for Active; 'I' for Inactive)
ROOT
ATOM      1  O1  BZF d   1      -2.949  -2.405  -4.498  0.00  0.00    -0.204 OA
ATOM      2  C2  BZF d   1      -3.883  -2.628  -5.491  0.00  0.00     0.174 A 
ATOM      3  C3  BZF d   1      -3.752  -3.870  -6.000  0.00  0.00    -0.012 A 
ATOM      4  C3A BZF d   1      -2.729  -4.492  -5.217  0.00  0.00    -0.107 A 
ATOM      5  C4  BZF d   1      -2.161  -5.734  -5.230  0.00  0.00     0.055 A 
ATOM      6  C5  BZF d   1      -1.134  -6.000  -4.381  0.00  0.00    -0.016 A 
ATOM      7  C6  BZF d   1      -0.647  -5.047  -3.510  0.00  0.00     0.022 A 
ATOM      8  C7  BZF d   1      -1.181  -3.802  -3.457  0.00  0.00     0.029 A 
ATOM      9  C7A BZF d   1      -2.241  -3.541  -4.291  0.00  0.00     0.058 A 
ENDROOT
TORSDOF 0
ENDMDL
