MODEL 1
REMARK minimizedAffinity 8.83620739
REMARK minimizedRMSD -1
REMARK  0 active torsions:
REMARK  status: ('A' for Active; 'I' for Inactive)
ROOT
ATOM      1  O1  BZF d   1      -1.727  -5.878  -4.501  0.00  0.00    -0.204 OA
ATOM      2  C2  BZF d   1      -0.880  -5.371  -3.534  0.00  0.00     0.174 A 
ATOM      3  C3  BZF d   1      -1.132  -4.064  -3.317  0.00  0.00    -0.012 A 
ATOM      4  C3A BZF d   1      -2.263  -3.757  -4.137  0.00  0.00    -0.107 A 
ATOM      5  C4  BZF d   1      -2.993  -2.621  -4.343  0.00  0.00     0.055 A 
ATOM      6  C5  BZF d   1      -3.992  -2.635  -5.264  0.00  0.00    -0.016 A 
ATOM      7  C6  BZF d   1      -4.284  -3.765  -6.000  0.00  0.00     0.022 A 
ATOM      8  C7  BZF d   1      -3.592  -4.917  -5.827  0.00  0.00     0.029 A 
ATOM      9  C7A BZF d   1      -2.604  -4.915  -4.873  0.00  0.00     0.058 A 
ENDROOT
TORSDOF 0
ENDMDL
