MODEL 1
REMARK minimizedAffinity 10.9942617
REMARK minimizedRMSD -1
REMARK  0 active torsions:
REMARK  status: ('A' for Active; 'I' for Inactive)
ROOT
ATOM      1  O1  BZF d   1      -0.891   2.889  -5.980  0.00  0.00    -0.204 OA
ATOM      2  C2  BZF d   1      -2.208   3.306  -6.000  0.00  0.00     0.174 A 
ATOM      3  C3  BZF d   1      -2.941   2.617  -5.103  0.00  0.00    -0.012 A 
ATOM      4  C3A BZF d   1      -2.007   1.776  -4.419  0.00  0.00    -0.107 A 
ATOM      5  C4  BZF d   1      -2.127   0.869  -3.405  0.00  0.00     0.055 A 
ATOM      6  C5  BZF d   1      -1.033   0.163  -3.017  0.00  0.00    -0.016 A 
ATOM      7  C6  BZF d   1       0.194   0.335  -3.623  0.00  0.00     0.022 A 
ATOM      8  C7  BZF d   1       0.364   1.228  -4.629  0.00  0.00     0.029 A 
ATOM      9  C7A BZF d   1      -0.733   1.966  -5.001  0.00  0.00     0.058 A 
ENDROOT
TORSDOF 0
ENDMDL
