MODEL 1
REMARK minimizedAffinity 3.80094004
REMARK minimizedRMSD -1
REMARK  0 active torsions:
REMARK  status: ('A' for Active; 'I' for Inactive)
ROOT
ATOM      1  O1  BZF d   1      -0.782  -5.642  -4.291  0.00  0.00    -0.204 OA
ATOM      2  C2  BZF d   1      -0.492  -5.269  -2.993  0.00  0.00     0.174 A 
ATOM      3  C3  BZF d   1      -1.377  -4.352  -2.550  0.00  0.00    -0.012 A 
ATOM      4  C3A BZF d   1      -2.330  -4.208  -3.607  0.00  0.00    -0.107 A 
ATOM      5  C4  BZF d   1      -3.457  -3.452  -3.758  0.00  0.00     0.055 A 
ATOM      6  C5  BZF d   1      -4.122  -3.487  -4.942  0.00  0.00    -0.016 A 
ATOM      7  C6  BZF d   1      -3.686  -4.261  -5.998  0.00  0.00     0.022 A 
ATOM      8  C7  BZF d   1      -2.576  -5.032  -5.894  0.00  0.00     0.029 A 
ATOM      9  C7A BZF d   1      -1.920  -5.024  -4.687  0.00  0.00     0.058 A 
ENDROOT
TORSDOF 0
ENDMDL
