MODEL 1
REMARK minimizedAffinity -0.226216406
REMARK minimizedRMSD -1
REMARK  1 active torsions:
REMARK  status: ('A' for Active; 'I' for Inactive)
REMARK    1  A    between atoms: C1_2  and  C2_3 
ROOT
ATOM      1  C2  UNL d   1       4.812  -3.153   4.919  0.00  0.00    -0.077 A 
ATOM      2  C3  UNL d   1       4.133  -3.043   3.698  0.00  0.00     0.002 A 
ATOM      3  C4  UNL d   1       3.061  -2.157   3.563  0.00  0.00     0.002 A 
ATOM      4  C5  UNL d   1       2.663  -1.373   4.643  0.00  0.00    -0.004 A 
ATOM      5  C6  UNL d   1       3.331  -1.477   5.863  0.00  0.00     0.002 A 
ATOM      6  C7  UNL d   1       4.401  -2.362   6.000  0.00  0.00     0.002 A 
ENDROOT
BRANCH   1   7
ATOM      7  C1  UNL d   1       5.999  -4.071   5.052  0.00  0.00     0.055 C 
ATOM      8  C   UNL d   1       5.703  -5.224   6.000  0.00  0.00     0.019 C 
ENDBRANCH   1   7
TORSDOF 1
ENDMDL
