MODEL 1
REMARK minimizedAffinity -3.73821783
REMARK minimizedRMSD -1
REMARK  1 active torsions:
REMARK  status: ('A' for Active; 'I' for Inactive)
REMARK    1  A    between atoms: C1_2  and  C2_3 
ROOT
ATOM      1  C2  UNL d   1       5.025  -3.655   4.804  0.00  0.00    -0.077 A 
ATOM      2  C3  UNL d   1       4.215  -3.344   3.702  0.00  0.00     0.002 A 
ATOM      3  C4  UNL d   1       3.345  -2.254   3.750  0.00  0.00     0.002 A 
ATOM      4  C5  UNL d   1       3.278  -1.463   4.895  0.00  0.00    -0.004 A 
ATOM      5  C6  UNL d   1       4.078  -1.765   5.997  0.00  0.00     0.002 A 
ATOM      6  C7  UNL d   1       4.948  -2.855   5.951  0.00  0.00     0.002 A 
ENDROOT
BRANCH   1   7
ATOM      7  C1  UNL d   1       6.000  -4.801   4.736  0.00  0.00     0.055 C 
ATOM      8  C   UNL d   1       5.949  -5.647   6.000  0.00  0.00     0.019 C 
ENDBRANCH   1   7
TORSDOF 1
ENDMDL
