MODEL 1
REMARK minimizedAffinity 0.103594288
REMARK minimizedRMSD -1
REMARK  1 active torsions:
REMARK  status: ('A' for Active; 'I' for Inactive)
REMARK    1  A    between atoms: C1_2  and  C2_3 
ROOT
ATOM      1  C2  UNL d   1       5.213   5.331  -2.648  0.00  0.00    -0.077 A 
ATOM      2  C3  UNL d   1       5.984   4.504  -3.477  0.00  0.00     0.002 A 
ATOM      3  C4  UNL d   1       5.434   3.958  -4.638  0.00  0.00     0.002 A 
ATOM      4  C5  UNL d   1       4.113   4.236  -4.983  0.00  0.00    -0.004 A 
ATOM      5  C6  UNL d   1       3.337   5.056  -4.163  0.00  0.00     0.002 A 
ATOM      6  C7  UNL d   1       3.885   5.602  -3.002  0.00  0.00     0.002 A 
ENDROOT
BRANCH   1   7
ATOM      7  C1  UNL d   1       5.820   5.961  -1.421  0.00  0.00     0.055 C 
ATOM      8  C   UNL d   1       4.835   5.973  -0.261  0.00  0.00     0.019 C 
ENDBRANCH   1   7
TORSDOF 1
ENDMDL
