MODEL 1
REMARK minimizedAffinity 4.27610922
REMARK minimizedRMSD -1
REMARK  1 active torsions:
REMARK  status: ('A' for Active; 'I' for Inactive)
REMARK    1  A    between atoms: C1_2  and  C2_3 
ROOT
ATOM      1  C2  UNL d   1       3.587   4.655  -3.634  0.00  0.00    -0.077 A 
ATOM      2  C3  UNL d   1       4.316   5.837  -3.827  0.00  0.00     0.002 A 
ATOM      3  C4  UNL d   1       5.518   5.817  -4.538  0.00  0.00     0.002 A 
ATOM      4  C5  UNL d   1       5.997   4.620  -5.066  0.00  0.00    -0.004 A 
ATOM      5  C6  UNL d   1       5.280   3.439  -4.877  0.00  0.00     0.002 A 
ATOM      6  C7  UNL d   1       4.080   3.457  -4.165  0.00  0.00     0.002 A 
ENDROOT
BRANCH   1   7
ATOM      7  C1  UNL d   1       2.267   4.683  -2.909  0.00  0.00     0.055 C 
ATOM      8  C   UNL d   1       1.529   5.991  -3.152  0.00  0.00     0.019 C 
ENDBRANCH   1   7
TORSDOF 1
ENDMDL
