MODEL 1
REMARK minimizedAffinity -0.775819421
REMARK minimizedRMSD -1
REMARK  1 active torsions:
REMARK  status: ('A' for Active; 'I' for Inactive)
REMARK    1  A    between atoms: C1_2  and  C2_3 
ROOT
ATOM      1  C2  UNL d   1       5.094   4.923  -3.331  0.00  0.00    -0.077 A 
ATOM      2  C3  UNL d   1       5.091   3.638  -3.891  0.00  0.00     0.002 A 
ATOM      3  C4  UNL d   1       5.538   3.436  -5.199  0.00  0.00     0.002 A 
ATOM      4  C5  UNL d   1       5.994   4.514  -5.955  0.00  0.00    -0.004 A 
ATOM      5  C6  UNL d   1       5.999   5.796  -5.407  0.00  0.00     0.002 A 
ATOM      6  C7  UNL d   1       5.552   6.000  -4.101  0.00  0.00     0.002 A 
ENDROOT
BRANCH   1   7
ATOM      7  C1  UNL d   1       4.658   5.135  -1.905  0.00  0.00     0.055 C 
ATOM      8  C   UNL d   1       5.659   5.992  -1.142  0.00  0.00     0.019 C 
ENDBRANCH   1   7
TORSDOF 1
ENDMDL
