MODEL 1
REMARK minimizedAffinity 2.00900197
REMARK minimizedRMSD -1
REMARK  1 active torsions:
REMARK  status: ('A' for Active; 'I' for Inactive)
REMARK    1  A    between atoms: C1_2  and  C2_3 
ROOT
ATOM      1  C2  UNL d   1       5.273   4.306  -4.127  0.00  0.00    -0.077 A 
ATOM      2  C3  UNL d   1       3.872   4.311  -4.079  0.00  0.00     0.002 A 
ATOM      3  C4  UNL d   1       3.199   5.153  -3.192  0.00  0.00     0.002 A 
ATOM      4  C5  UNL d   1       3.918   5.999  -2.350  0.00  0.00    -0.004 A 
ATOM      5  C6  UNL d   1       5.312   5.999  -2.389  0.00  0.00     0.002 A 
ATOM      6  C7  UNL d   1       5.987   5.157  -3.274  0.00  0.00     0.002 A 
ENDROOT
BRANCH   1   7
ATOM      7  C1  UNL d   1       6.000   3.434  -5.118  0.00  0.00     0.055 C 
ATOM      8  C   UNL d   1       5.026   2.627  -5.964  0.00  0.00     0.019 C 
ENDBRANCH   1   7
TORSDOF 1
ENDMDL
