MODEL 1
REMARK minimizedAffinity -2.35435128
REMARK minimizedRMSD -1
REMARK  1 active torsions:
REMARK  status: ('A' for Active; 'I' for Inactive)
REMARK    1  A    between atoms: C1_2  and  C2_3 
ROOT
ATOM      1  C2  UNL d   1       4.006  -1.721   5.087  0.00  0.00    -0.077 A 
ATOM      2  C3  UNL d   1       3.881  -2.682   4.074  0.00  0.00     0.002 A 
ATOM      3  C4  UNL d   1       4.800  -3.729   3.977  0.00  0.00     0.002 A 
ATOM      4  C5  UNL d   1       5.846  -3.827   4.892  0.00  0.00    -0.004 A 
ATOM      5  C6  UNL d   1       5.979  -2.875   5.902  0.00  0.00     0.002 A 
ATOM      6  C7  UNL d   1       5.063  -1.827   5.999  0.00  0.00     0.002 A 
ENDROOT
BRANCH   1   7
ATOM      7  C1  UNL d   1       2.988  -0.618   5.223  0.00  0.00     0.055 C 
ATOM      8  C   UNL d   1       1.765  -1.087   5.998  0.00  0.00     0.019 C 
ENDBRANCH   1   7
TORSDOF 1
ENDMDL
