MODEL 1
REMARK minimizedAffinity 1.22202492
REMARK minimizedRMSD -1
REMARK  1 active torsions:
REMARK  status: ('A' for Active; 'I' for Inactive)
REMARK    1  A    between atoms: C1_2  and  C2_3 
ROOT
ATOM      1  C2  UNL d   1       4.973  -2.858   5.201  0.00  0.00    -0.077 A 
ATOM      2  C3  UNL d   1       4.163  -1.902   5.829  0.00  0.00     0.002 A 
ATOM      3  C4  UNL d   1       3.182  -1.223   5.105  0.00  0.00     0.002 A 
ATOM      4  C5  UNL d   1       2.999  -1.495   3.751  0.00  0.00    -0.004 A 
ATOM      5  C6  UNL d   1       3.801  -2.443   3.117  0.00  0.00     0.002 A 
ATOM      6  C7  UNL d   1       4.783  -3.122   3.839  0.00  0.00     0.002 A 
ENDROOT
BRANCH   1   7
ATOM      7  C1  UNL d   1       5.999  -3.627   5.992  0.00  0.00     0.055 C 
ATOM      8  C   UNL d   1       5.690  -5.117   5.999  0.00  0.00     0.019 C 
ENDBRANCH   1   7
TORSDOF 1
ENDMDL
