MODEL 1
REMARK minimizedAffinity -0.237190947
REMARK minimizedRMSD -1
REMARK  1 active torsions:
REMARK  status: ('A' for Active; 'I' for Inactive)
REMARK    1  A    between atoms: C1_2  and  C2_3 
ROOT
ATOM      1  C2  UNL d   1       4.904  -3.681   4.871  0.00  0.00    -0.077 A 
ATOM      2  C3  UNL d   1       4.098  -3.424   3.753  0.00  0.00     0.002 A 
ATOM      3  C4  UNL d   1       3.201  -2.353   3.761  0.00  0.00     0.002 A 
ATOM      4  C5  UNL d   1       3.106  -1.530   4.881  0.00  0.00    -0.004 A 
ATOM      5  C6  UNL d   1       3.902  -1.779   5.998  0.00  0.00     0.002 A 
ATOM      6  C7  UNL d   1       4.798  -2.850   5.993  0.00  0.00     0.002 A 
ENDROOT
BRANCH   1   7
ATOM      7  C1  UNL d   1       5.906  -4.806   4.846  0.00  0.00     0.055 C 
ATOM      8  C   UNL d   1       5.672  -5.781   5.990  0.00  0.00     0.019 C 
ENDBRANCH   1   7
TORSDOF 1
ENDMDL
