MODEL 1
REMARK minimizedAffinity -3.72553992
REMARK minimizedRMSD -1
REMARK  1 active torsions:
REMARK  status: ('A' for Active; 'I' for Inactive)
REMARK    1  A    between atoms: C1_2  and  C2_3 
ROOT
ATOM      1  C2  UNL d   1       5.009  -3.661   4.701  0.00  0.00    -0.077 A 
ATOM      2  C3  UNL d   1       4.192  -3.297   3.622  0.00  0.00     0.002 A 
ATOM      3  C4  UNL d   1       3.318  -2.213   3.732  0.00  0.00     0.002 A 
ATOM      4  C5  UNL d   1       3.256  -1.483   4.917  0.00  0.00    -0.004 A 
ATOM      5  C6  UNL d   1       4.063  -1.839   5.997  0.00  0.00     0.002 A 
ATOM      6  C7  UNL d   1       4.936  -2.922   5.889  0.00  0.00     0.002 A 
ENDROOT
BRANCH   1   7
ATOM      7  C1  UNL d   1       5.988  -4.798   4.568  0.00  0.00     0.055 C 
ATOM      8  C   UNL d   1       5.987  -5.678   5.810  0.00  0.00     0.019 C 
ENDBRANCH   1   7
TORSDOF 1
ENDMDL
