MODEL 1
REMARK minimizedAffinity 2.10400867
REMARK minimizedRMSD -1
REMARK  0 active torsions:
REMARK  status: ('A' for Active; 'I' for Inactive)
ROOT
ATOM      1  C2' OXE d   1      -1.322  -0.351   0.693  0.00  0.00     0.078 C 
ATOM      2  C1' OXE d   1      -0.988  -2.327   2.659  0.00  0.00     0.078 C 
ATOM      3  C1  OXE d   1       0.056  -2.230   1.574  0.00  0.00    -0.078 A 
ATOM      4  C2  OXE d   1      -0.140  -1.291   0.590  0.00  0.00    -0.078 A 
ATOM      5  C3  OXE d   1       0.820  -1.123  -0.403  0.00  0.00     0.003 A 
ATOM      6  C4  OXE d   1       1.905  -2.004  -0.496  0.00  0.00    -0.002 A 
ATOM      7  C5  OXE d   1       2.102  -2.993   0.473  0.00  0.00    -0.002 A 
ATOM      8  C6  OXE d   1       1.211  -3.092   1.536  0.00  0.00     0.003 A 
ENDROOT
TORSDOF 0
ENDMDL
