MODEL 1
REMARK minimizedAffinity -5.02552032
REMARK minimizedRMSD -1
REMARK  0 active torsions:
REMARK  status: ('A' for Active; 'I' for Inactive)
ROOT
ATOM      1  C2' OXE d   1       1.359  -4.854   1.503  0.00  0.00     0.078 C 
ATOM      2  C1' OXE d   1      -0.769  -3.346   2.542  0.00  0.00     0.078 C 
ATOM      3  C1  OXE d   1       0.183  -2.660   1.595  0.00  0.00    -0.078 A 
ATOM      4  C2  OXE d   1       1.248  -3.392   1.128  0.00  0.00    -0.078 A 
ATOM      5  C3  OXE d   1       2.125  -2.824   0.209  0.00  0.00     0.003 A 
ATOM      6  C4  OXE d   1       2.021  -1.468  -0.126  0.00  0.00    -0.002 A 
ATOM      7  C5  OXE d   1       0.967  -0.693   0.370  0.00  0.00    -0.002 A 
ATOM      8  C6  OXE d   1       0.017  -1.284   1.195  0.00  0.00     0.003 A 
ENDROOT
TORSDOF 0
ENDMDL
