MODEL 1
REMARK minimizedAffinity 8.39002514
REMARK minimizedRMSD -1
REMARK  0 active torsions:
REMARK  status: ('A' for Active; 'I' for Inactive)
ROOT
ATOM      1  C2' OXE d   1       1.928  -3.082  -0.437  0.00  0.00     0.078 C 
ATOM      2  C1' OXE d   1       3.304  -0.652  -0.156  0.00  0.00     0.078 C 
ATOM      3  C1  OXE d   1       1.990  -0.804   0.568  0.00  0.00    -0.078 A 
ATOM      4  C2  OXE d   1       1.301  -1.979   0.388  0.00  0.00    -0.078 A 
ATOM      5  C3  OXE d   1       0.110  -2.192   1.076  0.00  0.00     0.003 A 
ATOM      6  C4  OXE d   1      -0.468  -1.162   1.828  0.00  0.00    -0.002 A 
ATOM      7  C5  OXE d   1       0.198   0.057   1.993  0.00  0.00    -0.002 A 
ATOM      8  C6  OXE d   1       1.445   0.236   1.406  0.00  0.00     0.003 A 
ENDROOT
TORSDOF 0
ENDMDL
