MODEL 1
REMARK minimizedAffinity 17.974699
REMARK minimizedRMSD -1
REMARK  0 active torsions:
REMARK  status: ('A' for Active; 'I' for Inactive)
ROOT
ATOM      1  C2' OXE d   1      -5.969   0.749   1.414  0.00  0.00     0.078 C 
ATOM      2  C1' OXE d   1      -3.258   0.766   0.687  0.00  0.00     0.078 C 
ATOM      3  C1  OXE d   1      -3.968  -0.564   0.724  0.00  0.00    -0.078 A 
ATOM      4  C2  OXE d   1      -5.282  -0.568   1.126  0.00  0.00    -0.078 A 
ATOM      5  C3  OXE d   1      -6.000  -1.761   1.125  0.00  0.00     0.003 A 
ATOM      6  C4  OXE d   1      -5.354  -2.976   0.867  0.00  0.00    -0.002 A 
ATOM      7  C5  OXE d   1      -4.006  -2.999   0.494  0.00  0.00    -0.002 A 
ATOM      8  C6  OXE d   1      -3.311  -1.800   0.377  0.00  0.00     0.003 A 
ENDROOT
TORSDOF 0
ENDMDL
