MODEL 1
REMARK minimizedAffinity 8.06799221
REMARK minimizedRMSD -1
REMARK  0 active torsions:
REMARK  status: ('A' for Active; 'I' for Inactive)
ROOT
ATOM      1  C2' OXE d   1      -0.669  -0.367   1.344  0.00  0.00     0.078 C 
ATOM      2  C1' OXE d   1      -1.193  -3.011   2.129  0.00  0.00     0.078 C 
ATOM      3  C1  OXE d   1       0.014  -2.761   1.260  0.00  0.00    -0.078 A 
ATOM      4  C2  OXE d   1       0.236  -1.471   0.842  0.00  0.00    -0.078 A 
ATOM      5  C3  OXE d   1       1.366  -1.177   0.084  0.00  0.00     0.003 A 
ATOM      6  C4  OXE d   1       2.193  -2.205  -0.384  0.00  0.00    -0.002 A 
ATOM      7  C5  OXE d   1       1.962  -3.531  -0.004  0.00  0.00    -0.002 A 
ATOM      8  C6  OXE d   1       0.904  -3.820   0.851  0.00  0.00     0.003 A 
ENDROOT
TORSDOF 0
ENDMDL
