MODEL 1
REMARK minimizedAffinity 0.182962507
REMARK minimizedRMSD -1
REMARK  0 active torsions:
REMARK  status: ('A' for Active; 'I' for Inactive)
ROOT
ATOM      1  C2' OXE d   1       2.457  -3.271   0.409  0.00  0.00     0.078 C 
ATOM      2  C1' OXE d   1       1.271  -0.730   0.276  0.00  0.00     0.078 C 
ATOM      3  C1  OXE d   1       0.626  -1.762   1.167  0.00  0.00    -0.078 A 
ATOM      4  C2  OXE d   1       1.186  -3.017   1.190  0.00  0.00    -0.078 A 
ATOM      5  C3  OXE d   1       0.663  -3.990   2.037  0.00  0.00     0.003 A 
ATOM      6  C4  OXE d   1      -0.519  -3.749   2.748  0.00  0.00    -0.002 A 
ATOM      7  C5  OXE d   1      -1.128  -2.491   2.708  0.00  0.00    -0.002 A 
ATOM      8  C6  OXE d   1      -0.546  -1.475   1.957  0.00  0.00     0.003 A 
ENDROOT
TORSDOF 0
ENDMDL
