MODEL 1
REMARK minimizedAffinity 0.848541021
REMARK minimizedRMSD -1
REMARK  0 active torsions:
REMARK  status: ('A' for Active; 'I' for Inactive)
ROOT
ATOM      1  C2' OXE d   1       2.572  -3.805   0.448  0.00  0.00     0.078 C 
ATOM      2  C1' OXE d   1       2.519  -1.252  -0.720  0.00  0.00     0.078 C 
ATOM      3  C1  OXE d   1       1.502  -1.557   0.352  0.00  0.00    -0.078 A 
ATOM      4  C2  OXE d   1       1.505  -2.824   0.884  0.00  0.00    -0.078 A 
ATOM      5  C3  OXE d   1       0.624  -3.141   1.914  0.00  0.00     0.003 A 
ATOM      6  C4  OXE d   1      -0.366  -2.231   2.305  0.00  0.00    -0.002 A 
ATOM      7  C5  OXE d   1      -0.412  -0.949   1.748  0.00  0.00    -0.002 A 
ATOM      8  C6  OXE d   1       0.539  -0.582   0.802  0.00  0.00     0.003 A 
ENDROOT
TORSDOF 0
ENDMDL
