MODEL 1
REMARK minimizedAffinity 2.00022769
REMARK minimizedRMSD -1
REMARK  0 active torsions:
REMARK  status: ('A' for Active; 'I' for Inactive)
ROOT
ATOM      1  C2' OXE d   1      -1.077  -0.277   1.942  0.00  0.00     0.078 C 
ATOM      2  C1' OXE d   1      -1.381  -3.032   2.388  0.00  0.00     0.078 C 
ATOM      3  C1  OXE d   1      -0.193  -2.577   1.579  0.00  0.00    -0.078 A 
ATOM      4  C2  OXE d   1      -0.077  -1.232   1.326  0.00  0.00    -0.078 A 
ATOM      5  C3  OXE d   1       1.030  -0.753   0.630  0.00  0.00     0.003 A 
ATOM      6  C4  OXE d   1       1.944  -1.644   0.055  0.00  0.00    -0.002 A 
ATOM      7  C5  OXE d   1       1.823  -3.021   0.267  0.00  0.00    -0.002 A 
ATOM      8  C6  OXE d   1       0.787  -3.500   1.060  0.00  0.00     0.003 A 
ENDROOT
TORSDOF 0
ENDMDL
