MODEL 1
REMARK minimizedAffinity 2.62018943
REMARK minimizedRMSD -1
REMARK  0 active torsions:
REMARK  status: ('A' for Active; 'I' for Inactive)
ROOT
ATOM      1  C2' OXE d   1      -1.357  -2.675   2.770  0.00  0.00     0.078 C 
ATOM      2  C1' OXE d   1       0.191  -0.789   1.383  0.00  0.00     0.078 C 
ATOM      3  C1  OXE d   1       0.589  -2.240   1.278  0.00  0.00    -0.078 A 
ATOM      4  C2  OXE d   1      -0.146  -3.151   1.998  0.00  0.00    -0.078 A 
ATOM      5  C3  OXE d   1       0.145  -4.508   1.893  0.00  0.00     0.003 A 
ATOM      6  C4  OXE d   1       1.273  -4.939   1.185  0.00  0.00    -0.002 A 
ATOM      7  C5  OXE d   1       2.059  -4.023   0.477  0.00  0.00    -0.002 A 
ATOM      8  C6  OXE d   1       1.706  -2.678   0.478  0.00  0.00     0.003 A 
ENDROOT
TORSDOF 0
ENDMDL
