MODEL 1
REMARK minimizedAffinity 6.93480968
REMARK minimizedRMSD -1
REMARK  0 active torsions:
REMARK  status: ('A' for Active; 'I' for Inactive)
ROOT
ATOM      1  C2' OXE d   1       2.402  -0.239   0.272  0.00  0.00     0.078 C 
ATOM      2  C1' OXE d   1       2.458  -3.033   0.543  0.00  0.00     0.078 C 
ATOM      3  C1  OXE d   1       1.206  -2.310   0.970  0.00  0.00    -0.078 A 
ATOM      4  C2  OXE d   1       1.204  -0.939   0.877  0.00  0.00    -0.078 A 
ATOM      5  C3  OXE d   1       0.054  -0.226   1.206  0.00  0.00     0.003 A 
ATOM      6  C4  OXE d   1      -1.045  -0.880   1.775  0.00  0.00    -0.002 A 
ATOM      7  C5  OXE d   1      -1.050  -2.272   1.915  0.00  0.00    -0.002 A 
ATOM      8  C6  OXE d   1       0.049  -3.004   1.479  0.00  0.00     0.003 A 
ENDROOT
TORSDOF 0
ENDMDL
