MODEL 1
REMARK minimizedAffinity 1.78800917
REMARK minimizedRMSD -1
REMARK  0 active torsions:
REMARK  status: ('A' for Active; 'I' for Inactive)
ROOT
ATOM      1  C2' OXE d   1      -5.857  -0.058  -5.953  0.00  0.00     0.078 C 
ATOM      2  C1' OXE d   1      -5.837  -2.844  -5.613  0.00  0.00     0.078 C 
ATOM      3  C1  OXE d   1      -4.508  -2.140  -5.728  0.00  0.00    -0.078 A 
ATOM      4  C2  OXE d   1      -4.529  -0.783  -5.941  0.00  0.00    -0.078 A 
ATOM      5  C3  OXE d   1      -3.331  -0.076  -6.000  0.00  0.00     0.003 A 
ATOM      6  C4  OXE d   1      -2.106  -0.755  -5.998  0.00  0.00    -0.002 A 
ATOM      7  C5  OXE d   1      -2.064  -2.142  -5.821  0.00  0.00    -0.002 A 
ATOM      8  C6  OXE d   1      -3.252  -2.843  -5.643  0.00  0.00     0.003 A 
ENDROOT
TORSDOF 0
ENDMDL
