MODEL 1
REMARK minimizedAffinity 7.69589233
REMARK minimizedRMSD -1
REMARK  0 active torsions:
REMARK  status: ('A' for Active; 'I' for Inactive)
ROOT
ATOM      1  C2' OXE d   1      -0.696  -0.623   3.293  0.00  0.00     0.078 C 
ATOM      2  C1' OXE d   1      -1.060  -3.377   2.886  0.00  0.00     0.078 C 
ATOM      3  C1  OXE d   1       0.068  -2.700   2.149  0.00  0.00    -0.078 A 
ATOM      4  C2  OXE d   1       0.210  -1.344   2.318  0.00  0.00    -0.078 A 
ATOM      5  C3  OXE d   1       1.269  -0.679   1.705  0.00  0.00     0.003 A 
ATOM      6  C4  OXE d   1       2.096  -1.351   0.797  0.00  0.00    -0.002 A 
ATOM      7  C5  OXE d   1       1.944  -2.725   0.579  0.00  0.00    -0.002 A 
ATOM      8  C6  OXE d   1       0.964  -3.421   1.279  0.00  0.00     0.003 A 
ENDROOT
TORSDOF 0
ENDMDL
