MODEL 1
REMARK minimizedAffinity 9.64485073
REMARK minimizedRMSD -1
REMARK  0 active torsions:
REMARK  status: ('A' for Active; 'I' for Inactive)
ROOT
ATOM      1  C2' OXE d   1      -5.222   6.000   5.947  0.00  0.00     0.078 C 
ATOM      2  C1' OXE d   1      -2.415   5.967   5.952  0.00  0.00     0.078 C 
ATOM      3  C1  OXE d   1      -3.133   4.662   5.719  0.00  0.00    -0.078 A 
ATOM      4  C2  OXE d   1      -4.507   4.679   5.764  0.00  0.00    -0.078 A 
ATOM      5  C3  OXE d   1      -5.220   3.512   5.501  0.00  0.00     0.003 A 
ATOM      6  C4  OXE d   1      -4.550   2.293   5.344  0.00  0.00    -0.002 A 
ATOM      7  C5  OXE d   1      -3.152   2.246   5.333  0.00  0.00    -0.002 A 
ATOM      8  C6  OXE d   1      -2.430   3.426   5.477  0.00  0.00     0.003 A 
ENDROOT
TORSDOF 0
ENDMDL
