MODEL 1
REMARK minimizedAffinity 4.70110941
REMARK minimizedRMSD -1
REMARK  0 active torsions:
REMARK  status: ('A' for Active; 'I' for Inactive)
ROOT
ATOM      1  C2' OXE d   1      -1.094  -3.376   3.006  0.00  0.00     0.078 C 
ATOM      2  C1' OXE d   1       0.328  -1.079   2.244  0.00  0.00     0.078 C 
ATOM      3  C1  OXE d   1       0.898  -2.420   1.856  0.00  0.00    -0.078 A 
ATOM      4  C2  OXE d   1       0.220  -3.540   2.274  0.00  0.00    -0.078 A 
ATOM      5  C3  OXE d   1       0.673  -4.801   1.897  0.00  0.00     0.003 A 
ATOM      6  C4  OXE d   1       1.895  -4.944   1.228  0.00  0.00    -0.002 A 
ATOM      7  C5  OXE d   1       2.622  -3.818   0.828  0.00  0.00    -0.002 A 
ATOM      8  C6  OXE d   1       2.117  -2.551   1.096  0.00  0.00     0.003 A 
ENDROOT
TORSDOF 0
ENDMDL
