MODEL 1
REMARK minimizedAffinity 3.86389685
REMARK minimizedRMSD -1
REMARK  0 active torsions:
REMARK  status: ('A' for Active; 'I' for Inactive)
ROOT
ATOM      1  C2' OXE d   1      -5.314   2.675  -5.482  0.00  0.00     0.078 C 
ATOM      2  C1' OXE d   1      -5.779   0.053  -4.593  0.00  0.00     0.078 C 
ATOM      3  C1  OXE d   1      -4.744   0.871  -3.861  0.00  0.00    -0.078 A 
ATOM      4  C2  OXE d   1      -4.490   2.136  -4.332  0.00  0.00    -0.078 A 
ATOM      5  C3  OXE d   1      -3.584   2.953  -3.661  0.00  0.00     0.003 A 
ATOM      6  C4  OXE d   1      -2.819   2.444  -2.604  0.00  0.00    -0.002 A 
ATOM      7  C5  OXE d   1      -3.034   1.144  -2.134  0.00  0.00    -0.002 A 
ATOM      8  C6  OXE d   1      -4.021   0.361  -2.723  0.00  0.00     0.003 A 
ENDROOT
TORSDOF 0
ENDMDL
