MODEL 1
REMARK minimizedAffinity 10.1926813
REMARK minimizedRMSD -1
REMARK  0 active torsions:
REMARK  status: ('A' for Active; 'I' for Inactive)
ROOT
ATOM      1  C2' OXE d   1      -5.938   3.320  -5.261  0.00  0.00     0.078 C 
ATOM      2  C1' OXE d   1      -5.999   0.617  -4.509  0.00  0.00     0.078 C 
ATOM      3  C1  OXE d   1      -4.828   1.449  -4.048  0.00  0.00    -0.078 A 
ATOM      4  C2  OXE d   1      -4.783   2.759  -4.460  0.00  0.00    -0.078 A 
ATOM      5  C3  OXE d   1      -3.753   3.585  -4.019  0.00  0.00     0.003 A 
ATOM      6  C4  OXE d   1      -2.684   3.055  -3.286  0.00  0.00    -0.002 A 
ATOM      7  C5  OXE d   1      -2.691   1.714  -2.890  0.00  0.00    -0.002 A 
ATOM      8  C6  OXE d   1      -3.774   0.909  -3.226  0.00  0.00     0.003 A 
ENDROOT
TORSDOF 0
ENDMDL
