MODEL 1
REMARK minimizedAffinity 8.23679352
REMARK minimizedRMSD -1
REMARK  0 active torsions:
REMARK  status: ('A' for Active; 'I' for Inactive)
ROOT
ATOM      1  C2' OXE d   1       2.881  -4.381  -0.749  0.00  0.00     0.078 C 
ATOM      2  C1' OXE d   1       4.517  -2.297   0.179  0.00  0.00     0.078 C 
ATOM      3  C1  OXE d   1       3.045  -2.233   0.502  0.00  0.00    -0.078 A 
ATOM      4  C2  OXE d   1       2.244  -3.233   0.004  0.00  0.00    -0.078 A 
ATOM      5  C3  OXE d   1       0.888  -3.251   0.318  0.00  0.00     0.003 A 
ATOM      6  C4  OXE d   1       0.306  -2.180   1.006  0.00  0.00    -0.002 A 
ATOM      7  C5  OXE d   1       1.097  -1.132   1.488  0.00  0.00    -0.002 A 
ATOM      8  C6  OXE d   1       2.471  -1.164   1.282  0.00  0.00     0.003 A 
ENDROOT
TORSDOF 0
ENDMDL
