MODEL 1
REMARK minimizedAffinity 2.2696712
REMARK minimizedRMSD -1
REMARK  0 active torsions:
REMARK  status: ('A' for Active; 'I' for Inactive)
ROOT
ATOM      1  C2' OXE d   1       5.014  -5.162   1.548  0.00  0.00     0.078 C 
ATOM      2  C1' OXE d   1       4.645  -3.642   3.879  0.00  0.00     0.078 C 
ATOM      3  C1  OXE d   1       3.818  -3.286   2.669  0.00  0.00    -0.078 A 
ATOM      4  C2  OXE d   1       4.039  -4.005   1.519  0.00  0.00    -0.078 A 
ATOM      5  C3  OXE d   1       3.265  -3.754   0.390  0.00  0.00     0.003 A 
ATOM      6  C4  OXE d   1       2.373  -2.675   0.368  0.00  0.00    -0.002 A 
ATOM      7  C5  OXE d   1       2.161  -1.905   1.516  0.00  0.00    -0.002 A 
ATOM      8  C6  OXE d   1       2.844  -2.223   2.685  0.00  0.00     0.003 A 
ENDROOT
TORSDOF 0
ENDMDL
