MODEL 1
REMARK minimizedAffinity 2.12222624
REMARK minimizedRMSD -1
REMARK  0 active torsions:
REMARK  status: ('A' for Active; 'I' for Inactive)
ROOT
ATOM      1  C2' OXE d   1       2.045   5.897   3.191  0.00  0.00     0.078 C 
ATOM      2  C1' OXE d   1       2.142   5.867   5.997  0.00  0.00     0.078 C 
ATOM      3  C1  OXE d   1       3.450   5.921   5.248  0.00  0.00    -0.078 A 
ATOM      4  C2  OXE d   1       3.395   5.888   3.875  0.00  0.00    -0.078 A 
ATOM      5  C3  OXE d   1       4.570   5.991   3.136  0.00  0.00     0.003 A 
ATOM      6  C4  OXE d   1       5.815   5.972   3.776  0.00  0.00    -0.002 A 
ATOM      7  C5  OXE d   1       5.895   5.965   5.173  0.00  0.00    -0.002 A 
ATOM      8  C6  OXE d   1       4.724   5.983   5.922  0.00  0.00     0.003 A 
ENDROOT
TORSDOF 0
ENDMDL
