MODEL 1
REMARK minimizedAffinity 1.60913074
REMARK minimizedRMSD -1
REMARK  1 active torsions:
REMARK  status: ('A' for Active; 'I' for Inactive)
REMARK    1  A    between atoms: C3_4  and  O_7 
ROOT
ATOM      1  C   UNL d   1      -0.353  -0.859   2.559  0.00  0.00    -0.033 A 
ATOM      2  C1  UNL d   1      -0.800  -1.104   1.260  0.00  0.00     0.039 A 
ATOM      3  C2  UNL d   1      -1.868  -0.372   0.738  0.00  0.00    -0.080 A 
ATOM      4  C3  UNL d   1      -2.479   0.601   1.524  0.00  0.00     0.150 A 
ATOM      5  C4  UNL d   1      -2.036   0.853   2.818  0.00  0.00    -0.007 A 
ATOM      6  C5  UNL d   1      -0.969   0.120   3.338  0.00  0.00     0.039 A 
ENDROOT
BRANCH   4   7
ATOM      7  O   UNL d   1      -3.528   1.338   1.060  0.00  0.00    -0.526 OA
ATOM      8  H5  UNL d   1      -3.743   1.035   0.162  0.00  0.00     0.418 HD
ENDBRANCH   4   7
TORSDOF 1
ENDMDL
