MODEL 1
REMARK minimizedAffinity -2.24130988
REMARK minimizedRMSD -1
REMARK  1 active torsions:
REMARK  status: ('A' for Active; 'I' for Inactive)
REMARK    1  A    between atoms: C3_4  and  O_7 
ROOT
ATOM      1  C   UNL d   1      -0.393   0.124  -5.995  0.00  0.00    -0.033 A 
ATOM      2  C1  UNL d   1      -0.772   0.750  -4.806  0.00  0.00     0.039 A 
ATOM      3  C2  UNL d   1      -0.844   0.017  -3.620  0.00  0.00    -0.080 A 
ATOM      4  C3  UNL d   1      -0.534  -1.341  -3.637  0.00  0.00     0.150 A 
ATOM      5  C4  UNL d   1      -0.152  -1.970  -4.816  0.00  0.00    -0.007 A 
ATOM      6  C5  UNL d   1      -0.081  -1.236  -6.000  0.00  0.00     0.039 A 
ENDROOT
BRANCH   4   7
ATOM      7  O   UNL d   1      -0.595  -2.099  -2.505  0.00  0.00    -0.526 OA
ATOM      8  H5  UNL d   1      -0.901  -1.537  -1.774  0.00  0.00     0.418 HD
ENDBRANCH   4   7
TORSDOF 1
ENDMDL
