MODEL 1
REMARK minimizedAffinity 0.689728856
REMARK minimizedRMSD -1
REMARK  1 active torsions:
REMARK  status: ('A' for Active; 'I' for Inactive)
REMARK    1  A    between atoms: C3_4  and  O_7 
ROOT
ATOM      1  C   UNL d   1      -1.455  -0.527  -5.201  0.00  0.00    -0.033 A 
ATOM      2  C1  UNL d   1      -0.384  -1.376  -4.916  0.00  0.00     0.039 A 
ATOM      3  C2  UNL d   1       0.924  -0.964  -5.176  0.00  0.00    -0.080 A 
ATOM      4  C3  UNL d   1       1.148   0.299  -5.718  0.00  0.00     0.150 A 
ATOM      5  C4  UNL d   1       0.086   1.152  -6.000  0.00  0.00    -0.007 A 
ATOM      6  C5  UNL d   1      -1.220   0.738  -5.741  0.00  0.00     0.039 A 
ENDROOT
BRANCH   4   7
ATOM      7  O   UNL d   1       2.407   0.744  -5.993  0.00  0.00    -0.526 OA
ATOM      8  H5  UNL d   1       3.037   0.038  -5.774  0.00  0.00     0.418 HD
ENDBRANCH   4   7
TORSDOF 1
ENDMDL
