MODEL 1
REMARK minimizedAffinity -2.3920505
REMARK minimizedRMSD -1
REMARK  1 active torsions:
REMARK  status: ('A' for Active; 'I' for Inactive)
REMARK    1  A    between atoms: C3_4  and  O_7 
ROOT
ATOM      1  C   UNL d   1      -1.204  -0.489   2.189  0.00  0.00    -0.033 A 
ATOM      2  C1  UNL d   1      -1.329  -1.064   0.923  0.00  0.00     0.039 A 
ATOM      3  C2  UNL d   1      -2.327  -0.625   0.050  0.00  0.00    -0.080 A 
ATOM      4  C3  UNL d   1      -3.191   0.388   0.455  0.00  0.00     0.150 A 
ATOM      5  C4  UNL d   1      -3.070   0.968   1.714  0.00  0.00    -0.007 A 
ATOM      6  C5  UNL d   1      -2.074   0.528   2.584  0.00  0.00     0.039 A 
ENDROOT
BRANCH   4   7
ATOM      7  O   UNL d   1      -4.183   0.846  -0.360  0.00  0.00    -0.526 OA
ATOM      8  H5  UNL d   1      -4.165   0.334  -1.185  0.00  0.00     0.418 HD
ENDBRANCH   4   7
TORSDOF 1
ENDMDL
