MODEL 1
REMARK minimizedAffinity -0.601596773
REMARK minimizedRMSD -1
REMARK  1 active torsions:
REMARK  status: ('A' for Active; 'I' for Inactive)
REMARK    1  A    between atoms: C3_4  and  O_7 
ROOT
ATOM      1  C   UNL d   1       4.461   2.426   2.169  0.00  0.00    -0.033 A 
ATOM      2  C1  UNL d   1       4.481   1.493   3.208  0.00  0.00     0.039 A 
ATOM      3  C2  UNL d   1       4.801   1.898   4.506  0.00  0.00    -0.080 A 
ATOM      4  C3  UNL d   1       5.097   3.236   4.751  0.00  0.00     0.150 A 
ATOM      5  C4  UNL d   1       5.075   4.171   3.721  0.00  0.00    -0.007 A 
ATOM      6  C5  UNL d   1       4.756   3.765   2.426  0.00  0.00     0.039 A 
ENDROOT
BRANCH   4   7
ATOM      7  O   UNL d   1       5.420   3.677   5.999  0.00  0.00    -0.526 OA
ATOM      8  H5  UNL d   1       5.423   2.916   6.603  0.00  0.00     0.418 HD
ENDBRANCH   4   7
TORSDOF 1
ENDMDL
