MODEL 1
REMARK minimizedAffinity -2.0336678
REMARK minimizedRMSD -1
REMARK  1 active torsions:
REMARK  status: ('A' for Active; 'I' for Inactive)
REMARK    1  A    between atoms: C3_4  and  O_7 
ROOT
ATOM      1  C   UNL d   1      -0.697  -0.869  -5.618  0.00  0.00    -0.033 A 
ATOM      2  C1  UNL d   1      -1.069   0.474  -5.692  0.00  0.00     0.039 A 
ATOM      3  C2  UNL d   1      -2.416   0.833  -5.604  0.00  0.00    -0.080 A 
ATOM      4  C3  UNL d   1      -3.378  -0.160  -5.441  0.00  0.00     0.150 A 
ATOM      5  C4  UNL d   1      -3.014  -1.500  -5.362  0.00  0.00    -0.007 A 
ATOM      6  C5  UNL d   1      -1.669  -1.856  -5.452  0.00  0.00     0.039 A 
ENDROOT
BRANCH   4   7
ATOM      7  O   UNL d   1      -4.705   0.142  -5.354  0.00  0.00    -0.526 OA
ATOM      8  H5  UNL d   1      -4.810   1.103  -5.453  0.00  0.00     0.418 HD
ENDBRANCH   4   7
TORSDOF 1
ENDMDL
