MODEL 1
REMARK minimizedAffinity -2.8839426
REMARK minimizedRMSD -1
REMARK  1 active torsions:
REMARK  status: ('A' for Active; 'I' for Inactive)
REMARK    1  A    between atoms: C3_4  and  O_7 
ROOT
ATOM      1  C   UNL d   1      -1.129  -1.795  -3.276  0.00  0.00    -0.033 A 
ATOM      2  C1  UNL d   1      -0.412  -2.120  -4.429  0.00  0.00     0.039 A 
ATOM      3  C2  UNL d   1      -0.092  -1.127  -5.357  0.00  0.00    -0.080 A 
ATOM      4  C3  UNL d   1      -0.493   0.184  -5.120  0.00  0.00     0.150 A 
ATOM      5  C4  UNL d   1      -1.205   0.516  -3.972  0.00  0.00    -0.007 A 
ATOM      6  C5  UNL d   1      -1.524  -0.477  -3.047  0.00  0.00     0.039 A 
ENDROOT
BRANCH   4   7
ATOM      7  O   UNL d   1      -0.208   1.187  -5.999  0.00  0.00    -0.526 OA
ATOM      8  H5  UNL d   1       0.262   0.805  -6.759  0.00  0.00     0.418 HD
ENDBRANCH   4   7
TORSDOF 1
ENDMDL
