MODEL 1
REMARK minimizedAffinity -1.62432063
REMARK minimizedRMSD -1
REMARK  1 active torsions:
REMARK  status: ('A' for Active; 'I' for Inactive)
REMARK    1  A    between atoms: C3_4  and  O_7 
ROOT
ATOM      1  C   UNL d   1      -0.046  -0.847  -6.000  0.00  0.00    -0.033 A 
ATOM      2  C1  UNL d   1      -0.570   0.440  -5.869  0.00  0.00     0.039 A 
ATOM      3  C2  UNL d   1      -1.948   0.625  -5.741  0.00  0.00    -0.080 A 
ATOM      4  C3  UNL d   1      -2.790  -0.484  -5.745  0.00  0.00     0.150 A 
ATOM      5  C4  UNL d   1      -2.274  -1.769  -5.871  0.00  0.00    -0.007 A 
ATOM      6  C5  UNL d   1      -0.898  -1.952  -6.000  0.00  0.00     0.039 A 
ENDROOT
BRANCH   4   7
ATOM      7  O   UNL d   1      -4.142  -0.353  -5.627  0.00  0.00    -0.526 OA
ATOM      8  H5  UNL d   1      -4.356   0.594  -5.577  0.00  0.00     0.418 HD
ENDBRANCH   4   7
TORSDOF 1
ENDMDL
