MODEL 1
REMARK minimizedAffinity 3.38958836
REMARK minimizedRMSD -1
REMARK  1 active torsions:
REMARK  status: ('A' for Active; 'I' for Inactive)
REMARK    1  A    between atoms: C3_4  and  O_7 
ROOT
ATOM      1  C   UNL d   1      -3.603  -0.801  -4.229  0.00  0.00    -0.033 A 
ATOM      2  C1  UNL d   1      -3.835  -0.095  -5.411  0.00  0.00     0.039 A 
ATOM      3  C2  UNL d   1      -2.806   0.642  -5.999  0.00  0.00    -0.080 A 
ATOM      4  C3  UNL d   1      -1.551   0.665  -5.396  0.00  0.00     0.150 A 
ATOM      5  C4  UNL d   1      -1.312  -0.039  -4.221  0.00  0.00    -0.007 A 
ATOM      6  C5  UNL d   1      -2.341  -0.774  -3.634  0.00  0.00     0.039 A 
ENDROOT
BRANCH   4   7
ATOM      7  O   UNL d   1      -0.517   1.375  -5.931  0.00  0.00    -0.526 OA
ATOM      8  H5  UNL d   1      -0.836   1.833  -6.726  0.00  0.00     0.418 HD
ENDBRANCH   4   7
TORSDOF 1
ENDMDL
