MODEL 1
REMARK minimizedAffinity 0.431617051
REMARK minimizedRMSD -1
REMARK  1 active torsions:
REMARK  status: ('A' for Active; 'I' for Inactive)
REMARK    1  A    between atoms: C3_4  and  O_7 
ROOT
ATOM      1  C   UNL d   1      -0.726  -2.768  -3.642  0.00  0.00    -0.033 A 
ATOM      2  C1  UNL d   1      -0.709  -2.752  -5.038  0.00  0.00     0.039 A 
ATOM      3  C2  UNL d   1      -0.426  -1.568  -5.721  0.00  0.00    -0.080 A 
ATOM      4  C3  UNL d   1      -0.161  -0.408  -4.997  0.00  0.00     0.150 A 
ATOM      5  C4  UNL d   1      -0.172  -0.418  -3.606  0.00  0.00    -0.007 A 
ATOM      6  C5  UNL d   1      -0.457  -1.602  -2.926  0.00  0.00     0.039 A 
ENDROOT
BRANCH   4   7
ATOM      7  O   UNL d   1       0.116   0.772  -5.619  0.00  0.00    -0.526 OA
ATOM      8  H5  UNL d   1       0.061   0.635  -6.580  0.00  0.00     0.418 HD
ENDBRANCH   4   7
TORSDOF 1
ENDMDL
