MODEL 1
REMARK minimizedAffinity 2.84449363
REMARK minimizedRMSD -1
REMARK  1 active torsions:
REMARK  status: ('A' for Active; 'I' for Inactive)
REMARK    1  A    between atoms: C3_4  and  O_7 
ROOT
ATOM      1  C   UNL d   1       0.687  -1.206  -5.279  0.00  0.00    -0.033 A 
ATOM      2  C1  UNL d   1       0.511  -0.024  -6.000  0.00  0.00     0.039 A 
ATOM      3  C2  UNL d   1      -0.728   0.619  -5.999  0.00  0.00    -0.080 A 
ATOM      4  C3  UNL d   1      -1.782   0.070  -5.273  0.00  0.00     0.150 A 
ATOM      5  C4  UNL d   1      -1.613  -1.106  -4.549  0.00  0.00    -0.007 A 
ATOM      6  C5  UNL d   1      -0.374  -1.747  -4.553  0.00  0.00     0.039 A 
ENDROOT
BRANCH   4   7
ATOM      7  O   UNL d   1      -3.011   0.658  -5.246  0.00  0.00    -0.526 OA
ATOM      8  H5  UNL d   1      -2.988   1.446  -5.814  0.00  0.00     0.418 HD
ENDBRANCH   4   7
TORSDOF 1
ENDMDL
