MODEL 1
REMARK minimizedAffinity 9.92339039
REMARK minimizedRMSD -1
REMARK  1 active torsions:
REMARK  status: ('A' for Active; 'I' for Inactive)
REMARK    1  A    between atoms: N_2  and  C1_3 
ROOT
ATOM      1  C1  UNL d   1       1.607   0.367   1.666  0.00  0.00     0.143 A 
ATOM      2  C2  UNL d   1       0.272   0.233   1.268  0.00  0.00    -0.057 A 
ATOM      3  C3  UNL d   1      -0.249  -1.008   0.883  0.00  0.00     0.033 A 
ATOM      4  C4  UNL d   1       0.566  -2.135   0.861  0.00  0.00    -0.042 A 
ATOM      5  C5  UNL d   1       1.902  -2.020   1.228  0.00  0.00     0.033 A 
ATOM      6  C6  UNL d   1       2.415  -0.779   1.619  0.00  0.00    -0.057 A 
ENDROOT
BRANCH   1   7
ATOM      7  N   UNL d   1       2.209   1.592   1.966  0.00  0.00    -0.732 N 
ATOM      8  C   UNL d   1       1.858   2.311   3.171  0.00  0.00     0.284 C 
ATOM      9  H3  UNL d   1       3.204   1.597   1.753  0.00  0.00     0.395 HD
ENDBRANCH   1   7
TORSDOF 1
ENDMDL
