MODEL 1
REMARK minimizedAffinity 10.2865973
REMARK minimizedRMSD -1
REMARK  1 active torsions:
REMARK  status: ('A' for Active; 'I' for Inactive)
REMARK    1  A    between atoms: N_2  and  C1_3 
ROOT
ATOM      1  C1  UNL d   1       0.053  -5.669  -1.506  0.00  0.00     0.143 A 
ATOM      2  C2  UNL d   1       0.699  -5.858  -0.280  0.00  0.00    -0.057 A 
ATOM      3  C3  UNL d   1       2.091  -5.997  -0.206  0.00  0.00     0.033 A 
ATOM      4  C4  UNL d   1       2.860  -5.977  -1.365  0.00  0.00    -0.042 A 
ATOM      5  C5  UNL d   1       2.236  -5.815  -2.597  0.00  0.00     0.033 A 
ATOM      6  C6  UNL d   1       0.847  -5.671  -2.664  0.00  0.00    -0.057 A 
ENDROOT
BRANCH   1   7
ATOM      7  N   UNL d   1      -1.335  -5.623  -1.655  0.00  0.00    -0.732 N 
ATOM      8  C   UNL d   1      -2.206  -5.909  -0.535  0.00  0.00     0.284 C 
ATOM      9  H3  UNL d   1      -1.639  -4.840  -2.229  0.00  0.00     0.395 HD
ENDBRANCH   1   7
TORSDOF 1
ENDMDL
