MODEL 1
REMARK minimizedAffinity 14.6210461
REMARK minimizedRMSD -1
REMARK  1 active torsions:
REMARK  status: ('A' for Active; 'I' for Inactive)
REMARK    1  A    between atoms: N_2  and  C1_3 
ROOT
ATOM      1  C1  UNL d   1       4.699  -0.383  -5.498  0.00  0.00     0.143 A 
ATOM      2  C2  UNL d   1       4.486  -1.765  -5.475  0.00  0.00    -0.057 A 
ATOM      3  C3  UNL d   1       3.348  -2.314  -4.872  0.00  0.00     0.033 A 
ATOM      4  C4  UNL d   1       2.415  -1.489  -4.253  0.00  0.00    -0.042 A 
ATOM      5  C5  UNL d   1       2.619  -0.114  -4.242  0.00  0.00     0.033 A 
ATOM      6  C6  UNL d   1       3.754   0.429  -4.852  0.00  0.00    -0.057 A 
ENDROOT
BRANCH   1   7
ATOM      7  N   UNL d   1       5.858   0.217  -5.996  0.00  0.00    -0.732 N 
ATOM      8  C   UNL d   1       6.000   1.657  -6.000  0.00  0.00     0.284 C 
ATOM      9  H3  UNL d   1       6.702  -0.283  -5.724  0.00  0.00     0.395 HD
ENDBRANCH   1   7
TORSDOF 1
ENDMDL
