MODEL 1
REMARK minimizedAffinity 10.0266685
REMARK minimizedRMSD -1
REMARK  1 active torsions:
REMARK  status: ('A' for Active; 'I' for Inactive)
REMARK    1  A    between atoms: N_2  and  C1_3 
ROOT
ATOM      1  C1  UNL d   1       5.448   0.439  -5.417  0.00  0.00     0.143 A 
ATOM      2  C2  UNL d   1       4.454   0.464  -4.433  0.00  0.00    -0.057 A 
ATOM      3  C3  UNL d   1       3.868  -0.717  -3.962  0.00  0.00     0.033 A 
ATOM      4  C4  UNL d   1       4.247  -1.947  -4.489  0.00  0.00    -0.042 A 
ATOM      5  C5  UNL d   1       5.216  -1.995  -5.485  0.00  0.00     0.033 A 
ATOM      6  C6  UNL d   1       5.802  -0.812  -5.947  0.00  0.00    -0.057 A 
ENDROOT
BRANCH   1   7
ATOM      7  N   UNL d   1       5.998   1.584  -5.997  0.00  0.00    -0.732 N 
ATOM      8  C   UNL d   1       5.600   2.901  -5.549  0.00  0.00     0.284 C 
ATOM      9  H3  UNL d   1       6.996   1.489  -6.174  0.00  0.00     0.395 HD
ENDBRANCH   1   7
TORSDOF 1
ENDMDL
