MODEL 1
REMARK minimizedAffinity 10.6881151
REMARK minimizedRMSD -1
REMARK  1 active torsions:
REMARK  status: ('A' for Active; 'I' for Inactive)
REMARK    1  A    between atoms: N_2  and  C1_3 
ROOT
ATOM      1  C1  UNL d   1      -2.819   2.416  -0.602  0.00  0.00     0.143 A 
ATOM      2  C2  UNL d   1      -1.839   2.030   0.319  0.00  0.00    -0.057 A 
ATOM      3  C3  UNL d   1      -1.913   2.416   1.663  0.00  0.00     0.033 A 
ATOM      4  C4  UNL d   1      -2.957   3.223   2.105  0.00  0.00    -0.042 A 
ATOM      5  C5  UNL d   1      -3.928   3.640   1.201  0.00  0.00     0.033 A 
ATOM      6  C6  UNL d   1      -3.852   3.246  -0.138  0.00  0.00    -0.057 A 
ENDROOT
BRANCH   1   7
ATOM      7  N   UNL d   1      -2.749   2.147  -1.971  0.00  0.00    -0.732 N 
ATOM      8  C   UNL d   1      -3.826   1.451  -2.641  0.00  0.00     0.284 C 
ATOM      9  H3  UNL d   1      -2.364   2.925  -2.501  0.00  0.00     0.395 HD
ENDBRANCH   1   7
TORSDOF 1
ENDMDL
