MODEL 1
REMARK minimizedAffinity 10.901741
REMARK minimizedRMSD -1
REMARK  1 active torsions:
REMARK  status: ('A' for Active; 'I' for Inactive)
REMARK    1  A    between atoms: N_2  and  C1_3 
ROOT
ATOM      1  C1  UNL d   1       1.816  -1.543   2.865  0.00  0.00     0.143 A 
ATOM      2  C2  UNL d   1       0.584  -1.687   2.217  0.00  0.00    -0.057 A 
ATOM      3  C3  UNL d   1       0.172  -0.781   1.233  0.00  0.00     0.033 A 
ATOM      4  C4  UNL d   1       0.974   0.306   0.899  0.00  0.00    -0.042 A 
ATOM      5  C5  UNL d   1       2.190   0.483   1.548  0.00  0.00     0.033 A 
ATOM      6  C6  UNL d   1       2.600  -0.430   2.526  0.00  0.00    -0.057 A 
ENDROOT
BRANCH   1   7
ATOM      7  N   UNL d   1       2.238  -2.355   3.921  0.00  0.00    -0.732 N 
ATOM      8  C   UNL d   1       1.588  -2.282   5.212  0.00  0.00     0.284 C 
ATOM      9  H3  UNL d   1       2.459  -3.301   3.619  0.00  0.00     0.395 HD
ENDBRANCH   1   7
TORSDOF 1
ENDMDL
