MODEL 1
REMARK minimizedAffinity 9.11445713
REMARK minimizedRMSD -1
REMARK  1 active torsions:
REMARK  status: ('A' for Active; 'I' for Inactive)
REMARK    1  A    between atoms: N_2  and  C1_3 
ROOT
ATOM      1  C1  UNL d   1       1.496  -0.544   1.896  0.00  0.00     0.143 A 
ATOM      2  C2  UNL d   1       1.260   0.791   2.240  0.00  0.00    -0.057 A 
ATOM      3  C3  UNL d   1       1.776   1.841   1.472  0.00  0.00     0.033 A 
ATOM      4  C4  UNL d   1       2.565   1.574   0.358  0.00  0.00    -0.042 A 
ATOM      5  C5  UNL d   1       2.834   0.255   0.011  0.00  0.00     0.033 A 
ATOM      6  C6  UNL d   1       2.310  -0.790   0.779  0.00  0.00    -0.057 A 
ENDROOT
BRANCH   1   7
ATOM      7  N   UNL d   1       1.093  -1.632   2.675  0.00  0.00    -0.732 N 
ATOM      8  C   UNL d   1       1.998  -2.226   3.635  0.00  0.00     0.284 C 
ATOM      9  H3  UNL d   1       0.137  -1.537   3.008  0.00  0.00     0.395 HD
ENDBRANCH   1   7
TORSDOF 1
ENDMDL
