MODEL 1
REMARK minimizedAffinity 1.65412486
REMARK minimizedRMSD -1
REMARK  1 active torsions:
REMARK  status: ('A' for Active; 'I' for Inactive)
REMARK    1  A    between atoms: N_2  and  C1_3 
ROOT
ATOM      1  C1  UNL d   1       5.554  -3.055  -4.832  0.00  0.00     0.143 A 
ATOM      2  C2  UNL d   1       5.907  -3.756  -5.990  0.00  0.00    -0.057 A 
ATOM      3  C3  UNL d   1       5.998  -5.153  -5.994  0.00  0.00     0.033 A 
ATOM      4  C4  UNL d   1       5.764  -5.874  -4.828  0.00  0.00    -0.042 A 
ATOM      5  C5  UNL d   1       5.436  -5.197  -3.659  0.00  0.00     0.033 A 
ATOM      6  C6  UNL d   1       5.341  -3.802  -3.663  0.00  0.00    -0.057 A 
ENDROOT
BRANCH   1   7
ATOM      7  N   UNL d   1       5.543  -1.661  -4.740  0.00  0.00    -0.732 N 
ATOM      8  C   UNL d   1       4.293  -0.939  -4.635  0.00  0.00     0.284 C 
ATOM      9  H3  UNL d   1       6.280  -1.306  -4.135  0.00  0.00     0.395 HD
ENDBRANCH   1   7
TORSDOF 1
ENDMDL
