MODEL 1
REMARK minimizedAffinity -2.38400722
REMARK minimizedRMSD -1
REMARK  1 active torsions:
REMARK  status: ('A' for Active; 'I' for Inactive)
REMARK    1  A    between atoms: C3_4  and  O_7 
ROOT
ATOM      1  C   UNL d   1      -0.598  -0.729   2.660  0.00  0.00    -0.033 A 
ATOM      2  C1  UNL d   1      -1.155  -0.265   1.467  0.00  0.00     0.039 A 
ATOM      3  C2  UNL d   1      -0.432  -0.355   0.276  0.00  0.00    -0.080 A 
ATOM      4  C3  UNL d   1       0.843  -0.912   0.291  0.00  0.00     0.150 A 
ATOM      5  C4  UNL d   1       1.403  -1.380   1.476  0.00  0.00    -0.007 A 
ATOM      6  C5  UNL d   1       0.680  -1.288   2.664  0.00  0.00     0.039 A 
ENDROOT
BRANCH   4   7
ATOM      7  O   UNL d   1       1.589  -1.018  -0.845  0.00  0.00    -0.526 OA
ATOM      8  H5  UNL d   1       1.086  -0.628  -1.580  0.00  0.00     0.418 HD
ENDBRANCH   4   7
TORSDOF 1
ENDMDL
