MODEL 1
REMARK minimizedAffinity -2.40570426
REMARK minimizedRMSD -1
REMARK  1 active torsions:
REMARK  status: ('A' for Active; 'I' for Inactive)
REMARK    1  A    between atoms: C3_4  and  O_7 
ROOT
ATOM      1  C   UNL d   1       0.124   0.281  -2.444  0.00  0.00    -0.033 A 
ATOM      2  C1  UNL d   1       0.368   1.145  -3.513  0.00  0.00     0.039 A 
ATOM      3  C2  UNL d   1      -0.355   2.333  -3.632  0.00  0.00    -0.080 A 
ATOM      4  C3  UNL d   1      -1.317   2.646  -2.676  0.00  0.00     0.150 A 
ATOM      5  C4  UNL d   1      -1.563   1.792  -1.606  0.00  0.00    -0.007 A 
ATOM      6  C5  UNL d   1      -0.840   0.605  -1.489  0.00  0.00     0.039 A 
ENDROOT
BRANCH   4   7
ATOM      7  O   UNL d   1      -2.051   3.792  -2.752  0.00  0.00    -0.526 OA
ATOM      8  H5  UNL d   1      -1.794   4.270  -3.558  0.00  0.00     0.418 HD
ENDBRANCH   4   7
TORSDOF 1
ENDMDL
