MODEL 1
REMARK minimizedAffinity -1.78518987
REMARK minimizedRMSD -1
REMARK  1 active torsions:
REMARK  status: ('A' for Active; 'I' for Inactive)
REMARK    1  A    between atoms: C3_4  and  O_7 
ROOT
ATOM      1  C   UNL d   1      -0.807   0.805  -0.160  0.00  0.00    -0.033 A 
ATOM      2  C1  UNL d   1       0.307  -0.031  -0.066  0.00  0.00     0.039 A 
ATOM      3  C2  UNL d   1       0.391  -0.973   0.962  0.00  0.00    -0.080 A 
ATOM      4  C3  UNL d   1      -0.646  -1.069   1.887  0.00  0.00     0.150 A 
ATOM      5  C4  UNL d   1      -1.761  -0.242   1.796  0.00  0.00    -0.007 A 
ATOM      6  C5  UNL d   1      -1.842   0.698   0.770  0.00  0.00     0.039 A 
ENDROOT
BRANCH   4   7
ATOM      7  O   UNL d   1      -0.607  -1.969   2.909  0.00  0.00    -0.526 OA
ATOM      8  H5  UNL d   1       0.235  -2.452   2.863  0.00  0.00     0.418 HD
ENDBRANCH   4   7
TORSDOF 1
ENDMDL
