MODEL 1
REMARK minimizedAffinity -4.63496685
REMARK minimizedRMSD -1
REMARK  1 active torsions:
REMARK  status: ('A' for Active; 'I' for Inactive)
REMARK    1  A    between atoms: C3_4  and  O_7 
ROOT
ATOM      1  C   UNL d   1      -1.156  -0.027   1.365  0.00  0.00    -0.033 A 
ATOM      2  C1  UNL d   1      -0.836   0.066   0.009  0.00  0.00     0.039 A 
ATOM      3  C2  UNL d   1       0.400  -0.390  -0.451  0.00  0.00    -0.080 A 
ATOM      4  C3  UNL d   1       1.306  -0.938   0.453  0.00  0.00     0.150 A 
ATOM      5  C4  UNL d   1       0.992  -1.038   1.805  0.00  0.00    -0.007 A 
ATOM      6  C5  UNL d   1      -0.243  -0.580   2.262  0.00  0.00     0.039 A 
ENDROOT
BRANCH   4   7
ATOM      7  O   UNL d   1       2.527  -1.393   0.052  0.00  0.00    -0.526 OA
ATOM      8  H5  UNL d   1       2.616  -1.234  -0.902  0.00  0.00     0.418 HD
ENDBRANCH   4   7
TORSDOF 1
ENDMDL
