MODEL 1
REMARK minimizedAffinity -4.09519863
REMARK minimizedRMSD -1
REMARK  1 active torsions:
REMARK  status: ('A' for Active; 'I' for Inactive)
REMARK    1  A    between atoms: C3_4  and  O_7 
ROOT
ATOM      1  C   UNL d   1      -1.595   0.705  -1.071  0.00  0.00    -0.033 A 
ATOM      2  C1  UNL d   1      -2.411   0.701   0.062  0.00  0.00     0.039 A 
ATOM      3  C2  UNL d   1      -1.915   0.233   1.280  0.00  0.00    -0.080 A 
ATOM      4  C3  UNL d   1      -0.603  -0.226   1.353  0.00  0.00     0.150 A 
ATOM      5  C4  UNL d   1       0.217  -0.222   0.229  0.00  0.00    -0.007 A 
ATOM      6  C5  UNL d   1      -0.281   0.245  -0.987  0.00  0.00     0.039 A 
ENDROOT
BRANCH   4   7
ATOM      7  O   UNL d   1      -0.077  -0.697   2.519  0.00  0.00    -0.526 OA
ATOM      8  H5  UNL d   1      -0.767  -0.666   3.203  0.00  0.00     0.418 HD
ENDBRANCH   4   7
TORSDOF 1
ENDMDL
