MODEL 1
REMARK minimizedAffinity -2.75991035
REMARK minimizedRMSD -1
REMARK  1 active torsions:
REMARK  status: ('A' for Active; 'I' for Inactive)
REMARK    1  A    between atoms: C3_4  and  O_7 
ROOT
ATOM      1  C   UNL d   1       0.903  -1.722   1.860  0.00  0.00    -0.033 A 
ATOM      2  C1  UNL d   1       1.453  -1.777   0.578  0.00  0.00     0.039 A 
ATOM      3  C2  UNL d   1       0.862  -1.066  -0.469  0.00  0.00    -0.080 A 
ATOM      4  C3  UNL d   1      -0.276  -0.305  -0.220  0.00  0.00     0.150 A 
ATOM      5  C4  UNL d   1      -0.828  -0.242   1.055  0.00  0.00    -0.007 A 
ATOM      6  C5  UNL d   1      -0.237  -0.953   2.099  0.00  0.00     0.039 A 
ENDROOT
BRANCH   4   7
ATOM      7  O   UNL d   1      -0.891   0.402  -1.211  0.00  0.00    -0.526 OA
ATOM      8  H5  UNL d   1      -0.417   0.241  -2.044  0.00  0.00     0.418 HD
ENDBRANCH   4   7
TORSDOF 1
ENDMDL
