MODEL 1
REMARK minimizedAffinity -1.57335114
REMARK minimizedRMSD -1
REMARK  1 active torsions:
REMARK  status: ('A' for Active; 'I' for Inactive)
REMARK    1  A    between atoms: C3_4  and  O_7 
ROOT
ATOM      1  C   UNL d   1      -1.446   3.834  -2.842  0.00  0.00    -0.033 A 
ATOM      2  C1  UNL d   1      -0.170   3.312  -3.059  0.00  0.00     0.039 A 
ATOM      3  C2  UNL d   1       0.123   1.999  -2.685  0.00  0.00    -0.080 A 
ATOM      4  C3  UNL d   1      -0.869   1.220  -2.095  0.00  0.00     0.150 A 
ATOM      5  C4  UNL d   1      -2.144   1.732  -1.879  0.00  0.00    -0.007 A 
ATOM      6  C5  UNL d   1      -2.434   3.044  -2.253  0.00  0.00     0.039 A 
ENDROOT
BRANCH   4   7
ATOM      7  O   UNL d   1      -0.629  -0.066  -1.709  0.00  0.00    -0.526 OA
ATOM      8  H5  UNL d   1       0.301  -0.274  -1.894  0.00  0.00     0.418 HD
ENDBRANCH   4   7
TORSDOF 1
ENDMDL
