MODEL 1
REMARK minimizedAffinity -1.66327155
REMARK minimizedRMSD -1
REMARK  1 active torsions:
REMARK  status: ('A' for Active; 'I' for Inactive)
REMARK    1  A    between atoms: C3_4  and  O_7 
ROOT
ATOM      1  C   UNL d   1      -0.905  -0.013   2.042  0.00  0.00    -0.033 A 
ATOM      2  C1  UNL d   1      -0.098  -0.966   2.667  0.00  0.00     0.039 A 
ATOM      3  C2  UNL d   1       0.960  -1.553   1.970  0.00  0.00    -0.080 A 
ATOM      4  C3  UNL d   1       1.201  -1.178   0.651  0.00  0.00     0.150 A 
ATOM      5  C4  UNL d   1       0.404  -0.226   0.023  0.00  0.00    -0.007 A 
ATOM      6  C5  UNL d   1      -0.653   0.358   0.721  0.00  0.00     0.039 A 
ENDROOT
BRANCH   4   7
ATOM      7  O   UNL d   1       2.218  -1.727  -0.071  0.00  0.00    -0.526 OA
ATOM      8  H5  UNL d   1       2.666  -2.389   0.482  0.00  0.00     0.418 HD
ENDBRANCH   4   7
TORSDOF 1
ENDMDL
