MODEL 1
REMARK minimizedAffinity -3.39222288
REMARK minimizedRMSD -1
REMARK  1 active torsions:
REMARK  status: ('A' for Active; 'I' for Inactive)
REMARK    1  A    between atoms: C3_4  and  O_7 
ROOT
ATOM      1  C   UNL d   1      -0.393  -0.673   2.270  0.00  0.00    -0.033 A 
ATOM      2  C1  UNL d   1       0.446  -1.718   2.662  0.00  0.00     0.039 A 
ATOM      3  C2  UNL d   1       1.342  -2.277   1.749  0.00  0.00    -0.080 A 
ATOM      4  C3  UNL d   1       1.389  -1.782   0.448  0.00  0.00     0.150 A 
ATOM      5  C4  UNL d   1       0.559  -0.739   0.052  0.00  0.00    -0.007 A 
ATOM      6  C5  UNL d   1      -0.336  -0.183   0.965  0.00  0.00     0.039 A 
ENDROOT
BRANCH   4   7
ATOM      7  O   UNL d   1       2.244  -2.299  -0.480  0.00  0.00    -0.526 OA
ATOM      8  H5  UNL d   1       2.735  -3.031  -0.072  0.00  0.00     0.418 HD
ENDBRANCH   4   7
TORSDOF 1
ENDMDL
