MODEL 1
REMARK minimizedAffinity -3.70740438
REMARK minimizedRMSD -1
REMARK  0 active torsions:
REMARK  status: ('A' for Active; 'I' for Inactive)
ROOT
ATOM      1  C1  DEN d   1      -0.889  -1.467  -2.434  0.00  0.00     0.130 A 
ATOM      2  C2  DEN d   1      -0.441  -1.279  -1.056  0.00  0.00    -0.031 A 
ATOM      3  C3  DEN d   1       0.726  -0.375  -1.075  0.00  0.00     0.027 A 
ATOM      4  C4  DEN d   1       1.875   0.750  -3.092  0.00  0.00     0.027 A 
ATOM      5  C5  DEN d   1       1.859   0.882  -4.463  0.00  0.00    -0.003 A 
ATOM      6  C6  DEN d   1       0.955   0.219  -5.250  0.00  0.00     0.001 A 
ATOM      7  C7  DEN d   1       0.000  -0.572  -4.668  0.00  0.00     0.017 A 
ATOM      8  C8  DEN d   1       0.014  -0.715  -3.287  0.00  0.00    -0.094 A 
ATOM      9  C9  DEN d   1       0.928  -0.027  -2.508  0.00  0.00    -0.072 A 
ENDROOT
TORSDOF 0
ENDMDL
