MODEL 1
REMARK minimizedAffinity 3.31043887
REMARK minimizedRMSD -1
REMARK  0 active torsions:
REMARK  status: ('A' for Active; 'I' for Inactive)
ROOT
ATOM      1  C1  DEN d   1       1.595   0.034   2.739  0.00  0.00     0.130 A 
ATOM      2  C2  DEN d   1       2.466  -0.319   1.621  0.00  0.00    -0.031 A 
ATOM      3  C3  DEN d   1       1.634  -0.409   0.405  0.00  0.00     0.027 A 
ATOM      4  C4  DEN d   1      -0.904  -0.033   0.143  0.00  0.00     0.027 A 
ATOM      5  C5  DEN d   1      -2.068   0.273   0.813  0.00  0.00    -0.003 A 
ATOM      6  C6  DEN d   1      -2.098   0.486   2.166  0.00  0.00     0.001 A 
ATOM      7  C7  DEN d   1      -0.934   0.439   2.886  0.00  0.00     0.017 A 
ATOM      8  C8  DEN d   1       0.243   0.124   2.219  0.00  0.00    -0.094 A 
ATOM      9  C9  DEN d   1       0.254  -0.075   0.849  0.00  0.00    -0.072 A 
ENDROOT
TORSDOF 0
ENDMDL
