MODEL 1
REMARK minimizedAffinity -1.83079326
REMARK minimizedRMSD -1
REMARK  0 active torsions:
REMARK  status: ('A' for Active; 'I' for Inactive)
ROOT
ATOM      1  C1  DEN d   1      -2.495  -0.092   0.732  0.00  0.00     0.130 A 
ATOM      2  C2  DEN d   1      -2.227  -1.085  -0.304  0.00  0.00    -0.031 A 
ATOM      3  C3  DEN d   1      -0.763  -1.230  -0.429  0.00  0.00     0.027 A 
ATOM      4  C4  DEN d   1       1.105  -0.025   0.880  0.00  0.00     0.027 A 
ATOM      5  C5  DEN d   1       1.367   0.913   1.854  0.00  0.00    -0.003 A 
ATOM      6  C6  DEN d   1       0.370   1.601   2.493  0.00  0.00     0.001 A 
ATOM      7  C7  DEN d   1      -0.940   1.328   2.197  0.00  0.00     0.017 A 
ATOM      8  C8  DEN d   1      -1.212   0.389   1.211  0.00  0.00    -0.094 A 
ATOM      9  C9  DEN d   1      -0.190  -0.304   0.586  0.00  0.00    -0.072 A 
ENDROOT
TORSDOF 0
ENDMDL
