MODEL 1
REMARK minimizedAffinity -3.00781894
REMARK minimizedRMSD -1
REMARK  0 active torsions:
REMARK  status: ('A' for Active; 'I' for Inactive)
ROOT
ATOM      1  C1  DEN d   1      -1.365  -1.111  -0.345  0.00  0.00     0.130 A 
ATOM      2  C2  DEN d   1      -0.546  -0.930  -1.541  0.00  0.00    -0.031 A 
ATOM      3  C3  DEN d   1       0.522   0.038  -1.220  0.00  0.00     0.027 A 
ATOM      4  C4  DEN d   1       0.988   1.263   1.002  0.00  0.00     0.027 A 
ATOM      5  C5  DEN d   1       0.556   1.441   2.297  0.00  0.00    -0.003 A 
ATOM      6  C6  DEN d   1      -0.557   0.812   2.789  0.00  0.00     0.001 A 
ATOM      7  C7  DEN d   1      -1.251  -0.061   1.993  0.00  0.00     0.017 A 
ATOM      8  C8  DEN d   1      -0.826  -0.239   0.683  0.00  0.00    -0.094 A 
ATOM      9  C9  DEN d   1       0.309   0.397   0.208  0.00  0.00    -0.072 A 
ENDROOT
TORSDOF 0
ENDMDL
