MODEL 1
REMARK minimizedAffinity 1.44276738
REMARK minimizedRMSD -1
REMARK  0 active torsions:
REMARK  status: ('A' for Active; 'I' for Inactive)
ROOT
ATOM      1  C1  DEN d   1       0.203  -1.529  -0.804  0.00  0.00     0.130 A 
ATOM      2  C2  DEN d   1      -0.921  -0.769  -1.345  0.00  0.00    -0.031 A 
ATOM      3  C3  DEN d   1      -1.016   0.500  -0.597  0.00  0.00     0.027 A 
ATOM      4  C4  DEN d   1       0.462   1.360   1.334  0.00  0.00     0.027 A 
ATOM      5  C5  DEN d   1       1.533   1.061   2.147  0.00  0.00    -0.003 A 
ATOM      6  C6  DEN d   1       2.209  -0.127   2.056  0.00  0.00     0.001 A 
ATOM      7  C7  DEN d   1       1.849  -1.042   1.102  0.00  0.00     0.017 A 
ATOM      8  C8  DEN d   1       0.766  -0.751   0.284  0.00  0.00    -0.094 A 
ATOM      9  C9  DEN d   1       0.103   0.461   0.383  0.00  0.00    -0.072 A 
ENDROOT
TORSDOF 0
ENDMDL
