MODEL 1
REMARK minimizedAffinity 0.929100513
REMARK minimizedRMSD -1
REMARK  0 active torsions:
REMARK  status: ('A' for Active; 'I' for Inactive)
ROOT
ATOM      1  C1  DEN d   1       0.104   2.041   2.604  0.00  0.00     0.130 A 
ATOM      2  C2  DEN d   1      -0.974   1.665   3.514  0.00  0.00    -0.031 A 
ATOM      3  C3  DEN d   1      -1.646   0.473   2.957  0.00  0.00     0.027 A 
ATOM      4  C4  DEN d   1      -1.119  -0.821   0.789  0.00  0.00     0.027 A 
ATOM      5  C5  DEN d   1      -0.300  -0.872  -0.317  0.00  0.00    -0.003 A 
ATOM      6  C6  DEN d   1       0.680   0.057  -0.543  0.00  0.00     0.001 A 
ATOM      7  C7  DEN d   1       0.897   1.052   0.374  0.00  0.00     0.017 A 
ATOM      8  C8  DEN d   1       0.071   1.113   1.488  0.00  0.00    -0.094 A 
ATOM      9  C9  DEN d   1      -0.907   0.158   1.705  0.00  0.00    -0.072 A 
ENDROOT
TORSDOF 0
ENDMDL
