MODEL 1
REMARK minimizedAffinity -1.39000094
REMARK minimizedRMSD -1
REMARK  0 active torsions:
REMARK  status: ('A' for Active; 'I' for Inactive)
ROOT
ATOM      1  C   UNL d   1       2.075  -2.190   2.897  0.00  0.00    -0.002 A 
ATOM      2  C1  UNL d   1       0.725  -2.417   2.669  0.00  0.00     0.010 A 
ATOM      3  C2  UNL d   1       0.007  -1.604   1.790  0.00  0.00     0.041 A 
ATOM      4  C3  UNL d   1       0.675  -0.551   1.135  0.00  0.00    -0.075 A 
ATOM      5  S   UNL d   1      -0.001   0.572   0.015  0.00  0.00     0.015 SA
ATOM      6  C4  UNL d   1       1.486   1.379  -0.188  0.00  0.00     0.022 A 
ATOM      7  C5  UNL d   1       2.485   0.819   0.573  0.00  0.00     0.026 A 
ATOM      8  C6  UNL d   1       2.034  -0.303   1.348  0.00  0.00    -0.082 A 
ATOM      9  C7  UNL d   1       2.734  -1.144   2.246  0.00  0.00     0.045 A 
ENDROOT
TORSDOF 0
ENDMDL
