MODEL 1
REMARK minimizedAffinity -3.1687417
REMARK minimizedRMSD -1
REMARK  0 active torsions:
REMARK  status: ('A' for Active; 'I' for Inactive)
ROOT
ATOM      1  C   UNL d   1       2.972   0.373   1.334  0.00  0.00    -0.002 A 
ATOM      2  C1  UNL d   1       2.474   1.439   0.600  0.00  0.00     0.010 A 
ATOM      3  C2  UNL d   1       1.169   1.413   0.105  0.00  0.00     0.041 A 
ATOM      4  C3  UNL d   1       0.364   0.287   0.366  0.00  0.00    -0.075 A 
ATOM      5  S   UNL d   1      -1.266   0.034  -0.138  0.00  0.00     0.015 SA
ATOM      6  C4  UNL d   1      -1.339  -1.495   0.611  0.00  0.00     0.022 A 
ATOM      7  C5  UNL d   1      -0.158  -1.821   1.235  0.00  0.00     0.026 A 
ATOM      8  C6  UNL d   1       0.843  -0.799   1.104  0.00  0.00    -0.082 A 
ATOM      9  C7  UNL d   1       2.171  -0.743   1.591  0.00  0.00     0.045 A 
ENDROOT
TORSDOF 0
ENDMDL
