MODEL 1
REMARK minimizedAffinity 3.97522187
REMARK minimizedRMSD -1
REMARK  0 active torsions:
REMARK  status: ('A' for Active; 'I' for Inactive)
ROOT
ATOM      1  C   UNL d   1       1.630  -2.313   3.324  0.00  0.00    -0.002 A 
ATOM      2  C1  UNL d   1       0.490  -2.655   2.611  0.00  0.00     0.010 A 
ATOM      3  C2  UNL d   1       0.043  -1.854   1.558  0.00  0.00     0.041 A 
ATOM      4  C3  UNL d   1       0.770  -0.693   1.230  0.00  0.00    -0.075 A 
ATOM      5  S   UNL d   1       0.412   0.439  -0.021  0.00  0.00     0.015 SA
ATOM      6  C4  UNL d   1       1.765   1.402   0.361  0.00  0.00     0.022 A 
ATOM      7  C5  UNL d   1       2.483   0.888   1.415  0.00  0.00     0.026 A 
ATOM      8  C6  UNL d   1       1.922  -0.328   1.932  0.00  0.00    -0.082 A 
ATOM      9  C7  UNL d   1       2.349  -1.160   2.995  0.00  0.00     0.045 A 
ENDROOT
TORSDOF 0
ENDMDL
