MODEL 1
REMARK minimizedAffinity -2.65726686
REMARK minimizedRMSD -1
REMARK  0 active torsions:
REMARK  status: ('A' for Active; 'I' for Inactive)
ROOT
ATOM      1  C   UNL d   1       2.533  -1.292   2.766  0.00  0.00    -0.002 A 
ATOM      2  C1  UNL d   1       1.563  -2.284   2.719  0.00  0.00     0.010 A 
ATOM      3  C2  UNL d   1       0.488  -2.185   1.833  0.00  0.00     0.041 A 
ATOM      4  C3  UNL d   1       0.405  -1.063   0.985  0.00  0.00    -0.075 A 
ATOM      5  S   UNL d   1      -0.821  -0.730  -0.181  0.00  0.00     0.015 SA
ATOM      6  C4  UNL d   1      -0.086   0.736  -0.645  0.00  0.00     0.022 A 
ATOM      7  C5  UNL d   1       1.067   0.981   0.063  0.00  0.00     0.026 A 
ATOM      8  C6  UNL d   1       1.369  -0.052   1.013  0.00  0.00    -0.082 A 
ATOM      9  C7  UNL d   1       2.446  -0.180   1.923  0.00  0.00     0.045 A 
ENDROOT
TORSDOF 0
ENDMDL
