MODEL 1
REMARK minimizedAffinity 0.557970107
REMARK minimizedRMSD -1
REMARK  0 active torsions:
REMARK  status: ('A' for Active; 'I' for Inactive)
ROOT
ATOM      1  C   UNL d   1       3.378   0.066   2.241  0.00  0.00    -0.002 A 
ATOM      2  C1  UNL d   1       2.857   1.118   1.501  0.00  0.00     0.010 A 
ATOM      3  C2  UNL d   1       1.593   1.017   0.917  0.00  0.00     0.041 A 
ATOM      4  C3  UNL d   1       0.853  -0.170   1.092  0.00  0.00    -0.075 A 
ATOM      5  S   UNL d   1      -0.716  -0.518   0.470  0.00  0.00     0.015 SA
ATOM      6  C4  UNL d   1      -0.732  -2.071   1.172  0.00  0.00     0.022 A 
ATOM      7  C5  UNL d   1       0.425  -2.334   1.867  0.00  0.00     0.026 A 
ATOM      8  C6  UNL d   1       1.357  -1.242   1.833  0.00  0.00    -0.082 A 
ATOM      9  C7  UNL d   1       2.642  -1.110   2.412  0.00  0.00     0.045 A 
ENDROOT
TORSDOF 0
ENDMDL
