MODEL 1
REMARK minimizedAffinity -1.42025065
REMARK minimizedRMSD -1
REMARK  0 active torsions:
REMARK  status: ('A' for Active; 'I' for Inactive)
ROOT
ATOM      1  C   UNL d   1       2.854   0.637   0.997  0.00  0.00    -0.002 A 
ATOM      2  C1  UNL d   1       2.430   1.494  -0.009  0.00  0.00     0.010 A 
ATOM      3  C2  UNL d   1       1.164   1.349  -0.578  0.00  0.00     0.041 A 
ATOM      4  C3  UNL d   1       0.321   0.320  -0.114  0.00  0.00    -0.075 A 
ATOM      5  S   UNL d   1      -1.272  -0.046  -0.662  0.00  0.00     0.015 SA
ATOM      6  C4  UNL d   1      -1.428  -1.348   0.426  0.00  0.00     0.022 A 
ATOM      7  C5  UNL d   1      -0.301  -1.514   1.197  0.00  0.00     0.026 A 
ATOM      8  C6  UNL d   1       0.725  -0.555   0.898  0.00  0.00    -0.082 A 
ATOM      9  C7  UNL d   1       2.016  -0.383   1.455  0.00  0.00     0.045 A 
ENDROOT
TORSDOF 0
ENDMDL
