MODEL 1
REMARK minimizedAffinity 13.5464134
REMARK minimizedRMSD -1
REMARK  0 active torsions:
REMARK  status: ('A' for Active; 'I' for Inactive)
ROOT
ATOM      1  C1  DEN d   1       1.438   2.509   2.111  0.00  0.00     0.130 A 
ATOM      2  C2  DEN d   1       0.744   2.079   3.322  0.00  0.00    -0.031 A 
ATOM      3  C3  DEN d   1      -0.671   1.839   2.976  0.00  0.00     0.027 A 
ATOM      4  C4  DEN d   1      -1.849   2.084   0.695  0.00  0.00     0.027 A 
ATOM      5  C5  DEN d   1      -1.675   2.434  -0.626  0.00  0.00    -0.003 A 
ATOM      6  C6  DEN d   1      -0.470   2.862  -1.116  0.00  0.00     0.001 A 
ATOM      7  C7  DEN d   1       0.621   2.908  -0.288  0.00  0.00     0.017 A 
ATOM      8  C8  DEN d   1       0.452   2.565   1.046  0.00  0.00    -0.094 A 
ATOM      9  C9  DEN d   1      -0.772   2.123   1.519  0.00  0.00    -0.072 A 
ENDROOT
TORSDOF 0
ENDMDL
