MODEL 1
REMARK minimizedAffinity 16.260519
REMARK minimizedRMSD -1
REMARK  0 active torsions:
REMARK  status: ('A' for Active; 'I' for Inactive)
ROOT
ATOM      1  C1  DEN d   1      -5.146   4.963   1.629  0.00  0.00     0.130 A 
ATOM      2  C2  DEN d   1      -4.268   6.000   1.095  0.00  0.00    -0.031 A 
ATOM      3  C3  DEN d   1      -3.123   5.336   0.440  0.00  0.00     0.027 A 
ATOM      4  C4  DEN d   1      -2.630   2.816   0.198  0.00  0.00     0.027 A 
ATOM      5  C5  DEN d   1      -3.081   1.550   0.500  0.00  0.00    -0.003 A 
ATOM      6  C6  DEN d   1      -4.225   1.335   1.222  0.00  0.00     0.001 A 
ATOM      7  C7  DEN d   1      -4.981   2.402   1.629  0.00  0.00     0.017 A 
ATOM      8  C8  DEN d   1      -4.529   3.682   1.335  0.00  0.00    -0.094 A 
ATOM      9  C9  DEN d   1      -3.377   3.878   0.593  0.00  0.00    -0.072 A 
ENDROOT
TORSDOF 0
ENDMDL
