MODEL 1
REMARK minimizedAffinity 13.4238749
REMARK minimizedRMSD -1
REMARK  0 active torsions:
REMARK  status: ('A' for Active; 'I' for Inactive)
ROOT
ATOM      1  C1  DEN d   1      -4.852  -4.908   4.638  0.00  0.00     0.130 A 
ATOM      2  C2  DEN d   1      -5.993  -4.204   5.217  0.00  0.00    -0.031 A 
ATOM      3  C3  DEN d   1      -5.494  -2.960   5.837  0.00  0.00     0.027 A 
ATOM      4  C4  DEN d   1      -3.079  -2.059   5.952  0.00  0.00     0.027 A 
ATOM      5  C5  DEN d   1      -1.769  -2.314   5.612  0.00  0.00    -0.003 A 
ATOM      6  C6  DEN d   1      -1.393  -3.457   4.958  0.00  0.00     0.001 A 
ATOM      7  C7  DEN d   1      -2.344  -4.369   4.584  0.00  0.00     0.017 A 
ATOM      8  C8  DEN d   1      -3.667  -4.123   4.930  0.00  0.00    -0.094 A 
ATOM      9  C9  DEN d   1      -4.028  -2.956   5.580  0.00  0.00    -0.072 A 
ENDROOT
TORSDOF 0
ENDMDL
