MODEL 1
REMARK minimizedAffinity 0.251981974
REMARK minimizedRMSD -1
REMARK  0 active torsions:
REMARK  status: ('A' for Active; 'I' for Inactive)
ROOT
ATOM      1  C1  DEN d   1      -3.730   2.119  -4.200  0.00  0.00     0.130 A 
ATOM      2  C2  DEN d   1      -4.892   1.786  -5.019  0.00  0.00    -0.031 A 
ATOM      3  C3  DEN d   1      -5.209   2.957  -5.860  0.00  0.00     0.027 A 
ATOM      4  C4  DEN d   1      -4.018   5.242  -5.977  0.00  0.00     0.027 A 
ATOM      5  C5  DEN d   1      -2.988   5.998  -5.462  0.00  0.00    -0.003 A 
ATOM      6  C6  DEN d   1      -2.162   5.531  -4.474  0.00  0.00     0.001 A 
ATOM      7  C7  DEN d   1      -2.322   4.255  -4.002  0.00  0.00     0.017 A 
ATOM      8  C8  DEN d   1      -3.363   3.489  -4.511  0.00  0.00    -0.094 A 
ATOM      9  C9  DEN d   1      -4.180   3.975  -5.518  0.00  0.00    -0.072 A 
ENDROOT
TORSDOF 0
ENDMDL
