MODEL 1
REMARK minimizedAffinity 19.2057838
REMARK minimizedRMSD -1
REMARK  0 active torsions:
REMARK  status: ('A' for Active; 'I' for Inactive)
ROOT
ATOM      1  C1  DEN d   1      -3.717   2.812  -4.812  0.00  0.00     0.130 A 
ATOM      2  C2  DEN d   1      -3.147   2.065  -3.695  0.00  0.00    -0.031 A 
ATOM      3  C3  DEN d   1      -1.955   2.795  -3.219  0.00  0.00     0.027 A 
ATOM      4  C4  DEN d   1      -0.946   5.002  -4.095  0.00  0.00     0.027 A 
ATOM      5  C5  DEN d   1      -1.075   5.999  -5.036  0.00  0.00    -0.003 A 
ATOM      6  C6  DEN d   1      -2.065   5.987  -5.982  0.00  0.00     0.001 A 
ATOM      7  C7  DEN d   1      -2.994   4.979  -5.980  0.00  0.00     0.017 A 
ATOM      8  C8  DEN d   1      -2.866   3.966  -5.039  0.00  0.00    -0.094 A 
ATOM      9  C9  DEN d   1      -1.865   4.003  -4.083  0.00  0.00    -0.072 A 
ENDROOT
TORSDOF 0
ENDMDL
