MODEL 1
REMARK minimizedAffinity 7.62851095
REMARK minimizedRMSD -1
REMARK  0 active torsions:
REMARK  status: ('A' for Active; 'I' for Inactive)
ROOT
ATOM      1  C1  DEN d   1      -2.603  -2.266   5.992  0.00  0.00     0.130 A 
ATOM      2  C2  DEN d   1      -1.473  -2.652   5.151  0.00  0.00    -0.031 A 
ATOM      3  C3  DEN d   1      -1.960  -3.619   4.147  0.00  0.00     0.027 A 
ATOM      4  C4  DEN d   1      -4.343  -4.547   3.811  0.00  0.00     0.027 A 
ATOM      5  C5  DEN d   1      -5.635  -4.521   4.287  0.00  0.00    -0.003 A 
ATOM      6  C6  DEN d   1      -5.997  -3.775   5.377  0.00  0.00     0.001 A 
ATOM      7  C7  DEN d   1      -5.065  -2.987   6.000  0.00  0.00     0.017 A 
ATOM      8  C8  DEN d   1      -3.759  -3.013   5.530  0.00  0.00    -0.094 A 
ATOM      9  C9  DEN d   1      -3.416  -3.765   4.419  0.00  0.00    -0.072 A 
ENDROOT
TORSDOF 0
ENDMDL
