MODEL 1
REMARK minimizedAffinity -1.94271612
REMARK minimizedRMSD -1
REMARK  0 active torsions:
REMARK  status: ('A' for Active; 'I' for Inactive)
ROOT
ATOM      1  C1  DEN d   1      -4.172   1.740  -4.111  0.00  0.00     0.130 A 
ATOM      2  C2  DEN d   1      -5.204   1.610  -5.135  0.00  0.00    -0.031 A 
ATOM      3  C3  DEN d   1      -5.179   2.830  -5.966  0.00  0.00     0.027 A 
ATOM      4  C4  DEN d   1      -3.646   4.895  -5.770  0.00  0.00     0.027 A 
ATOM      5  C5  DEN d   1      -2.622   5.469  -5.049  0.00  0.00    -0.003 A 
ATOM      6  C6  DEN d   1      -2.071   4.860  -3.953  0.00  0.00     0.001 A 
ATOM      7  C7  DEN d   1      -2.510   3.619  -3.573  0.00  0.00     0.017 A 
ATOM      8  C8  DEN d   1      -3.547   3.038  -4.291  0.00  0.00    -0.094 A 
ATOM      9  C9  DEN d   1      -4.083   3.664  -5.403  0.00  0.00    -0.072 A 
ENDROOT
TORSDOF 0
ENDMDL
