MODEL 1
REMARK minimizedAffinity 2.40939474
REMARK minimizedRMSD -1
REMARK  0 active torsions:
REMARK  status: ('A' for Active; 'I' for Inactive)
ROOT
ATOM      1  C1  DEN d   1      -5.053   3.014  -5.981  0.00  0.00     0.130 A 
ATOM      2  C2  DEN d   1      -4.776   1.762  -5.282  0.00  0.00    -0.031 A 
ATOM      3  C3  DEN d   1      -3.579   1.964  -4.441  0.00  0.00     0.027 A 
ATOM      4  C4  DEN d   1      -2.138   4.084  -4.152  0.00  0.00     0.027 A 
ATOM      5  C5  DEN d   1      -1.974   5.392  -4.549  0.00  0.00    -0.003 A 
ATOM      6  C6  DEN d   1      -2.797   5.985  -5.470  0.00  0.00     0.001 A 
ATOM      7  C7  DEN d   1      -3.851   5.281  -5.990  0.00  0.00     0.017 A 
ATOM      8  C8  DEN d   1      -4.019   3.959  -5.600  0.00  0.00    -0.094 A 
ATOM      9  C9  DEN d   1      -3.183   3.381  -4.659  0.00  0.00    -0.072 A 
ENDROOT
TORSDOF 0
ENDMDL
