MODEL 1
REMARK minimizedAffinity 23.2672729
REMARK minimizedRMSD -1
REMARK  0 active torsions:
REMARK  status: ('A' for Active; 'I' for Inactive)
ROOT
ATOM      1  C1  DEN d   1       3.739  -2.612   0.407  0.00  0.00     0.130 A 
ATOM      2  C2  DEN d   1       2.849  -1.578   0.928  0.00  0.00    -0.031 A 
ATOM      3  C3  DEN d   1       1.508  -1.795   0.348  0.00  0.00     0.027 A 
ATOM      4  C4  DEN d   1       0.728  -3.625  -1.294  0.00  0.00     0.027 A 
ATOM      5  C5  DEN d   1       1.128  -4.720  -2.027  0.00  0.00    -0.003 A 
ATOM      6  C6  DEN d   1       2.423  -5.165  -2.027  0.00  0.00     0.001 A 
ATOM      7  C7  DEN d   1       3.356  -4.539  -1.243  0.00  0.00     0.017 A 
ATOM      8  C8  DEN d   1       2.962  -3.429  -0.507  0.00  0.00    -0.094 A 
ATOM      9  C9  DEN d   1       1.645  -3.002  -0.511  0.00  0.00    -0.072 A 
ENDROOT
TORSDOF 0
ENDMDL
