MODEL 1
REMARK minimizedAffinity 0.518937111
REMARK minimizedRMSD -1
REMARK  0 active torsions:
REMARK  status: ('A' for Active; 'I' for Inactive)
ROOT
ATOM      1  C1  DEN d   1       0.161   4.333   0.376  0.00  0.00     0.130 A 
ATOM      2  C2  DEN d   1       0.278   3.270   1.370  0.00  0.00    -0.031 A 
ATOM      3  C3  DEN d   1      -0.287   2.036   0.788  0.00  0.00     0.027 A 
ATOM      4  C4  DEN d   1      -1.322   1.669  -1.546  0.00  0.00     0.027 A 
ATOM      5  C5  DEN d   1      -1.652   2.279  -2.736  0.00  0.00    -0.003 A 
ATOM      6  C6  DEN d   1      -1.433   3.613  -2.958  0.00  0.00     0.001 A 
ATOM      7  C7  DEN d   1      -0.828   4.371  -1.991  0.00  0.00     0.017 A 
ATOM      8  C8  DEN d   1      -0.499   3.765  -0.786  0.00  0.00    -0.094 A 
ATOM      9  C9  DEN d   1      -0.717   2.413  -0.585  0.00  0.00    -0.072 A 
ENDROOT
TORSDOF 0
ENDMDL
