MODEL 1
REMARK minimizedAffinity 17.3254337
REMARK minimizedRMSD -1
REMARK  0 active torsions:
REMARK  status: ('A' for Active; 'I' for Inactive)
ROOT
ATOM      1  C1  DEN d   1      -2.360   2.140   1.488  0.00  0.00     0.130 A 
ATOM      2  C2  DEN d   1      -3.047   1.283   2.450  0.00  0.00    -0.031 A 
ATOM      3  C3  DEN d   1      -2.121   1.019   3.569  0.00  0.00     0.027 A 
ATOM      4  C4  DEN d   1       0.296   1.853   3.907  0.00  0.00     0.027 A 
ATOM      5  C5  DEN d   1       1.315   2.597   3.353  0.00  0.00    -0.003 A 
ATOM      6  C6  DEN d   1       1.193   3.208   2.133  0.00  0.00     0.001 A 
ATOM      7  C7  DEN d   1       0.010   3.123   1.447  0.00  0.00     0.017 A 
ATOM      8  C8  DEN d   1      -1.019   2.368   1.995  0.00  0.00    -0.094 A 
ATOM      9  C9  DEN d   1      -0.880   1.768   3.235  0.00  0.00    -0.072 A 
ENDROOT
TORSDOF 0
ENDMDL
