MODEL 1
REMARK minimizedAffinity 28.9566345
REMARK minimizedRMSD -1
REMARK  0 active torsions:
REMARK  status: ('A' for Active; 'I' for Inactive)
ROOT
ATOM      1  C1  DEN d   1      -2.921   4.637  -2.015  0.00  0.00     0.130 A 
ATOM      2  C2  DEN d   1      -3.841   4.290  -3.095  0.00  0.00    -0.031 A 
ATOM      3  C3  DEN d   1      -5.213   4.590  -2.641  0.00  0.00     0.027 A 
ATOM      4  C4  DEN d   1      -6.000   5.556  -0.382  0.00  0.00     0.027 A 
ATOM      5  C5  DEN d   1      -5.586   5.997   0.855  0.00  0.00    -0.003 A 
ATOM      6  C6  DEN d   1      -4.269   5.984   1.232  0.00  0.00     0.001 A 
ATOM      7  C7  DEN d   1      -3.314   5.563   0.346  0.00  0.00     0.017 A 
ATOM      8  C8  DEN d   1      -3.724   5.110  -0.901  0.00  0.00    -0.094 A 
ATOM      9  C9  DEN d   1      -5.059   5.142  -1.268  0.00  0.00    -0.072 A 
ENDROOT
TORSDOF 0
ENDMDL
