MODEL 1
REMARK minimizedAffinity 2.4597013
REMARK minimizedRMSD -1
REMARK  0 active torsions:
REMARK  status: ('A' for Active; 'I' for Inactive)
ROOT
ATOM      1  C1  DEN d   1      -5.982  -3.817   3.700  0.00  0.00     0.130 A 
ATOM      2  C2  DEN d   1      -5.987  -5.268   3.870  0.00  0.00    -0.031 A 
ATOM      3  C3  DEN d   1      -5.972  -5.884   2.528  0.00  0.00     0.027 A 
ATOM      4  C4  DEN d   1      -5.937  -4.740   0.217  0.00  0.00     0.027 A 
ATOM      5  C5  DEN d   1      -5.938  -3.527  -0.435  0.00  0.00    -0.003 A 
ATOM      6  C6  DEN d   1      -5.987  -2.336   0.239  0.00  0.00     0.001 A 
ATOM      7  C7  DEN d   1      -5.992  -2.331   1.609  0.00  0.00     0.017 A 
ATOM      8  C8  DEN d   1      -5.999  -3.550   2.273  0.00  0.00    -0.094 A 
ATOM      9  C9  DEN d   1      -5.937  -4.744   1.574  0.00  0.00    -0.072 A 
ENDROOT
TORSDOF 0
ENDMDL
