MODEL 1
REMARK minimizedAffinity 18.6180305
REMARK minimizedRMSD -1
REMARK  0 active torsions:
REMARK  status: ('A' for Active; 'I' for Inactive)
ROOT
ATOM      1  C1  DEN d   1      -2.396   1.637  -2.258  0.00  0.00     0.130 A 
ATOM      2  C2  DEN d   1      -1.904   2.141  -3.537  0.00  0.00    -0.031 A 
ATOM      3  C3  DEN d   1      -0.572   2.737  -3.311  0.00  0.00     0.027 A 
ATOM      4  C4  DEN d   1       0.771   2.924  -1.117  0.00  0.00     0.027 A 
ATOM      5  C5  DEN d   1       0.760   2.650   0.233  0.00  0.00    -0.003 A 
ATOM      6  C6  DEN d   1      -0.310   2.055   0.848  0.00  0.00     0.001 A 
ATOM      7  C7  DEN d   1      -1.395   1.673   0.104  0.00  0.00     0.017 A 
ATOM      8  C8  DEN d   1      -1.394   1.952  -1.256  0.00  0.00    -0.094 A 
ATOM      9  C9  DEN d   1      -0.298   2.544  -1.862  0.00  0.00    -0.072 A 
ENDROOT
TORSDOF 0
ENDMDL
