MODEL 1
REMARK minimizedAffinity 9.73940754
REMARK minimizedRMSD -1
REMARK  0 active torsions:
REMARK  status: ('A' for Active; 'I' for Inactive)
ROOT
ATOM      1  C1  DEN d   1      -5.937  -3.574   3.723  0.00  0.00     0.130 A 
ATOM      2  C2  DEN d   1      -5.970  -5.033   3.673  0.00  0.00    -0.031 A 
ATOM      3  C3  DEN d   1      -5.998  -5.440   2.253  0.00  0.00     0.027 A 
ATOM      4  C4  DEN d   1      -5.988  -3.962   0.140  0.00  0.00     0.027 A 
ATOM      5  C5  DEN d   1      -5.976  -2.664  -0.322  0.00  0.00    -0.003 A 
ATOM      6  C6  DEN d   1      -5.985  -1.587   0.525  0.00  0.00     0.001 A 
ATOM      7  C7  DEN d   1      -5.960  -1.789   1.879  0.00  0.00     0.017 A 
ATOM      8  C8  DEN d   1      -5.980  -3.094   2.353  0.00  0.00    -0.094 A 
ATOM      9  C9  DEN d   1      -5.958  -4.170   1.481  0.00  0.00    -0.072 A 
ENDROOT
TORSDOF 0
ENDMDL
