MODEL 1
REMARK minimizedAffinity -3.0266819
REMARK minimizedRMSD -1
REMARK  1 active torsions:
REMARK  status: ('A' for Active; 'I' for Inactive)
REMARK    1  A    between atoms: C1_2  and  C2_3 
ROOT
ATOM      1  C2  UNL d   1      -0.277  -0.540  -0.270  0.00  0.00    -0.073 A 
ATOM      2  C3  UNL d   1       0.455   0.651  -0.343  0.00  0.00    -0.002 A 
ATOM      3  C4  UNL d   1      -0.150   1.870  -0.032  0.00  0.00     0.004 A 
ATOM      4  C5  UNL d   1      -1.487   1.910   0.360  0.00  0.00    -0.004 A 
ATOM      5  C6  UNL d   1      -2.232   0.730   0.450  0.00  0.00    -0.075 A 
ATOM      6  C7  UNL d   1      -3.673   0.756   0.869  0.00  0.00     0.076 C 
ATOM      7  C8  UNL d   1      -1.619  -0.490   0.134  0.00  0.00     0.001 A 
ENDROOT
BRANCH   1   8
ATOM      8  C1  UNL d   1       0.373  -1.859  -0.598  0.00  0.00     0.053 C 
ATOM      9  C   UNL d   1       1.873  -1.832  -0.354  0.00  0.00     0.018 C 
ENDBRANCH   1   8
TORSDOF 1
ENDMDL
