MODEL 1
REMARK minimizedAffinity -0.966072917
REMARK minimizedRMSD -1
REMARK  1 active torsions:
REMARK  status: ('A' for Active; 'I' for Inactive)
REMARK    1  A    between atoms: C1_2  and  C2_3 
ROOT
ATOM      1  C2  UNL d   1      -1.565   0.081   0.883  0.00  0.00    -0.073 A 
ATOM      2  C3  UNL d   1      -0.829   1.169   0.400  0.00  0.00    -0.002 A 
ATOM      3  C4  UNL d   1       0.290   0.961  -0.408  0.00  0.00     0.004 A 
ATOM      4  C5  UNL d   1       0.680  -0.334  -0.747  0.00  0.00    -0.004 A 
ATOM      5  C6  UNL d   1      -0.050  -1.434  -0.284  0.00  0.00    -0.075 A 
ATOM      6  C7  UNL d   1       0.358  -2.834  -0.638  0.00  0.00     0.076 C 
ATOM      7  C8  UNL d   1      -1.170  -1.217   0.529  0.00  0.00     0.001 A 
ENDROOT
BRANCH   1   8
ATOM      8  C1  UNL d   1      -2.777   0.301   1.750  0.00  0.00     0.053 C 
ATOM      9  C   UNL d   1      -4.046   0.457   0.927  0.00  0.00     0.018 C 
ENDBRANCH   1   8
TORSDOF 1
ENDMDL
