MODEL 1
REMARK minimizedAffinity 1.57706892
REMARK minimizedRMSD -1
REMARK  1 active torsions:
REMARK  status: ('A' for Active; 'I' for Inactive)
REMARK    1  A    between atoms: C1_2  and  C2_3 
ROOT
ATOM      1  C2  UNL d   1      -1.716  -0.063  -0.373  0.00  0.00    -0.073 A 
ATOM      2  C3  UNL d   1      -1.158  -1.333  -0.559  0.00  0.00    -0.002 A 
ATOM      3  C4  UNL d   1       0.225  -1.510  -0.504  0.00  0.00     0.004 A 
ATOM      4  C5  UNL d   1       1.063  -0.422  -0.257  0.00  0.00    -0.004 A 
ATOM      5  C6  UNL d   1       0.523   0.853  -0.058  0.00  0.00    -0.075 A 
ATOM      6  C7  UNL d   1       1.410   2.034   0.207  0.00  0.00     0.076 C 
ATOM      7  C8  UNL d   1      -0.867   1.023  -0.117  0.00  0.00     0.001 A 
ENDROOT
BRANCH   1   8
ATOM      8  C1  UNL d   1      -3.209   0.131  -0.425  0.00  0.00     0.053 C 
ATOM      9  C   UNL d   1      -3.826   0.185   0.964  0.00  0.00     0.018 C 
ENDBRANCH   1   8
TORSDOF 1
ENDMDL
