MODEL 1
REMARK minimizedAffinity -5.72449732
REMARK minimizedRMSD -1
REMARK  1 active torsions:
REMARK  status: ('A' for Active; 'I' for Inactive)
REMARK    1  A    between atoms: C1_2  and  C2_3 
ROOT
ATOM      1  C2  UNL d   1      -0.377   0.811  -0.259  0.00  0.00    -0.073 A 
ATOM      2  C3  UNL d   1       0.244   2.055  -0.104  0.00  0.00    -0.002 A 
ATOM      3  C4  UNL d   1       1.539   2.138   0.411  0.00  0.00     0.004 A 
ATOM      4  C5  UNL d   1       2.227   0.978   0.768  0.00  0.00    -0.004 A 
ATOM      5  C6  UNL d   1       1.628  -0.275   0.609  0.00  0.00    -0.075 A 
ATOM      6  C7  UNL d   1       2.354  -1.532   0.991  0.00  0.00     0.076 C 
ATOM      7  C8  UNL d   1       0.326  -0.349   0.095  0.00  0.00     0.001 A 
ENDROOT
BRANCH   1   8
ATOM      8  C1  UNL d   1      -1.773   0.717  -0.819  0.00  0.00     0.053 C 
ATOM      9  C   UNL d   1      -2.816   0.546   0.273  0.00  0.00     0.018 C 
ENDBRANCH   1   8
TORSDOF 1
ENDMDL
