MODEL 1
REMARK minimizedAffinity -3.26926947
REMARK minimizedRMSD -1
REMARK  0 active torsions:
REMARK  status: ('A' for Active; 'I' for Inactive)
ROOT
ATOM      1  N1  IND d   1       2.361   1.138   0.713  0.00  0.00    -0.196 N 
ATOM      2  C2  IND d   1       2.779  -0.163   0.668  0.00  0.00     0.054 A 
ATOM      3  C3  IND d   1       1.733  -0.985   0.427  0.00  0.00    -0.031 A 
ATOM      4  C4  IND d   1      -0.734  -0.404  -0.026  0.00  0.00     0.051 A 
ATOM      5  C5  IND d   1      -1.605   0.649  -0.054  0.00  0.00    -0.031 A 
ATOM      6  C6  IND d   1      -1.190   1.945   0.175  0.00  0.00     0.015 A 
ATOM      7  C7  IND d   1       0.120   2.239   0.429  0.00  0.00    -0.016 A 
ATOM      8  C8  IND d   1       1.006   1.172   0.465  0.00  0.00    -0.047 A 
ATOM      9  C9  IND d   1       0.583  -0.150   0.276  0.00  0.00    -0.096 A 
ATOM     10  HN1 IND d   1       2.860   1.820   0.870  0.00  0.00     0.298 HD
ENDROOT
TORSDOF 0
ENDMDL
