MODEL 1
REMARK minimizedAffinity -5.60709286
REMARK minimizedRMSD -1
REMARK  0 active torsions:
REMARK  status: ('A' for Active; 'I' for Inactive)
ROOT
ATOM      1  N1  IND d   1       1.111   1.239  -1.242  0.00  0.00    -0.196 N 
ATOM      2  C2  IND d   1       0.583   0.248  -2.021  0.00  0.00     0.054 A 
ATOM      3  C3  IND d   1       0.822  -0.963  -1.469  0.00  0.00    -0.031 A 
ATOM      4  C4  IND d   1       1.972  -1.546   0.759  0.00  0.00     0.051 A 
ATOM      5  C5  IND d   1       2.651  -0.979   1.802  0.00  0.00    -0.031 A 
ATOM      6  C6  IND d   1       2.853   0.383   1.886  0.00  0.00     0.015 A 
ATOM      7  C7  IND d   1       2.372   1.235   0.932  0.00  0.00    -0.016 A 
ATOM      8  C8  IND d   1       1.688   0.663  -0.131  0.00  0.00    -0.047 A 
ATOM      9  C9  IND d   1       1.517  -0.723  -0.244  0.00  0.00    -0.096 A 
ATOM     10  HN1 IND d   1       1.088   2.081  -1.416  0.00  0.00     0.298 HD
ENDROOT
TORSDOF 0
ENDMDL
