MODEL 1
REMARK minimizedAffinity -2.89879203
REMARK minimizedRMSD -1
REMARK  0 active torsions:
REMARK  status: ('A' for Active; 'I' for Inactive)
ROOT
ATOM      1  N1  IND d   1      -2.757  -1.129  -1.919  0.00  0.00    -0.196 N 
ATOM      2  C2  IND d   1      -3.077  -0.142  -2.809  0.00  0.00     0.054 A 
ATOM      3  C3  IND d   1      -2.363   0.976  -2.549  0.00  0.00    -0.031 A 
ATOM      4  C4  IND d   1      -0.540   1.376  -0.776  0.00  0.00     0.051 A 
ATOM      5  C5  IND d   1       0.073   0.783   0.292  0.00  0.00    -0.031 A 
ATOM      6  C6  IND d   1      -0.230  -0.505   0.683  0.00  0.00     0.015 A 
ATOM      7  C7  IND d   1      -1.153  -1.255   0.011  0.00  0.00    -0.016 A 
ATOM      8  C8  IND d   1      -1.783  -0.653  -1.068  0.00  0.00    -0.047 A 
ATOM      9  C9  IND d   1      -1.511   0.669  -1.444  0.00  0.00    -0.096 A 
ATOM     10  HN1 IND d   1      -3.106  -1.915  -1.894  0.00  0.00     0.298 HD
ENDROOT
TORSDOF 0
ENDMDL
