MODEL 1
REMARK minimizedAffinity -3.81042767
REMARK minimizedRMSD -1
REMARK  0 active torsions:
REMARK  status: ('A' for Active; 'I' for Inactive)
ROOT
ATOM      1  N1  IND d   1      -0.517  -1.003   0.151  0.00  0.00    -0.196 N 
ATOM      2  C2  IND d   1      -1.507  -0.195  -0.336  0.00  0.00     0.054 A 
ATOM      3  C3  IND d   1      -1.052   1.069  -0.484  0.00  0.00    -0.031 A 
ATOM      4  C4  IND d   1       1.309   2.015  -0.086  0.00  0.00     0.051 A 
ATOM      5  C5  IND d   1       2.541   1.669   0.394  0.00  0.00    -0.031 A 
ATOM      6  C6  IND d   1       2.823   0.389   0.823  0.00  0.00     0.015 A 
ATOM      7  C7  IND d   1       1.883  -0.601   0.778  0.00  0.00    -0.016 A 
ATOM      8  C8  IND d   1       0.628  -0.252   0.298  0.00  0.00    -0.047 A 
ATOM      9  C9  IND d   1       0.324   1.056  -0.099  0.00  0.00    -0.096 A 
ATOM     10  HN1 IND d   1      -0.597  -1.839   0.334  0.00  0.00     0.298 HD
ENDROOT
TORSDOF 0
ENDMDL
