MODEL 1
REMARK minimizedAffinity -4.65500927
REMARK minimizedRMSD -1
REMARK  0 active torsions:
REMARK  status: ('A' for Active; 'I' for Inactive)
ROOT
ATOM      1  N1  IND d   1       0.019  -1.698  -0.385  0.00  0.00    -0.196 N 
ATOM      2  C2  IND d   1      -1.029  -0.888  -0.046  0.00  0.00     0.054 A 
ATOM      3  C3  IND d   1      -0.596   0.156   0.695  0.00  0.00    -0.031 A 
ATOM      4  C4  IND d   1       1.801   0.789   1.386  0.00  0.00     0.051 A 
ATOM      5  C5  IND d   1       3.090   0.336   1.342  0.00  0.00    -0.031 A 
ATOM      6  C6  IND d   1       3.428  -0.841   0.706  0.00  0.00     0.015 A 
ATOM      7  C7  IND d   1       2.487  -1.606   0.076  0.00  0.00    -0.016 A 
ATOM      8  C8  IND d   1       1.177  -1.152   0.124  0.00  0.00    -0.047 A 
ATOM      9  C9  IND d   1       0.821   0.019   0.805  0.00  0.00    -0.096 A 
ATOM     10  HN1 IND d   1      -0.036  -2.426  -0.840  0.00  0.00     0.298 HD
ENDROOT
TORSDOF 0
ENDMDL
