MODEL 1
REMARK minimizedAffinity 19.9244251
REMARK minimizedRMSD -1
REMARK  0 active torsions:
REMARK  status: ('A' for Active; 'I' for Inactive)
ROOT
ATOM      1  N1  IND d   1       0.791  -1.505   2.231  0.00  0.00    -0.196 N 
ATOM      2  C2  IND d   1      -0.300  -1.623   1.416  0.00  0.00     0.054 A 
ATOM      3  C3  IND d   1      -1.087  -0.529   1.523  0.00  0.00    -0.031 A 
ATOM      4  C4  IND d   1      -0.726   1.619   2.896  0.00  0.00     0.051 A 
ATOM      5  C5  IND d   1       0.108   2.176   3.824  0.00  0.00    -0.031 A 
ATOM      6  C6  IND d   1       1.237   1.523   4.275  0.00  0.00     0.015 A 
ATOM      7  C7  IND d   1       1.581   0.288   3.805  0.00  0.00    -0.016 A 
ATOM      8  C8  IND d   1       0.733  -0.285   2.868  0.00  0.00    -0.047 A 
ATOM      9  C9  IND d   1      -0.437   0.355   2.438  0.00  0.00    -0.096 A 
ATOM     10  HN1 IND d   1       1.410  -2.093   2.329  0.00  0.00     0.298 HD
ENDROOT
TORSDOF 0
ENDMDL
