MODEL 1
REMARK minimizedAffinity 16.2572479
REMARK minimizedRMSD -1
REMARK  0 active torsions:
REMARK  status: ('A' for Active; 'I' for Inactive)
ROOT
ATOM      1  N1  IND d   1       1.849  -1.092  -4.456  0.00  0.00    -0.196 N 
ATOM      2  C2  IND d   1       0.758  -0.327  -4.148  0.00  0.00     0.054 A 
ATOM      3  C3  IND d   1      -0.379  -0.965  -4.502  0.00  0.00    -0.031 A 
ATOM      4  C4  IND d   1      -0.691  -3.315  -5.508  0.00  0.00     0.051 A 
ATOM      5  C5  IND d   1       0.013  -4.378  -5.999  0.00  0.00    -0.031 A 
ATOM      6  C6  IND d   1       1.393  -4.402  -5.998  0.00  0.00     0.015 A 
ATOM      7  C7  IND d   1       2.123  -3.364  -5.494  0.00  0.00    -0.016 A 
ATOM      8  C8  IND d   1       1.412  -2.279  -5.001  0.00  0.00    -0.047 A 
ATOM      9  C9  IND d   1       0.012  -2.231  -5.038  0.00  0.00    -0.096 A 
ATOM     10  HN1 IND d   1       2.670  -0.869  -4.330  0.00  0.00     0.298 HD
ENDROOT
TORSDOF 0
ENDMDL
