MODEL 1
REMARK minimizedAffinity 7.54101849
REMARK minimizedRMSD -1
REMARK  0 active torsions:
REMARK  status: ('A' for Active; 'I' for Inactive)
ROOT
ATOM      1  N1  IND d   1      -0.524   2.166   3.417  0.00  0.00    -0.196 N 
ATOM      2  C2  IND d   1      -0.059   2.606   4.625  0.00  0.00     0.054 A 
ATOM      3  C3  IND d   1       0.564   1.602   5.283  0.00  0.00    -0.031 A 
ATOM      4  C4  IND d   1       1.025  -0.814   4.521  0.00  0.00     0.051 A 
ATOM      5  C5  IND d   1       0.761  -1.693   3.508  0.00  0.00    -0.031 A 
ATOM      6  C6  IND d   1       0.044  -1.322   2.390  0.00  0.00     0.015 A 
ATOM      7  C7  IND d   1      -0.430  -0.050   2.236  0.00  0.00    -0.016 A 
ATOM      8  C8  IND d   1      -0.170   0.844   3.266  0.00  0.00    -0.047 A 
ATOM      9  C9  IND d   1       0.522   0.462   4.423  0.00  0.00    -0.096 A 
ATOM     10  HN1 IND d   1      -0.964   2.637   2.848  0.00  0.00     0.298 HD
ENDROOT
TORSDOF 0
ENDMDL
