MODEL 1
REMARK minimizedAffinity 11.2032804
REMARK minimizedRMSD -1
REMARK  0 active torsions:
REMARK  status: ('A' for Active; 'I' for Inactive)
ROOT
ATOM      1  N1  IND d   1       0.490  -1.872   2.770  0.00  0.00    -0.196 N 
ATOM      2  C2  IND d   1       1.491  -1.073   3.246  0.00  0.00     0.054 A 
ATOM      3  C3  IND d   1       1.085   0.215   3.288  0.00  0.00    -0.031 A 
ATOM      4  C4  IND d   1      -1.213   1.225   2.720  0.00  0.00     0.051 A 
ATOM      5  C5  IND d   1      -2.438   0.897   2.208  0.00  0.00    -0.031 A 
ATOM      6  C6  IND d   1      -2.756  -0.398   1.853  0.00  0.00     0.015 A 
ATOM      7  C7  IND d   1      -1.862  -1.419   2.008  0.00  0.00    -0.016 A 
ATOM      8  C8  IND d   1      -0.615  -1.088   2.520  0.00  0.00    -0.047 A 
ATOM      9  C9  IND d   1      -0.272   0.231   2.842  0.00  0.00    -0.096 A 
ATOM     10  HN1 IND d   1       0.541  -2.722   2.646  0.00  0.00     0.298 HD
ENDROOT
TORSDOF 0
ENDMDL
