MODEL 1
REMARK minimizedAffinity 9.3550787
REMARK minimizedRMSD -1
REMARK  0 active torsions:
REMARK  status: ('A' for Active; 'I' for Inactive)
ROOT
ATOM      1  N1  IND d   1      -4.642   1.549  -0.124  0.00  0.00    -0.196 N 
ATOM      2  C2  IND d   1      -5.003   1.278  -1.414  0.00  0.00     0.054 A 
ATOM      3  C3  IND d   1      -4.610   0.031  -1.760  0.00  0.00    -0.031 A 
ATOM      4  C4  IND d   1      -3.453  -1.773  -0.335  0.00  0.00     0.051 A 
ATOM      5  C5  IND d   1      -2.890  -1.979   0.894  0.00  0.00    -0.031 A 
ATOM      6  C6  IND d   1      -2.885  -1.000   1.867  0.00  0.00     0.015 A 
ATOM      7  C7  IND d   1      -3.455   0.222   1.650  0.00  0.00    -0.016 A 
ATOM      8  C8  IND d   1      -4.021   0.437   0.401  0.00  0.00    -0.047 A 
ATOM      9  C9  IND d   1      -3.991  -0.538  -0.605  0.00  0.00    -0.096 A 
ATOM     10  HN1 IND d   1      -4.779   2.290   0.290  0.00  0.00     0.298 HD
ENDROOT
TORSDOF 0
ENDMDL
