MODEL 1
REMARK minimizedAffinity 18.4368343
REMARK minimizedRMSD -1
REMARK  0 active torsions:
REMARK  status: ('A' for Active; 'I' for Inactive)
ROOT
ATOM      1  N1  IND d   1      -2.484  -2.849   2.925  0.00  0.00    -0.196 N 
ATOM      2  C2  IND d   1      -3.512  -2.087   2.445  0.00  0.00     0.054 A 
ATOM      3  C3  IND d   1      -3.086  -0.830   2.189  0.00  0.00    -0.031 A 
ATOM      4  C4  IND d   1      -0.722   0.169   2.389  0.00  0.00     0.051 A 
ATOM      5  C5  IND d   1       0.541  -0.130   2.819  0.00  0.00    -0.031 A 
ATOM      6  C6  IND d   1       0.867  -1.376   3.313  0.00  0.00     0.015 A 
ATOM      7  C7  IND d   1      -0.059  -2.378   3.386  0.00  0.00    -0.016 A 
ATOM      8  C8  IND d   1      -1.344  -2.077   2.958  0.00  0.00    -0.047 A 
ATOM      9  C9  IND d   1      -1.691  -0.801   2.495  0.00  0.00    -0.096 A 
ATOM     10  HN1 IND d   1      -2.539  -3.673   3.167  0.00  0.00     0.298 HD
ENDROOT
TORSDOF 0
ENDMDL
