MODEL 1
REMARK minimizedAffinity 0.113151915
REMARK minimizedRMSD -1
REMARK  1 active torsions:
REMARK  status: ('A' for Active; 'I' for Inactive)
REMARK    1  A    between atoms: C1_2  and  C2_3 
ROOT
ATOM      1  C2  UNL d   1       4.976   1.125  -2.220  0.00  0.00    -0.077 A 
ATOM      2  C3  UNL d   1       3.865   0.381  -2.640  0.00  0.00     0.002 A 
ATOM      3  C4  UNL d   1       2.894  -0.018  -1.720  0.00  0.00     0.002 A 
ATOM      4  C5  UNL d   1       3.022   0.325  -0.376  0.00  0.00    -0.004 A 
ATOM      5  C6  UNL d   1       4.125   1.063   0.052  0.00  0.00     0.002 A 
ATOM      6  C7  UNL d   1       5.097   1.462  -0.866  0.00  0.00     0.002 A 
ENDROOT
BRANCH   1   7
ATOM      7  C1  UNL d   1       5.999   1.599  -3.219  0.00  0.00     0.055 C 
ATOM      8  C   UNL d   1       5.999   3.116  -3.335  0.00  0.00     0.019 C 
ENDBRANCH   1   7
TORSDOF 1
ENDMDL
