MODEL 1
REMARK minimizedAffinity -0.842129827
REMARK minimizedRMSD -1
REMARK  1 active torsions:
REMARK  status: ('A' for Active; 'I' for Inactive)
REMARK    1  A    between atoms: C1_2  and  C2_3 
ROOT
ATOM      1  C2  UNL d   1       4.776   1.939  -1.910  0.00  0.00    -0.077 A 
ATOM      2  C3  UNL d   1       3.703   1.129  -2.309  0.00  0.00     0.002 A 
ATOM      3  C4  UNL d   1       2.981   0.398  -1.364  0.00  0.00     0.002 A 
ATOM      4  C5  UNL d   1       3.320   0.472  -0.015  0.00  0.00    -0.004 A 
ATOM      5  C6  UNL d   1       4.386   1.273   0.392  0.00  0.00     0.002 A 
ATOM      6  C7  UNL d   1       5.110   2.004  -0.551  0.00  0.00     0.002 A 
ENDROOT
BRANCH   1   7
ATOM      7  C1  UNL d   1       5.525   2.767  -2.921  0.00  0.00     0.055 C 
ATOM      8  C   UNL d   1       5.095   4.226  -2.870  0.00  0.00     0.019 C 
ENDBRANCH   1   7
TORSDOF 1
ENDMDL
