MODEL 1
REMARK minimizedAffinity 9.05716705
REMARK minimizedRMSD -1
REMARK  1 active torsions:
REMARK  status: ('A' for Active; 'I' for Inactive)
REMARK    1  A    between atoms: C1_2  and  C2_3 
ROOT
ATOM      1  C2  UNL d   1      -0.519   3.053   0.248  0.00  0.00    -0.077 A 
ATOM      2  C3  UNL d   1      -1.292   4.190  -0.025  0.00  0.00     0.002 A 
ATOM      3  C4  UNL d   1      -1.217   5.310   0.805  0.00  0.00     0.002 A 
ATOM      4  C5  UNL d   1      -0.368   5.306   1.910  0.00  0.00    -0.004 A 
ATOM      5  C6  UNL d   1       0.403   4.178   2.191  0.00  0.00     0.002 A 
ATOM      6  C7  UNL d   1       0.329   3.057   1.363  0.00  0.00     0.002 A 
ENDROOT
BRANCH   1   7
ATOM      7  C1  UNL d   1      -0.561   1.862  -0.674  0.00  0.00     0.055 C 
ATOM      8  C   UNL d   1      -1.979   1.332  -0.828  0.00  0.00     0.019 C 
ENDBRANCH   1   7
TORSDOF 1
ENDMDL
