MODEL 1
REMARK minimizedAffinity -4.86632776
REMARK minimizedRMSD -1
REMARK  1 active torsions:
REMARK  status: ('A' for Active; 'I' for Inactive)
REMARK    1  A    between atoms: C1_2  and  C2_3 
ROOT
ATOM      1  C2  UNL d   1      -3.704   0.838  -3.678  0.00  0.00    -0.077 A 
ATOM      2  C3  UNL d   1      -4.827   0.046  -3.398  0.00  0.00     0.002 A 
ATOM      3  C4  UNL d   1      -5.965   0.124  -4.203  0.00  0.00     0.002 A 
ATOM      4  C5  UNL d   1      -5.990   0.989  -5.295  0.00  0.00    -0.004 A 
ATOM      5  C6  UNL d   1      -4.879   1.782  -5.580  0.00  0.00     0.002 A 
ATOM      6  C7  UNL d   1      -3.741   1.706  -4.776  0.00  0.00     0.002 A 
ENDROOT
BRANCH   1   7
ATOM      7  C1  UNL d   1      -2.458   0.719  -2.840  0.00  0.00     0.055 C 
ATOM      8  C   UNL d   1      -2.231  -0.715  -2.385  0.00  0.00     0.019 C 
ENDBRANCH   1   7
TORSDOF 1
ENDMDL
