MODEL 1
REMARK minimizedAffinity 3.13006616
REMARK minimizedRMSD -1
REMARK  1 active torsions:
REMARK  status: ('A' for Active; 'I' for Inactive)
REMARK    1  A    between atoms: C1_2  and  C2_3 
ROOT
ATOM      1  C2  UNL d   1       1.724  -1.559  -2.676  0.00  0.00    -0.077 A 
ATOM      2  C3  UNL d   1       1.785  -0.742  -1.539  0.00  0.00     0.002 A 
ATOM      3  C4  UNL d   1       2.621   0.377  -1.516  0.00  0.00     0.002 A 
ATOM      4  C5  UNL d   1       3.398   0.690  -2.629  0.00  0.00    -0.004 A 
ATOM      5  C6  UNL d   1       3.345  -0.117  -3.765  0.00  0.00     0.002 A 
ATOM      6  C7  UNL d   1       2.512  -1.236  -3.789  0.00  0.00     0.002 A 
ENDROOT
BRANCH   1   7
ATOM      7  C1  UNL d   1       0.786  -2.737  -2.721  0.00  0.00     0.055 C 
ATOM      8  C   UNL d   1      -0.602  -2.359  -2.224  0.00  0.00     0.019 C 
ENDBRANCH   1   7
TORSDOF 1
ENDMDL
