MODEL 1
REMARK minimizedAffinity -1.22374296
REMARK minimizedRMSD -1
REMARK  0 active torsions:
REMARK  status: ('A' for Active; 'I' for Inactive)
ROOT
ATOM      1  C   UNL d   1       4.991  -4.456  -4.043  0.00  0.00     0.077 C 
ATOM      2  C1  UNL d   1       4.337  -4.133  -2.733  0.00  0.00    -0.074 A 
ATOM      3  C2  UNL d   1       4.599  -4.896  -1.591  0.00  0.00    -0.005 A 
ATOM      4  C3  UNL d   1       3.989  -4.577  -0.377  0.00  0.00     0.006 A 
ATOM      5  C4  UNL d   1       3.113  -3.494  -0.294  0.00  0.00    -0.005 A 
ATOM      6  C5  UNL d   1       2.840  -2.719  -1.425  0.00  0.00    -0.074 A 
ATOM      7  C6  UNL d   1       1.909  -1.546  -1.351  0.00  0.00     0.077 C 
ATOM      8  C7  UNL d   1       3.461  -3.042  -2.640  0.00  0.00    -0.001 A 
ENDROOT
TORSDOF 0
ENDMDL
