MODEL 1
REMARK minimizedAffinity 0.976771772
REMARK minimizedRMSD -1
REMARK  0 active torsions:
REMARK  status: ('A' for Active; 'I' for Inactive)
ROOT
ATOM      1  C   UNL d   1       3.384  -3.846   0.495  0.00  0.00     0.077 C 
ATOM      2  C1  UNL d   1       3.277  -3.875  -1.001  0.00  0.00    -0.074 A 
ATOM      3  C2  UNL d   1       2.218  -3.241  -1.658  0.00  0.00    -0.005 A 
ATOM      4  C3  UNL d   1       2.137  -3.269  -3.050  0.00  0.00     0.006 A 
ATOM      5  C4  UNL d   1       3.112  -3.930  -3.798  0.00  0.00    -0.005 A 
ATOM      6  C5  UNL d   1       4.179  -4.569  -3.158  0.00  0.00    -0.074 A 
ATOM      7  C6  UNL d   1       5.241  -5.275  -3.947  0.00  0.00     0.077 C 
ATOM      8  C7  UNL d   1       4.257  -4.531  -1.759  0.00  0.00    -0.001 A 
ENDROOT
TORSDOF 0
ENDMDL
