MODEL 1
REMARK minimizedAffinity 2.32774997
REMARK minimizedRMSD -1
REMARK  0 active torsions:
REMARK  status: ('A' for Active; 'I' for Inactive)
ROOT
ATOM      1  C   UNL d   1       3.379  -4.677   0.122  0.00  0.00     0.077 C 
ATOM      2  C1  UNL d   1       3.414  -4.452  -1.361  0.00  0.00    -0.074 A 
ATOM      3  C2  UNL d   1       2.248  -4.139  -2.068  0.00  0.00    -0.005 A 
ATOM      4  C3  UNL d   1       2.298  -3.923  -3.445  0.00  0.00     0.006 A 
ATOM      5  C4  UNL d   1       3.511  -4.019  -4.128  0.00  0.00    -0.005 A 
ATOM      6  C5  UNL d   1       4.686  -4.331  -3.438  0.00  0.00    -0.074 A 
ATOM      7  C6  UNL d   1       6.000  -4.428  -4.155  0.00  0.00     0.077 C 
ATOM      8  C7  UNL d   1       4.630  -4.539  -2.053  0.00  0.00    -0.001 A 
ENDROOT
TORSDOF 0
ENDMDL
