MODEL 1
REMARK minimizedAffinity 0.557487011
REMARK minimizedRMSD -1
REMARK  0 active torsions:
REMARK  status: ('A' for Active; 'I' for Inactive)
ROOT
ATOM      1  C   UNL d   1       3.829  -4.492  -4.253  0.00  0.00     0.077 C 
ATOM      2  C1  UNL d   1       3.447  -3.787  -2.985  0.00  0.00    -0.074 A 
ATOM      3  C2  UNL d   1       3.501  -4.446  -1.752  0.00  0.00    -0.005 A 
ATOM      4  C3  UNL d   1       3.152  -3.775  -0.580  0.00  0.00     0.006 A 
ATOM      5  C4  UNL d   1       2.746  -2.440  -0.629  0.00  0.00    -0.005 A 
ATOM      6  C5  UNL d   1       2.687  -1.765  -1.853  0.00  0.00    -0.074 A 
ATOM      7  C6  UNL d   1       2.263  -0.328  -1.922  0.00  0.00     0.077 C 
ATOM      8  C7  UNL d   1       3.046  -2.445  -3.025  0.00  0.00    -0.001 A 
ENDROOT
TORSDOF 0
ENDMDL
