MODEL 1
REMARK minimizedAffinity 4.77589846
REMARK minimizedRMSD -1
REMARK  0 active torsions:
REMARK  status: ('A' for Active; 'I' for Inactive)
ROOT
ATOM      1  C   UNL d   1       5.993  -4.649  -4.162  0.00  0.00     0.077 C 
ATOM      2  C1  UNL d   1       4.732  -4.206  -3.483  0.00  0.00    -0.074 A 
ATOM      3  C2  UNL d   1       3.614  -3.814  -4.228  0.00  0.00    -0.005 A 
ATOM      4  C3  UNL d   1       2.445  -3.413  -3.582  0.00  0.00     0.006 A 
ATOM      5  C4  UNL d   1       2.380  -3.399  -2.188  0.00  0.00    -0.005 A 
ATOM      6  C5  UNL d   1       3.487  -3.788  -1.427  0.00  0.00    -0.074 A 
ATOM      7  C6  UNL d   1       3.432  -3.789   0.072  0.00  0.00     0.077 C 
ATOM      8  C7  UNL d   1       4.657  -4.197  -2.083  0.00  0.00    -0.001 A 
ENDROOT
TORSDOF 0
ENDMDL
