MODEL 1
REMARK minimizedAffinity -5.03218031
REMARK minimizedRMSD -1
REMARK  0 active torsions:
REMARK  status: ('A' for Active; 'I' for Inactive)
ROOT
ATOM      1  C   UNL d   1       2.174  -0.667  -2.356  0.00  0.00     0.077 C 
ATOM      2  C1  UNL d   1       2.758  -1.993  -1.968  0.00  0.00    -0.074 A 
ATOM      3  C2  UNL d   1       3.058  -2.283  -0.633  0.00  0.00    -0.005 A 
ATOM      4  C3  UNL d   1       3.591  -3.524  -0.285  0.00  0.00     0.006 A 
ATOM      5  C4  UNL d   1       3.829  -4.487  -1.267  0.00  0.00    -0.005 A 
ATOM      6  C5  UNL d   1       3.534  -4.215  -2.607  0.00  0.00    -0.074 A 
ATOM      7  C6  UNL d   1       3.774  -5.242  -3.674  0.00  0.00     0.077 C 
ATOM      8  C7  UNL d   1       2.992  -2.968  -2.947  0.00  0.00    -0.001 A 
ENDROOT
TORSDOF 0
ENDMDL
