MODEL 1
REMARK minimizedAffinity -3.22751188
REMARK minimizedRMSD -1
REMARK  0 active torsions:
REMARK  status: ('A' for Active; 'I' for Inactive)
ROOT
ATOM      1  C   UNL d   1       4.123  -4.826   0.101  0.00  0.00     0.077 C 
ATOM      2  C1  UNL d   1       3.869  -4.311  -1.284  0.00  0.00    -0.074 A 
ATOM      3  C2  UNL d   1       4.407  -4.960  -2.401  0.00  0.00    -0.005 A 
ATOM      4  C3  UNL d   1       4.154  -4.475  -3.685  0.00  0.00     0.006 A 
ATOM      5  C4  UNL d   1       3.364  -3.339  -3.864  0.00  0.00    -0.005 A 
ATOM      6  C5  UNL d   1       2.817  -2.678  -2.759  0.00  0.00    -0.074 A 
ATOM      7  C6  UNL d   1       1.957  -1.462  -2.935  0.00  0.00     0.077 C 
ATOM      8  C7  UNL d   1       3.070  -3.176  -1.473  0.00  0.00    -0.001 A 
ENDROOT
TORSDOF 0
ENDMDL
