MODEL 1
REMARK minimizedAffinity 1.16789031
REMARK minimizedRMSD -1
REMARK  0 active torsions:
REMARK  status: ('A' for Active; 'I' for Inactive)
ROOT
ATOM      1  C   UNL d   1       2.107  -1.751  -1.081  0.00  0.00     0.077 C 
ATOM      2  C1  UNL d   1       2.923  -2.986  -1.326  0.00  0.00    -0.074 A 
ATOM      3  C2  UNL d   1       3.717  -3.535  -0.315  0.00  0.00    -0.005 A 
ATOM      4  C3  UNL d   1       4.463  -4.689  -0.554  0.00  0.00     0.006 A 
ATOM      5  C4  UNL d   1       4.423  -5.304  -1.806  0.00  0.00    -0.005 A 
ATOM      6  C5  UNL d   1       3.634  -4.770  -2.830  0.00  0.00    -0.074 A 
ATOM      7  C6  UNL d   1       3.571  -5.424  -4.178  0.00  0.00     0.077 C 
ATOM      8  C7  UNL d   1       2.881  -3.614  -2.579  0.00  0.00    -0.001 A 
ENDROOT
TORSDOF 0
ENDMDL
