MODEL 1
REMARK minimizedAffinity -1.66788363
REMARK minimizedRMSD -1
REMARK  0 active torsions:
REMARK  status: ('A' for Active; 'I' for Inactive)
ROOT
ATOM      1  C   UNL d   1       4.306  -4.982  -3.876  0.00  0.00     0.077 C 
ATOM      2  C1  UNL d   1       3.796  -4.184  -2.713  0.00  0.00    -0.074 A 
ATOM      3  C2  UNL d   1       4.311  -4.378  -1.427  0.00  0.00    -0.005 A 
ATOM      4  C3  UNL d   1       3.834  -3.621  -0.357  0.00  0.00     0.006 A 
ATOM      5  C4  UNL d   1       2.839  -2.665  -0.561  0.00  0.00    -0.005 A 
ATOM      6  C5  UNL d   1       2.312  -2.456  -1.840  0.00  0.00    -0.074 A 
ATOM      7  C6  UNL d   1       1.249  -1.426  -2.079  0.00  0.00     0.077 C 
ATOM      8  C7  UNL d   1       2.802  -3.216  -2.912  0.00  0.00    -0.001 A 
ENDROOT
TORSDOF 0
ENDMDL
