MODEL 1
REMARK minimizedAffinity -1.37480545
REMARK minimizedRMSD -1
REMARK  0 active torsions:
REMARK  status: ('A' for Active; 'I' for Inactive)
ROOT
ATOM      1  C   UNL d   1      -1.487  -2.830   3.265  0.00  0.00     0.077 C 
ATOM      2  C1  UNL d   1      -1.155  -1.698   4.191  0.00  0.00    -0.074 A 
ATOM      3  C2  UNL d   1      -0.147  -1.827   5.151  0.00  0.00    -0.005 A 
ATOM      4  C3  UNL d   1       0.157  -0.763   6.000  0.00  0.00     0.006 A 
ATOM      5  C4  UNL d   1      -0.543   0.440   5.896  0.00  0.00    -0.005 A 
ATOM      6  C5  UNL d   1      -1.554   0.588   4.942  0.00  0.00    -0.074 A 
ATOM      7  C6  UNL d   1      -2.309   1.877   4.811  0.00  0.00     0.077 C 
ATOM      8  C7  UNL d   1      -1.849  -0.484   4.088  0.00  0.00    -0.001 A 
ENDROOT
TORSDOF 0
ENDMDL
