MODEL 1
REMARK minimizedAffinity 7.48178291
REMARK minimizedRMSD -1
REMARK  0 active torsions:
REMARK  status: ('A' for Active; 'I' for Inactive)
ROOT
ATOM      1  C   UNL d   1      -1.062  -5.999  -1.832  0.00  0.00     0.077 C 
ATOM      2  C1  UNL d   1      -1.851  -4.942  -2.546  0.00  0.00    -0.074 A 
ATOM      3  C2  UNL d   1      -2.203  -3.750  -1.903  0.00  0.00    -0.005 A 
ATOM      4  C3  UNL d   1      -2.929  -2.773  -2.583  0.00  0.00     0.006 A 
ATOM      5  C4  UNL d   1      -3.310  -2.975  -3.910  0.00  0.00    -0.005 A 
ATOM      6  C5  UNL d   1      -2.966  -4.160  -4.569  0.00  0.00    -0.074 A 
ATOM      7  C6  UNL d   1      -3.359  -4.390  -5.998  0.00  0.00     0.077 C 
ATOM      8  C7  UNL d   1      -2.231  -5.135  -3.882  0.00  0.00    -0.001 A 
ENDROOT
TORSDOF 0
ENDMDL
