MODEL 1
REMARK minimizedAffinity 1.37167013
REMARK minimizedRMSD -1
REMARK  0 active torsions:
REMARK  status: ('A' for Active; 'I' for Inactive)
ROOT
ATOM      1  C   UNL d   1       0.656   2.393   1.396  0.00  0.00     0.077 C 
ATOM      2  C1  UNL d   1      -0.350   1.941   2.413  0.00  0.00    -0.074 A 
ATOM      3  C2  UNL d   1      -1.688   2.339   2.327  0.00  0.00    -0.005 A 
ATOM      4  C3  UNL d   1      -2.613   1.903   3.275  0.00  0.00     0.006 A 
ATOM      5  C4  UNL d   1      -2.211   1.066   4.317  0.00  0.00    -0.005 A 
ATOM      6  C5  UNL d   1      -0.878   0.656   4.418  0.00  0.00    -0.074 A 
ATOM      7  C6  UNL d   1      -0.431  -0.251   5.525  0.00  0.00     0.077 C 
ATOM      8  C7  UNL d   1       0.045   1.093   3.457  0.00  0.00    -0.001 A 
ENDROOT
TORSDOF 0
ENDMDL
