MODEL 1
REMARK minimizedAffinity 5.75791836
REMARK minimizedRMSD -1
REMARK  0 active torsions:
REMARK  status: ('A' for Active; 'I' for Inactive)
ROOT
ATOM      1  C   UNL d   1       1.499   2.447  -2.397  0.00  0.00     0.077 C 
ATOM      2  C1  UNL d   1       1.654   3.651  -1.516  0.00  0.00    -0.074 A 
ATOM      3  C2  UNL d   1       2.035   4.887  -2.047  0.00  0.00    -0.005 A 
ATOM      4  C3  UNL d   1       2.165   6.000  -1.216  0.00  0.00     0.006 A 
ATOM      5  C4  UNL d   1       1.916   5.888   0.152  0.00  0.00    -0.005 A 
ATOM      6  C5  UNL d   1       1.533   4.660   0.701  0.00  0.00    -0.074 A 
ATOM      7  C6  UNL d   1       1.252   4.525   2.169  0.00  0.00     0.077 C 
ATOM      8  C7  UNL d   1       1.398   3.548  -0.141  0.00  0.00    -0.001 A 
ENDROOT
TORSDOF 0
ENDMDL
