MODEL 1
REMARK minimizedAffinity 0.0828436762
REMARK minimizedRMSD -1
REMARK  0 active torsions:
REMARK  status: ('A' for Active; 'I' for Inactive)
ROOT
ATOM      1  C   UNL d   1      -3.050   2.116   2.872  0.00  0.00     0.077 C 
ATOM      2  C1  UNL d   1      -3.273   0.633   2.889  0.00  0.00    -0.074 A 
ATOM      3  C2  UNL d   1      -4.515   0.089   2.543  0.00  0.00    -0.005 A 
ATOM      4  C3  UNL d   1      -4.705  -1.292   2.554  0.00  0.00     0.006 A 
ATOM      5  C4  UNL d   1      -3.658  -2.143   2.911  0.00  0.00    -0.005 A 
ATOM      6  C5  UNL d   1      -2.410  -1.618   3.260  0.00  0.00    -0.074 A 
ATOM      7  C6  UNL d   1      -1.271  -2.518   3.636  0.00  0.00     0.077 C 
ATOM      8  C7  UNL d   1      -2.224  -0.229   3.239  0.00  0.00    -0.001 A 
ENDROOT
TORSDOF 0
ENDMDL
