MODEL 1
REMARK minimizedAffinity 0.661740243
REMARK minimizedRMSD -1
REMARK  0 active torsions:
REMARK  status: ('A' for Active; 'I' for Inactive)
ROOT
ATOM      1  C   UNL d   1       1.878   1.090  -2.250  0.00  0.00     0.077 C 
ATOM      2  C1  UNL d   1       1.792   2.360  -1.457  0.00  0.00    -0.074 A 
ATOM      3  C2  UNL d   1       1.195   2.380  -0.193  0.00  0.00    -0.005 A 
ATOM      4  C3  UNL d   1       1.131   3.567   0.537  0.00  0.00     0.006 A 
ATOM      5  C4  UNL d   1       1.663   4.745   0.010  0.00  0.00    -0.005 A 
ATOM      6  C5  UNL d   1       2.264   4.744  -1.252  0.00  0.00    -0.074 A 
ATOM      7  C6  UNL d   1       2.849   5.999  -1.829  0.00  0.00     0.077 C 
ATOM      8  C7  UNL d   1       2.331   3.546  -1.976  0.00  0.00    -0.001 A 
ENDROOT
TORSDOF 0
ENDMDL
