MODEL 1
REMARK minimizedAffinity 4.4672718
REMARK minimizedRMSD -1
REMARK  0 active torsions:
REMARK  status: ('A' for Active; 'I' for Inactive)
ROOT
ATOM      1  C   UNL d   1       2.254   0.285  -2.023  0.00  0.00     0.077 C 
ATOM      2  C1  UNL d   1       2.134   1.206  -0.846  0.00  0.00    -0.074 A 
ATOM      3  C2  UNL d   1       1.608   2.494  -0.991  0.00  0.00    -0.005 A 
ATOM      4  C3  UNL d   1       1.494   3.335   0.115  0.00  0.00     0.006 A 
ATOM      5  C4  UNL d   1       1.903   2.899   1.376  0.00  0.00    -0.005 A 
ATOM      6  C5  UNL d   1       2.430   1.614   1.541  0.00  0.00    -0.074 A 
ATOM      7  C6  UNL d   1       2.865   1.125   2.890  0.00  0.00     0.077 C 
ATOM      8  C7  UNL d   1       2.535   0.771   0.425  0.00  0.00    -0.001 A 
ENDROOT
TORSDOF 0
ENDMDL
