MODEL 1
REMARK minimizedAffinity 0.2961725
REMARK minimizedRMSD -1
REMARK  0 active torsions:
REMARK  status: ('A' for Active; 'I' for Inactive)
ROOT
ATOM      1  C   UNL d   1       2.143   5.440  -0.624  0.00  0.00     0.077 C 
ATOM      2  C1  UNL d   1       1.636   4.321  -1.484  0.00  0.00    -0.074 A 
ATOM      3  C2  UNL d   1       2.223   3.052  -1.432  0.00  0.00    -0.005 A 
ATOM      4  C3  UNL d   1       1.735   2.018  -2.231  0.00  0.00     0.006 A 
ATOM      5  C4  UNL d   1       0.657   2.242  -3.089  0.00  0.00    -0.005 A 
ATOM      6  C5  UNL d   1       0.057   3.504  -3.154  0.00  0.00    -0.074 A 
ATOM      7  C6  UNL d   1      -1.108   3.759  -4.063  0.00  0.00     0.077 C 
ATOM      8  C7  UNL d   1       0.549   4.536  -2.343  0.00  0.00    -0.001 A 
ENDROOT
TORSDOF 0
ENDMDL
