MODEL 1
REMARK minimizedAffinity 10.3290977
REMARK minimizedRMSD -1
REMARK  0 active torsions:
REMARK  status: ('A' for Active; 'I' for Inactive)
ROOT
ATOM      1  C   UNL d   1      -0.593  -4.748  -5.977  0.00  0.00     0.077 C 
ATOM      2  C1  UNL d   1      -1.188  -4.091  -4.766  0.00  0.00    -0.074 A 
ATOM      3  C2  UNL d   1      -1.900  -2.893  -4.876  0.00  0.00    -0.005 A 
ATOM      4  C3  UNL d   1      -2.455  -2.298  -3.742  0.00  0.00     0.006 A 
ATOM      5  C4  UNL d   1      -2.304  -2.896  -2.490  0.00  0.00    -0.005 A 
ATOM      6  C5  UNL d   1      -1.596  -4.095  -2.362  0.00  0.00    -0.074 A 
ATOM      7  C6  UNL d   1      -1.432  -4.755  -1.025  0.00  0.00     0.077 C 
ATOM      8  C7  UNL d   1      -1.047  -4.689  -3.506  0.00  0.00    -0.001 A 
ENDROOT
TORSDOF 0
ENDMDL
