MODEL 1
REMARK minimizedAffinity 5.67353296
REMARK minimizedRMSD -1
REMARK  0 active torsions:
REMARK  status: ('A' for Active; 'I' for Inactive)
ROOT
ATOM      1  C2' OXE d   1      -3.804  -5.999  -4.350  0.00  0.00     0.078 C 
ATOM      2  C1' OXE d   1      -5.266  -4.245  -5.983  0.00  0.00     0.078 C 
ATOM      3  C1  OXE d   1      -5.274  -3.993  -4.496  0.00  0.00    -0.078 A 
ATOM      4  C2  OXE d   1      -4.594  -4.884  -3.700  0.00  0.00    -0.078 A 
ATOM      5  C3  OXE d   1      -4.525  -4.667  -2.327  0.00  0.00     0.003 A 
ATOM      6  C4  OXE d   1      -5.267  -3.639  -1.733  0.00  0.00    -0.002 A 
ATOM      7  C5  OXE d   1      -5.999  -2.745  -2.521  0.00  0.00    -0.002 A 
ATOM      8  C6  OXE d   1      -5.978  -2.882  -3.905  0.00  0.00     0.003 A 
ENDROOT
TORSDOF 0
ENDMDL
