MODEL 1
REMARK minimizedAffinity -2.3049159
REMARK minimizedRMSD -1
REMARK  0 active torsions:
REMARK  status: ('A' for Active; 'I' for Inactive)
ROOT
ATOM      1  C2' OXE d   1      -5.973  -3.593  -2.198  0.00  0.00     0.078 C 
ATOM      2  C1' OXE d   1      -4.387  -5.908  -2.144  0.00  0.00     0.078 C 
ATOM      3  C1  OXE d   1      -4.809  -5.376  -3.491  0.00  0.00    -0.078 A 
ATOM      4  C2  OXE d   1      -5.624  -4.269  -3.506  0.00  0.00    -0.078 A 
ATOM      5  C3  OXE d   1      -5.997  -3.706  -4.723  0.00  0.00     0.003 A 
ATOM      6  C4  OXE d   1      -5.678  -4.343  -5.928  0.00  0.00    -0.002 A 
ATOM      7  C5  OXE d   1      -4.882  -5.494  -5.933  0.00  0.00    -0.002 A 
ATOM      8  C6  OXE d   1      -4.405  -5.997  -4.728  0.00  0.00     0.003 A 
ENDROOT
TORSDOF 0
ENDMDL
