MODEL 1
REMARK minimizedAffinity 7.64201498
REMARK minimizedRMSD -1
REMARK  0 active torsions:
REMARK  status: ('A' for Active; 'I' for Inactive)
ROOT
ATOM      1  C2' OXE d   1      -5.979  -1.938  -3.129  0.00  0.00     0.078 C 
ATOM      2  C1' OXE d   1      -5.633  -3.459  -5.463  0.00  0.00     0.078 C 
ATOM      3  C1  OXE d   1      -5.298  -4.109  -4.143  0.00  0.00    -0.078 A 
ATOM      4  C2  OXE d   1      -5.426  -3.342  -3.010  0.00  0.00    -0.078 A 
ATOM      5  C3  OXE d   1      -5.182  -3.910  -1.763  0.00  0.00     0.003 A 
ATOM      6  C4  OXE d   1      -4.662  -5.206  -1.663  0.00  0.00    -0.002 A 
ATOM      7  C5  OXE d   1      -4.486  -5.990  -2.808  0.00  0.00    -0.002 A 
ATOM      8  C6  OXE d   1      -4.839  -5.473  -4.049  0.00  0.00     0.003 A 
ENDROOT
TORSDOF 0
ENDMDL
