MODEL 1
REMARK minimizedAffinity 4.05864477
REMARK minimizedRMSD -1
REMARK  0 active torsions:
REMARK  status: ('A' for Active; 'I' for Inactive)
ROOT
ATOM      1  C2' OXE d   1       2.375  -0.900   1.668  0.00  0.00     0.078 C 
ATOM      2  C1' OXE d   1       4.022  -2.739   3.005  0.00  0.00     0.078 C 
ATOM      3  C1  OXE d   1       2.556  -3.070   2.878  0.00  0.00    -0.078 A 
ATOM      4  C2  OXE d   1       1.749  -2.143   2.264  0.00  0.00    -0.078 A 
ATOM      5  C3  OXE d   1       0.399  -2.423   2.072  0.00  0.00     0.003 A 
ATOM      6  C4  OXE d   1      -0.174  -3.569   2.635  0.00  0.00    -0.002 A 
ATOM      7  C5  OXE d   1       0.623  -4.508   3.300  0.00  0.00    -0.002 A 
ATOM      8  C6  OXE d   1       1.994  -4.294   3.393  0.00  0.00     0.003 A 
ENDROOT
TORSDOF 0
ENDMDL
