MODEL 1
REMARK minimizedAffinity -3.39911079
REMARK minimizedRMSD -1
REMARK  0 active torsions:
REMARK  status: ('A' for Active; 'I' for Inactive)
ROOT
ATOM      1  C2' OXE d   1      -5.986  -3.547  -2.260  0.00  0.00     0.078 C 
ATOM      2  C1' OXE d   1      -4.491  -5.923  -2.207  0.00  0.00     0.078 C 
ATOM      3  C1  OXE d   1      -4.885  -5.368  -3.554  0.00  0.00    -0.078 A 
ATOM      4  C2  OXE d   1      -5.656  -4.231  -3.569  0.00  0.00    -0.078 A 
ATOM      5  C3  OXE d   1      -6.000  -3.647  -4.785  0.00  0.00     0.003 A 
ATOM      6  C4  OXE d   1      -5.699  -4.292  -5.991  0.00  0.00    -0.002 A 
ATOM      7  C5  OXE d   1      -4.948  -5.472  -5.997  0.00  0.00    -0.002 A 
ATOM      8  C6  OXE d   1      -4.498  -6.000  -4.791  0.00  0.00     0.003 A 
ENDROOT
TORSDOF 0
ENDMDL
