MODEL 1
REMARK minimizedAffinity -3.53072476
REMARK minimizedRMSD -1
REMARK  0 active torsions:
REMARK  status: ('A' for Active; 'I' for Inactive)
ROOT
ATOM      1  C2' OXE d   1      -5.606  -3.494  -5.942  0.00  0.00     0.078 C 
ATOM      2  C1' OXE d   1      -4.339  -5.989  -5.725  0.00  0.00     0.078 C 
ATOM      3  C1  OXE d   1      -4.867  -5.357  -4.462  0.00  0.00    -0.078 A 
ATOM      4  C2  OXE d   1      -5.444  -4.115  -4.571  0.00  0.00    -0.078 A 
ATOM      5  C3  OXE d   1      -5.997  -3.510  -3.445  0.00  0.00     0.003 A 
ATOM      6  C4  OXE d   1      -5.834  -4.086  -2.180  0.00  0.00    -0.002 A 
ATOM      7  C5  OXE d   1      -5.214  -5.333  -2.041  0.00  0.00    -0.002 A 
ATOM      8  C6  OXE d   1      -4.764  -6.000  -3.175  0.00  0.00     0.003 A 
ENDROOT
TORSDOF 0
ENDMDL
