MODEL 1
REMARK minimizedAffinity -0.427473694
REMARK minimizedRMSD -1
REMARK  0 active torsions:
REMARK  status: ('A' for Active; 'I' for Inactive)
ROOT
ATOM      1  C2' OXE d   1       2.714  -3.987   4.856  0.00  0.00     0.078 C 
ATOM      2  C1' OXE d   1       4.875  -2.926   3.412  0.00  0.00     0.078 C 
ATOM      3  C1  OXE d   1       3.482  -2.534   2.984  0.00  0.00    -0.078 A 
ATOM      4  C2  OXE d   1       2.430  -3.095   3.667  0.00  0.00    -0.078 A 
ATOM      5  C3  OXE d   1       1.126  -2.725   3.349  0.00  0.00     0.003 A 
ATOM      6  C4  OXE d   1       0.872  -1.906   2.242  0.00  0.00    -0.002 A 
ATOM      7  C5  OXE d   1       1.928  -1.356   1.508  0.00  0.00    -0.002 A 
ATOM      8  C6  OXE d   1       3.237  -1.625   1.892  0.00  0.00     0.003 A 
ENDROOT
TORSDOF 0
ENDMDL
