MODEL 1
REMARK minimizedAffinity 1.94499171
REMARK minimizedRMSD -1
REMARK  0 active torsions:
REMARK  status: ('A' for Active; 'I' for Inactive)
ROOT
ATOM      1  C   UNL d   1      -3.484  -3.081   5.482  0.00  0.00     0.078 C 
ATOM      2  C1  UNL d   1      -2.789  -2.636   4.230  0.00  0.00    -0.077 A 
ATOM      3  C2  UNL d   1      -2.717  -1.281   3.887  0.00  0.00    -0.001 A 
ATOM      4  C3  UNL d   1      -2.075  -0.882   2.713  0.00  0.00     0.003 A 
ATOM      5  C4  UNL d   1      -1.501  -1.833   1.872  0.00  0.00    -0.005 A 
ATOM      6  C5  UNL d   1      -1.570  -3.185   2.204  0.00  0.00     0.003 A 
ATOM      7  C6  UNL d   1      -2.211  -3.585   3.377  0.00  0.00    -0.001 A 
ENDROOT
TORSDOF 0
ENDMDL
