MODEL 1
REMARK minimizedAffinity 2.85013485
REMARK minimizedRMSD -1
REMARK  0 active torsions:
REMARK  status: ('A' for Active; 'I' for Inactive)
ROOT
ATOM      1  C   UNL d   1       0.799   3.807  -1.377  0.00  0.00     0.078 C 
ATOM      2  C1  UNL d   1       0.865   2.758  -0.307  0.00  0.00    -0.077 A 
ATOM      3  C2  UNL d   1      -0.016   1.670  -0.309  0.00  0.00    -0.001 A 
ATOM      4  C3  UNL d   1       0.050   0.706   0.699  0.00  0.00     0.003 A 
ATOM      5  C4  UNL d   1       0.995   0.822   1.716  0.00  0.00    -0.005 A 
ATOM      6  C5  UNL d   1       1.874   1.903   1.728  0.00  0.00     0.003 A 
ATOM      7  C6  UNL d   1       1.809   2.868   0.721  0.00  0.00    -0.001 A 
ENDROOT
TORSDOF 0
ENDMDL
