MODEL 1
REMARK minimizedAffinity -2.49289966
REMARK minimizedRMSD -1
REMARK  0 active torsions:
REMARK  status: ('A' for Active; 'I' for Inactive)
ROOT
ATOM      1  C   UNL d   1       0.396   5.990  -4.925  0.00  0.00     0.078 C 
ATOM      2  C1  UNL d   1      -0.794   5.986  -4.013  0.00  0.00    -0.077 A 
ATOM      3  C2  UNL d   1      -2.097   5.989  -4.527  0.00  0.00    -0.001 A 
ATOM      4  C3  UNL d   1      -3.195   5.995  -3.665  0.00  0.00     0.003 A 
ATOM      5  C4  UNL d   1      -3.003   6.000  -2.285  0.00  0.00    -0.005 A 
ATOM      6  C5  UNL d   1      -1.710   6.000  -1.765  0.00  0.00     0.003 A 
ATOM      7  C6  UNL d   1      -0.610   5.994  -2.624  0.00  0.00    -0.001 A 
ENDROOT
TORSDOF 0
ENDMDL
