MODEL 1
REMARK minimizedAffinity -0.45871985
REMARK minimizedRMSD -1
REMARK  0 active torsions:
REMARK  status: ('A' for Active; 'I' for Inactive)
ROOT
ATOM      1  C   UNL d   1      -0.379   5.988  -4.937  0.00  0.00     0.078 C 
ATOM      2  C1  UNL d   1      -1.275   5.997  -3.735  0.00  0.00    -0.077 A 
ATOM      3  C2  UNL d   1      -0.743   5.990  -2.439  0.00  0.00    -0.001 A 
ATOM      4  C3  UNL d   1      -1.590   5.989  -1.329  0.00  0.00     0.003 A 
ATOM      5  C4  UNL d   1      -2.972   5.994  -1.503  0.00  0.00    -0.005 A 
ATOM      6  C5  UNL d   1      -3.510   5.999  -2.789  0.00  0.00     0.003 A 
ATOM      7  C6  UNL d   1      -2.665   6.000  -3.900  0.00  0.00    -0.001 A 
ENDROOT
TORSDOF 0
ENDMDL
