MODEL 1
REMARK minimizedAffinity 4.12196827
REMARK minimizedRMSD -1
REMARK  0 active torsions:
REMARK  status: ('A' for Active; 'I' for Inactive)
ROOT
ATOM      1  C   UNL d   1      -0.799   5.967  -3.030  0.00  0.00     0.078 C 
ATOM      2  C1  UNL d   1      -2.232   5.986  -2.590  0.00  0.00    -0.077 A 
ATOM      3  C2  UNL d   1      -2.569   5.987  -1.231  0.00  0.00    -0.001 A 
ATOM      4  C3  UNL d   1      -3.908   5.995  -0.835  0.00  0.00     0.003 A 
ATOM      5  C4  UNL d   1      -4.920   6.000  -1.793  0.00  0.00    -0.005 A 
ATOM      6  C5  UNL d   1      -4.594   5.996  -3.148  0.00  0.00     0.003 A 
ATOM      7  C6  UNL d   1      -3.256   5.988  -3.545  0.00  0.00    -0.001 A 
ENDROOT
TORSDOF 0
ENDMDL
