MODEL 1
REMARK minimizedAffinity 0.71184361
REMARK minimizedRMSD -1
REMARK  0 active torsions:
REMARK  status: ('A' for Active; 'I' for Inactive)
ROOT
ATOM      1  C   UNL d   1       2.543   5.800  -5.472  0.00  0.00     0.078 C 
ATOM      2  C1  UNL d   1       1.166   5.877  -4.883  0.00  0.00    -0.077 A 
ATOM      3  C2  UNL d   1       0.974   5.883  -3.496  0.00  0.00    -0.001 A 
ATOM      4  C3  UNL d   1      -0.314   5.945  -2.962  0.00  0.00     0.003 A 
ATOM      5  C4  UNL d   1      -1.420   6.000  -3.807  0.00  0.00    -0.005 A 
ATOM      6  C5  UNL d   1      -1.239   5.992  -5.189  0.00  0.00     0.003 A 
ATOM      7  C6  UNL d   1       0.048   5.930  -5.725  0.00  0.00    -0.001 A 
ENDROOT
TORSDOF 0
ENDMDL
