MODEL 1
REMARK minimizedAffinity 0.974565566
REMARK minimizedRMSD -1
REMARK  0 active torsions:
REMARK  status: ('A' for Active; 'I' for Inactive)
ROOT
ATOM      1  C   UNL d   1       0.749   5.994  -4.580  0.00  0.00     0.078 C 
ATOM      2  C1  UNL d   1      -0.449   5.989  -3.679  0.00  0.00    -0.077 A 
ATOM      3  C2  UNL d   1      -1.747   5.990  -4.204  0.00  0.00    -0.001 A 
ATOM      4  C3  UNL d   1      -2.853   5.995  -3.353  0.00  0.00     0.003 A 
ATOM      5  C4  UNL d   1      -2.673   5.999  -1.971  0.00  0.00    -0.005 A 
ATOM      6  C5  UNL d   1      -1.385   6.000  -1.439  0.00  0.00     0.003 A 
ATOM      7  C6  UNL d   1      -0.278   5.995  -2.289  0.00  0.00    -0.001 A 
ENDROOT
TORSDOF 0
ENDMDL
