MODEL 1
REMARK minimizedAffinity -4.09470606
REMARK minimizedRMSD -1
REMARK  0 active torsions:
REMARK  status: ('A' for Active; 'I' for Inactive)
ROOT
ATOM      1  C   UNL d   1       3.371   0.778   2.252  0.00  0.00     0.078 C 
ATOM      2  C1  UNL d   1       1.936   0.929   1.845  0.00  0.00    -0.077 A 
ATOM      3  C2  UNL d   1       1.593   1.344   0.553  0.00  0.00    -0.001 A 
ATOM      4  C3  UNL d   1       0.252   1.489   0.191  0.00  0.00     0.003 A 
ATOM      5  C4  UNL d   1      -0.755   1.222   1.115  0.00  0.00    -0.005 A 
ATOM      6  C5  UNL d   1      -0.423   0.811   2.405  0.00  0.00     0.003 A 
ATOM      7  C6  UNL d   1       0.916   0.665   2.769  0.00  0.00    -0.001 A 
ENDROOT
TORSDOF 0
ENDMDL
