MODEL 1
REMARK minimizedAffinity -2.87020135
REMARK minimizedRMSD -1
REMARK  0 active torsions:
REMARK  status: ('A' for Active; 'I' for Inactive)
ROOT
ATOM      1  C   UNL d   1      -3.730   5.997  -2.616  0.00  0.00     0.078 C 
ATOM      2  C1  UNL d   1      -2.404   5.990  -3.317  0.00  0.00    -0.077 A 
ATOM      3  C2  UNL d   1      -1.206   5.996  -2.593  0.00  0.00    -0.001 A 
ATOM      4  C3  UNL d   1       0.021   5.999  -3.258  0.00  0.00     0.003 A 
ATOM      5  C4  UNL d   1       0.062   5.998  -4.651  0.00  0.00    -0.005 A 
ATOM      6  C5  UNL d   1      -1.125   5.994  -5.380  0.00  0.00     0.003 A 
ATOM      7  C6  UNL d   1      -2.353   5.991  -4.716  0.00  0.00    -0.001 A 
ENDROOT
TORSDOF 0
ENDMDL
