MODEL 1
REMARK minimizedAffinity -0.99693042
REMARK minimizedRMSD -1
REMARK  0 active torsions:
REMARK  status: ('A' for Active; 'I' for Inactive)
ROOT
ATOM      1  C   UNL d   1      -2.987   5.999  -1.079  0.00  0.00     0.078 C 
ATOM      2  C1  UNL d   1      -2.402   5.990  -2.459  0.00  0.00    -0.077 A 
ATOM      3  C2  UNL d   1      -1.015   5.999  -2.655  0.00  0.00    -0.001 A 
ATOM      4  C3  UNL d   1      -0.485   6.000  -3.946  0.00  0.00     0.003 A 
ATOM      5  C4  UNL d   1      -1.333   5.993  -5.051  0.00  0.00    -0.005 A 
ATOM      6  C5  UNL d   1      -2.714   5.986  -4.866  0.00  0.00     0.003 A 
ATOM      7  C6  UNL d   1      -3.247   5.985  -3.576  0.00  0.00    -0.001 A 
ENDROOT
TORSDOF 0
ENDMDL
