MODEL 1
REMARK minimizedAffinity 7.25208569
REMARK minimizedRMSD -1
REMARK  0 active torsions:
REMARK  status: ('A' for Active; 'I' for Inactive)
ROOT
ATOM      1  C   UNL d   1      -1.914  -1.212  -4.194  0.00  0.00     0.078 C 
ATOM      2  C1  UNL d   1      -2.740  -1.459  -2.967  0.00  0.00    -0.077 A 
ATOM      3  C2  UNL d   1      -3.627  -2.540  -2.901  0.00  0.00    -0.001 A 
ATOM      4  C3  UNL d   1      -4.397  -2.752  -1.756  0.00  0.00     0.003 A 
ATOM      5  C4  UNL d   1      -4.288  -1.887  -0.669  0.00  0.00    -0.005 A 
ATOM      6  C5  UNL d   1      -3.409  -0.807  -0.727  0.00  0.00     0.003 A 
ATOM      7  C6  UNL d   1      -2.639  -0.593  -1.871  0.00  0.00    -0.001 A 
ENDROOT
TORSDOF 0
ENDMDL
