MODEL 1
REMARK minimizedAffinity 0.818430245
REMARK minimizedRMSD -1
REMARK  0 active torsions:
REMARK  status: ('A' for Active; 'I' for Inactive)
ROOT
ATOM      1  C   UNL d   1       0.028   5.940  -4.319  0.00  0.00     0.078 C 
ATOM      2  C1  UNL d   1      -1.086   5.968  -3.317  0.00  0.00    -0.077 A 
ATOM      3  C2  UNL d   1      -0.820   5.971  -1.942  0.00  0.00    -0.001 A 
ATOM      4  C3  UNL d   1      -1.868   5.988  -1.020  0.00  0.00     0.003 A 
ATOM      5  C4  UNL d   1      -3.189   6.000  -1.463  0.00  0.00    -0.005 A 
ATOM      6  C5  UNL d   1      -3.464   5.994  -2.829  0.00  0.00     0.003 A 
ATOM      7  C6  UNL d   1      -2.418   5.978  -3.752  0.00  0.00    -0.001 A 
ENDROOT
TORSDOF 0
ENDMDL
