MODEL 1
REMARK minimizedAffinity 2.60765433
REMARK minimizedRMSD -1
REMARK  0 active torsions:
REMARK  status: ('A' for Active; 'I' for Inactive)
ROOT
ATOM      1  C   UNL d   1      -2.188  -1.100  -4.581  0.00  0.00     0.078 C 
ATOM      2  C1  UNL d   1      -2.913  -1.450  -3.316  0.00  0.00    -0.077 A 
ATOM      3  C2  UNL d   1      -4.000  -2.332  -3.328  0.00  0.00    -0.001 A 
ATOM      4  C3  UNL d   1      -4.672  -2.642  -2.145  0.00  0.00     0.003 A 
ATOM      5  C4  UNL d   1      -4.264  -2.073  -0.940  0.00  0.00    -0.005 A 
ATOM      6  C5  UNL d   1      -3.184  -1.192  -0.917  0.00  0.00     0.003 A 
ATOM      7  C6  UNL d   1      -2.512  -0.882  -2.100  0.00  0.00    -0.001 A 
ENDROOT
TORSDOF 0
ENDMDL
