MODEL 1
REMARK minimizedAffinity -3.43073368
REMARK minimizedRMSD -1
REMARK  0 active torsions:
REMARK  status: ('A' for Active; 'I' for Inactive)
ROOT
ATOM      1  C   UNL d   1      -2.085   5.979  -2.008  0.00  0.00     0.078 C 
ATOM      2  C1  UNL d   1      -1.369   5.993  -3.325  0.00  0.00    -0.077 A 
ATOM      3  C2  UNL d   1      -2.079   5.989  -4.532  0.00  0.00    -0.001 A 
ATOM      4  C3  UNL d   1      -1.400   5.993  -5.751  0.00  0.00     0.003 A 
ATOM      5  C4  UNL d   1      -0.007   5.998  -5.776  0.00  0.00    -0.005 A 
ATOM      6  C5  UNL d   1       0.709   5.998  -4.580  0.00  0.00     0.003 A 
ATOM      7  C6  UNL d   1       0.031   5.995  -3.360  0.00  0.00    -0.001 A 
ENDROOT
TORSDOF 0
ENDMDL
