MODEL 1
REMARK minimizedAffinity 2.99755406
REMARK minimizedRMSD -1
REMARK  0 active torsions:
REMARK  status: ('A' for Active; 'I' for Inactive)
ROOT
ATOM      1  C2' OXE d   1      -0.597   2.437   0.328  0.00  0.00     0.078 C 
ATOM      2  C1' OXE d   1      -3.267   1.671   0.736  0.00  0.00     0.078 C 
ATOM      3  C1  OXE d   1      -2.802   2.963   1.361  0.00  0.00    -0.078 A 
ATOM      4  C2  OXE d   1      -1.482   3.306   1.195  0.00  0.00    -0.078 A 
ATOM      5  C3  OXE d   1      -1.015   4.514   1.704  0.00  0.00     0.003 A 
ATOM      6  C4  OXE d   1      -1.837   5.308   2.514  0.00  0.00    -0.002 A 
ATOM      7  C5  OXE d   1      -3.174   4.956   2.728  0.00  0.00    -0.002 A 
ATOM      8  C6  OXE d   1      -3.683   3.811   2.125  0.00  0.00     0.003 A 
ENDROOT
TORSDOF 0
ENDMDL
