MODEL 1
REMARK minimizedAffinity 6.56963778
REMARK minimizedRMSD -1
REMARK  0 active torsions:
REMARK  status: ('A' for Active; 'I' for Inactive)
ROOT
ATOM      1  C2' OXE d   1       5.496  -1.061   0.393  0.00  0.00     0.078 C 
ATOM      2  C1' OXE d   1       4.195   1.028  -0.957  0.00  0.00     0.078 C 
ATOM      3  C1  OXE d   1       3.431  -0.255  -0.743  0.00  0.00    -0.078 A 
ATOM      4  C2  OXE d   1       4.092  -1.288  -0.123  0.00  0.00    -0.078 A 
ATOM      5  C3  OXE d   1       3.416  -2.474   0.149  0.00  0.00     0.003 A 
ATOM      6  C4  OXE d   1       2.120  -2.679  -0.340  0.00  0.00    -0.002 A 
ATOM      7  C5  OXE d   1       1.443  -1.654  -1.009  0.00  0.00    -0.002 A 
ATOM      8  C6  OXE d   1       2.067  -0.424  -1.181  0.00  0.00     0.003 A 
ENDROOT
TORSDOF 0
ENDMDL
