MODEL 1
REMARK minimizedAffinity 5.89325047
REMARK minimizedRMSD -1
REMARK  0 active torsions:
REMARK  status: ('A' for Active; 'I' for Inactive)
ROOT
ATOM      1  C2' OXE d   1       2.130   2.984   3.017  0.00  0.00     0.078 C 
ATOM      2  C1' OXE d   1       0.312   5.026   2.376  0.00  0.00     0.078 C 
ATOM      3  C1  OXE d   1      -0.014   3.625   1.922  0.00  0.00    -0.078 A 
ATOM      4  C2  OXE d   1       0.903   2.640   2.199  0.00  0.00    -0.078 A 
ATOM      5  C3  OXE d   1       0.626   1.321   1.851  0.00  0.00     0.003 A 
ATOM      6  C4  OXE d   1      -0.506   1.013   1.086  0.00  0.00    -0.002 A 
ATOM      7  C5  OXE d   1      -1.434   2.008   0.759  0.00  0.00    -0.002 A 
ATOM      8  C6  OXE d   1      -1.225   3.308   1.204  0.00  0.00     0.003 A 
ENDROOT
TORSDOF 0
ENDMDL
