MODEL 1
REMARK minimizedAffinity 4.41405153
REMARK minimizedRMSD -1
REMARK  0 active torsions:
REMARK  status: ('A' for Active; 'I' for Inactive)
ROOT
ATOM      1  C2' OXE d   1       3.307  -1.949  -0.752  0.00  0.00     0.078 C 
ATOM      2  C1' OXE d   1       1.786   0.383  -0.392  0.00  0.00     0.078 C 
ATOM      3  C1  OXE d   1       3.260   0.540  -0.670  0.00  0.00    -0.078 A 
ATOM      4  C2  OXE d   1       4.005  -0.608  -0.799  0.00  0.00    -0.078 A 
ATOM      5  C3  OXE d   1       5.359  -0.519  -1.110  0.00  0.00     0.003 A 
ATOM      6  C4  OXE d   1       6.000   0.725  -1.142  0.00  0.00    -0.002 A 
ATOM      7  C5  OXE d   1       5.267   1.905  -0.974  0.00  0.00    -0.002 A 
ATOM      8  C6  OXE d   1       3.892   1.832  -0.780  0.00  0.00     0.003 A 
ENDROOT
TORSDOF 0
ENDMDL
