MODEL 1
REMARK minimizedAffinity 11.157711
REMARK minimizedRMSD -1
REMARK  0 active torsions:
REMARK  status: ('A' for Active; 'I' for Inactive)
ROOT
ATOM      1  C2' OXE d   1      -6.000   5.580   6.000  0.00  0.00     0.078 C 
ATOM      2  C1' OXE d   1      -6.000   2.775   5.893  0.00  0.00     0.078 C 
ATOM      3  C1  OXE d   1      -5.813   3.528   4.600  0.00  0.00    -0.078 A 
ATOM      4  C2  OXE d   1      -5.861   4.900   4.655  0.00  0.00    -0.078 A 
ATOM      5  C3  OXE d   1      -5.640   5.644   3.499  0.00  0.00     0.003 A 
ATOM      6  C4  OXE d   1      -5.522   5.008   2.258  0.00  0.00    -0.002 A 
ATOM      7  C5  OXE d   1      -5.510   3.611   2.174  0.00  0.00    -0.002 A 
ATOM      8  C6  OXE d   1      -5.612   2.858   3.339  0.00  0.00     0.003 A 
ENDROOT
TORSDOF 0
ENDMDL
