MODEL 1
REMARK minimizedAffinity 9.3668108
REMARK minimizedRMSD -1
REMARK  0 active torsions:
REMARK  status: ('A' for Active; 'I' for Inactive)
ROOT
ATOM      1  C2' OXE d   1      -5.246   3.461  -4.291  0.00  0.00     0.078 C 
ATOM      2  C1' OXE d   1      -5.564   1.605  -2.208  0.00  0.00     0.078 C 
ATOM      3  C1  OXE d   1      -4.562   1.285  -3.290  0.00  0.00    -0.078 A 
ATOM      4  C2  OXE d   1      -4.447   2.176  -4.329  0.00  0.00    -0.078 A 
ATOM      5  C3  OXE d   1      -3.499   1.956  -5.325  0.00  0.00     0.003 A 
ATOM      6  C4  OXE d   1      -2.771   0.760  -5.358  0.00  0.00    -0.002 A 
ATOM      7  C5  OXE d   1      -2.902  -0.179  -4.330  0.00  0.00    -0.002 A 
ATOM      8  C6  OXE d   1      -3.760   0.087  -3.269  0.00  0.00     0.003 A 
ENDROOT
TORSDOF 0
ENDMDL
