MODEL 1
REMARK minimizedAffinity 5.09522057
REMARK minimizedRMSD -1
REMARK  0 active torsions:
REMARK  status: ('A' for Active; 'I' for Inactive)
ROOT
ATOM      1  C2' OXE d   1       2.616  -3.511  -2.281  0.00  0.00     0.078 C 
ATOM      2  C1' OXE d   1       0.657  -2.135  -0.815  0.00  0.00     0.078 C 
ATOM      3  C1  OXE d   1       1.997  -1.468  -0.997  0.00  0.00    -0.078 A 
ATOM      4  C2  OXE d   1       2.965  -2.168  -1.676  0.00  0.00    -0.078 A 
ATOM      5  C3  OXE d   1       4.201  -1.577  -1.919  0.00  0.00     0.003 A 
ATOM      6  C4  OXE d   1       4.519  -0.339  -1.347  0.00  0.00    -0.002 A 
ATOM      7  C5  OXE d   1       3.561   0.374  -0.619  0.00  0.00    -0.002 A 
ATOM      8  C6  OXE d   1       2.284  -0.156  -0.471  0.00  0.00     0.003 A 
ENDROOT
TORSDOF 0
ENDMDL
