MODEL 1
REMARK minimizedAffinity 6.50255442
REMARK minimizedRMSD -1
REMARK  0 active torsions:
REMARK  status: ('A' for Active; 'I' for Inactive)
ROOT
ATOM      1  C2' OXE d   1       0.632  -1.840  -2.611  0.00  0.00     0.078 C 
ATOM      2  C1' OXE d   1       1.045  -4.051  -0.931  0.00  0.00     0.078 C 
ATOM      3  C1  OXE d   1       1.938  -2.850  -0.745  0.00  0.00    -0.078 A 
ATOM      4  C2  OXE d   1       1.760  -1.791  -1.602  0.00  0.00    -0.078 A 
ATOM      5  C3  OXE d   1       2.520  -0.637  -1.439  0.00  0.00     0.003 A 
ATOM      6  C4  OXE d   1       3.568  -0.603  -0.511  0.00  0.00    -0.002 A 
ATOM      7  C5  OXE d   1       3.792  -1.687   0.345  0.00  0.00    -0.002 A 
ATOM      8  C6  OXE d   1       2.961  -2.798   0.270  0.00  0.00     0.003 A 
ENDROOT
TORSDOF 0
ENDMDL
