MODEL 1
REMARK minimizedAffinity 14.1871414
REMARK minimizedRMSD -1
REMARK  0 active torsions:
REMARK  status: ('A' for Active; 'I' for Inactive)
ROOT
ATOM      1  C2' OXE d   1      -0.727  -0.651  -3.716  0.00  0.00     0.078 C 
ATOM      2  C1' OXE d   1      -3.221  -1.546  -2.790  0.00  0.00     0.078 C 
ATOM      3  C1  OXE d   1      -3.207  -0.558  -3.930  0.00  0.00    -0.078 A 
ATOM      4  C2  OXE d   1      -1.984  -0.089  -4.345  0.00  0.00    -0.078 A 
ATOM      5  C3  OXE d   1      -1.910   0.782  -5.428  0.00  0.00     0.003 A 
ATOM      6  C4  OXE d   1      -3.078   1.304  -5.998  0.00  0.00    -0.002 A 
ATOM      7  C5  OXE d   1      -4.335   0.871  -5.563  0.00  0.00    -0.002 A 
ATOM      8  C6  OXE d   1      -4.416  -0.090  -4.561  0.00  0.00     0.003 A 
ENDROOT
TORSDOF 0
ENDMDL
