MODEL 1
REMARK minimizedAffinity 4.36891174
REMARK minimizedRMSD -1
REMARK  0 active torsions:
REMARK  status: ('A' for Active; 'I' for Inactive)
ROOT
ATOM      1  C2' OXE d   1       5.997   3.280  -0.023  0.00  0.00     0.078 C 
ATOM      2  C1' OXE d   1       4.930   2.170   2.324  0.00  0.00     0.078 C 
ATOM      3  C1  OXE d   1       4.597   1.500   1.014  0.00  0.00    -0.078 A 
ATOM      4  C2  OXE d   1       5.085   2.078  -0.133  0.00  0.00    -0.078 A 
ATOM      5  C3  OXE d   1       4.853   1.469  -1.364  0.00  0.00     0.003 A 
ATOM      6  C4  OXE d   1       4.001   0.363  -1.458  0.00  0.00    -0.002 A 
ATOM      7  C5  OXE d   1       3.461  -0.217  -0.305  0.00  0.00    -0.002 A 
ATOM      8  C6  OXE d   1       3.783   0.312   0.939  0.00  0.00     0.003 A 
ENDROOT
TORSDOF 0
ENDMDL
