MODEL 1
REMARK minimizedAffinity -0.606963873
REMARK minimizedRMSD -1
REMARK  0 active torsions:
REMARK  status: ('A' for Active; 'I' for Inactive)
ROOT
ATOM      1  C1  BNZ d   1       0.796  -0.775  -0.242  0.00  0.00     0.000 A 
ATOM      2  C2  BNZ d   1       0.714   0.038   0.856  0.00  0.00     0.000 A 
ATOM      3  C3  BNZ d   1      -0.500   0.423   1.352  0.00  0.00     0.000 A 
ATOM      4  C4  BNZ d   1      -1.628   0.028   0.727  0.00  0.00     0.000 A 
ATOM      5  C5  BNZ d   1      -1.561  -0.784  -0.388  0.00  0.00     0.000 A 
ATOM      6  C6  BNZ d   1      -0.338  -1.202  -0.861  0.00  0.00     0.000 A 
ENDROOT
TORSDOF 0
ENDMDL
