MODEL 1
REMARK minimizedAffinity -1.62033963
REMARK minimizedRMSD -1
REMARK  0 active torsions:
REMARK  status: ('A' for Active; 'I' for Inactive)
ROOT
ATOM      1  C1  BNZ d   1      -1.819  -0.928   2.999  0.00  0.00     0.000 A 
ATOM      2  C2  BNZ d   1      -0.479  -0.878   3.274  0.00  0.00     0.000 A 
ATOM      3  C3  BNZ d   1       0.045  -1.568   4.332  0.00  0.00     0.000 A 
ATOM      4  C4  BNZ d   1      -0.777  -2.273   5.136  0.00  0.00     0.000 A 
ATOM      5  C5  BNZ d   1      -2.132  -2.326   4.877  0.00  0.00     0.000 A 
ATOM      6  C6  BNZ d   1      -2.650  -1.662   3.788  0.00  0.00     0.000 A 
ENDROOT
TORSDOF 0
ENDMDL
