MODEL 1
REMARK minimizedAffinity -2.00354576
REMARK minimizedRMSD -1
REMARK  0 active torsions:
REMARK  status: ('A' for Active; 'I' for Inactive)
ROOT
ATOM      1  C1  BNZ d   1      -1.520   0.238   2.023  0.00  0.00     0.000 A 
ATOM      2  C2  BNZ d   1      -2.709  -0.371   1.724  0.00  0.00     0.000 A 
ATOM      3  C3  BNZ d   1      -3.041  -0.662   0.430  0.00  0.00     0.000 A 
ATOM      4  C4  BNZ d   1      -2.202  -0.308  -0.565  0.00  0.00     0.000 A 
ATOM      5  C5  BNZ d   1      -1.003   0.315  -0.280  0.00  0.00     0.000 A 
ATOM      6  C6  BNZ d   1      -0.655   0.571   1.027  0.00  0.00     0.000 A 
ENDROOT
TORSDOF 0
ENDMDL
