MODEL 1
REMARK minimizedAffinity 1.49641407
REMARK minimizedRMSD -1
REMARK  0 active torsions:
REMARK  status: ('A' for Active; 'I' for Inactive)
ROOT
ATOM      1  C1  BNZ d   1      -0.416  -0.255   0.098  0.00  0.00     0.000 A 
ATOM      2  C2  BNZ d   1      -0.636   0.526   1.201  0.00  0.00     0.000 A 
ATOM      3  C3  BNZ d   1      -1.893   0.965   1.509  0.00  0.00     0.000 A 
ATOM      4  C4  BNZ d   1      -2.921   0.657   0.693  0.00  0.00     0.000 A 
ATOM      5  C5  BNZ d   1      -2.715  -0.122  -0.428  0.00  0.00     0.000 A 
ATOM      6  C6  BNZ d   1      -1.454  -0.594  -0.714  0.00  0.00     0.000 A 
ENDROOT
TORSDOF 0
ENDMDL
