MODEL 1
REMARK minimizedAffinity -3.50786877
REMARK minimizedRMSD -1
REMARK  0 active torsions:
REMARK  status: ('A' for Active; 'I' for Inactive)
ROOT
ATOM      1  C1  BNZ d   1       0.554  -0.053   2.113  0.00  0.00     0.000 A 
ATOM      2  C2  BNZ d   1       0.629  -0.214   0.755  0.00  0.00     0.000 A 
ATOM      3  C3  BNZ d   1      -0.498  -0.430   0.013  0.00  0.00     0.000 A 
ATOM      4  C4  BNZ d   1      -1.692  -0.525   0.632  0.00  0.00     0.000 A 
ATOM      5  C5  BNZ d   1      -1.783  -0.375   2.002  0.00  0.00     0.000 A 
ATOM      6  C6  BNZ d   1      -0.652  -0.118   2.741  0.00  0.00     0.000 A 
ENDROOT
TORSDOF 0
ENDMDL
