MODEL 1
REMARK minimizedAffinity -3.69517326
REMARK minimizedRMSD -1
REMARK  0 active torsions:
REMARK  status: ('A' for Active; 'I' for Inactive)
ROOT
ATOM      1  C   UNL d   1       0.326   1.164  -0.443  0.00  0.00     0.078 C 
ATOM      2  C1  UNL d   1       0.999  -0.117  -0.837  0.00  0.00    -0.077 A 
ATOM      3  C2  UNL d   1       2.131  -0.113  -1.660  0.00  0.00    -0.001 A 
ATOM      4  C3  UNL d   1       2.741  -1.314  -2.027  0.00  0.00     0.003 A 
ATOM      5  C4  UNL d   1       2.226  -2.527  -1.576  0.00  0.00    -0.005 A 
ATOM      6  C5  UNL d   1       1.098  -2.541  -0.757  0.00  0.00     0.003 A 
ATOM      7  C6  UNL d   1       0.486  -1.342  -0.390  0.00  0.00    -0.001 A 
ENDROOT
TORSDOF 0
ENDMDL
