MODEL 1
REMARK minimizedAffinity -2.77819657
REMARK minimizedRMSD -1
REMARK  0 active torsions:
REMARK  status: ('A' for Active; 'I' for Inactive)
ROOT
ATOM      1  C   UNL d   1       0.240   0.198  -0.018  0.00  0.00     0.078 C 
ATOM      2  C1  UNL d   1      -1.026   0.353   0.771  0.00  0.00    -0.077 A 
ATOM      3  C2  UNL d   1      -2.270   0.423   0.132  0.00  0.00    -0.001 A 
ATOM      4  C3  UNL d   1      -3.440   0.576   0.878  0.00  0.00     0.003 A 
ATOM      5  C4  UNL d   1      -3.377   0.662   2.268  0.00  0.00    -0.005 A 
ATOM      6  C5  UNL d   1      -2.143   0.596   2.912  0.00  0.00     0.003 A 
ATOM      7  C6  UNL d   1      -0.973   0.442   2.167  0.00  0.00    -0.001 A 
ENDROOT
TORSDOF 0
ENDMDL
