MODEL 1
REMARK minimizedAffinity -5.89935637
REMARK minimizedRMSD -1
REMARK  0 active torsions:
REMARK  status: ('A' for Active; 'I' for Inactive)
ROOT
ATOM      1  C   UNL d   1       0.168   0.111   0.961  0.00  0.00     0.078 C 
ATOM      2  C1  UNL d   1       0.800  -0.106  -0.382  0.00  0.00    -0.077 A 
ATOM      3  C2  UNL d   1       0.918  -1.391  -0.924  0.00  0.00    -0.001 A 
ATOM      4  C3  UNL d   1       1.518  -1.580  -2.170  0.00  0.00     0.003 A 
ATOM      5  C4  UNL d   1       2.004  -0.487  -2.885  0.00  0.00    -0.005 A 
ATOM      6  C5  UNL d   1       1.893   0.796  -2.353  0.00  0.00     0.003 A 
ATOM      7  C6  UNL d   1       1.294   0.986  -1.106  0.00  0.00    -0.001 A 
ENDROOT
TORSDOF 0
ENDMDL
