MODEL 1
REMARK minimizedAffinity -3.02145362
REMARK minimizedRMSD -1
REMARK  0 active torsions:
REMARK  status: ('A' for Active; 'I' for Inactive)
ROOT
ATOM      1  C   UNL d   1      -0.815  -0.412   1.555  0.00  0.00     0.078 C 
ATOM      2  C1  UNL d   1      -0.050   0.330   0.499  0.00  0.00    -0.077 A 
ATOM      3  C2  UNL d   1      -0.005   1.729   0.491  0.00  0.00    -0.001 A 
ATOM      4  C3  UNL d   1       0.703   2.407  -0.504  0.00  0.00     0.003 A 
ATOM      5  C4  UNL d   1       1.370   1.693  -1.497  0.00  0.00    -0.005 A 
ATOM      6  C5  UNL d   1       1.329   0.300  -1.498  0.00  0.00     0.003 A 
ATOM      7  C6  UNL d   1       0.621  -0.379  -0.505  0.00  0.00    -0.001 A 
ENDROOT
TORSDOF 0
ENDMDL
