MODEL 1
REMARK minimizedAffinity -2.94149494
REMARK minimizedRMSD -1
REMARK  0 active torsions:
REMARK  status: ('A' for Active; 'I' for Inactive)
ROOT
ATOM      1  C   UNL d   1       2.825  -2.325  -1.619  0.00  0.00     0.078 C 
ATOM      2  C1  UNL d   1       2.078  -1.085  -1.228  0.00  0.00    -0.077 A 
ATOM      3  C2  UNL d   1       0.965  -1.151  -0.382  0.00  0.00    -0.001 A 
ATOM      4  C3  UNL d   1       0.273   0.010  -0.034  0.00  0.00     0.003 A 
ATOM      5  C4  UNL d   1       0.686   1.246  -0.529  0.00  0.00    -0.005 A 
ATOM      6  C5  UNL d   1       1.791   1.321  -1.375  0.00  0.00     0.003 A 
ATOM      7  C6  UNL d   1       2.484   0.160  -1.723  0.00  0.00    -0.001 A 
ENDROOT
TORSDOF 0
ENDMDL
