MODEL 1
REMARK minimizedAffinity -2.93198061
REMARK minimizedRMSD -1
REMARK  0 active torsions:
REMARK  status: ('A' for Active; 'I' for Inactive)
ROOT
ATOM      1  C   UNL d   1      -2.784   0.221   1.532  0.00  0.00     0.078 C 
ATOM      2  C1  UNL d   1      -1.453   0.350   0.853  0.00  0.00    -0.077 A 
ATOM      3  C2  UNL d   1      -0.260   0.256   1.581  0.00  0.00    -0.001 A 
ATOM      4  C3  UNL d   1       0.972   0.387   0.938  0.00  0.00     0.003 A 
ATOM      5  C4  UNL d   1       1.023   0.614  -0.436  0.00  0.00    -0.005 A 
ATOM      6  C5  UNL d   1      -0.158   0.710  -1.168  0.00  0.00     0.003 A 
ATOM      7  C6  UNL d   1      -1.391   0.580  -0.527  0.00  0.00    -0.001 A 
ENDROOT
TORSDOF 0
ENDMDL
