MODEL 1
REMARK minimizedAffinity -2.88205028
REMARK minimizedRMSD -1
REMARK  0 active torsions:
REMARK  status: ('A' for Active; 'I' for Inactive)
ROOT
ATOM      1  C   UNL d   1       0.762   1.897   1.095  0.00  0.00     0.078 C 
ATOM      2  C1  UNL d   1       0.954   0.642   0.299  0.00  0.00    -0.077 A 
ATOM      3  C2  UNL d   1       0.352  -0.560   0.691  0.00  0.00    -0.001 A 
ATOM      4  C3  UNL d   1       0.547  -1.724  -0.055  0.00  0.00     0.003 A 
ATOM      5  C4  UNL d   1       1.346  -1.698  -1.196  0.00  0.00    -0.005 A 
ATOM      6  C5  UNL d   1       1.951  -0.507  -1.593  0.00  0.00     0.003 A 
ATOM      7  C6  UNL d   1       1.757   0.658  -0.849  0.00  0.00    -0.001 A 
ENDROOT
TORSDOF 0
ENDMDL
