MODEL 1
REMARK minimizedAffinity -3.47322726
REMARK minimizedRMSD -1
REMARK  0 active torsions:
REMARK  status: ('A' for Active; 'I' for Inactive)
ROOT
ATOM      1  C   UNL d   1      -3.956   5.248  -5.855  0.00  0.00     0.078 C 
ATOM      2  C1  UNL d   1      -4.329   3.796  -5.867  0.00  0.00    -0.077 A 
ATOM      3  C2  UNL d   1      -5.664   3.395  -6.000  0.00  0.00    -0.001 A 
ATOM      4  C3  UNL d   1      -5.998   2.040  -6.000  0.00  0.00     0.003 A 
ATOM      5  C4  UNL d   1      -5.002   1.074  -5.866  0.00  0.00    -0.005 A 
ATOM      6  C5  UNL d   1      -3.671   1.463  -5.732  0.00  0.00     0.003 A 
ATOM      7  C6  UNL d   1      -3.335   2.818  -5.731  0.00  0.00    -0.001 A 
ENDROOT
TORSDOF 0
ENDMDL
