MODEL 1
REMARK minimizedAffinity -2.94272804
REMARK minimizedRMSD -1
REMARK  0 active torsions:
REMARK  status: ('A' for Active; 'I' for Inactive)
ROOT
ATOM      1  C   UNL d   1       0.080  -0.388   0.157  0.00  0.00     0.078 C 
ATOM      2  C1  UNL d   1      -1.066  -0.015   1.050  0.00  0.00    -0.077 A 
ATOM      3  C2  UNL d   1      -2.391  -0.175   0.627  0.00  0.00    -0.001 A 
ATOM      4  C3  UNL d   1      -3.448   0.185   1.464  0.00  0.00     0.003 A 
ATOM      5  C4  UNL d   1      -3.191   0.708   2.730  0.00  0.00    -0.005 A 
ATOM      6  C5  UNL d   1      -1.876   0.873   3.159  0.00  0.00     0.003 A 
ATOM      7  C6  UNL d   1      -0.817   0.514   2.322  0.00  0.00    -0.001 A 
ENDROOT
TORSDOF 0
ENDMDL
