MODEL 1
REMARK minimizedAffinity -2.88783646
REMARK minimizedRMSD -1
REMARK  0 active torsions:
REMARK  status: ('A' for Active; 'I' for Inactive)
ROOT
ATOM      1  C   UNL d   1       0.295   0.382  -0.132  0.00  0.00     0.078 C 
ATOM      2  C1  UNL d   1      -1.037   0.344   0.555  0.00  0.00    -0.077 A 
ATOM      3  C2  UNL d   1      -2.158   0.966  -0.009  0.00  0.00    -0.001 A 
ATOM      4  C3  UNL d   1      -3.389   0.931   0.647  0.00  0.00     0.003 A 
ATOM      5  C4  UNL d   1      -3.513   0.276   1.870  0.00  0.00    -0.005 A 
ATOM      6  C5  UNL d   1      -2.403  -0.344   2.440  0.00  0.00     0.003 A 
ATOM      7  C6  UNL d   1      -1.170  -0.310   1.786  0.00  0.00    -0.001 A 
ENDROOT
TORSDOF 0
ENDMDL
