MODEL 1
REMARK minimizedAffinity -3.08046103
REMARK minimizedRMSD -1
REMARK  0 active torsions:
REMARK  status: ('A' for Active; 'I' for Inactive)
ROOT
ATOM      1  C   UNL d   1       1.686   0.328  -2.194  0.00  0.00     0.078 C 
ATOM      2  C1  UNL d   1       0.814   0.018  -1.014  0.00  0.00    -0.077 A 
ATOM      3  C2  UNL d   1       0.436   1.021  -0.113  0.00  0.00    -0.001 A 
ATOM      4  C3  UNL d   1      -0.368   0.717   0.986  0.00  0.00     0.003 A 
ATOM      5  C4  UNL d   1      -0.800  -0.591   1.196  0.00  0.00    -0.005 A 
ATOM      6  C5  UNL d   1      -0.427  -1.597   0.307  0.00  0.00     0.003 A 
ATOM      7  C6  UNL d   1       0.377  -1.294  -0.793  0.00  0.00    -0.001 A 
ENDROOT
TORSDOF 0
ENDMDL
