MODEL 1
REMARK minimizedAffinity -3.46946788
REMARK minimizedRMSD -1
REMARK  0 active torsions:
REMARK  status: ('A' for Active; 'I' for Inactive)
ROOT
ATOM      1  C   UNL d   1       2.871   0.035  -1.523  0.00  0.00     0.078 C 
ATOM      2  C1  UNL d   1       1.677  -0.097  -0.625  0.00  0.00    -0.077 A 
ATOM      3  C2  UNL d   1       1.244  -1.352  -0.181  0.00  0.00    -0.001 A 
ATOM      4  C3  UNL d   1       0.125  -1.460   0.647  0.00  0.00     0.003 A 
ATOM      5  C4  UNL d   1      -0.570  -0.317   1.036  0.00  0.00    -0.005 A 
ATOM      6  C5  UNL d   1      -0.148   0.936   0.597  0.00  0.00     0.003 A 
ATOM      7  C6  UNL d   1       0.970   1.046  -0.230  0.00  0.00    -0.001 A 
ENDROOT
TORSDOF 0
ENDMDL
