MODEL 1
REMARK minimizedAffinity -3.3948493
REMARK minimizedRMSD -1
REMARK  0 active torsions:
REMARK  status: ('A' for Active; 'I' for Inactive)
ROOT
ATOM      1  C   UNL d   1       1.373   2.664   0.426  0.00  0.00     0.078 C 
ATOM      2  C1  UNL d   1       1.328   1.225   0.008  0.00  0.00    -0.077 A 
ATOM      3  C2  UNL d   1       0.530   0.299   0.692  0.00  0.00    -0.001 A 
ATOM      4  C3  UNL d   1       0.506  -1.039   0.298  0.00  0.00     0.003 A 
ATOM      5  C4  UNL d   1       1.279  -1.465  -0.781  0.00  0.00    -0.005 A 
ATOM      6  C5  UNL d   1       2.078  -0.552  -1.465  0.00  0.00     0.003 A 
ATOM      7  C6  UNL d   1       2.104   0.787  -1.073  0.00  0.00    -0.001 A 
ENDROOT
TORSDOF 0
ENDMDL
