MODEL 1
REMARK minimizedAffinity 7.2796669
REMARK minimizedRMSD -1
REMARK  0 active torsions:
REMARK  status: ('A' for Active; 'I' for Inactive)
ROOT
ATOM      1  O1  BZF d   1      -2.584   0.409   2.388  0.00  0.00    -0.204 OA
ATOM      2  C2  BZF d   1      -2.626   1.045   1.162  0.00  0.00     0.174 A 
ATOM      3  C3  BZF d   1      -1.390   1.148   0.634  0.00  0.00    -0.012 A 
ATOM      4  C3A BZF d   1      -0.532   0.456   1.546  0.00  0.00    -0.107 A 
ATOM      5  C4  BZF d   1       0.809   0.198   1.562  0.00  0.00     0.055 A 
ATOM      6  C5  BZF d   1       1.346  -0.441   2.635  0.00  0.00    -0.016 A 
ATOM      7  C6  BZF d   1       0.574  -0.830   3.709  0.00  0.00     0.022 A 
ATOM      8  C7  BZF d   1      -0.762  -0.601   3.737  0.00  0.00     0.029 A 
ATOM      9  C7A BZF d   1      -1.313   0.015   2.639  0.00  0.00     0.058 A 
ENDROOT
TORSDOF 0
ENDMDL
