MODEL 1
REMARK minimizedAffinity 6.67317057
REMARK minimizedRMSD -1
REMARK  0 active torsions:
REMARK  status: ('A' for Active; 'I' for Inactive)
ROOT
ATOM      1  O1  BZF d   1       1.177  -0.812  -0.362  0.00  0.00    -0.204 OA
ATOM      2  C2  BZF d   1       1.983  -0.395   0.680  0.00  0.00     0.174 A 
ATOM      3  C3  BZF d   1       1.275   0.329   1.571  0.00  0.00    -0.012 A 
ATOM      4  C3A BZF d   1      -0.076   0.289   1.101  0.00  0.00    -0.107 A 
ATOM      5  C4  BZF d   1      -1.248   0.810   1.568  0.00  0.00     0.055 A 
ATOM      6  C5  BZF d   1      -2.381   0.651   0.834  0.00  0.00    -0.016 A 
ATOM      7  C6  BZF d   1      -2.376  -0.019  -0.372  0.00  0.00     0.022 A 
ATOM      8  C7  BZF d   1      -1.238  -0.558  -0.874  0.00  0.00     0.029 A 
ATOM      9  C7A BZF d   1      -0.098  -0.426  -0.119  0.00  0.00     0.058 A 
ENDROOT
TORSDOF 0
ENDMDL
