MODEL 1
REMARK minimizedAffinity 13.1021242
REMARK minimizedRMSD -1
REMARK  0 active torsions:
REMARK  status: ('A' for Active; 'I' for Inactive)
ROOT
ATOM      1  O1  BZF d   1       0.423  -0.564  -0.746  0.00  0.00    -0.204 OA
ATOM      2  C2  BZF d   1      -0.715  -0.126  -0.098  0.00  0.00     0.174 A 
ATOM      3  C3  BZF d   1      -0.412   0.816   0.819  0.00  0.00    -0.012 A 
ATOM      4  C3A BZF d   1       0.993   1.043   0.674  0.00  0.00    -0.107 A 
ATOM      5  C4  BZF d   1       1.878   1.878   1.295  0.00  0.00     0.055 A 
ATOM      6  C5  BZF d   1       3.195   1.803   0.971  0.00  0.00    -0.016 A 
ATOM      7  C6  BZF d   1       3.663   0.902   0.036  0.00  0.00     0.022 A 
ATOM      8  C7  BZF d   1       2.823   0.058  -0.610  0.00  0.00     0.029 A 
ATOM      9  C7A BZF d   1       1.486   0.154  -0.309  0.00  0.00     0.058 A 
ENDROOT
TORSDOF 0
ENDMDL
