MODEL 1
REMARK minimizedAffinity 0.464215547
REMARK minimizedRMSD -1
REMARK  0 active torsions:
REMARK  status: ('A' for Active; 'I' for Inactive)
ROOT
ATOM      1  O1  BZF d   1       1.064  -0.996   0.408  0.00  0.00    -0.204 OA
ATOM      2  C2  BZF d   1       0.480  -0.835  -0.833  0.00  0.00     0.174 A 
ATOM      3  C3  BZF d   1      -0.806  -0.447  -0.710  0.00  0.00    -0.012 A 
ATOM      4  C3A BZF d   1      -1.013  -0.272   0.694  0.00  0.00    -0.107 A 
ATOM      5  C4  BZF d   1      -2.086   0.120   1.443  0.00  0.00     0.055 A 
ATOM      6  C5  BZF d   1      -1.982   0.117   2.798  0.00  0.00    -0.016 A 
ATOM      7  C6  BZF d   1      -0.824  -0.276   3.437  0.00  0.00     0.022 A 
ATOM      8  C7  BZF d   1       0.268  -0.668   2.736  0.00  0.00     0.029 A 
ATOM      9  C7A BZF d   1       0.177  -0.634   1.366  0.00  0.00     0.058 A 
ENDROOT
TORSDOF 0
ENDMDL
