MODEL 1
REMARK minimizedAffinity 10.7139664
REMARK minimizedRMSD -1
REMARK  0 active torsions:
REMARK  status: ('A' for Active; 'I' for Inactive)
ROOT
ATOM      1  O1  BZF d   1      -2.691   0.687   3.021  0.00  0.00    -0.204 OA
ATOM      2  C2  BZF d   1      -3.064  -0.489   3.642  0.00  0.00     0.174 A 
ATOM      3  C3  BZF d   1      -3.317  -1.452   2.732  0.00  0.00    -0.012 A 
ATOM      4  C3A BZF d   1      -2.998  -0.865   1.466  0.00  0.00    -0.107 A 
ATOM      5  C4  BZF d   1      -3.029  -1.330   0.182  0.00  0.00     0.055 A 
ATOM      6  C5  BZF d   1      -2.726  -0.481  -0.835  0.00  0.00    -0.016 A 
ATOM      7  C6  BZF d   1      -2.394   0.838  -0.605  0.00  0.00     0.022 A 
ATOM      8  C7  BZF d   1      -2.346   1.344   0.652  0.00  0.00     0.029 A 
ATOM      9  C7A BZF d   1      -2.619   0.479   1.684  0.00  0.00     0.058 A 
ENDROOT
TORSDOF 0
ENDMDL
