MODEL 1
REMARK minimizedAffinity 2.40746784
REMARK minimizedRMSD -1
REMARK  0 active torsions:
REMARK  status: ('A' for Active; 'I' for Inactive)
ROOT
ATOM      1  O1  BZF d   1       1.146  -1.052   3.554  0.00  0.00    -0.204 OA
ATOM      2  C2  BZF d   1       0.313  -1.139   4.653  0.00  0.00     0.174 A 
ATOM      3  C3  BZF d   1      -0.888  -0.587   4.387  0.00  0.00    -0.012 A 
ATOM      4  C3A BZF d   1      -0.832  -0.209   3.008  0.00  0.00    -0.107 A 
ATOM      5  C4  BZF d   1      -1.727   0.375   2.158  0.00  0.00     0.055 A 
ATOM      6  C5  BZF d   1      -1.336   0.676   0.892  0.00  0.00    -0.016 A 
ATOM      7  C6  BZF d   1      -0.058   0.412   0.445  0.00  0.00     0.022 A 
ATOM      8  C7  BZF d   1       0.863  -0.171   1.250  0.00  0.00     0.029 A 
ATOM      9  C7A BZF d   1       0.461  -0.506   2.520  0.00  0.00     0.058 A 
ENDROOT
TORSDOF 0
ENDMDL
