MODEL 1
REMARK minimizedAffinity -1.10467458
REMARK minimizedRMSD -1
REMARK  0 active torsions:
REMARK  status: ('A' for Active; 'I' for Inactive)
ROOT
ATOM      1  O1  BZF d   1       0.585  -1.656   4.242  0.00  0.00    -0.204 OA
ATOM      2  C2  BZF d   1       1.564  -1.147   3.410  0.00  0.00     0.174 A 
ATOM      3  C3  BZF d   1       1.019  -0.378   2.445  0.00  0.00    -0.012 A 
ATOM      4  C3A BZF d   1      -0.379  -0.333   2.744  0.00  0.00    -0.107 A 
ATOM      5  C4  BZF d   1      -1.445   0.286   2.157  0.00  0.00     0.055 A 
ATOM      6  C5  BZF d   1      -2.691   0.068   2.654  0.00  0.00    -0.016 A 
ATOM      7  C6  BZF d   1      -2.908  -0.766   3.731  0.00  0.00     0.022 A 
ATOM      8  C7  BZF d   1      -1.881  -1.398   4.350  0.00  0.00     0.029 A 
ATOM      9  C7A BZF d   1      -0.617  -1.154   3.871  0.00  0.00     0.058 A 
ENDROOT
TORSDOF 0
ENDMDL
