MODEL 1
REMARK minimizedAffinity -1.95381379
REMARK minimizedRMSD -1
REMARK  1 active torsions:
REMARK  status: ('A' for Active; 'I' for Inactive)
REMARK    1  A    between atoms: C3_4  and  O_7 
ROOT
ATOM      1  C   UNL d   1      -0.461   0.445   0.014  0.00  0.00    -0.033 A 
ATOM      2  C1  UNL d   1      -0.962   0.017   1.244  0.00  0.00     0.039 A 
ATOM      3  C2  UNL d   1      -1.039  -1.347   1.533  0.00  0.00    -0.080 A 
ATOM      4  C3  UNL d   1      -0.610  -2.271   0.584  0.00  0.00     0.150 A 
ATOM      5  C4  UNL d   1      -0.106  -1.852  -0.642  0.00  0.00    -0.007 A 
ATOM      6  C5  UNL d   1      -0.032  -0.490  -0.929  0.00  0.00     0.039 A 
ENDROOT
BRANCH   4   7
ATOM      7  O   UNL d   1      -0.669  -3.613   0.819  0.00  0.00    -0.526 OA
ATOM      8  H5  UNL d   1      -1.065  -3.755   1.695  0.00  0.00     0.418 HD
ENDBRANCH   4   7
TORSDOF 1
ENDMDL
