MODEL 1
REMARK minimizedAffinity -3.52433228
REMARK minimizedRMSD -1
REMARK  1 active torsions:
REMARK  status: ('A' for Active; 'I' for Inactive)
REMARK    1  A    between atoms: C3_4  and  O_7 
ROOT
ATOM      1  C   UNL d   1       5.751  -2.596   5.580  0.00  0.00    -0.033 A 
ATOM      2  C1  UNL d   1       4.437  -2.130   5.495  0.00  0.00     0.039 A 
ATOM      3  C2  UNL d   1       3.369  -3.021   5.616  0.00  0.00    -0.080 A 
ATOM      4  C3  UNL d   1       3.628  -4.373   5.822  0.00  0.00     0.150 A 
ATOM      5  C4  UNL d   1       4.933  -4.844   5.912  0.00  0.00    -0.007 A 
ATOM      6  C5  UNL d   1       5.999  -3.953   5.790  0.00  0.00     0.039 A 
ENDROOT
BRANCH   4   7
ATOM      7  O   UNL d   1       2.618  -5.282   5.941  0.00  0.00    -0.526 OA
ATOM      8  H5  UNL d   1       1.772  -4.817   5.830  0.00  0.00     0.418 HD
ENDBRANCH   4   7
TORSDOF 1
ENDMDL
