MODEL 1
REMARK minimizedAffinity -4.32934999
REMARK minimizedRMSD -1
REMARK  1 active torsions:
REMARK  status: ('A' for Active; 'I' for Inactive)
REMARK    1  A    between atoms: C3_4  and  O_7 
ROOT
ATOM      1  C   UNL d   1      -0.926  -0.092   0.030  0.00  0.00    -0.033 A 
ATOM      2  C1  UNL d   1      -1.459  -0.814   1.100  0.00  0.00     0.039 A 
ATOM      3  C2  UNL d   1      -0.959  -2.081   1.408  0.00  0.00    -0.080 A 
ATOM      4  C3  UNL d   1       0.073  -2.613   0.640  0.00  0.00     0.150 A 
ATOM      5  C4  UNL d   1       0.611  -1.898  -0.425  0.00  0.00    -0.007 A 
ATOM      6  C5  UNL d   1       0.110  -0.634  -0.731  0.00  0.00     0.039 A 
ENDROOT
BRANCH   4   7
ATOM      7  O   UNL d   1       0.590  -3.848   0.899  0.00  0.00    -0.526 OA
ATOM      8  H5  UNL d   1       0.102  -4.236   1.644  0.00  0.00     0.418 HD
ENDBRANCH   4   7
TORSDOF 1
ENDMDL
