MODEL 1
REMARK minimizedAffinity -4.68434286
REMARK minimizedRMSD -1
REMARK  1 active torsions:
REMARK  status: ('A' for Active; 'I' for Inactive)
REMARK    1  A    between atoms: C3_4  and  O_7 
ROOT
ATOM      1  C   UNL d   1      -0.118  -2.928   0.757  0.00  0.00    -0.033 A 
ATOM      2  C1  UNL d   1      -0.859  -2.083   1.586  0.00  0.00     0.039 A 
ATOM      3  C2  UNL d   1      -0.932  -0.717   1.308  0.00  0.00    -0.080 A 
ATOM      4  C3  UNL d   1      -0.261  -0.209   0.199  0.00  0.00     0.150 A 
ATOM      5  C4  UNL d   1       0.476  -1.045  -0.634  0.00  0.00    -0.007 A 
ATOM      6  C5  UNL d   1       0.548  -2.408  -0.354  0.00  0.00     0.039 A 
ENDROOT
BRANCH   4   7
ATOM      7  O   UNL d   1      -0.299   1.119  -0.110  0.00  0.00    -0.526 OA
ATOM      8  H5  UNL d   1      -0.822   1.578   0.568  0.00  0.00     0.418 HD
ENDBRANCH   4   7
TORSDOF 1
ENDMDL
