MODEL 1
REMARK minimizedAffinity -4.1360693
REMARK minimizedRMSD -1
REMARK  1 active torsions:
REMARK  status: ('A' for Active; 'I' for Inactive)
REMARK    1  A    between atoms: C3_4  and  O_7 
ROOT
ATOM      1  C   UNL d   1      -1.224  -0.057   2.001  0.00  0.00    -0.033 A 
ATOM      2  C1  UNL d   1      -1.148  -1.332   1.438  0.00  0.00     0.039 A 
ATOM      3  C2  UNL d   1      -0.694  -1.492   0.127  0.00  0.00    -0.080 A 
ATOM      4  C3  UNL d   1      -0.320  -0.371  -0.608  0.00  0.00     0.150 A 
ATOM      5  C4  UNL d   1      -0.389   0.902  -0.052  0.00  0.00    -0.007 A 
ATOM      6  C5  UNL d   1      -0.843   1.060   1.256  0.00  0.00     0.039 A 
ENDROOT
BRANCH   4   7
ATOM      7  O   UNL d   1       0.125  -0.478  -1.893  0.00  0.00    -0.526 OA
ATOM      8  H5  UNL d   1       0.092  -1.413  -2.153  0.00  0.00     0.418 HD
ENDBRANCH   4   7
TORSDOF 1
ENDMDL
