MODEL 1
REMARK minimizedAffinity -2.3800149
REMARK minimizedRMSD -1
REMARK  1 active torsions:
REMARK  status: ('A' for Active; 'I' for Inactive)
REMARK    1  A    between atoms: C3_4  and  O_7 
ROOT
ATOM      1  C   UNL d   1       1.566   3.952   0.896  0.00  0.00    -0.033 A 
ATOM      2  C1  UNL d   1       0.251   3.567   0.626  0.00  0.00     0.039 A 
ATOM      3  C2  UNL d   1      -0.023   2.267   0.199  0.00  0.00    -0.080 A 
ATOM      4  C3  UNL d   1       1.023   1.362   0.047  0.00  0.00     0.150 A 
ATOM      5  C4  UNL d   1       2.335   1.737   0.317  0.00  0.00    -0.007 A 
ATOM      6  C5  UNL d   1       2.608   3.037   0.743  0.00  0.00     0.039 A 
ENDROOT
BRANCH   4   7
ATOM      7  O   UNL d   1       0.805   0.083  -0.372  0.00  0.00    -0.526 OA
ATOM      8  H5  UNL d   1      -0.145  -0.025  -0.548  0.00  0.00     0.418 HD
ENDBRANCH   4   7
TORSDOF 1
ENDMDL
