MODEL 1
REMARK minimizedAffinity -5.2065773
REMARK minimizedRMSD -1
REMARK  1 active torsions:
REMARK  status: ('A' for Active; 'I' for Inactive)
REMARK    1  A    between atoms: C3_4  and  O_7 
ROOT
ATOM      1  C   UNL d   1      -0.375   0.534   0.000  0.00  0.00    -0.033 A 
ATOM      2  C1  UNL d   1       0.498  -0.140  -0.856  0.00  0.00     0.039 A 
ATOM      3  C2  UNL d   1       0.750  -1.500  -0.670  0.00  0.00    -0.080 A 
ATOM      4  C3  UNL d   1       0.124  -2.175   0.375  0.00  0.00     0.150 A 
ATOM      5  C4  UNL d   1      -0.750  -1.510   1.230  0.00  0.00    -0.007 A 
ATOM      6  C5  UNL d   1      -1.000  -0.152   1.042  0.00  0.00     0.039 A 
ENDROOT
BRANCH   4   7
ATOM      7  O   UNL d   1       0.343  -3.501   0.600  0.00  0.00    -0.526 OA
ATOM      8  H5  UNL d   1       0.990  -3.821  -0.051  0.00  0.00     0.418 HD
ENDBRANCH   4   7
TORSDOF 1
ENDMDL
