MODEL 1
REMARK minimizedAffinity -4.9120388
REMARK minimizedRMSD -1
REMARK  1 active torsions:
REMARK  status: ('A' for Active; 'I' for Inactive)
REMARK    1  A    between atoms: C3_4  and  O_7 
ROOT
ATOM      1  C   UNL d   1      -0.458   0.195  -0.747  0.00  0.00    -0.033 A 
ATOM      2  C1  UNL d   1      -0.948  -0.084   0.530  0.00  0.00     0.039 A 
ATOM      3  C2  UNL d   1      -0.657  -1.306   1.140  0.00  0.00    -0.080 A 
ATOM      4  C3  UNL d   1       0.124  -2.239   0.463  0.00  0.00     0.150 A 
ATOM      5  C4  UNL d   1       0.619  -1.966  -0.808  0.00  0.00    -0.007 A 
ATOM      6  C5  UNL d   1       0.327  -0.745  -1.416  0.00  0.00     0.039 A 
ENDROOT
BRANCH   4   7
ATOM      7  O   UNL d   1       0.431  -3.447   1.015  0.00  0.00    -0.526 OA
ATOM      8  H5  UNL d   1      -0.003  -3.508   1.882  0.00  0.00     0.418 HD
ENDBRANCH   4   7
TORSDOF 1
ENDMDL
