MODEL 1
REMARK minimizedAffinity -4.49847889
REMARK minimizedRMSD -1
REMARK  1 active torsions:
REMARK  status: ('A' for Active; 'I' for Inactive)
REMARK    1  A    between atoms: C3_4  and  O_7 
ROOT
ATOM      1  C   UNL d   1      -0.552   0.317   0.151  0.00  0.00    -0.033 A 
ATOM      2  C1  UNL d   1       0.376  -0.321  -0.674  0.00  0.00     0.039 A 
ATOM      3  C2  UNL d   1       0.700  -1.662  -0.457  0.00  0.00    -0.080 A 
ATOM      4  C3  UNL d   1       0.090  -2.352   0.587  0.00  0.00     0.150 A 
ATOM      5  C4  UNL d   1      -0.839  -1.723   1.410  0.00  0.00    -0.007 A 
ATOM      6  C5  UNL d   1      -1.160  -0.384   1.192  0.00  0.00     0.039 A 
ENDROOT
BRANCH   4   7
ATOM      7  O   UNL d   1       0.377  -3.660   0.841  0.00  0.00    -0.526 OA
ATOM      8  H5  UNL d   1       1.056  -3.954   0.210  0.00  0.00     0.418 HD
ENDBRANCH   4   7
TORSDOF 1
ENDMDL
