MODEL 1
REMARK minimizedAffinity -2.79570794
REMARK minimizedRMSD -1
REMARK  1 active torsions:
REMARK  status: ('A' for Active; 'I' for Inactive)
REMARK    1  A    between atoms: C3_4  and  O_7 
ROOT
ATOM      1  C   UNL d   1      -0.288   0.649   0.008  0.00  0.00    -0.033 A 
ATOM      2  C1  UNL d   1      -0.109   0.293   1.346  0.00  0.00     0.039 A 
ATOM      3  C2  UNL d   1       0.084  -1.045   1.694  0.00  0.00    -0.080 A 
ATOM      4  C3  UNL d   1       0.099  -2.016   0.697  0.00  0.00     0.150 A 
ATOM      5  C4  UNL d   1      -0.074  -1.668  -0.639  0.00  0.00    -0.007 A 
ATOM      6  C5  UNL d   1      -0.268  -0.332  -0.985  0.00  0.00     0.039 A 
ENDROOT
BRANCH   4   7
ATOM      7  O   UNL d   1       0.280  -3.335   0.988  0.00  0.00    -0.526 OA
ATOM      8  H5  UNL d   1       0.357  -3.429   1.953  0.00  0.00     0.418 HD
ENDBRANCH   4   7
TORSDOF 1
ENDMDL
