MODEL 1
REMARK minimizedAffinity -2.38733077
REMARK minimizedRMSD -1
REMARK  1 active torsions:
REMARK  status: ('A' for Active; 'I' for Inactive)
REMARK    1  A    between atoms: C3_4  and  O_7 
ROOT
ATOM      1  C   UNL d   1      -0.110   0.641  -0.393  0.00  0.00    -0.033 A 
ATOM      2  C1  UNL d   1       0.494  -0.223  -1.309  0.00  0.00     0.039 A 
ATOM      3  C2  UNL d   1       0.541  -1.594  -1.051  0.00  0.00    -0.080 A 
ATOM      4  C3  UNL d   1      -0.019  -2.088   0.124  0.00  0.00     0.150 A 
ATOM      5  C4  UNL d   1      -0.625  -1.234   1.039  0.00  0.00    -0.007 A 
ATOM      6  C5  UNL d   1      -0.671   0.135   0.780  0.00  0.00     0.039 A 
ENDROOT
BRANCH   4   7
ATOM      7  O   UNL d   1       0.007  -3.419   0.421  0.00  0.00    -0.526 OA
ATOM      8  H5  UNL d   1       0.482  -3.883  -0.288  0.00  0.00     0.418 HD
ENDBRANCH   4   7
TORSDOF 1
ENDMDL
