MODEL 1
REMARK minimizedAffinity -3.50016069
REMARK minimizedRMSD -1
REMARK  1 active torsions:
REMARK  status: ('A' for Active; 'I' for Inactive)
REMARK    1  A    between atoms: C3_4  and  O_7 
ROOT
ATOM      1  C   UNL d   1       1.438   1.786  -0.317  0.00  0.00    -0.033 A 
ATOM      2  C1  UNL d   1       2.391   2.505   0.408  0.00  0.00     0.039 A 
ATOM      3  C2  UNL d   1       1.988   3.370   1.427  0.00  0.00    -0.080 A 
ATOM      4  C3  UNL d   1       0.632   3.507   1.711  0.00  0.00     0.150 A 
ATOM      5  C4  UNL d   1      -0.322   2.791   0.996  0.00  0.00    -0.007 A 
ATOM      6  C5  UNL d   1       0.082   1.928  -0.022  0.00  0.00     0.039 A 
ENDROOT
BRANCH   4   7
ATOM      7  O   UNL d   1       0.191   4.343   2.693  0.00  0.00    -0.526 OA
ATOM      8  H5  UNL d   1       0.959   4.793   3.083  0.00  0.00     0.418 HD
ENDBRANCH   4   7
TORSDOF 1
ENDMDL
