MODEL 1
REMARK minimizedAffinity -4.79747725
REMARK minimizedRMSD -1
REMARK  1 active torsions:
REMARK  status: ('A' for Active; 'I' for Inactive)
REMARK    1  A    between atoms: C3_4  and  O_7 
ROOT
ATOM      1  C   UNL d   1      -0.078   0.129  -0.784  0.00  0.00    -0.033 A 
ATOM      2  C1  UNL d   1       0.743  -0.786  -1.446  0.00  0.00     0.039 A 
ATOM      3  C2  UNL d   1       0.919  -2.070  -0.927  0.00  0.00    -0.080 A 
ATOM      4  C3  UNL d   1       0.269  -2.427   0.251  0.00  0.00     0.150 A 
ATOM      5  C4  UNL d   1      -0.554  -1.521   0.912  0.00  0.00    -0.007 A 
ATOM      6  C5  UNL d   1      -0.728  -0.239   0.394  0.00  0.00     0.039 A 
ENDROOT
BRANCH   4   7
ATOM      7  O   UNL d   1       0.413  -3.667   0.797  0.00  0.00    -0.526 OA
ATOM      8  H5  UNL d   1       1.033  -4.175   0.248  0.00  0.00     0.418 HD
ENDBRANCH   4   7
TORSDOF 1
ENDMDL
