MODEL 1
REMARK minimizedAffinity -4.36707973
REMARK minimizedRMSD -1
REMARK  1 active torsions:
REMARK  status: ('A' for Active; 'I' for Inactive)
REMARK    1  A    between atoms: C3_4  and  O_7 
ROOT
ATOM      1  C   UNL d   1      -0.368   0.109   0.237  0.00  0.00    -0.033 A 
ATOM      2  C1  UNL d   1      -1.175  -0.677   1.063  0.00  0.00     0.039 A 
ATOM      3  C2  UNL d   1      -0.912  -2.041   1.203  0.00  0.00    -0.080 A 
ATOM      4  C3  UNL d   1       0.158  -2.605   0.515  0.00  0.00     0.150 A 
ATOM      5  C4  UNL d   1       0.968  -1.827  -0.306  0.00  0.00    -0.007 A 
ATOM      6  C5  UNL d   1       0.704  -0.465  -0.446  0.00  0.00     0.039 A 
ENDROOT
BRANCH   4   7
ATOM      7  O   UNL d   1       0.451  -3.933   0.617  0.00  0.00    -0.526 OA
ATOM      8  H5  UNL d   1      -0.210  -4.350   1.196  0.00  0.00     0.418 HD
ENDBRANCH   4   7
TORSDOF 1
ENDMDL
