MODEL 1
REMARK minimizedAffinity -3.68150759
REMARK minimizedRMSD -1
REMARK  1 active torsions:
REMARK  status: ('A' for Active; 'I' for Inactive)
REMARK    1  A    between atoms: C3_4  and  O_7 
ROOT
ATOM      1  C   UNL d   1      -0.576  -3.315   0.244  0.00  0.00    -0.033 A 
ATOM      2  C1  UNL d   1      -0.552  -3.888  -1.028  0.00  0.00     0.039 A 
ATOM      3  C2  UNL d   1      -0.177  -3.122  -2.134  0.00  0.00    -0.080 A 
ATOM      4  C3  UNL d   1       0.171  -1.786  -1.953  0.00  0.00     0.150 A 
ATOM      5  C4  UNL d   1       0.152  -1.210  -0.688  0.00  0.00    -0.007 A 
ATOM      6  C5  UNL d   1      -0.223  -1.976   0.415  0.00  0.00     0.039 A 
ENDROOT
BRANCH   4   7
ATOM      7  O   UNL d   1       0.538  -0.998  -3.003  0.00  0.00    -0.526 OA
ATOM      8  H5  UNL d   1       0.477  -1.522  -3.818  0.00  0.00     0.418 HD
ENDBRANCH   4   7
TORSDOF 1
ENDMDL
