MODEL 1
REMARK minimizedAffinity -4.80413246
REMARK minimizedRMSD -1
REMARK  1 active torsions:
REMARK  status: ('A' for Active; 'I' for Inactive)
REMARK    1  A    between atoms: C3_4  and  O_7 
ROOT
ATOM      1  C   UNL d   1       0.093   0.616  -0.514  0.00  0.00    -0.033 A 
ATOM      2  C1  UNL d   1       0.873  -0.366  -1.128  0.00  0.00     0.039 A 
ATOM      3  C2  UNL d   1       0.766  -1.698  -0.725  0.00  0.00    -0.080 A 
ATOM      4  C3  UNL d   1      -0.125  -2.036   0.290  0.00  0.00     0.150 A 
ATOM      5  C4  UNL d   1      -0.909  -1.064   0.903  0.00  0.00    -0.007 A 
ATOM      6  C5  UNL d   1      -0.799   0.267   0.500  0.00  0.00     0.039 A 
ENDROOT
BRANCH   4   7
ATOM      7  O   UNL d   1      -0.261  -3.322   0.720  0.00  0.00    -0.526 OA
ATOM      8  H5  UNL d   1       0.363  -3.880   0.226  0.00  0.00     0.418 HD
ENDBRANCH   4   7
TORSDOF 1
ENDMDL
