MODEL 1
REMARK minimizedAffinity 2.90788054
REMARK minimizedRMSD -1
REMARK  1 active torsions:
REMARK  status: ('A' for Active; 'I' for Inactive)
REMARK    1  A    between atoms: C1_2  and  C2_3 
ROOT
ATOM      1  C2  UNL d   1       3.136  -1.032  -0.142  0.00  0.00    -0.077 A 
ATOM      2  C3  UNL d   1       4.502  -0.887  -0.421  0.00  0.00     0.002 A 
ATOM      3  C4  UNL d   1       5.091   0.379  -0.433  0.00  0.00     0.002 A 
ATOM      4  C5  UNL d   1       4.322   1.509  -0.163  0.00  0.00    -0.004 A 
ATOM      5  C6  UNL d   1       2.962   1.376   0.114  0.00  0.00     0.002 A 
ATOM      6  C7  UNL d   1       2.372   0.111   0.125  0.00  0.00     0.002 A 
ENDROOT
BRANCH   1   7
ATOM      7  C1  UNL d   1       2.510  -2.401  -0.081  0.00  0.00     0.055 C 
ATOM      8  C   UNL d   1       2.054  -2.864  -1.457  0.00  0.00     0.019 C 
ENDBRANCH   1   7
TORSDOF 1
ENDMDL
