MODEL 1
REMARK minimizedAffinity 7.57885075
REMARK minimizedRMSD -1
REMARK  1 active torsions:
REMARK  status: ('A' for Active; 'I' for Inactive)
REMARK    1  A    between atoms: C1_2  and  C2_3 
ROOT
ATOM      1  C2  UNL d   1      -1.624  -0.533   1.072  0.00  0.00    -0.077 A 
ATOM      2  C3  UNL d   1      -0.521  -0.193   1.868  0.00  0.00     0.002 A 
ATOM      3  C4  UNL d   1       0.764  -0.174   1.322  0.00  0.00     0.002 A 
ATOM      4  C5  UNL d   1       0.958  -0.488  -0.021  0.00  0.00    -0.004 A 
ATOM      5  C6  UNL d   1      -0.133  -0.829  -0.820  0.00  0.00     0.002 A 
ATOM      6  C7  UNL d   1      -1.418  -0.851  -0.277  0.00  0.00     0.002 A 
ENDROOT
BRANCH   1   7
ATOM      7  C1  UNL d   1      -3.016  -0.507   1.646  0.00  0.00     0.055 C 
ATOM      8  C   UNL d   1      -4.026   0.002   0.626  0.00  0.00     0.019 C 
ENDBRANCH   1   7
TORSDOF 1
ENDMDL
