MODEL 1
REMARK minimizedAffinity 4.81332111
REMARK minimizedRMSD -1
REMARK  1 active torsions:
REMARK  status: ('A' for Active; 'I' for Inactive)
REMARK    1  A    between atoms: C1_2  and  C2_3 
ROOT
ATOM      1  C2  UNL d   1       0.168   3.944   3.721  0.00  0.00    -0.077 A 
ATOM      2  C3  UNL d   1       0.405   2.648   4.202  0.00  0.00     0.002 A 
ATOM      3  C4  UNL d   1       0.100   1.536   3.416  0.00  0.00     0.002 A 
ATOM      4  C5  UNL d   1      -0.439   1.707   2.143  0.00  0.00    -0.004 A 
ATOM      5  C6  UNL d   1      -0.680   2.992   1.656  0.00  0.00     0.002 A 
ATOM      6  C7  UNL d   1      -0.377   4.105   2.441  0.00  0.00     0.002 A 
ENDROOT
BRANCH   1   7
ATOM      7  C1  UNL d   1       0.543   5.146   4.548  0.00  0.00     0.055 C 
ATOM      8  C   UNL d   1      -0.593   5.555   5.475  0.00  0.00     0.019 C 
ENDBRANCH   1   7
TORSDOF 1
ENDMDL
