MODEL 1
REMARK minimizedAffinity 14.7863255
REMARK minimizedRMSD -1
REMARK  1 active torsions:
REMARK  status: ('A' for Active; 'I' for Inactive)
REMARK    1  A    between atoms: C1_2  and  C2_3 
ROOT
ATOM      1  C2  UNL d   1       2.288  -2.994  -1.889  0.00  0.00    -0.077 A 
ATOM      2  C3  UNL d   1       1.149  -2.635  -2.623  0.00  0.00     0.002 A 
ATOM      3  C4  UNL d   1      -0.096  -2.551  -1.998  0.00  0.00     0.002 A 
ATOM      4  C5  UNL d   1      -0.214  -2.821  -0.636  0.00  0.00    -0.004 A 
ATOM      5  C6  UNL d   1       0.913  -3.182   0.102  0.00  0.00     0.002 A 
ATOM      6  C7  UNL d   1       2.158  -3.267  -0.521  0.00  0.00     0.002 A 
ENDROOT
BRANCH   1   7
ATOM      7  C1  UNL d   1       3.641  -3.037  -2.551  0.00  0.00     0.055 C 
ATOM      8  C   UNL d   1       4.381  -1.718  -2.385  0.00  0.00     0.019 C 
ENDBRANCH   1   7
TORSDOF 1
ENDMDL
