MODEL 1
REMARK minimizedAffinity 8.93876553
REMARK minimizedRMSD -1
REMARK  1 active torsions:
REMARK  status: ('A' for Active; 'I' for Inactive)
REMARK    1  A    between atoms: C1_2  and  C2_3 
ROOT
ATOM      1  C2  UNL d   1      -0.112  -1.363   3.801  0.00  0.00    -0.077 A 
ATOM      2  C3  UNL d   1       0.472  -0.970   2.589  0.00  0.00     0.002 A 
ATOM      3  C4  UNL d   1       0.012  -1.496   1.380  0.00  0.00     0.002 A 
ATOM      4  C5  UNL d   1      -1.036  -2.415   1.372  0.00  0.00    -0.004 A 
ATOM      5  C6  UNL d   1      -1.622  -2.813   2.573  0.00  0.00     0.002 A 
ATOM      6  C7  UNL d   1      -1.162  -2.289   3.782  0.00  0.00     0.002 A 
ENDROOT
BRANCH   1   7
ATOM      7  C1  UNL d   1       0.350  -0.759   5.102  0.00  0.00     0.055 C 
ATOM      8  C   UNL d   1      -0.828  -0.405   5.997  0.00  0.00     0.019 C 
ENDBRANCH   1   7
TORSDOF 1
ENDMDL
