MODEL 1
REMARK minimizedAffinity 3.73968935
REMARK minimizedRMSD -1
REMARK  1 active torsions:
REMARK  status: ('A' for Active; 'I' for Inactive)
REMARK    1  A    between atoms: C1_2  and  C2_3 
ROOT
ATOM      1  C2  UNL d   1      -0.864  -2.131   3.492  0.00  0.00    -0.077 A 
ATOM      2  C3  UNL d   1       0.023  -1.046   3.445  0.00  0.00     0.002 A 
ATOM      3  C4  UNL d   1       0.047  -0.109   4.480  0.00  0.00     0.002 A 
ATOM      4  C5  UNL d   1      -0.809  -0.250   5.570  0.00  0.00    -0.004 A 
ATOM      5  C6  UNL d   1      -1.697  -1.324   5.624  0.00  0.00     0.002 A 
ATOM      6  C7  UNL d   1      -1.723  -2.261   4.590  0.00  0.00     0.002 A 
ENDROOT
BRANCH   1   7
ATOM      7  C1  UNL d   1      -0.857  -3.170   2.400  0.00  0.00     0.055 C 
ATOM      8  C   UNL d   1       0.419  -3.098   1.576  0.00  0.00     0.019 C 
ENDBRANCH   1   7
TORSDOF 1
ENDMDL
