MODEL 1
REMARK minimizedAffinity 6.08273172
REMARK minimizedRMSD -1
REMARK  1 active torsions:
REMARK  status: ('A' for Active; 'I' for Inactive)
REMARK    1  A    between atoms: C1_2  and  C2_3 
ROOT
ATOM      1  C2  UNL d   1       2.437  -4.991  -5.183  0.00  0.00    -0.077 A 
ATOM      2  C3  UNL d   1       1.325  -5.553  -5.826  0.00  0.00     0.002 A 
ATOM      3  C4  UNL d   1       0.230  -5.998  -5.084  0.00  0.00     0.002 A 
ATOM      4  C5  UNL d   1       0.233  -5.882  -3.695  0.00  0.00    -0.004 A 
ATOM      5  C6  UNL d   1       1.335  -5.326  -3.046  0.00  0.00     0.002 A 
ATOM      6  C7  UNL d   1       2.431  -4.882  -3.786  0.00  0.00     0.002 A 
ENDROOT
BRANCH   1   7
ATOM      7  C1  UNL d   1       3.598  -4.465  -5.985  0.00  0.00     0.055 C 
ATOM      8  C   UNL d   1       3.869  -3.001  -5.672  0.00  0.00     0.019 C 
ENDBRANCH   1   7
TORSDOF 1
ENDMDL
