MODEL 1
REMARK minimizedAffinity 3.98557305
REMARK minimizedRMSD -1
REMARK  1 active torsions:
REMARK  status: ('A' for Active; 'I' for Inactive)
REMARK    1  A    between atoms: C1_2  and  C2_3 
ROOT
ATOM      1  C2  UNL d   1      -0.639   3.374  -2.522  0.00  0.00    -0.077 A 
ATOM      2  C3  UNL d   1      -0.277   2.167  -1.909  0.00  0.00     0.002 A 
ATOM      3  C4  UNL d   1       0.504   2.169  -0.751  0.00  0.00     0.002 A 
ATOM      4  C5  UNL d   1       0.925   3.375  -0.195  0.00  0.00    -0.004 A 
ATOM      5  C6  UNL d   1       0.572   4.581  -0.799  0.00  0.00     0.002 A 
ATOM      6  C7  UNL d   1      -0.207   4.581  -1.957  0.00  0.00     0.002 A 
ENDROOT
BRANCH   1   7
ATOM      7  C1  UNL d   1      -1.522   3.375  -3.743  0.00  0.00     0.055 C 
ATOM      8  C   UNL d   1      -1.846   4.793  -4.190  0.00  0.00     0.019 C 
ENDBRANCH   1   7
TORSDOF 1
ENDMDL
