MODEL 1
REMARK minimizedAffinity 7.93427563
REMARK minimizedRMSD -1
REMARK  1 active torsions:
REMARK  status: ('A' for Active; 'I' for Inactive)
REMARK    1  A    between atoms: C1_2  and  C2_3 
ROOT
ATOM      1  C2  UNL d   1      -4.112  -4.430   0.734  0.00  0.00    -0.077 A 
ATOM      2  C3  UNL d   1      -2.906  -4.296   1.435  0.00  0.00     0.002 A 
ATOM      3  C4  UNL d   1      -2.832  -3.477   2.563  0.00  0.00     0.002 A 
ATOM      4  C5  UNL d   1      -3.961  -2.788   3.001  0.00  0.00    -0.004 A 
ATOM      5  C6  UNL d   1      -5.165  -2.913   2.309  0.00  0.00     0.002 A 
ATOM      6  C7  UNL d   1      -5.241  -3.730   1.181  0.00  0.00     0.002 A 
ENDROOT
BRANCH   1   7
ATOM      7  C1  UNL d   1      -4.207  -5.352  -0.454  0.00  0.00     0.055 C 
ATOM      8  C   UNL d   1      -5.581  -5.999  -0.545  0.00  0.00     0.019 C 
ENDBRANCH   1   7
TORSDOF 1
ENDMDL
