MODEL 1
REMARK minimizedAffinity 8.91874599
REMARK minimizedRMSD -1
REMARK  1 active torsions:
REMARK  status: ('A' for Active; 'I' for Inactive)
REMARK    1  A    between atoms: C1_2  and  C2_3 
ROOT
ATOM      1  C2  UNL d   1      -1.384  -2.373   2.271  0.00  0.00    -0.077 A 
ATOM      2  C3  UNL d   1      -1.471  -1.448   3.320  0.00  0.00     0.002 A 
ATOM      3  C4  UNL d   1      -0.427  -0.553   3.560  0.00  0.00     0.002 A 
ATOM      4  C5  UNL d   1       0.708  -0.571   2.753  0.00  0.00    -0.004 A 
ATOM      5  C6  UNL d   1       0.805  -1.489   1.708  0.00  0.00     0.002 A 
ATOM      6  C7  UNL d   1      -0.237  -2.385   1.467  0.00  0.00     0.002 A 
ENDROOT
BRANCH   1   7
ATOM      7  C1  UNL d   1      -2.530  -3.307   1.979  0.00  0.00     0.055 C 
ATOM      8  C   UNL d   1      -3.870  -2.644   2.263  0.00  0.00     0.019 C 
ENDBRANCH   1   7
TORSDOF 1
ENDMDL
