MODEL 1
REMARK minimizedAffinity 7.27108383
REMARK minimizedRMSD -1
REMARK  1 active torsions:
REMARK  status: ('A' for Active; 'I' for Inactive)
REMARK    1  A    between atoms: C1_2  and  C2_3 
ROOT
ATOM      1  C2  UNL d   1      -0.578  -2.427   3.763  0.00  0.00    -0.077 A 
ATOM      2  C3  UNL d   1       0.078  -1.284   4.243  0.00  0.00     0.002 A 
ATOM      3  C4  UNL d   1      -0.416  -0.601   5.356  0.00  0.00     0.002 A 
ATOM      4  C5  UNL d   1      -1.565  -1.053   6.000  0.00  0.00    -0.004 A 
ATOM      5  C6  UNL d   1      -2.226  -2.187   5.529  0.00  0.00     0.002 A 
ATOM      6  C7  UNL d   1      -1.735  -2.871   4.417  0.00  0.00     0.002 A 
ENDROOT
BRANCH   1   7
ATOM      7  C1  UNL d   1      -0.019  -3.194   2.594  0.00  0.00     0.055 C 
ATOM      8  C   UNL d   1       0.698  -2.272   1.619  0.00  0.00     0.019 C 
ENDBRANCH   1   7
TORSDOF 1
ENDMDL
