MODEL 1
REMARK minimizedAffinity 10.9750805
REMARK minimizedRMSD -1
REMARK  1 active torsions:
REMARK  status: ('A' for Active; 'I' for Inactive)
REMARK    1  A    between atoms: C1_2  and  C2_3 
ROOT
ATOM      1  C2  UNL d   1       0.910  -0.877   4.154  0.00  0.00    -0.077 A 
ATOM      2  C3  UNL d   1       1.954   0.013   3.860  0.00  0.00     0.002 A 
ATOM      3  C4  UNL d   1       2.732  -0.166   2.715  0.00  0.00     0.002 A 
ATOM      4  C5  UNL d   1       2.473  -1.230   1.853  0.00  0.00    -0.004 A 
ATOM      5  C6  UNL d   1       1.439  -2.121   2.138  0.00  0.00     0.002 A 
ATOM      6  C7  UNL d   1       0.661  -1.945   3.283  0.00  0.00     0.002 A 
ENDROOT
BRANCH   1   7
ATOM      7  C1  UNL d   1       0.038  -0.657   5.363  0.00  0.00     0.055 C 
ATOM      8  C   UNL d   1      -1.436  -0.808   5.016  0.00  0.00     0.019 C 
ENDBRANCH   1   7
TORSDOF 1
ENDMDL
