MODEL 1
REMARK minimizedAffinity 1.4451642
REMARK minimizedRMSD -1
REMARK  1 active torsions:
REMARK  status: ('A' for Active; 'I' for Inactive)
REMARK    1  A    between atoms: C1_2  and  C2_3 
ROOT
ATOM      1  C2  UNL d   1      -0.351  -1.248   3.819  0.00  0.00    -0.077 A 
ATOM      2  C3  UNL d   1      -1.219  -2.348   3.762  0.00  0.00     0.002 A 
ATOM      3  C4  UNL d   1      -1.103  -3.286   2.735  0.00  0.00     0.002 A 
ATOM      4  C5  UNL d   1      -0.118  -3.137   1.761  0.00  0.00    -0.004 A 
ATOM      5  C6  UNL d   1       0.748  -2.046   1.808  0.00  0.00     0.002 A 
ATOM      6  C7  UNL d   1       0.633  -1.106   2.833  0.00  0.00     0.002 A 
ENDROOT
BRANCH   1   7
ATOM      7  C1  UNL d   1      -0.443  -0.261   4.954  0.00  0.00     0.055 C 
ATOM      8  C   UNL d   1      -1.453  -0.712   5.999  0.00  0.00     0.019 C 
ENDBRANCH   1   7
TORSDOF 1
ENDMDL
