MODEL 1
REMARK minimizedAffinity 21.8589935
REMARK minimizedRMSD -1
REMARK  1 active torsions:
REMARK  status: ('A' for Active; 'I' for Inactive)
REMARK    1  A    between atoms: C1_2  and  C2_3 
ROOT
ATOM      1  C2  UNL d   1       1.255   0.710   0.889  0.00  0.00    -0.077 A 
ATOM      2  C3  UNL d   1       0.126  -0.108   1.043  0.00  0.00     0.002 A 
ATOM      3  C4  UNL d   1       0.260  -1.416   1.513  0.00  0.00     0.002 A 
ATOM      4  C5  UNL d   1       1.520  -1.916   1.835  0.00  0.00    -0.004 A 
ATOM      5  C6  UNL d   1       2.649  -1.112   1.683  0.00  0.00     0.002 A 
ATOM      6  C7  UNL d   1       2.517   0.195   1.212  0.00  0.00     0.002 A 
ENDROOT
BRANCH   1   7
ATOM      7  C1  UNL d   1       1.107   2.137   0.429  0.00  0.00     0.055 C 
ATOM      8  C   UNL d   1       0.371   2.217  -0.900  0.00  0.00     0.019 C 
ENDBRANCH   1   7
TORSDOF 1
ENDMDL
