MODEL 1
REMARK minimizedAffinity -4.11384487
REMARK minimizedRMSD -1
REMARK  0 active torsions:
REMARK  status: ('A' for Active; 'I' for Inactive)
ROOT
ATOM      1  C4' PXY d   1       2.609   0.390  -3.761  0.00  0.00     0.077 C 
ATOM      2  C1' PXY d   1      -2.409  -1.503  -5.919  0.00  0.00     0.077 C 
ATOM      3  C1  PXY d   1      -1.097  -1.010  -5.341  0.00  0.00    -0.082 A 
ATOM      4  C2  PXY d   1      -0.391  -0.105  -6.000  0.00  0.00     0.003 A 
ATOM      5  C3  PXY d   1       0.813   0.328  -5.507  0.00  0.00     0.003 A 
ATOM      6  C4  PXY d   1       1.274  -0.130  -4.302  0.00  0.00    -0.082 A 
ATOM      7  C5  PXY d   1       0.555  -1.045  -3.619  0.00  0.00     0.003 A 
ATOM      8  C6  PXY d   1      -0.645  -1.503  -4.156  0.00  0.00     0.003 A 
ENDROOT
TORSDOF 0
ENDMDL
