MODEL 1
REMARK minimizedAffinity -3.02826858
REMARK minimizedRMSD -1
REMARK  0 active torsions:
REMARK  status: ('A' for Active; 'I' for Inactive)
ROOT
ATOM      1  C4' PXY d   1       0.702  -0.737   4.236  0.00  0.00     0.077 C 
ATOM      2  C1' PXY d   1       0.269  -0.327  -1.514  0.00  0.00     0.077 C 
ATOM      3  C1  PXY d   1       0.373  -0.426  -0.005  0.00  0.00    -0.082 A 
ATOM      4  C2  PXY d   1       1.523  -0.773   0.551  0.00  0.00     0.003 A 
ATOM      5  C3  PXY d   1       1.625  -0.898   1.912  0.00  0.00     0.003 A 
ATOM      6  C4  PXY d   1       0.554  -0.615   2.717  0.00  0.00    -0.082 A 
ATOM      7  C5  PXY d   1      -0.620  -0.251   2.158  0.00  0.00     0.003 A 
ATOM      8  C6  PXY d   1      -0.714  -0.169   0.772  0.00  0.00     0.003 A 
ENDROOT
TORSDOF 0
ENDMDL
