MODEL 1
REMARK minimizedAffinity -1.69964612
REMARK minimizedRMSD -1
REMARK  0 active torsions:
REMARK  status: ('A' for Active; 'I' for Inactive)
ROOT
ATOM      1  C4' PXY d   1      -1.749  -1.046  -5.950  0.00  0.00     0.077 C 
ATOM      2  C1' PXY d   1       2.718   0.784  -2.770  0.00  0.00     0.077 C 
ATOM      3  C1  PXY d   1       1.545   0.294  -3.596  0.00  0.00    -0.082 A 
ATOM      4  C2  PXY d   1       1.404   0.711  -4.844  0.00  0.00     0.003 A 
ATOM      5  C3  PXY d   1       0.332   0.303  -5.595  0.00  0.00     0.003 A 
ATOM      6  C4  PXY d   1      -0.576  -0.584  -5.081  0.00  0.00    -0.082 A 
ATOM      7  C5  PXY d   1      -0.433  -1.023  -3.813  0.00  0.00     0.003 A 
ATOM      8  C6  PXY d   1       0.640  -0.564  -3.053  0.00  0.00     0.003 A 
ENDROOT
TORSDOF 0
ENDMDL
