MODEL 1
REMARK minimizedAffinity -4.29418468
REMARK minimizedRMSD -1
REMARK  0 active torsions:
REMARK  status: ('A' for Active; 'I' for Inactive)
ROOT
ATOM      1  C4' PXY d   1      -0.591   1.512   2.941  0.00  0.00     0.077 C 
ATOM      2  C1' PXY d   1       0.095  -1.169  -2.134  0.00  0.00     0.077 C 
ATOM      3  C1  PXY d   1      -0.096  -0.460  -0.807  0.00  0.00    -0.082 A 
ATOM      4  C2  PXY d   1       0.949  -0.246  -0.024  0.00  0.00     0.003 A 
ATOM      5  C3  PXY d   1       0.789   0.365   1.193  0.00  0.00     0.003 A 
ATOM      6  C4  PXY d   1      -0.444   0.809   1.589  0.00  0.00    -0.082 A 
ATOM      7  C5  PXY d   1      -1.513   0.603   0.791  0.00  0.00     0.003 A 
ATOM      8  C6  PXY d   1      -1.336  -0.055  -0.423  0.00  0.00     0.003 A 
ENDROOT
TORSDOF 0
ENDMDL
