MODEL 1
REMARK minimizedAffinity -3.11523724
REMARK minimizedRMSD -1
REMARK  0 active torsions:
REMARK  status: ('A' for Active; 'I' for Inactive)
ROOT
ATOM      1  C4' PXY d   1       0.661  -1.084  -2.185  0.00  0.00     0.077 C 
ATOM      2  C1' PXY d   1      -1.385   0.654   2.935  0.00  0.00     0.077 C 
ATOM      3  C1  PXY d   1      -0.837   0.203   1.595  0.00  0.00    -0.082 A 
ATOM      4  C2  PXY d   1      -1.666  -0.000   0.584  0.00  0.00     0.003 A 
ATOM      5  C3  PXY d   1      -1.191  -0.439  -0.625  0.00  0.00     0.003 A 
ATOM      6  C4  PXY d   1       0.153  -0.620  -0.817  0.00  0.00    -0.082 A 
ATOM      7  C5  PXY d   1       1.006  -0.404   0.207  0.00  0.00     0.003 A 
ATOM      8  C6  PXY d   1       0.500   0.001   1.438  0.00  0.00     0.003 A 
ENDROOT
TORSDOF 0
ENDMDL
