MODEL 1
REMARK minimizedAffinity -4.05548334
REMARK minimizedRMSD -1
REMARK  0 active torsions:
REMARK  status: ('A' for Active; 'I' for Inactive)
ROOT
ATOM      1  C4' PXY d   1       0.447  -1.065  -2.984  0.00  0.00     0.077 C 
ATOM      2  C1' PXY d   1      -0.910   0.181   2.495  0.00  0.00     0.077 C 
ATOM      3  C1  PXY d   1      -0.542  -0.141   1.060  0.00  0.00    -0.082 A 
ATOM      4  C2  PXY d   1      -1.488  -0.185   0.136  0.00  0.00     0.003 A 
ATOM      5  C3  PXY d   1      -1.177  -0.507  -1.160  0.00  0.00     0.003 A 
ATOM      6  C4  PXY d   1       0.123  -0.734  -1.525  0.00  0.00    -0.082 A 
ATOM      7  C5  PXY d   1       1.095  -0.681  -0.590  0.00  0.00     0.003 A 
ATOM      8  C6  PXY d   1       0.753  -0.393   0.728  0.00  0.00     0.003 A 
ENDROOT
TORSDOF 0
ENDMDL
