MODEL 1
REMARK minimizedAffinity -4.67833328
REMARK minimizedRMSD -1
REMARK  0 active torsions:
REMARK  status: ('A' for Active; 'I' for Inactive)
ROOT
ATOM      1  C4' PXY d   1      -2.132  -0.224  -0.507  0.00  0.00     0.077 C 
ATOM      2  C1' PXY d   1       3.369  -1.260   0.934  0.00  0.00     0.077 C 
ATOM      3  C1  PXY d   1       1.923  -0.988   0.569  0.00  0.00    -0.082 A 
ATOM      4  C2  PXY d   1       1.467  -1.357  -0.617  0.00  0.00     0.003 A 
ATOM      5  C3  PXY d   1       0.171  -1.091  -0.976  0.00  0.00     0.003 A 
ATOM      6  C4  PXY d   1      -0.682  -0.487  -0.092  0.00  0.00    -0.082 A 
ATOM      7  C5  PXY d   1      -0.228  -0.116   1.124  0.00  0.00     0.003 A 
ATOM      8  C6  PXY d   1       1.103  -0.359   1.454  0.00  0.00     0.003 A 
ENDROOT
TORSDOF 0
ENDMDL
