MODEL 1
REMARK minimizedAffinity -1.38792813
REMARK minimizedRMSD -1
REMARK  0 active torsions:
REMARK  status: ('A' for Active; 'I' for Inactive)
ROOT
ATOM      1  C4' PXY d   1       0.630  -1.133  -2.187  0.00  0.00     0.077 C 
ATOM      2  C1' PXY d   1      -1.302   0.782   2.913  0.00  0.00     0.077 C 
ATOM      3  C1  PXY d   1      -0.784   0.286   1.578  0.00  0.00    -0.082 A 
ATOM      4  C2  PXY d   1      -1.641  -0.044   0.625  0.00  0.00     0.003 A 
ATOM      5  C3  PXY d   1      -1.191  -0.525  -0.577  0.00  0.00     0.003 A 
ATOM      6  C4  PXY d   1       0.153  -0.619  -0.826  0.00  0.00    -0.082 A 
ATOM      7  C5  PXY d   1       1.034  -0.274   0.136  0.00  0.00     0.003 A 
ATOM      8  C6  PXY d   1       0.555   0.173   1.365  0.00  0.00     0.003 A 
ENDROOT
TORSDOF 0
ENDMDL
