MODEL 1
REMARK minimizedAffinity -2.79733443
REMARK minimizedRMSD -1
REMARK  0 active torsions:
REMARK  status: ('A' for Active; 'I' for Inactive)
ROOT
ATOM      1  C4' PXY d   1      -0.665  -1.174   0.164  0.00  0.00     0.077 C 
ATOM      2  C1' PXY d   1       1.913   1.186  -4.439  0.00  0.00     0.077 C 
ATOM      3  C1  PXY d   1       1.244   0.575  -3.224  0.00  0.00    -0.082 A 
ATOM      4  C2  PXY d   1       0.712  -0.634  -3.309  0.00  0.00     0.003 A 
ATOM      5  C3  PXY d   1       0.075  -1.189  -2.229  0.00  0.00     0.003 A 
ATOM      6  C4  PXY d   1       0.029  -0.522  -1.034  0.00  0.00    -0.082 A 
ATOM      7  C5  PXY d   1       0.579   0.707  -0.936  0.00  0.00     0.003 A 
ATOM      8  C6  PXY d   1       1.185   1.270  -2.056  0.00  0.00     0.003 A 
ENDROOT
TORSDOF 0
ENDMDL
