MODEL 1
REMARK minimizedAffinity -3.21179652
REMARK minimizedRMSD -1
REMARK  0 active torsions:
REMARK  status: ('A' for Active; 'I' for Inactive)
ROOT
ATOM      1  C4' PXY d   1       0.793  -0.239  -3.030  0.00  0.00     0.077 C 
ATOM      2  C1' PXY d   1      -1.605   0.209   2.211  0.00  0.00     0.077 C 
ATOM      3  C1  PXY d   1      -0.965   0.095   0.841  0.00  0.00    -0.082 A 
ATOM      4  C2  PXY d   1      -1.717   0.194  -0.243  0.00  0.00     0.003 A 
ATOM      5  C3  PXY d   1      -1.159   0.061  -1.488  0.00  0.00     0.003 A 
ATOM      6  C4  PXY d   1       0.191  -0.121  -1.627  0.00  0.00    -0.082 A 
ATOM      7  C5  PXY d   1       0.967  -0.212  -0.526  0.00  0.00     0.003 A 
ATOM      8  C6  PXY d   1       0.375  -0.116   0.730  0.00  0.00     0.003 A 
ENDROOT
TORSDOF 0
ENDMDL
