MODEL 1
REMARK minimizedAffinity -3.08380079
REMARK minimizedRMSD -1
REMARK  0 active torsions:
REMARK  status: ('A' for Active; 'I' for Inactive)
ROOT
ATOM      1  C4' PXY d   1       1.990  -0.811   3.276  0.00  0.00     0.077 C 
ATOM      2  C1' PXY d   1      -2.618   0.762   0.160  0.00  0.00     0.077 C 
ATOM      3  C1  PXY d   1      -1.405   0.342   0.967  0.00  0.00    -0.082 A 
ATOM      4  C2  PXY d   1      -1.446   0.403   2.288  0.00  0.00     0.003 A 
ATOM      5  C3  PXY d   1      -0.347   0.057   3.033  0.00  0.00     0.003 A 
ATOM      6  C4  PXY d   1       0.787  -0.406   2.420  0.00  0.00    -0.082 A 
ATOM      7  C5  PXY d   1       0.832  -0.481   1.073  0.00  0.00     0.003 A 
ATOM      8  C6  PXY d   1      -0.279  -0.086   0.334  0.00  0.00     0.003 A 
ENDROOT
TORSDOF 0
ENDMDL
