MODEL 1
REMARK minimizedAffinity -1.66011393
REMARK minimizedRMSD -1
REMARK  0 active torsions:
REMARK  status: ('A' for Active; 'I' for Inactive)
ROOT
ATOM      1  C4' PXY d   1       0.454  -0.353  -3.177  0.00  0.00     0.077 C 
ATOM      2  C1' PXY d   1      -1.768   0.201   2.131  0.00  0.00     0.077 C 
ATOM      3  C1  PXY d   1      -1.174   0.052   0.744  0.00  0.00    -0.082 A 
ATOM      4  C2  PXY d   1      -1.697   0.726  -0.267  0.00  0.00     0.003 A 
ATOM      5  C3  PXY d   1      -1.193   0.578  -1.534  0.00  0.00     0.003 A 
ATOM      6  C4  PXY d   1      -0.107  -0.226  -1.758  0.00  0.00    -0.082 A 
ATOM      7  C5  PXY d   1       0.439  -0.908  -0.729  0.00  0.00     0.003 A 
ATOM      8  C6  PXY d   1      -0.114  -0.777   0.542  0.00  0.00     0.003 A 
ENDROOT
TORSDOF 0
ENDMDL
