MODEL 1
REMARK minimizedAffinity 2.02217579
REMARK minimizedRMSD -1
REMARK  0 active torsions:
REMARK  status: ('A' for Active; 'I' for Inactive)
ROOT
ATOM      1  C   UNL d   1      -5.883   1.750  -4.925  0.00  0.00     0.077 C 
ATOM      2  C1  UNL d   1      -5.478   3.032  -4.262  0.00  0.00    -0.074 A 
ATOM      3  C2  UNL d   1      -6.000   3.393  -3.016  0.00  0.00    -0.005 A 
ATOM      4  C3  UNL d   1      -5.606   4.585  -2.407  0.00  0.00     0.006 A 
ATOM      5  C4  UNL d   1      -4.687   5.425  -3.036  0.00  0.00    -0.005 A 
ATOM      6  C5  UNL d   1      -4.153   5.080  -4.282  0.00  0.00    -0.074 A 
ATOM      7  C6  UNL d   1      -3.157   5.968  -4.968  0.00  0.00     0.077 C 
ATOM      8  C7  UNL d   1      -4.549   3.878  -4.884  0.00  0.00    -0.001 A 
ENDROOT
TORSDOF 0
ENDMDL
