MODEL 1
REMARK minimizedAffinity 7.52000427
REMARK minimizedRMSD -1
REMARK  0 active torsions:
REMARK  status: ('A' for Active; 'I' for Inactive)
ROOT
ATOM      1  C   UNL d   1       0.745   3.003   0.551  0.00  0.00     0.077 C 
ATOM      2  C1  UNL d   1      -0.117   4.046  -0.095  0.00  0.00    -0.074 A 
ATOM      3  C2  UNL d   1      -0.837   4.964   0.677  0.00  0.00    -0.005 A 
ATOM      4  C3  UNL d   1      -1.627   5.934   0.062  0.00  0.00     0.006 A 
ATOM      5  C4  UNL d   1      -1.705   5.998  -1.330  0.00  0.00    -0.005 A 
ATOM      6  C5  UNL d   1      -0.992   5.090  -2.119  0.00  0.00    -0.074 A 
ATOM      7  C6  UNL d   1      -1.057   5.151  -3.616  0.00  0.00     0.077 C 
ATOM      8  C7  UNL d   1      -0.195   4.122  -1.493  0.00  0.00    -0.001 A 
ENDROOT
TORSDOF 0
ENDMDL
