MODEL 1
REMARK minimizedAffinity -0.169974685
REMARK minimizedRMSD -1
REMARK  0 active torsions:
REMARK  status: ('A' for Active; 'I' for Inactive)
ROOT
ATOM      1  C   UNL d   1       2.293   4.128  -0.003  0.00  0.00     0.077 C 
ATOM      2  C1  UNL d   1       0.864   4.411  -0.358  0.00  0.00    -0.074 A 
ATOM      3  C2  UNL d   1      -0.175   4.067   0.513  0.00  0.00    -0.005 A 
ATOM      4  C3  UNL d   1      -1.499   4.346   0.174  0.00  0.00     0.006 A 
ATOM      5  C4  UNL d   1      -1.797   4.969  -1.039  0.00  0.00    -0.005 A 
ATOM      6  C5  UNL d   1      -0.772   5.320  -1.923  0.00  0.00    -0.074 A 
ATOM      7  C6  UNL d   1      -1.074   5.999  -3.225  0.00  0.00     0.077 C 
ATOM      8  C7  UNL d   1       0.557   5.043  -1.571  0.00  0.00    -0.001 A 
ENDROOT
TORSDOF 0
ENDMDL
