MODEL 1
REMARK minimizedAffinity -1.33758593
REMARK minimizedRMSD -1
REMARK  0 active torsions:
REMARK  status: ('A' for Active; 'I' for Inactive)
ROOT
ATOM      1  C   UNL d   1       1.194   4.522  -0.305  0.00  0.00     0.077 C 
ATOM      2  C1  UNL d   1      -0.072   3.962  -0.882  0.00  0.00    -0.074 A 
ATOM      3  C2  UNL d   1      -1.163   4.791  -1.161  0.00  0.00    -0.005 A 
ATOM      4  C3  UNL d   1      -2.331   4.258  -1.706  0.00  0.00     0.006 A 
ATOM      5  C4  UNL d   1      -2.418   2.892  -1.979  0.00  0.00    -0.005 A 
ATOM      6  C5  UNL d   1      -1.337   2.048  -1.708  0.00  0.00    -0.074 A 
ATOM      7  C6  UNL d   1      -1.411   0.579  -2.004  0.00  0.00     0.077 C 
ATOM      8  C7  UNL d   1      -0.165   2.593  -1.166  0.00  0.00    -0.001 A 
ENDROOT
TORSDOF 0
ENDMDL
