MODEL 1
REMARK minimizedAffinity 12.5007143
REMARK minimizedRMSD -1
REMARK  0 active torsions:
REMARK  status: ('A' for Active; 'I' for Inactive)
ROOT
ATOM      1  C   UNL d   1       4.095  -2.146  -0.485  0.00  0.00     0.077 C 
ATOM      2  C1  UNL d   1       2.644  -2.274  -0.840  0.00  0.00    -0.074 A 
ATOM      3  C2  UNL d   1       1.836  -1.141  -0.981  0.00  0.00    -0.005 A 
ATOM      4  C3  UNL d   1       0.490  -1.275  -1.321  0.00  0.00     0.006 A 
ATOM      5  C4  UNL d   1      -0.062  -2.541  -1.522  0.00  0.00    -0.005 A 
ATOM      6  C5  UNL d   1       0.731  -3.685  -1.386  0.00  0.00    -0.074 A 
ATOM      7  C6  UNL d   1       0.157  -5.052  -1.609  0.00  0.00     0.077 C 
ATOM      8  C7  UNL d   1       2.084  -3.542  -1.052  0.00  0.00    -0.001 A 
ENDROOT
TORSDOF 0
ENDMDL
