MODEL 1
REMARK minimizedAffinity 2.36717486
REMARK minimizedRMSD -1
REMARK  0 active torsions:
REMARK  status: ('A' for Active; 'I' for Inactive)
ROOT
ATOM      1  C   UNL d   1       0.334  -0.892  -0.791  0.00  0.00     0.077 C 
ATOM      2  C1  UNL d   1      -0.006  -2.200  -1.442  0.00  0.00    -0.074 A 
ATOM      3  C2  UNL d   1      -0.890  -2.256  -2.524  0.00  0.00    -0.005 A 
ATOM      4  C3  UNL d   1      -1.189  -3.479  -3.124  0.00  0.00     0.006 A 
ATOM      5  C4  UNL d   1      -0.608  -4.656  -2.650  0.00  0.00    -0.005 A 
ATOM      6  C5  UNL d   1       0.279  -4.619  -1.570  0.00  0.00    -0.074 A 
ATOM      7  C6  UNL d   1       0.920  -5.873  -1.054  0.00  0.00     0.077 C 
ATOM      8  C7  UNL d   1       0.580  -3.385  -0.976  0.00  0.00    -0.001 A 
ENDROOT
TORSDOF 0
ENDMDL
