MODEL 1
REMARK minimizedAffinity 2.17621207
REMARK minimizedRMSD -1
REMARK  0 active torsions:
REMARK  status: ('A' for Active; 'I' for Inactive)
ROOT
ATOM      1  C   UNL d   1      -2.691   4.851  -2.281  0.00  0.00     0.077 C 
ATOM      2  C1  UNL d   1      -1.394   4.542  -1.592  0.00  0.00    -0.074 A 
ATOM      3  C2  UNL d   1      -0.187   5.067  -2.064  0.00  0.00    -0.005 A 
ATOM      4  C3  UNL d   1       1.010   4.778  -1.408  0.00  0.00     0.006 A 
ATOM      5  C4  UNL d   1       1.011   3.963  -0.275  0.00  0.00    -0.005 A 
ATOM      6  C5  UNL d   1      -0.187   3.430   0.212  0.00  0.00    -0.074 A 
ATOM      7  C6  UNL d   1      -0.205   2.561   1.434  0.00  0.00     0.077 C 
ATOM      8  C7  UNL d   1      -1.386   3.731  -0.449  0.00  0.00    -0.001 A 
ENDROOT
TORSDOF 0
ENDMDL
