MODEL 1
REMARK minimizedAffinity 2.66694665
REMARK minimizedRMSD -1
REMARK  0 active torsions:
REMARK  status: ('A' for Active; 'I' for Inactive)
ROOT
ATOM      1  C   UNL d   1       0.205   2.402   2.277  0.00  0.00     0.077 C 
ATOM      2  C1  UNL d   1      -0.110   2.835   0.876  0.00  0.00    -0.074 A 
ATOM      3  C2  UNL d   1       0.095   4.157   0.470  0.00  0.00    -0.005 A 
ATOM      4  C3  UNL d   1      -0.194   4.543  -0.839  0.00  0.00     0.006 A 
ATOM      5  C4  UNL d   1      -0.689   3.612  -1.753  0.00  0.00    -0.005 A 
ATOM      6  C5  UNL d   1      -0.899   2.285  -1.365  0.00  0.00    -0.074 A 
ATOM      7  C6  UNL d   1      -1.422   1.270  -2.337  0.00  0.00     0.077 C 
ATOM      8  C7  UNL d   1      -0.600   1.904  -0.050  0.00  0.00    -0.001 A 
ENDROOT
TORSDOF 0
ENDMDL
