MODEL 1
REMARK minimizedAffinity 5.25323868
REMARK minimizedRMSD -1
REMARK  0 active torsions:
REMARK  status: ('A' for Active; 'I' for Inactive)
ROOT
ATOM      1  C   UNL d   1      -5.999  -2.115   5.964  0.00  0.00     0.077 C 
ATOM      2  C1  UNL d   1      -5.760  -0.797   5.289  0.00  0.00    -0.074 A 
ATOM      3  C2  UNL d   1      -5.999   0.407   5.959  0.00  0.00    -0.005 A 
ATOM      4  C3  UNL d   1      -5.763   1.625   5.322  0.00  0.00     0.006 A 
ATOM      5  C4  UNL d   1      -5.286   1.651   4.011  0.00  0.00    -0.005 A 
ATOM      6  C5  UNL d   1      -5.040   0.457   3.326  0.00  0.00    -0.074 A 
ATOM      7  C6  UNL d   1      -4.518   0.468   1.920  0.00  0.00     0.077 C 
ATOM      8  C7  UNL d   1      -5.273  -0.763   3.975  0.00  0.00    -0.001 A 
ENDROOT
TORSDOF 0
ENDMDL
