MODEL 1
REMARK minimizedAffinity 7.74746275
REMARK minimizedRMSD -1
REMARK  0 active torsions:
REMARK  status: ('A' for Active; 'I' for Inactive)
ROOT
ATOM      1  C   UNL d   1       3.732  -5.718  -3.486  0.00  0.00     0.077 C 
ATOM      2  C1  UNL d   1       4.424  -5.183  -2.268  0.00  0.00    -0.074 A 
ATOM      3  C2  UNL d   1       5.261  -5.999  -1.500  0.00  0.00    -0.005 A 
ATOM      4  C3  UNL d   1       5.905  -5.485  -0.375  0.00  0.00     0.006 A 
ATOM      5  C4  UNL d   1       5.720  -4.152  -0.007  0.00  0.00    -0.005 A 
ATOM      6  C5  UNL d   1       4.887  -3.320  -0.764  0.00  0.00    -0.074 A 
ATOM      7  C6  UNL d   1       4.685  -1.883  -0.388  0.00  0.00     0.077 C 
ATOM      8  C7  UNL d   1       4.249  -3.843  -1.897  0.00  0.00    -0.001 A 
ENDROOT
TORSDOF 0
ENDMDL
