MODEL 1
REMARK minimizedAffinity 3.37229347
REMARK minimizedRMSD -1
REMARK  0 active torsions:
REMARK  status: ('A' for Active; 'I' for Inactive)
ROOT
ATOM      1  C   UNL d   1      -1.172  -1.069  -0.037  0.00  0.00    -0.002 A 
ATOM      2  C1  UNL d   1      -1.150  -0.181  -1.104  0.00  0.00     0.010 A 
ATOM      3  C2  UNL d   1      -1.527  -0.598  -2.382  0.00  0.00     0.041 A 
ATOM      4  C3  UNL d   1      -1.932  -1.933  -2.572  0.00  0.00    -0.075 A 
ATOM      5  S   UNL d   1      -2.438  -2.666  -4.048  0.00  0.00     0.015 SA
ATOM      6  C4  UNL d   1      -2.697  -4.174  -3.297  0.00  0.00     0.022 A 
ATOM      7  C5  UNL d   1      -2.409  -4.138  -1.953  0.00  0.00     0.026 A 
ATOM      8  C6  UNL d   1      -1.965  -2.845  -1.513  0.00  0.00    -0.082 A 
ATOM      9  C7  UNL d   1      -1.575  -2.393  -0.229  0.00  0.00     0.045 A 
ENDROOT
TORSDOF 0
ENDMDL
