MODEL 1
REMARK minimizedAffinity 1.27788484
REMARK minimizedRMSD -1
REMARK  0 active torsions:
REMARK  status: ('A' for Active; 'I' for Inactive)
ROOT
ATOM      1  C   UNL d   1      -4.793   4.311   0.772  0.00  0.00    -0.002 A 
ATOM      2  C1  UNL d   1      -5.686   5.370   0.846  0.00  0.00     0.010 A 
ATOM      3  C2  UNL d   1      -6.000   5.951   2.076  0.00  0.00     0.041 A 
ATOM      4  C3  UNL d   1      -5.392   5.446   3.243  0.00  0.00    -0.075 A 
ATOM      5  S   UNL d   1      -5.624   6.000   4.859  0.00  0.00     0.015 SA
ATOM      6  C4  UNL d   1      -4.541   4.845   5.489  0.00  0.00     0.022 A 
ATOM      7  C5  UNL d   1      -4.007   4.047   4.505  0.00  0.00     0.026 A 
ATOM      8  C6  UNL d   1      -4.488   4.381   3.194  0.00  0.00    -0.082 A 
ATOM      9  C7  UNL d   1      -4.192   3.813   1.931  0.00  0.00     0.045 A 
ENDROOT
TORSDOF 0
ENDMDL
