MODEL 1
REMARK minimizedAffinity -3.82676673
REMARK minimizedRMSD -1
REMARK  0 active torsions:
REMARK  status: ('A' for Active; 'I' for Inactive)
ROOT
ATOM      1  C   UNL d   1      -4.182   1.672   3.999  0.00  0.00    -0.002 A 
ATOM      2  C1  UNL d   1      -4.217   2.251   2.738  0.00  0.00     0.010 A 
ATOM      3  C2  UNL d   1      -4.588   3.588   2.581  0.00  0.00     0.041 A 
ATOM      4  C3  UNL d   1      -4.925   4.340   3.723  0.00  0.00    -0.075 A 
ATOM      5  S   UNL d   1      -5.409   5.994   3.773  0.00  0.00     0.015 SA
ATOM      6  C4  UNL d   1      -5.580   5.971   5.468  0.00  0.00     0.022 A 
ATOM      7  C5  UNL d   1      -5.280   4.740   6.000  0.00  0.00     0.026 A 
ATOM      8  C6  UNL d   1      -4.897   3.780   5.003  0.00  0.00    -0.082 A 
ATOM      9  C7  UNL d   1      -4.517   2.422   5.130  0.00  0.00     0.045 A 
ENDROOT
TORSDOF 0
ENDMDL
