MODEL 1
REMARK minimizedAffinity 0.757723927
REMARK minimizedRMSD -1
REMARK  0 active torsions:
REMARK  status: ('A' for Active; 'I' for Inactive)
ROOT
ATOM      1  C   UNL d   1      -2.969  -2.807  -3.784  0.00  0.00    -0.002 A 
ATOM      2  C1  UNL d   1      -2.808  -3.567  -2.634  0.00  0.00     0.010 A 
ATOM      3  C2  UNL d   1      -2.087  -3.067  -1.548  0.00  0.00     0.041 A 
ATOM      4  C3  UNL d   1      -1.527  -1.777  -1.637  0.00  0.00    -0.075 A 
ATOM      5  S   UNL d   1      -0.605  -0.958  -0.432  0.00  0.00     0.015 SA
ATOM      6  C4  UNL d   1      -0.404   0.419  -1.415  0.00  0.00     0.022 A 
ATOM      7  C5  UNL d   1      -1.018   0.275  -2.637  0.00  0.00     0.026 A 
ATOM      8  C6  UNL d   1      -1.676  -0.993  -2.784  0.00  0.00    -0.082 A 
ATOM      9  C7  UNL d   1      -2.412  -1.529  -3.869  0.00  0.00     0.045 A 
ENDROOT
TORSDOF 0
ENDMDL
