MODEL 1
REMARK minimizedAffinity 2.11521506
REMARK minimizedRMSD -1
REMARK  0 active torsions:
REMARK  status: ('A' for Active; 'I' for Inactive)
ROOT
ATOM      1  C   UNL d   1       2.102  -0.315  -4.337  0.00  0.00    -0.002 A 
ATOM      2  C1  UNL d   1       2.983  -0.602  -3.305  0.00  0.00     0.010 A 
ATOM      3  C2  UNL d   1       2.580  -0.482  -1.973  0.00  0.00     0.041 A 
ATOM      4  C3  UNL d   1       1.264  -0.066  -1.694  0.00  0.00    -0.075 A 
ATOM      5  S   UNL d   1       0.549   0.151  -0.140  0.00  0.00     0.015 SA
ATOM      6  C4  UNL d   1      -0.943   0.629  -0.811  0.00  0.00     0.022 A 
ATOM      7  C5  UNL d   1      -0.915   0.629  -2.185  0.00  0.00     0.026 A 
ATOM      8  C6  UNL d   1       0.358   0.228  -2.717  0.00  0.00    -0.082 A 
ATOM      9  C7  UNL d   1       0.796   0.098  -4.057  0.00  0.00     0.045 A 
ENDROOT
TORSDOF 0
ENDMDL
