MODEL 1
REMARK minimizedAffinity 11.839057
REMARK minimizedRMSD -1
REMARK  0 active torsions:
REMARK  status: ('A' for Active; 'I' for Inactive)
ROOT
ATOM      1  C   UNL d   1       3.354   4.205   1.308  0.00  0.00    -0.002 A 
ATOM      2  C1  UNL d   1       2.862   3.350   0.332  0.00  0.00     0.010 A 
ATOM      3  C2  UNL d   1       2.082   2.246   0.683  0.00  0.00     0.041 A 
ATOM      4  C3  UNL d   1       1.801   2.015   2.044  0.00  0.00    -0.075 A 
ATOM      5  S   UNL d   1       0.868   0.727   2.708  0.00  0.00     0.015 SA
ATOM      6  C4  UNL d   1       1.099   1.282   4.303  0.00  0.00     0.022 A 
ATOM      7  C5  UNL d   1       1.868   2.421   4.346  0.00  0.00     0.026 A 
ATOM      8  C6  UNL d   1       2.285   2.862   3.045  0.00  0.00    -0.082 A 
ATOM      9  C7  UNL d   1       3.073   3.972   2.657  0.00  0.00     0.045 A 
ENDROOT
TORSDOF 0
ENDMDL
