MODEL 1
REMARK minimizedAffinity 13.2367048
REMARK minimizedRMSD -1
REMARK  0 active torsions:
REMARK  status: ('A' for Active; 'I' for Inactive)
ROOT
ATOM      1  C   UNL d   1      -2.959  -3.541  -3.667  0.00  0.00    -0.002 A 
ATOM      2  C1  UNL d   1      -2.501  -2.530  -4.501  0.00  0.00     0.010 A 
ATOM      3  C2  UNL d   1      -1.799  -1.443  -3.979  0.00  0.00     0.041 A 
ATOM      4  C3  UNL d   1      -1.560  -1.388  -2.592  0.00  0.00    -0.075 A 
ATOM      5  S   UNL d   1      -0.720  -0.153  -1.729  0.00  0.00     0.015 SA
ATOM      6  C4  UNL d   1      -0.949  -0.938  -0.234  0.00  0.00     0.022 A 
ATOM      7  C5  UNL d   1      -1.647  -2.114  -0.371  0.00  0.00     0.026 A 
ATOM      8  C6  UNL d   1      -2.010  -2.393  -1.732  0.00  0.00    -0.082 A 
ATOM      9  C7  UNL d   1      -2.720  -3.483  -2.291  0.00  0.00     0.045 A 
ENDROOT
TORSDOF 0
ENDMDL
