MODEL 1
REMARK minimizedAffinity 9.13585186
REMARK minimizedRMSD -1
REMARK  0 active torsions:
REMARK  status: ('A' for Active; 'I' for Inactive)
ROOT
ATOM      1  C   UNL d   1       2.954  -0.587  -3.878  0.00  0.00    -0.002 A 
ATOM      2  C1  UNL d   1       1.795  -0.107  -4.472  0.00  0.00     0.010 A 
ATOM      3  C2  UNL d   1       0.660   0.156  -3.703  0.00  0.00     0.041 A 
ATOM      4  C3  UNL d   1       0.710  -0.071  -2.314  0.00  0.00    -0.075 A 
ATOM      5  S   UNL d   1      -0.558   0.181  -1.173  0.00  0.00     0.015 SA
ATOM      6  C4  UNL d   1       0.409  -0.341   0.129  0.00  0.00     0.022 A 
ATOM      7  C5  UNL d   1       1.671  -0.703  -0.278  0.00  0.00     0.026 A 
ATOM      8  C6  UNL d   1       1.865  -0.553  -1.693  0.00  0.00    -0.082 A 
ATOM      9  C7  UNL d   1       3.000  -0.811  -2.500  0.00  0.00     0.045 A 
ENDROOT
TORSDOF 0
ENDMDL
