MODEL 1
REMARK minimizedAffinity 0.506877482
REMARK minimizedRMSD -1
REMARK  0 active torsions:
REMARK  status: ('A' for Active; 'I' for Inactive)
ROOT
ATOM      1  C   UNL d   1      -2.522  -3.122  -0.842  0.00  0.00    -0.002 A 
ATOM      2  C1  UNL d   1      -2.949  -2.386  -1.939  0.00  0.00     0.010 A 
ATOM      3  C2  UNL d   1      -2.283  -1.218  -2.313  0.00  0.00     0.041 A 
ATOM      4  C3  UNL d   1      -1.168  -0.798  -1.561  0.00  0.00    -0.075 A 
ATOM      5  S   UNL d   1      -0.196   0.599  -1.835  0.00  0.00     0.015 SA
ATOM      6  C4  UNL d   1       0.809   0.252  -0.503  0.00  0.00     0.022 A 
ATOM      7  C5  UNL d   1       0.427  -0.898   0.146  0.00  0.00     0.026 A 
ATOM      8  C6  UNL d   1      -0.718  -1.523  -0.454  0.00  0.00    -0.082 A 
ATOM      9  C7  UNL d   1      -1.416  -2.702  -0.098  0.00  0.00     0.045 A 
ENDROOT
TORSDOF 0
ENDMDL
