MODEL 1
REMARK minimizedAffinity 2.72253203
REMARK minimizedRMSD -1
REMARK  0 active torsions:
REMARK  status: ('A' for Active; 'I' for Inactive)
ROOT
ATOM      1  C   UNL d   1      -4.772   4.668  -0.136  0.00  0.00    -0.002 A 
ATOM      2  C1  UNL d   1      -5.810   5.539   0.163  0.00  0.00     0.010 A 
ATOM      3  C2  UNL d   1      -5.997   5.999   1.468  0.00  0.00     0.041 A 
ATOM      4  C3  UNL d   1      -5.113   5.567   2.477  0.00  0.00    -0.075 A 
ATOM      5  S   UNL d   1      -5.148   6.000   4.145  0.00  0.00     0.015 SA
ATOM      6  C4  UNL d   1      -3.785   5.040   4.500  0.00  0.00     0.022 A 
ATOM      7  C5  UNL d   1      -3.302   4.397   3.384  0.00  0.00     0.026 A 
ATOM      8  C6  UNL d   1      -4.060   4.691   2.200  0.00  0.00    -0.082 A 
ATOM      9  C7  UNL d   1      -3.897   4.241   0.867  0.00  0.00     0.045 A 
ENDROOT
TORSDOF 0
ENDMDL
