MODEL 1
REMARK minimizedAffinity -0.823185444
REMARK minimizedRMSD -1
REMARK  0 active torsions:
REMARK  status: ('A' for Active; 'I' for Inactive)
ROOT
ATOM      1  C   UNL d   1      -4.786   4.118   5.950  0.00  0.00    -0.002 A 
ATOM      2  C1  UNL d   1      -5.430   5.347   5.995  0.00  0.00     0.010 A 
ATOM      3  C2  UNL d   1      -5.799   5.998   4.816  0.00  0.00     0.041 A 
ATOM      4  C3  UNL d   1      -5.509   5.387   3.580  0.00  0.00    -0.075 A 
ATOM      5  S   UNL d   1      -5.868   5.999   2.009  0.00  0.00     0.015 SA
ATOM      6  C4  UNL d   1      -5.177   4.643   1.242  0.00  0.00     0.022 A 
ATOM      7  C5  UNL d   1      -4.679   3.736   2.147  0.00  0.00     0.026 A 
ATOM      8  C6  UNL d   1      -4.863   4.150   3.510  0.00  0.00    -0.082 A 
ATOM      9  C7  UNL d   1      -4.501   3.515   4.723  0.00  0.00     0.045 A 
ENDROOT
TORSDOF 0
ENDMDL
