MODEL 1
REMARK minimizedAffinity -6.06161737
REMARK minimizedRMSD -1
REMARK  0 active torsions:
REMARK  status: ('A' for Active; 'I' for Inactive)
ROOT
ATOM      1  C   UNL d   1      -2.243  -2.480  -0.754  0.00  0.00    -0.002 A 
ATOM      2  C1  UNL d   1      -2.729  -1.484   0.081  0.00  0.00     0.010 A 
ATOM      3  C2  UNL d   1      -3.888  -1.690   0.833  0.00  0.00     0.041 A 
ATOM      4  C3  UNL d   1      -4.554  -2.927   0.733  0.00  0.00    -0.075 A 
ATOM      5  S   UNL d   1      -5.989  -3.405   1.560  0.00  0.00     0.015 SA
ATOM      6  C4  UNL d   1      -5.990  -4.943   0.827  0.00  0.00     0.022 A 
ATOM      7  C5  UNL d   1      -4.928  -5.105  -0.032  0.00  0.00     0.026 A 
ATOM      8  C6  UNL d   1      -4.083  -3.946  -0.100  0.00  0.00    -0.082 A 
ATOM      9  C7  UNL d   1      -2.907  -3.706  -0.850  0.00  0.00     0.045 A 
ENDROOT
TORSDOF 0
ENDMDL
