MODEL 1
REMARK minimizedAffinity -4.2334609
REMARK minimizedRMSD -1
REMARK  0 active torsions:
REMARK  status: ('A' for Active; 'I' for Inactive)
ROOT
ATOM      1  C   UNL d   1      -2.670  -2.044  -0.627  0.00  0.00    -0.002 A 
ATOM      2  C1  UNL d   1      -2.012  -3.185  -1.064  0.00  0.00     0.010 A 
ATOM      3  C2  UNL d   1      -2.535  -4.452  -0.798  0.00  0.00     0.041 A 
ATOM      4  C3  UNL d   1      -3.743  -4.554  -0.080  0.00  0.00    -0.075 A 
ATOM      5  S   UNL d   1      -4.572  -6.000   0.361  0.00  0.00     0.015 SA
ATOM      6  C4  UNL d   1      -5.819  -5.137   1.139  0.00  0.00     0.022 A 
ATOM      7  C5  UNL d   1      -5.623  -3.778   1.073  0.00  0.00     0.026 A 
ATOM      8  C6  UNL d   1      -4.424  -3.419   0.370  0.00  0.00    -0.082 A 
ATOM      9  C7  UNL d   1      -3.868  -2.149   0.085  0.00  0.00     0.045 A 
ENDROOT
TORSDOF 0
ENDMDL
