MODEL 1
REMARK minimizedAffinity 11.5390263
REMARK minimizedRMSD -1
REMARK  0 active torsions:
REMARK  status: ('A' for Active; 'I' for Inactive)
ROOT
ATOM      1  C   UNL d   1      -1.272  -0.088  -0.528  0.00  0.00    -0.002 A 
ATOM      2  C1  UNL d   1      -1.434   0.604  -1.720  0.00  0.00     0.010 A 
ATOM      3  C2  UNL d   1      -1.876  -0.054  -2.870  0.00  0.00     0.041 A 
ATOM      4  C3  UNL d   1      -2.157  -1.432  -2.800  0.00  0.00    -0.075 A 
ATOM      5  S   UNL d   1      -2.710  -2.446  -4.080  0.00  0.00     0.015 SA
ATOM      6  C4  UNL d   1      -2.746  -3.822  -3.075  0.00  0.00     0.022 A 
ATOM      7  C5  UNL d   1      -2.348  -3.533  -1.791  0.00  0.00     0.026 A 
ATOM      8  C6  UNL d   1      -2.002  -2.151  -1.612  0.00  0.00    -0.082 A 
ATOM      9  C7  UNL d   1      -1.552  -1.456  -0.464  0.00  0.00     0.045 A 
ENDROOT
TORSDOF 0
ENDMDL
