MODEL 1
REMARK minimizedAffinity 8.84000111
REMARK minimizedRMSD -1
REMARK  0 active torsions:
REMARK  status: ('A' for Active; 'I' for Inactive)
ROOT
ATOM      1  C   UNL d   1       2.505   1.134   5.679  0.00  0.00    -0.002 A 
ATOM      2  C1  UNL d   1       1.838   0.062   5.102  0.00  0.00     0.010 A 
ATOM      3  C2  UNL d   1       1.500   0.083   3.747  0.00  0.00     0.041 A 
ATOM      4  C3  UNL d   1       1.848   1.208   2.975  0.00  0.00    -0.075 A 
ATOM      5  S   UNL d   1       1.537   1.454   1.297  0.00  0.00     0.015 SA
ATOM      6  C4  UNL d   1       2.282   2.987   1.307  0.00  0.00     0.022 A 
ATOM      7  C5  UNL d   1       2.762   3.319   2.551  0.00  0.00     0.026 A 
ATOM      8  C6  UNL d   1       2.520   2.299   3.533  0.00  0.00    -0.082 A 
ATOM      9  C7  UNL d   1       2.848   2.248   4.909  0.00  0.00     0.045 A 
ENDROOT
TORSDOF 0
ENDMDL
