MODEL 1
REMARK minimizedAffinity 14.2050133
REMARK minimizedRMSD -1
REMARK  0 active torsions:
REMARK  status: ('A' for Active; 'I' for Inactive)
ROOT
ATOM      1  C   UNL d   1      -2.865  -3.744  -3.481  0.00  0.00    -0.002 A 
ATOM      2  C1  UNL d   1      -2.446  -2.932  -4.524  0.00  0.00     0.010 A 
ATOM      3  C2  UNL d   1      -1.724  -1.764  -4.269  0.00  0.00     0.041 A 
ATOM      4  C3  UNL d   1      -1.426  -1.425  -2.935  0.00  0.00    -0.075 A 
ATOM      5  S   UNL d   1      -0.554  -0.044  -2.383  0.00  0.00     0.015 SA
ATOM      6  C4  UNL d   1      -0.716  -0.501  -0.749  0.00  0.00     0.022 A 
ATOM      7  C5  UNL d   1      -1.416  -1.675  -0.610  0.00  0.00     0.026 A 
ATOM      8  C6  UNL d   1      -1.836  -2.228  -1.867  0.00  0.00    -0.082 A 
ATOM      9  C7  UNL d   1      -2.567  -3.405  -2.158  0.00  0.00     0.045 A 
ENDROOT
TORSDOF 0
ENDMDL
