MODEL 1
REMARK minimizedAffinity -3.77245212
REMARK minimizedRMSD -1
REMARK  0 active torsions:
REMARK  status: ('A' for Active; 'I' for Inactive)
ROOT
ATOM      1  C   UNL d   1      -0.743   2.666   1.606  0.00  0.00     0.124 A 
ATOM      2  C1  UNL d   1      -1.072   2.591   0.260  0.00  0.00     0.062 A 
ATOM      3  C2  UNL d   1      -0.764   1.449  -0.474  0.00  0.00     0.162 A 
ATOM      4  C3  UNL d   1      -0.122   0.372   0.138  0.00  0.00    -0.034 A 
ATOM      5  C4  UNL d   1       0.207   0.456   1.492  0.00  0.00     0.162 A 
ATOM      6  C5  UNL d   1      -0.104   1.599   2.221  0.00  0.00     0.062 A 
ATOM      7  F   UNL d   1       0.216   1.670   3.521  0.00  0.00    -0.097 F 
ATOM      8  F1  UNL d   1       0.824  -0.561   2.111  0.00  0.00    -0.096 F 
ATOM      9  I   UNL d   1       0.342  -1.337  -0.955  0.00  0.00    -0.060 I 
ATOM     10  F2  UNL d   1      -1.094   1.404  -1.773  0.00  0.00    -0.096 F 
ATOM     11  F3  UNL d   1      -1.689   3.621  -0.337  0.00  0.00    -0.097 F 
ATOM     12  F4  UNL d   1      -1.040   3.767   2.309  0.00  0.00    -0.092 F 
ENDROOT
TORSDOF 0
ENDMDL
