MODEL 1
REMARK minimizedAffinity 2.37206078
REMARK minimizedRMSD -1
REMARK  0 active torsions:
REMARK  status: ('A' for Active; 'I' for Inactive)
ROOT
ATOM      1  C   UNL d   1      -0.271   2.657   1.016  0.00  0.00     0.124 A 
ATOM      2  C1  UNL d   1       0.822   1.884   1.384  0.00  0.00     0.062 A 
ATOM      3  C2  UNL d   1       1.015   0.629   0.815  0.00  0.00     0.162 A 
ATOM      4  C3  UNL d   1       0.114   0.138  -0.130  0.00  0.00    -0.034 A 
ATOM      5  C4  UNL d   1      -0.984   0.920  -0.494  0.00  0.00     0.162 A 
ATOM      6  C5  UNL d   1      -1.172   2.174   0.078  0.00  0.00     0.062 A 
ATOM      7  F   UNL d   1      -2.229   2.919  -0.279  0.00  0.00    -0.097 F 
ATOM      8  F1  UNL d   1      -1.870   0.479  -1.399  0.00  0.00    -0.096 F 
ATOM      9  I   UNL d   1       0.399  -1.739  -0.983  0.00  0.00    -0.060 I 
ATOM     10  F2  UNL d   1       2.080  -0.096   1.189  0.00  0.00    -0.096 F 
ATOM     11  F3  UNL d   1       1.694   2.348   2.291  0.00  0.00    -0.097 F 
ATOM     12  F4  UNL d   1      -0.455   3.864   1.566  0.00  0.00    -0.092 F 
ENDROOT
TORSDOF 0
ENDMDL
