MODEL 1
REMARK minimizedAffinity -1.89178038
REMARK minimizedRMSD -1
REMARK  0 active torsions:
REMARK  status: ('A' for Active; 'I' for Inactive)
ROOT
ATOM      1  C   UNL d   1      -0.150   1.957   0.481  0.00  0.00     0.124 A 
ATOM      2  C1  UNL d   1      -0.119   1.569  -0.851  0.00  0.00     0.062 A 
ATOM      3  C2  UNL d   1       0.240   0.269  -1.193  0.00  0.00     0.162 A 
ATOM      4  C3  UNL d   1       0.569  -0.655  -0.201  0.00  0.00    -0.034 A 
ATOM      5  C4  UNL d   1       0.537  -0.257   1.137  0.00  0.00     0.162 A 
ATOM      6  C5  UNL d   1       0.178   1.044   1.474  0.00  0.00     0.062 A 
ATOM      7  F   UNL d   1       0.148   1.418   2.762  0.00  0.00    -0.097 F 
ATOM      8  F1  UNL d   1       0.848  -1.119   2.117  0.00  0.00    -0.096 F 
ATOM      9  I   UNL d   1       1.107  -2.600  -0.708  0.00  0.00    -0.060 I 
ATOM     10  F2  UNL d   1       0.261  -0.079  -2.488  0.00  0.00    -0.096 F 
ATOM     11  F3  UNL d   1      -0.435   2.450  -1.812  0.00  0.00    -0.097 F 
ATOM     12  F4  UNL d   1      -0.495   3.210   0.808  0.00  0.00    -0.092 F 
ENDROOT
TORSDOF 0
ENDMDL
