MODEL 1
REMARK minimizedAffinity -4.00490427
REMARK minimizedRMSD -1
REMARK  0 active torsions:
REMARK  status: ('A' for Active; 'I' for Inactive)
ROOT
ATOM      1  C   UNL d   1      -0.076   3.236   0.257  0.00  0.00     0.124 A 
ATOM      2  C1  UNL d   1       0.010   2.225   1.204  0.00  0.00     0.062 A 
ATOM      3  C2  UNL d   1       0.087   0.895   0.802  0.00  0.00     0.162 A 
ATOM      4  C3  UNL d   1       0.080   0.567  -0.554  0.00  0.00    -0.034 A 
ATOM      5  C4  UNL d   1      -0.008   1.589  -1.500  0.00  0.00     0.162 A 
ATOM      6  C5  UNL d   1      -0.085   2.917  -1.094  0.00  0.00     0.062 A 
ATOM      7  F   UNL d   1      -0.169   3.893  -2.010  0.00  0.00    -0.097 F 
ATOM      8  F1  UNL d   1      -0.018   1.309  -2.812  0.00  0.00    -0.096 F 
ATOM      9  I   UNL d   1       0.195  -1.421  -1.158  0.00  0.00    -0.060 I 
ATOM     10  F2  UNL d   1       0.170  -0.062   1.739  0.00  0.00    -0.096 F 
ATOM     11  F3  UNL d   1       0.018   2.530   2.509  0.00  0.00    -0.097 F 
ATOM     12  F4  UNL d   1      -0.152   4.515   0.646  0.00  0.00    -0.092 F 
ENDROOT
TORSDOF 0
ENDMDL
