MODEL 1
REMARK minimizedAffinity 5.22689056
REMARK minimizedRMSD -1
REMARK  0 active torsions:
REMARK  status: ('A' for Active; 'I' for Inactive)
ROOT
ATOM      1  C   UNL d   1      -0.601  -1.368  -1.664  0.00  0.00     0.124 A 
ATOM      2  C1  UNL d   1       0.572  -1.278  -0.928  0.00  0.00     0.062 A 
ATOM      3  C2  UNL d   1       1.187  -2.431  -0.447  0.00  0.00     0.162 A 
ATOM      4  C3  UNL d   1       0.630  -3.684  -0.703  0.00  0.00    -0.034 A 
ATOM      5  C4  UNL d   1      -0.550  -3.766  -1.444  0.00  0.00     0.162 A 
ATOM      6  C5  UNL d   1      -1.161  -2.611  -1.921  0.00  0.00     0.062 A 
ATOM      7  F   UNL d   1      -2.294  -2.700  -2.633  0.00  0.00    -0.097 F 
ATOM      8  F1  UNL d   1      -1.112  -4.955  -1.708  0.00  0.00    -0.096 F 
ATOM      9  I   UNL d   1       1.547  -5.410   0.013  0.00  0.00    -0.060 I 
ATOM     10  F2  UNL d   1       2.319  -2.314   0.261  0.00  0.00    -0.096 F 
ATOM     11  F3  UNL d   1       1.114  -0.078  -0.677  0.00  0.00    -0.097 F 
ATOM     12  F4  UNL d   1      -1.192  -0.257  -2.124  0.00  0.00    -0.092 F 
ENDROOT
TORSDOF 0
ENDMDL
