MODEL 1
REMARK minimizedAffinity -3.26293659
REMARK minimizedRMSD -1
REMARK  0 active torsions:
REMARK  status: ('A' for Active; 'I' for Inactive)
ROOT
ATOM      1  C   UNL d   1      -0.544   2.505   1.033  0.00  0.00     0.124 A 
ATOM      2  C1  UNL d   1       0.042   1.481   1.763  0.00  0.00     0.062 A 
ATOM      3  C2  UNL d   1       0.572   0.371   1.112  0.00  0.00     0.162 A 
ATOM      4  C3  UNL d   1       0.520   0.280  -0.279  0.00  0.00    -0.034 A 
ATOM      5  C4  UNL d   1      -0.072   1.313  -1.007  0.00  0.00     0.162 A 
ATOM      6  C5  UNL d   1      -0.601   2.420  -0.351  0.00  0.00     0.062 A 
ATOM      7  F   UNL d   1      -1.167   3.409  -1.059  0.00  0.00    -0.097 F 
ATOM      8  F1  UNL d   1      -0.140   1.258  -2.346  0.00  0.00    -0.096 F 
ATOM      9  I   UNL d   1       1.311  -1.378  -1.257  0.00  0.00    -0.060 I 
ATOM     10  F2  UNL d   1       1.133  -0.604   1.843  0.00  0.00    -0.096 F 
ATOM     11  F3  UNL d   1       0.098   1.560   3.100  0.00  0.00    -0.097 F 
ATOM     12  F4  UNL d   1      -1.054   3.571   1.662  0.00  0.00    -0.092 F 
ENDROOT
TORSDOF 0
ENDMDL
