MODEL 1
REMARK minimizedAffinity 8.20504379
REMARK minimizedRMSD -1
REMARK  1 active torsions:
REMARK  status: ('A' for Active; 'I' for Inactive)
REMARK    1  A    between atoms: C1_2  and  C2_3 
ROOT
ATOM      1  C2  UNL d   1      -3.173   1.837  -2.784  0.00  0.00    -0.076 A 
ATOM      2  C3  UNL d   1      -1.961   2.418  -2.373  0.00  0.00     0.004 A 
ATOM      3  C4  UNL d   1      -0.797   1.658  -2.278  0.00  0.00    -0.003 A 
ATOM      4  C5  UNL d   1      -0.825   0.304  -2.593  0.00  0.00     0.000 A 
ATOM      5  C6  UNL d   1      -2.015  -0.285  -3.020  0.00  0.00     0.000 A 
ATOM      6  C7  UNL d   1      -3.194   0.470  -3.137  0.00  0.00    -0.073 A 
ATOM      7  C8  UNL d   1      -4.450  -0.218  -3.596  0.00  0.00     0.078 C 
ENDROOT
BRANCH   1   8
ATOM      8  C1  UNL d   1      -4.410   2.705  -2.843  0.00  0.00     0.053 C 
ATOM      9  C   UNL d   1      -4.207   3.953  -3.687  0.00  0.00     0.018 C 
ENDBRANCH   1   8
TORSDOF 1
ENDMDL
