MODEL 1
REMARK minimizedAffinity 2.17071772
REMARK minimizedRMSD -1
REMARK  1 active torsions:
REMARK  status: ('A' for Active; 'I' for Inactive)
REMARK    1  A    between atoms: C1_2  and  C2_3 
ROOT
ATOM      1  C2  UNL d   1       5.300  -3.457  -5.255  0.00  0.00    -0.076 A 
ATOM      2  C3  UNL d   1       5.999  -2.244  -5.129  0.00  0.00     0.004 A 
ATOM      3  C4  UNL d   1       5.394  -1.121  -4.568  0.00  0.00    -0.003 A 
ATOM      4  C5  UNL d   1       4.078  -1.193  -4.122  0.00  0.00     0.000 A 
ATOM      5  C6  UNL d   1       3.375  -2.393  -4.223  0.00  0.00     0.000 A 
ATOM      6  C7  UNL d   1       3.977  -3.539  -4.771  0.00  0.00    -0.073 A 
ATOM      7  C8  UNL d   1       3.170  -4.805  -4.861  0.00  0.00     0.078 C 
ENDROOT
BRANCH   1   8
ATOM      8  C1  UNL d   1       6.000  -4.634  -5.897  0.00  0.00     0.053 C 
ATOM      9  C   UNL d   1       5.987  -5.872  -5.013  0.00  0.00     0.018 C 
ENDBRANCH   1   8
TORSDOF 1
ENDMDL
