MODEL 1
REMARK minimizedAffinity 7.82946014
REMARK minimizedRMSD -1
REMARK  1 active torsions:
REMARK  status: ('A' for Active; 'I' for Inactive)
REMARK    1  A    between atoms: C1_2  and  C2_3 
ROOT
ATOM      1  C2  UNL d   1      -1.639   2.603  -0.330  0.00  0.00    -0.076 A 
ATOM      2  C3  UNL d   1      -1.043   1.411   0.119  0.00  0.00     0.004 A 
ATOM      3  C4  UNL d   1      -0.075   1.426   1.122  0.00  0.00    -0.003 A 
ATOM      4  C5  UNL d   1       0.311   2.633   1.694  0.00  0.00     0.000 A 
ATOM      5  C6  UNL d   1      -0.282   3.823   1.274  0.00  0.00     0.000 A 
ATOM      6  C7  UNL d   1      -1.271   3.824   0.275  0.00  0.00    -0.073 A 
ATOM      7  C8  UNL d   1      -1.873   5.137  -0.144  0.00  0.00     0.078 C 
ENDROOT
BRANCH   1   8
ATOM      8  C1  UNL d   1      -2.663   2.527  -1.440  0.00  0.00     0.053 C 
ATOM      9  C   UNL d   1      -2.585   1.222  -2.216  0.00  0.00     0.018 C 
ENDBRANCH   1   8
TORSDOF 1
ENDMDL
