MODEL 1
REMARK minimizedAffinity 2.47504544
REMARK minimizedRMSD -1
REMARK  1 active torsions:
REMARK  status: ('A' for Active; 'I' for Inactive)
REMARK    1  A    between atoms: C1_2  and  C2_3 
ROOT
ATOM      1  C2  UNL d   1       3.735  -3.510  -4.655  0.00  0.00    -0.076 A 
ATOM      2  C3  UNL d   1       3.229  -4.720  -4.149  0.00  0.00     0.004 A 
ATOM      3  C4  UNL d   1       3.854  -5.933  -4.433  0.00  0.00    -0.003 A 
ATOM      4  C5  UNL d   1       4.995  -5.956  -5.227  0.00  0.00     0.000 A 
ATOM      5  C6  UNL d   1       5.521  -4.764  -5.723  0.00  0.00     0.000 A 
ATOM      6  C7  UNL d   1       4.912  -3.530  -5.433  0.00  0.00    -0.073 A 
ATOM      7  C8  UNL d   1       5.519  -2.276  -5.999  0.00  0.00     0.078 C 
ENDROOT
BRANCH   1   8
ATOM      8  C1  UNL d   1       2.999  -2.228  -4.337  0.00  0.00     0.053 C 
ATOM      9  C   UNL d   1       1.900  -2.428  -3.305  0.00  0.00     0.018 C 
ENDBRANCH   1   8
TORSDOF 1
ENDMDL
