MODEL 1
REMARK minimizedAffinity 15.0326347
REMARK minimizedRMSD -1
REMARK  1 active torsions:
REMARK  status: ('A' for Active; 'I' for Inactive)
REMARK    1  A    between atoms: C1_2  and  C2_3 
ROOT
ATOM      1  C2  UNL d   1      -2.983   2.336  -1.947  0.00  0.00    -0.076 A 
ATOM      2  C3  UNL d   1      -3.770   3.489  -2.117  0.00  0.00     0.004 A 
ATOM      3  C4  UNL d   1      -3.852   4.126  -3.354  0.00  0.00    -0.003 A 
ATOM      4  C5  UNL d   1      -3.148   3.620  -4.441  0.00  0.00     0.000 A 
ATOM      5  C6  UNL d   1      -2.376   2.468  -4.295  0.00  0.00     0.000 A 
ATOM      6  C7  UNL d   1      -2.296   1.804  -3.059  0.00  0.00    -0.073 A 
ATOM      7  C8  UNL d   1      -1.444   0.569  -2.957  0.00  0.00     0.078 C 
ENDROOT
BRANCH   1   8
ATOM      8  C1  UNL d   1      -2.911   1.704  -0.575  0.00  0.00     0.053 C 
ATOM      9  C   UNL d   1      -1.807   2.301   0.284  0.00  0.00     0.018 C 
ENDBRANCH   1   8
TORSDOF 1
ENDMDL
