MODEL 1
REMARK minimizedAffinity 10.2877207
REMARK minimizedRMSD -1
REMARK  1 active torsions:
REMARK  status: ('A' for Active; 'I' for Inactive)
REMARK    1  A    between atoms: C1_2  and  C2_3 
ROOT
ATOM      1  C2  UNL d   1      -4.417   3.140  -2.801  0.00  0.00    -0.076 A 
ATOM      2  C3  UNL d   1      -4.371   2.217  -1.742  0.00  0.00     0.004 A 
ATOM      3  C4  UNL d   1      -3.483   1.143  -1.765  0.00  0.00    -0.003 A 
ATOM      4  C5  UNL d   1      -2.627   0.974  -2.847  0.00  0.00     0.000 A 
ATOM      5  C6  UNL d   1      -2.647   1.890  -3.898  0.00  0.00     0.000 A 
ATOM      6  C7  UNL d   1      -3.524   2.988  -3.883  0.00  0.00    -0.073 A 
ATOM      7  C8  UNL d   1      -3.507   3.942  -5.047  0.00  0.00     0.078 C 
ENDROOT
BRANCH   1   8
ATOM      8  C1  UNL d   1      -5.419   4.270  -2.734  0.00  0.00     0.053 C 
ATOM      9  C   UNL d   1      -4.784   5.589  -2.321  0.00  0.00     0.018 C 
ENDBRANCH   1   8
TORSDOF 1
ENDMDL
