MODEL 1
REMARK minimizedAffinity -1.5110805
REMARK minimizedRMSD -1
REMARK  2 active torsions:
REMARK  status: ('A' for Active; 'I' for Inactive)
REMARK    1  A    between atoms: C1_2  and  C2_3 
REMARK    2  A    between atoms: C2_3  and  C3_4 
ROOT
ATOM      1  C3  UNL d   1      -0.807   3.709   0.355  0.00  0.00    -0.075 A 
ATOM      2  C4  UNL d   1      -1.847   4.499  -0.155  0.00  0.00     0.002 A 
ATOM      3  C5  UNL d   1      -1.758   5.048  -1.435  0.00  0.00     0.002 A 
ATOM      4  C6  UNL d   1      -0.626   4.822  -2.215  0.00  0.00    -0.004 A 
ATOM      5  C7  UNL d   1       0.421   4.053  -1.712  0.00  0.00     0.002 A 
ATOM      6  C8  UNL d   1       0.332   3.499  -0.434  0.00  0.00     0.002 A 
ENDROOT
BRANCH   1   7
ATOM      7  C2  UNL d   1      -0.910   3.089   1.728  0.00  0.00     0.056 C 
BRANCH   7   8
ATOM      8  C1  UNL d   1       0.383   2.421   2.209  0.00  0.00     0.007 C 
ATOM      9  C   UNL d   1       0.196   1.592   3.473  0.00  0.00     0.009 C 
ENDBRANCH   7   8
ENDBRANCH   1   7
TORSDOF 2
ENDMDL
