MODEL 1
REMARK minimizedAffinity 4.89101934
REMARK minimizedRMSD -1
REMARK  2 active torsions:
REMARK  status: ('A' for Active; 'I' for Inactive)
REMARK    1  A    between atoms: C1_2  and  C2_3 
REMARK    2  A    between atoms: C2_3  and  C3_4 
ROOT
ATOM      1  C3  UNL d   1      -0.266  -4.977  -2.879  0.00  0.00    -0.075 A 
ATOM      2  C4  UNL d   1      -0.369  -4.087  -1.801  0.00  0.00     0.002 A 
ATOM      3  C5  UNL d   1       0.541  -4.145  -0.745  0.00  0.00     0.002 A 
ATOM      4  C6  UNL d   1       1.557  -5.098  -0.748  0.00  0.00    -0.004 A 
ATOM      5  C7  UNL d   1       1.659  -5.998  -1.807  0.00  0.00     0.002 A 
ATOM      6  C8  UNL d   1       0.753  -5.940  -2.867  0.00  0.00     0.002 A 
ENDROOT
BRANCH   1   7
ATOM      7  C2  UNL d   1      -1.229  -4.901  -4.039  0.00  0.00     0.056 C 
BRANCH   7   8
ATOM      8  C1  UNL d   1      -2.298  -5.999  -4.036  0.00  0.00     0.007 C 
ATOM      9  C   UNL d   1      -3.163  -5.998  -5.290  0.00  0.00     0.009 C 
ENDBRANCH   7   8
ENDBRANCH   1   7
TORSDOF 2
ENDMDL
