MODEL 1
REMARK minimizedAffinity 10.4617739
REMARK minimizedRMSD -1
REMARK  2 active torsions:
REMARK  status: ('A' for Active; 'I' for Inactive)
REMARK    1  A    between atoms: C1_2  and  C2_3 
REMARK    2  A    between atoms: C2_3  and  C3_4 
ROOT
ATOM      1  C3  UNL d   1       1.320  -0.203   4.532  0.00  0.00    -0.075 A 
ATOM      2  C4  UNL d   1       2.499  -0.363   5.275  0.00  0.00     0.002 A 
ATOM      3  C5  UNL d   1       2.727  -1.533   6.000  0.00  0.00     0.002 A 
ATOM      4  C6  UNL d   1       1.776  -2.552   6.000  0.00  0.00    -0.004 A 
ATOM      5  C7  UNL d   1       0.594  -2.397   5.279  0.00  0.00     0.002 A 
ATOM      6  C8  UNL d   1       0.366  -1.229   4.549  0.00  0.00     0.002 A 
ENDROOT
BRANCH   1   7
ATOM      7  C2  UNL d   1       1.081   1.048   3.722  0.00  0.00     0.056 C 
BRANCH   7   8
ATOM      8  C1  UNL d   1       2.068   1.241   2.566  0.00  0.00     0.007 C 
ATOM      9  C   UNL d   1       3.378   1.887   2.995  0.00  0.00     0.009 C 
ENDBRANCH   7   8
ENDBRANCH   1   7
TORSDOF 2
ENDMDL
