MODEL 1
REMARK minimizedAffinity 4.40205193
REMARK minimizedRMSD -1
REMARK  2 active torsions:
REMARK  status: ('A' for Active; 'I' for Inactive)
REMARK    1  A    between atoms: C1_2  and  C2_3 
REMARK    2  A    between atoms: C2_3  and  C3_4 
ROOT
ATOM      1  C3  UNL d   1      -3.458   4.363  -2.467  0.00  0.00    -0.075 A 
ATOM      2  C4  UNL d   1      -3.944   4.153  -3.765  0.00  0.00     0.002 A 
ATOM      3  C5  UNL d   1      -5.190   3.560  -3.968  0.00  0.00     0.002 A 
ATOM      4  C6  UNL d   1      -5.961   3.161  -2.878  0.00  0.00    -0.004 A 
ATOM      5  C7  UNL d   1      -5.481   3.349  -1.584  0.00  0.00     0.002 A 
ATOM      6  C8  UNL d   1      -4.236   3.947  -1.378  0.00  0.00     0.002 A 
ENDROOT
BRANCH   1   7
ATOM      7  C2  UNL d   1      -2.123   5.032  -2.240  0.00  0.00     0.056 C 
BRANCH   7   8
ATOM      8  C1  UNL d   1      -0.948   4.055  -2.128  0.00  0.00     0.007 C 
ATOM      9  C   UNL d   1      -0.356   3.987  -0.727  0.00  0.00     0.009 C 
ENDBRANCH   7   8
ENDBRANCH   1   7
TORSDOF 2
ENDMDL
