MODEL 1
REMARK minimizedAffinity 13.9220905
REMARK minimizedRMSD -1
REMARK  0 active torsions:
REMARK  status: ('A' for Active; 'I' for Inactive)
ROOT
ATOM      1  C   UNL d   1       0.928   2.835   2.794  0.00  0.00     0.023 A 
ATOM      2  C1  UNL d   1      -0.068   1.858   2.815  0.00  0.00     0.003 A 
ATOM      3  C2  UNL d   1       0.251   0.542   3.156  0.00  0.00     0.048 A 
ATOM      4  C3  UNL d   1       1.567   0.210   3.476  0.00  0.00     0.023 A 
ATOM      5  C4  UNL d   1       2.566   1.185   3.458  0.00  0.00     0.048 A 
ATOM      6  C5  UNL d   1       2.243   2.499   3.115  0.00  0.00     0.003 A 
ATOM      7  I   UNL d   1       2.044  -1.748   3.985  0.00  0.00    -0.146 I 
ENDROOT
TORSDOF 0
ENDMDL
