MODEL 1
REMARK minimizedAffinity 12.9547472
REMARK minimizedRMSD -1
REMARK  0 active torsions:
REMARK  status: ('A' for Active; 'I' for Inactive)
ROOT
ATOM      1  C   UNL d   1       1.451   4.453  -0.014  0.00  0.00     0.023 A 
ATOM      2  C1  UNL d   1       2.027   4.415   1.256  0.00  0.00     0.003 A 
ATOM      3  C2  UNL d   1       1.471   3.612   2.253  0.00  0.00     0.048 A 
ATOM      4  C3  UNL d   1       0.338   2.848   1.974  0.00  0.00     0.023 A 
ATOM      5  C4  UNL d   1      -0.242   2.882   0.704  0.00  0.00     0.048 A 
ATOM      6  C5  UNL d   1       0.317   3.688  -0.289  0.00  0.00     0.003 A 
ATOM      7  I   UNL d   1      -0.493   1.652   3.457  0.00  0.00    -0.146 I 
ENDROOT
TORSDOF 0
ENDMDL
