MODEL 1
REMARK minimizedAffinity 6.91196108
REMARK minimizedRMSD -1
REMARK  0 active torsions:
REMARK  status: ('A' for Active; 'I' for Inactive)
ROOT
ATOM      1  C   UNL d   1      -0.028   5.250  -1.090  0.00  0.00     0.023 A 
ATOM      2  C1  UNL d   1      -0.104   3.860  -0.997  0.00  0.00     0.003 A 
ATOM      3  C2  UNL d   1       0.267   3.217   0.186  0.00  0.00     0.048 A 
ATOM      4  C3  UNL d   1       0.712   3.970   1.272  0.00  0.00     0.023 A 
ATOM      5  C4  UNL d   1       0.788   5.361   1.184  0.00  0.00     0.048 A 
ATOM      6  C5  UNL d   1       0.417   6.000  -0.001  0.00  0.00     0.003 A 
ATOM      7  I   UNL d   1       1.264   3.016   3.034  0.00  0.00    -0.146 I 
ENDROOT
TORSDOF 0
ENDMDL
