MODEL 1
REMARK minimizedAffinity 5.96004391
REMARK minimizedRMSD -1
REMARK  0 active torsions:
REMARK  status: ('A' for Active; 'I' for Inactive)
ROOT
ATOM      1  C   UNL d   1       0.287   3.177   0.805  0.00  0.00     0.023 A 
ATOM      2  C1  UNL d   1      -0.466   3.043  -0.362  0.00  0.00     0.003 A 
ATOM      3  C2  UNL d   1      -1.728   2.448  -0.315  0.00  0.00     0.048 A 
ATOM      4  C3  UNL d   1      -2.232   1.990   0.902  0.00  0.00     0.023 A 
ATOM      5  C4  UNL d   1      -1.483   2.123   2.072  0.00  0.00     0.048 A 
ATOM      6  C5  UNL d   1      -0.220   2.717   2.020  0.00  0.00     0.003 A 
ATOM      7  I   UNL d   1      -4.111   1.104   0.974  0.00  0.00    -0.146 I 
ENDROOT
TORSDOF 0
ENDMDL
