MODEL 1
REMARK minimizedAffinity 10.3622961
REMARK minimizedRMSD -1
REMARK  0 active torsions:
REMARK  status: ('A' for Active; 'I' for Inactive)
ROOT
ATOM      1  C   UNL d   1      -5.998   4.709  -5.917  0.00  0.00     0.023 A 
ATOM      2  C1  UNL d   1      -5.997   3.861  -4.810  0.00  0.00     0.003 A 
ATOM      3  C2  UNL d   1      -5.092   4.073  -3.767  0.00  0.00     0.048 A 
ATOM      4  C3  UNL d   1      -4.193   5.136  -3.838  0.00  0.00     0.023 A 
ATOM      5  C4  UNL d   1      -4.191   5.988  -4.944  0.00  0.00     0.048 A 
ATOM      6  C5  UNL d   1      -5.096   5.771  -5.984  0.00  0.00     0.003 A 
ATOM      7  I   UNL d   1      -2.845   5.453  -2.288  0.00  0.00    -0.146 I 
ENDROOT
TORSDOF 0
ENDMDL
