MODEL 1
REMARK minimizedAffinity 6.25135851
REMARK minimizedRMSD -1
REMARK  0 active torsions:
REMARK  status: ('A' for Active; 'I' for Inactive)
ROOT
ATOM      1  C   UNL d   1      -5.973  -0.754   4.263  0.00  0.00     0.023 A 
ATOM      2  C1  UNL d   1      -4.809  -1.506   4.420  0.00  0.00     0.003 A 
ATOM      3  C2  UNL d   1      -3.669  -1.195   3.675  0.00  0.00     0.048 A 
ATOM      4  C3  UNL d   1      -3.700  -0.129   2.777  0.00  0.00     0.023 A 
ATOM      5  C4  UNL d   1      -4.862   0.627   2.617  0.00  0.00     0.048 A 
ATOM      6  C5  UNL d   1      -5.999   0.312   3.363  0.00  0.00     0.003 A 
ATOM      7  I   UNL d   1      -2.005   0.337   1.668  0.00  0.00    -0.146 I 
ENDROOT
TORSDOF 0
ENDMDL
