MODEL 1
REMARK minimizedAffinity -2.48378778
REMARK minimizedRMSD -1
REMARK  1 active torsions:
REMARK  status: ('A' for Active; 'I' for Inactive)
REMARK    1  A    between atoms: C1_2  and  C2_3 
ROOT
ATOM      1  C2  UNL d   1      -0.400  -0.415   0.173  0.00  0.00    -0.076 A 
ATOM      2  C3  UNL d   1      -1.469   0.230   0.819  0.00  0.00     0.004 A 
ATOM      3  C4  UNL d   1      -2.137  -0.376   1.882  0.00  0.00    -0.003 A 
ATOM      4  C5  UNL d   1      -1.745  -1.638   2.317  0.00  0.00     0.000 A 
ATOM      5  C6  UNL d   1      -0.676  -2.285   1.700  0.00  0.00     0.000 A 
ATOM      6  C7  UNL d   1       0.018  -1.681   0.637  0.00  0.00    -0.073 A 
ATOM      7  C8  UNL d   1       1.161  -2.427   0.004  0.00  0.00     0.078 C 
ENDROOT
BRANCH   1   8
ATOM      8  C1  UNL d   1       0.268   0.279  -0.991  0.00  0.00     0.053 C 
ATOM      9  C   UNL d   1       1.034   1.523  -0.566  0.00  0.00     0.018 C 
ENDBRANCH   1   8
TORSDOF 1
ENDMDL
