MODEL 1
REMARK minimizedAffinity -4.89314747
REMARK minimizedRMSD -1
REMARK  1 active torsions:
REMARK  status: ('A' for Active; 'I' for Inactive)
REMARK    1  A    between atoms: C1_2  and  C2_3 
ROOT
ATOM      1  C2  UNL d   1       0.041   0.149   0.044  0.00  0.00    -0.076 A 
ATOM      2  C3  UNL d   1      -1.350  -0.014  -0.084  0.00  0.00     0.004 A 
ATOM      3  C4  UNL d   1      -1.942  -1.267   0.068  0.00  0.00    -0.003 A 
ATOM      4  C5  UNL d   1      -1.154  -2.377   0.351  0.00  0.00     0.000 A 
ATOM      5  C6  UNL d   1       0.225  -2.230   0.499  0.00  0.00     0.000 A 
ATOM      6  C7  UNL d   1       0.836  -0.972   0.365  0.00  0.00    -0.073 A 
ATOM      7  C8  UNL d   1       2.328  -0.873   0.528  0.00  0.00     0.078 C 
ENDROOT
BRANCH   1   8
ATOM      8  C1  UNL d   1       0.630   1.527  -0.158  0.00  0.00     0.053 C 
ATOM      9  C   UNL d   1       0.668   1.935  -1.623  0.00  0.00     0.018 C 
ENDBRANCH   1   8
TORSDOF 1
ENDMDL
