MODEL 1
REMARK minimizedAffinity -4.56328583
REMARK minimizedRMSD -1
REMARK  1 active torsions:
REMARK  status: ('A' for Active; 'I' for Inactive)
REMARK    1  A    between atoms: C1_2  and  C2_3 
ROOT
ATOM      1  C2  UNL d   1      -0.024   0.097   0.502  0.00  0.00    -0.076 A 
ATOM      2  C3  UNL d   1       1.008  -0.851   0.392  0.00  0.00     0.004 A 
ATOM      3  C4  UNL d   1       0.802  -2.180   0.761  0.00  0.00    -0.003 A 
ATOM      4  C5  UNL d   1      -0.438  -2.581   1.244  0.00  0.00     0.000 A 
ATOM      5  C6  UNL d   1      -1.478  -1.657   1.343  0.00  0.00     0.000 A 
ATOM      6  C7  UNL d   1      -1.292  -0.318   0.960  0.00  0.00    -0.073 A 
ATOM      7  C8  UNL d   1      -2.446   0.638   1.093  0.00  0.00     0.078 C 
ENDROOT
BRANCH   1   8
ATOM      8  C1  UNL d   1       0.266   1.530   0.113  0.00  0.00     0.053 C 
ATOM      9  C   UNL d   1       1.015   1.635  -1.207  0.00  0.00     0.018 C 
ENDBRANCH   1   8
TORSDOF 1
ENDMDL
