MODEL 1
REMARK minimizedAffinity -4.25971603
REMARK minimizedRMSD -1
REMARK  1 active torsions:
REMARK  status: ('A' for Active; 'I' for Inactive)
REMARK    1  A    between atoms: C1_2  and  C2_3 
ROOT
ATOM      1  C2  UNL d   1       0.029  -0.148   0.121  0.00  0.00    -0.076 A 
ATOM      2  C3  UNL d   1      -1.364  -0.094   0.309  0.00  0.00     0.004 A 
ATOM      3  C4  UNL d   1      -2.078  -1.223   0.708  0.00  0.00    -0.003 A 
ATOM      4  C5  UNL d   1      -1.411  -2.424   0.925  0.00  0.00     0.000 A 
ATOM      5  C6  UNL d   1      -0.028  -2.490   0.761  0.00  0.00     0.000 A 
ATOM      6  C7  UNL d   1       0.709  -1.357   0.375  0.00  0.00    -0.073 A 
ATOM      7  C8  UNL d   1       2.198  -1.488   0.207  0.00  0.00     0.078 C 
ENDROOT
BRANCH   1   8
ATOM      8  C1  UNL d   1       0.746   1.102  -0.338  0.00  0.00     0.053 C 
ATOM      9  C   UNL d   1       0.721   1.266  -1.849  0.00  0.00     0.018 C 
ENDBRANCH   1   8
TORSDOF 1
ENDMDL
