MODEL 1
REMARK minimizedAffinity -4.77073145
REMARK minimizedRMSD -1
REMARK  1 active torsions:
REMARK  status: ('A' for Active; 'I' for Inactive)
REMARK    1  A    between atoms: C1_2  and  C2_3 
ROOT
ATOM      1  C2  UNL d   1      -1.092  -0.985   0.764  0.00  0.00    -0.076 A 
ATOM      2  C3  UNL d   1      -2.127  -0.096   1.099  0.00  0.00     0.004 A 
ATOM      3  C4  UNL d   1      -1.910   1.280   1.128  0.00  0.00    -0.003 A 
ATOM      4  C5  UNL d   1      -0.653   1.790   0.821  0.00  0.00     0.000 A 
ATOM      5  C6  UNL d   1       0.381   0.924   0.469  0.00  0.00     0.000 A 
ATOM      6  C7  UNL d   1       0.174  -0.466   0.419  0.00  0.00    -0.073 A 
ATOM      7  C8  UNL d   1       1.327  -1.354   0.038  0.00  0.00     0.078 C 
ENDROOT
BRANCH   1   8
ATOM      8  C1  UNL d   1      -1.379  -2.470   0.776  0.00  0.00     0.053 C 
ATOM      9  C   UNL d   1      -2.357  -2.865   1.872  0.00  0.00     0.018 C 
ENDBRANCH   1   8
TORSDOF 1
ENDMDL
