MODEL 1
REMARK minimizedAffinity -3.40185738
REMARK minimizedRMSD -1
REMARK  1 active torsions:
REMARK  status: ('A' for Active; 'I' for Inactive)
REMARK    1  A    between atoms: C1_2  and  C2_3 
ROOT
ATOM      1  C2  UNL d   1       2.242   2.016  -1.854  0.00  0.00    -0.076 A 
ATOM      2  C3  UNL d   1       3.594   1.968  -1.472  0.00  0.00     0.004 A 
ATOM      3  C4  UNL d   1       4.609   1.939  -2.427  0.00  0.00    -0.003 A 
ATOM      4  C5  UNL d   1       4.288   1.959  -3.780  0.00  0.00     0.000 A 
ATOM      5  C6  UNL d   1       2.953   2.025  -4.177  0.00  0.00     0.000 A 
ATOM      6  C7  UNL d   1       1.919   2.071  -3.227  0.00  0.00    -0.073 A 
ATOM      7  C8  UNL d   1       0.496   2.136  -3.711  0.00  0.00     0.078 C 
ENDROOT
BRANCH   1   8
ATOM      8  C1  UNL d   1       1.184   2.018  -0.774  0.00  0.00     0.053 C 
ATOM      9  C   UNL d   1       0.887   0.623  -0.247  0.00  0.00     0.018 C 
ENDBRANCH   1   8
TORSDOF 1
ENDMDL
