MODEL 1
REMARK minimizedAffinity -3.90045953
REMARK minimizedRMSD -1
REMARK  1 active torsions:
REMARK  status: ('A' for Active; 'I' for Inactive)
REMARK    1  A    between atoms: C1_2  and  C2_3 
ROOT
ATOM      1  C2  UNL d   1       0.206   0.138  -0.228  0.00  0.00    -0.076 A 
ATOM      2  C3  UNL d   1       0.483  -1.176  -0.644  0.00  0.00     0.004 A 
ATOM      3  C4  UNL d   1      -0.383  -2.224  -0.336  0.00  0.00    -0.003 A 
ATOM      4  C5  UNL d   1      -1.542  -1.974   0.391  0.00  0.00     0.000 A 
ATOM      5  C6  UNL d   1      -1.842  -0.674   0.796  0.00  0.00     0.000 A 
ATOM      6  C7  UNL d   1      -0.987   0.396   0.480  0.00  0.00    -0.073 A 
ATOM      7  C8  UNL d   1      -1.356   1.777   0.947  0.00  0.00     0.078 C 
ENDROOT
BRANCH   1   8
ATOM      8  C1  UNL d   1       1.197   1.229  -0.567  0.00  0.00     0.053 C 
ATOM      9  C   UNL d   1       1.308   1.469  -2.065  0.00  0.00     0.018 C 
ENDBRANCH   1   8
TORSDOF 1
ENDMDL
