MODEL 1
REMARK minimizedAffinity -2.71425319
REMARK minimizedRMSD -1
REMARK  1 active torsions:
REMARK  status: ('A' for Active; 'I' for Inactive)
REMARK    1  A    between atoms: C1_2  and  C2_3 
ROOT
ATOM      1  C2  UNL d   1      -0.162  -0.160   0.622  0.00  0.00    -0.076 A 
ATOM      2  C3  UNL d   1      -0.910   0.972   0.987  0.00  0.00     0.004 A 
ATOM      3  C4  UNL d   1      -2.004   0.864   1.845  0.00  0.00    -0.003 A 
ATOM      4  C5  UNL d   1      -2.366  -0.379   2.352  0.00  0.00     0.000 A 
ATOM      5  C6  UNL d   1      -1.625  -1.511   2.015  0.00  0.00     0.000 A 
ATOM      6  C7  UNL d   1      -0.510  -1.416   1.164  0.00  0.00    -0.073 A 
ATOM      7  C8  UNL d   1       0.250  -2.670   0.828  0.00  0.00     0.078 C 
ENDROOT
BRANCH   1   8
ATOM      8  C1  UNL d   1       0.997   0.014  -0.333  0.00  0.00     0.053 C 
ATOM      9  C   UNL d   1       0.721   1.065  -1.398  0.00  0.00     0.018 C 
ENDBRANCH   1   8
TORSDOF 1
ENDMDL
