MODEL 1
REMARK minimizedAffinity -4.65925264
REMARK minimizedRMSD -1
REMARK  1 active torsions:
REMARK  status: ('A' for Active; 'I' for Inactive)
REMARK    1  A    between atoms: C1_2  and  C2_3 
ROOT
ATOM      1  C2  UNL d   1      -0.585  -0.774   0.617  0.00  0.00    -0.076 A 
ATOM      2  C3  UNL d   1      -0.716  -2.154   0.855  0.00  0.00     0.004 A 
ATOM      3  C4  UNL d   1      -1.819  -2.662   1.539  0.00  0.00    -0.003 A 
ATOM      4  C5  UNL d   1      -2.810  -1.799   1.994  0.00  0.00     0.000 A 
ATOM      5  C6  UNL d   1      -2.705  -0.430   1.751  0.00  0.00     0.000 A 
ATOM      6  C7  UNL d   1      -1.607   0.097   1.050  0.00  0.00    -0.073 A 
ATOM      7  C8  UNL d   1      -1.542   1.582   0.821  0.00  0.00     0.078 C 
ENDROOT
BRANCH   1   8
ATOM      8  C1  UNL d   1       0.647  -0.278  -0.106  0.00  0.00     0.053 C 
ATOM      9  C   UNL d   1       1.731   0.199   0.849  0.00  0.00     0.018 C 
ENDBRANCH   1   8
TORSDOF 1
ENDMDL
