MODEL 1
REMARK minimizedAffinity -5.2023139
REMARK minimizedRMSD -1
REMARK  1 active torsions:
REMARK  status: ('A' for Active; 'I' for Inactive)
REMARK    1  A    between atoms: C1_2  and  C2_3 
ROOT
ATOM      1  C2  UNL d   1      -1.140  -0.353   0.532  0.00  0.00    -0.076 A 
ATOM      2  C3  UNL d   1      -2.086   0.581   0.990  0.00  0.00     0.004 A 
ATOM      3  C4  UNL d   1      -3.149   0.188   1.801  0.00  0.00    -0.003 A 
ATOM      4  C5  UNL d   1      -3.284  -1.147   2.168  0.00  0.00     0.000 A 
ATOM      5  C6  UNL d   1      -2.346  -2.084   1.737  0.00  0.00     0.000 A 
ATOM      6  C7  UNL d   1      -1.259  -1.701   0.933  0.00  0.00    -0.073 A 
ATOM      7  C8  UNL d   1      -0.280  -2.756   0.492  0.00  0.00     0.078 C 
ENDROOT
BRANCH   1   8
ATOM      8  C1  UNL d   1      -0.024   0.127  -0.367  0.00  0.00     0.053 C 
ATOM      9  C   UNL d   1       0.313   1.593  -0.144  0.00  0.00     0.018 C 
ENDBRANCH   1   8
TORSDOF 1
ENDMDL
