MODEL 1
REMARK minimizedAffinity -3.06559849
REMARK minimizedRMSD -1
REMARK  1 active torsions:
REMARK  status: ('A' for Active; 'I' for Inactive)
REMARK    1  A    between atoms: C1_2  and  C2_3 
ROOT
ATOM      1  C2  UNL d   1       0.282   0.540  -0.229  0.00  0.00    -0.076 A 
ATOM      2  C3  UNL d   1      -1.089   0.262  -0.372  0.00  0.00     0.004 A 
ATOM      3  C4  UNL d   1      -1.622  -0.954   0.051  0.00  0.00    -0.003 A 
ATOM      4  C5  UNL d   1      -0.794  -1.912   0.626  0.00  0.00     0.000 A 
ATOM      5  C6  UNL d   1       0.565  -1.646   0.792  0.00  0.00     0.000 A 
ATOM      6  C7  UNL d   1       1.116  -0.419   0.386  0.00  0.00    -0.073 A 
ATOM      7  C8  UNL d   1       2.589  -0.188   0.583  0.00  0.00     0.078 C 
ENDROOT
BRANCH   1   8
ATOM      8  C1  UNL d   1       0.809   1.865  -0.732  0.00  0.00     0.053 C 
ATOM      9  C   UNL d   1       0.661   2.017  -2.238  0.00  0.00     0.018 C 
ENDBRANCH   1   8
TORSDOF 1
ENDMDL
