MODEL 1
REMARK minimizedAffinity -0.334507376
REMARK minimizedRMSD -1
REMARK  0 active torsions:
REMARK  status: ('A' for Active; 'I' for Inactive)
ROOT
ATOM      1  N1  IND d   1       5.620   5.390   0.124  0.00  0.00    -0.196 N 
ATOM      2  C2  IND d   1       4.817   4.710  -0.748  0.00  0.00     0.054 A 
ATOM      3  C3  IND d   1       4.110   3.761  -0.095  0.00  0.00    -0.031 A 
ATOM      4  C4  IND d   1       4.038   3.217   2.420  0.00  0.00     0.051 A 
ATOM      5  C5  IND d   1       4.624   3.544   3.610  0.00  0.00    -0.031 A 
ATOM      6  C6  IND d   1       5.590   4.525   3.702  0.00  0.00     0.015 A 
ATOM      7  C7  IND d   1       6.000   5.226   2.603  0.00  0.00    -0.016 A 
ATOM      8  C8  IND d   1       5.411   4.892   1.391  0.00  0.00    -0.047 A 
ATOM      9  C9  IND d   1       4.461   3.868   1.286  0.00  0.00    -0.096 A 
ATOM     10  HN1 IND d   1       6.164   6.022  -0.083  0.00  0.00     0.298 HD
ENDROOT
TORSDOF 0
ENDMDL
