MODEL 1
REMARK minimizedAffinity -6.12357807
REMARK minimizedRMSD -1
REMARK  0 active torsions:
REMARK  status: ('A' for Active; 'I' for Inactive)
ROOT
ATOM      1  N1  IND d   1       0.945  -0.196   1.588  0.00  0.00    -0.196 N 
ATOM      2  C2  IND d   1       1.540   0.901   1.032  0.00  0.00     0.054 A 
ATOM      3  C3  IND d   1       0.851   1.308  -0.058  0.00  0.00    -0.031 A 
ATOM      4  C4  IND d   1      -1.337   0.384  -1.049  0.00  0.00     0.051 A 
ATOM      5  C5  IND d   1      -2.237  -0.635  -0.909  0.00  0.00    -0.031 A 
ATOM      6  C6  IND d   1      -2.122  -1.577   0.093  0.00  0.00     0.015 A 
ATOM      7  C7  IND d   1      -1.104  -1.528   1.003  0.00  0.00    -0.016 A 
ATOM      8  C8  IND d   1      -0.184  -0.499   0.859  0.00  0.00    -0.047 A 
ATOM      9  C9  IND d   1      -0.272   0.435  -0.181  0.00  0.00    -0.096 A 
ATOM     10  HN1 IND d   1       1.227  -0.625   2.278  0.00  0.00     0.298 HD
ENDROOT
TORSDOF 0
ENDMDL
