MODEL 1
REMARK minimizedAffinity 9.36019611
REMARK minimizedRMSD -1
REMARK  0 active torsions:
REMARK  status: ('A' for Active; 'I' for Inactive)
ROOT
ATOM      1  N1  IND d   1      -0.816   1.338  -2.988  0.00  0.00    -0.196 N 
ATOM      2  C2  IND d   1      -1.707   2.312  -3.341  0.00  0.00     0.054 A 
ATOM      3  C3  IND d   1      -2.922   2.054  -2.806  0.00  0.00    -0.031 A 
ATOM      4  C4  IND d   1      -3.646   0.146  -1.237  0.00  0.00     0.051 A 
ATOM      5  C5  IND d   1      -3.191  -1.008  -0.663  0.00  0.00    -0.031 A 
ATOM      6  C6  IND d   1      -1.894  -1.447  -0.836  0.00  0.00     0.015 A 
ATOM      7  C7  IND d   1      -0.997  -0.738  -1.583  0.00  0.00    -0.016 A 
ATOM      8  C8  IND d   1      -1.457   0.430  -2.173  0.00  0.00    -0.047 A 
ATOM      9  C9  IND d   1      -2.784   0.858  -2.036  0.00  0.00    -0.096 A 
ATOM     10  HN1 IND d   1       0.007   1.298  -3.233  0.00  0.00     0.298 HD
ENDROOT
TORSDOF 0
ENDMDL
