MODEL 1
REMARK minimizedAffinity 8.50344372
REMARK minimizedRMSD -1
REMARK  0 active torsions:
REMARK  status: ('A' for Active; 'I' for Inactive)
ROOT
ATOM      1  N1  IND d   1      -0.198   1.249   3.843  0.00  0.00    -0.196 N 
ATOM      2  C2  IND d   1      -1.560   1.135   3.860  0.00  0.00     0.054 A 
ATOM      3  C3  IND d   1      -1.936  -0.079   3.399  0.00  0.00    -0.031 A 
ATOM      4  C4  IND d   1      -0.481  -2.069   2.658  0.00  0.00     0.051 A 
ATOM      5  C5  IND d   1       0.818  -2.429   2.433  0.00  0.00    -0.031 A 
ATOM      6  C6  IND d   1       1.866  -1.564   2.674  0.00  0.00     0.015 A 
ATOM      7  C7  IND d   1       1.654  -0.306   3.162  0.00  0.00    -0.016 A 
ATOM      8  C8  IND d   1       0.336   0.065   3.385  0.00  0.00    -0.047 A 
ATOM      9  C9  IND d   1      -0.735  -0.793   3.102  0.00  0.00    -0.096 A 
ATOM     10  HN1 IND d   1       0.250   1.944   4.079  0.00  0.00     0.298 HD
ENDROOT
TORSDOF 0
ENDMDL
