MODEL 1
REMARK minimizedAffinity 4.98059177
REMARK minimizedRMSD -1
REMARK  0 active torsions:
REMARK  status: ('A' for Active; 'I' for Inactive)
ROOT
ATOM      1  N1  IND d   1       0.596   1.539   3.186  0.00  0.00    -0.196 N 
ATOM      2  C2  IND d   1       1.901   1.679   2.802  0.00  0.00     0.054 A 
ATOM      3  C3  IND d   1       2.307   0.590   2.112  0.00  0.00    -0.031 A 
ATOM      4  C4  IND d   1       0.970  -1.494   1.409  0.00  0.00     0.051 A 
ATOM      5  C5  IND d   1      -0.250  -2.093   1.559  0.00  0.00    -0.031 A 
ATOM      6  C6  IND d   1      -1.271  -1.498   2.271  0.00  0.00     0.015 A 
ATOM      7  C7  IND d   1      -1.114  -0.272   2.853  0.00  0.00    -0.016 A 
ATOM      8  C8  IND d   1       0.125   0.336   2.709  0.00  0.00    -0.047 A 
ATOM      9  C9  IND d   1       1.179  -0.282   2.023  0.00  0.00    -0.096 A 
ATOM     10  HN1 IND d   1       0.146   2.107   3.649  0.00  0.00     0.298 HD
ENDROOT
TORSDOF 0
ENDMDL
