MODEL 1
REMARK minimizedAffinity -3.34793591
REMARK minimizedRMSD -1
REMARK  0 active torsions:
REMARK  status: ('A' for Active; 'I' for Inactive)
ROOT
ATOM      1  N1  IND d   1      -2.670   1.774  -2.531  0.00  0.00    -0.196 N 
ATOM      2  C2  IND d   1      -1.503   1.753  -3.242  0.00  0.00     0.054 A 
ATOM      3  C3  IND d   1      -0.670   0.807  -2.753  0.00  0.00    -0.031 A 
ATOM      4  C4  IND d   1      -1.057  -0.889  -0.856  0.00  0.00     0.051 A 
ATOM      5  C5  IND d   1      -1.956  -1.234   0.114  0.00  0.00    -0.031 A 
ATOM      6  C6  IND d   1      -3.165  -0.583   0.253  0.00  0.00     0.015 A 
ATOM      7  C7  IND d   1      -3.526   0.435  -0.584  0.00  0.00    -0.016 A 
ATOM      8  C8  IND d   1      -2.612   0.793  -1.565  0.00  0.00    -0.047 A 
ATOM      9  C9  IND d   1      -1.366   0.164  -1.684  0.00  0.00    -0.096 A 
ATOM     10  HN1 IND d   1      -3.329   2.309  -2.664  0.00  0.00     0.298 HD
ENDROOT
TORSDOF 0
ENDMDL
