MODEL 1
REMARK minimizedAffinity 7.79708242
REMARK minimizedRMSD -1
REMARK  0 active torsions:
REMARK  status: ('A' for Active; 'I' for Inactive)
ROOT
ATOM      1  N1  IND d   1      -2.784   0.825  -3.315  0.00  0.00    -0.196 N 
ATOM      2  C2  IND d   1      -1.609   1.409  -3.699  0.00  0.00     0.054 A 
ATOM      3  C3  IND d   1      -0.592   0.979  -2.918  0.00  0.00    -0.031 A 
ATOM      4  C4  IND d   1      -0.612  -0.757  -1.017  0.00  0.00     0.051 A 
ATOM      5  C5  IND d   1      -1.457  -1.536  -0.279  0.00  0.00    -0.031 A 
ATOM      6  C6  IND d   1      -2.815  -1.570  -0.521  0.00  0.00     0.015 A 
ATOM      7  C7  IND d   1      -3.379  -0.832  -1.523  0.00  0.00    -0.016 A 
ATOM      8  C8  IND d   1      -2.525  -0.035  -2.270  0.00  0.00    -0.047 A 
ATOM      9  C9  IND d   1      -1.152   0.037  -2.002  0.00  0.00    -0.096 A 
ATOM     10  HN1 IND d   1      -3.555   0.971  -3.666  0.00  0.00     0.298 HD
ENDROOT
TORSDOF 0
ENDMDL
