MODEL 1
REMARK minimizedAffinity -6.07520723
REMARK minimizedRMSD -1
REMARK  0 active torsions:
REMARK  status: ('A' for Active; 'I' for Inactive)
ROOT
ATOM      1  N1  IND d   1       0.708  -0.029   1.769  0.00  0.00    -0.196 N 
ATOM      2  C2  IND d   1       1.678   0.680   1.118  0.00  0.00     0.054 A 
ATOM      3  C3  IND d   1       1.314   0.908  -0.164  0.00  0.00    -0.031 A 
ATOM      4  C4  IND d   1      -0.873   0.296  -1.377  0.00  0.00     0.051 A 
ATOM      5  C5  IND d   1      -2.045  -0.386  -1.206  0.00  0.00    -0.031 A 
ATOM      6  C6  IND d   1      -2.366  -0.995  -0.010  0.00  0.00     0.015 A 
ATOM      7  C7  IND d   1      -1.530  -0.933   1.068  0.00  0.00    -0.016 A 
ATOM      8  C8  IND d   1      -0.336  -0.247   0.897  0.00  0.00    -0.047 A 
ATOM      9  C9  IND d   1       0.015   0.336  -0.328  0.00  0.00    -0.096 A 
ATOM     10  HN1 IND d   1       0.743  -0.295   2.586  0.00  0.00     0.298 HD
ENDROOT
TORSDOF 0
ENDMDL
