MODEL 1
REMARK minimizedAffinity -1.07509494
REMARK minimizedRMSD -1
REMARK  0 active torsions:
REMARK  status: ('A' for Active; 'I' for Inactive)
ROOT
ATOM      1  N1  IND d   1      -2.459  -2.509  -1.171  0.00  0.00    -0.196 N 
ATOM      2  C2  IND d   1      -3.202  -3.125  -0.202  0.00  0.00     0.054 A 
ATOM      3  C3  IND d   1      -2.848  -2.670   1.021  0.00  0.00    -0.031 A 
ATOM      4  C4  IND d   1      -1.147  -0.847   1.659  0.00  0.00     0.051 A 
ATOM      5  C5  IND d   1      -0.197  -0.024   1.122  0.00  0.00    -0.031 A 
ATOM      6  C6  IND d   1       0.050   0.016  -0.235  0.00  0.00     0.015 A 
ATOM      7  C7  IND d   1      -0.655  -0.762  -1.110  0.00  0.00    -0.016 A 
ATOM      8  C8  IND d   1      -1.615  -1.604  -0.567  0.00  0.00    -0.047 A 
ATOM      9  C9  IND d   1      -1.840  -1.679   0.813  0.00  0.00    -0.096 A 
ATOM     10  HN1 IND d   1      -2.511  -2.662  -2.015  0.00  0.00     0.298 HD
ENDROOT
TORSDOF 0
ENDMDL
