MODEL 1
REMARK minimizedAffinity -0.309969902
REMARK minimizedRMSD -1
REMARK  0 active torsions:
REMARK  status: ('A' for Active; 'I' for Inactive)
ROOT
ATOM      1  N1  IND d   1      -1.175  -1.598  -5.042  0.00  0.00    -0.196 N 
ATOM      2  C2  IND d   1      -2.390  -2.208  -4.899  0.00  0.00     0.054 A 
ATOM      3  C3  IND d   1      -2.859  -2.031  -3.643  0.00  0.00    -0.031 A 
ATOM      4  C4  IND d   1      -1.847  -0.690  -1.692  0.00  0.00     0.051 A 
ATOM      5  C5  IND d   1      -0.732   0.013  -1.333  0.00  0.00    -0.031 A 
ATOM      6  C6  IND d   1       0.313   0.221  -2.210  0.00  0.00     0.015 A 
ATOM      7  C7  IND d   1       0.276  -0.258  -3.488  0.00  0.00    -0.016 A 
ATOM      8  C8  IND d   1      -0.852  -0.978  -3.855  0.00  0.00    -0.047 A 
ATOM      9  C9  IND d   1      -1.897  -1.229  -2.956  0.00  0.00    -0.096 A 
ATOM     10  HN1 IND d   1      -0.693  -1.601  -5.755  0.00  0.00     0.298 HD
ENDROOT
TORSDOF 0
ENDMDL
