MODEL 1
REMARK minimizedAffinity 5.07341003
REMARK minimizedRMSD -1
REMARK  0 active torsions:
REMARK  status: ('A' for Active; 'I' for Inactive)
ROOT
ATOM      1  N1  IND d   1      -3.204  -2.895   5.996  0.00  0.00    -0.196 N 
ATOM      2  C2  IND d   1      -3.393  -3.813   5.001  0.00  0.00     0.054 A 
ATOM      3  C3  IND d   1      -3.300  -3.219   3.790  0.00  0.00    -0.031 A 
ATOM      4  C4  IND d   1      -2.745  -0.775   3.205  0.00  0.00     0.051 A 
ATOM      5  C5  IND d   1      -2.529   0.448   3.777  0.00  0.00    -0.031 A 
ATOM      6  C6  IND d   1      -2.524   0.621   5.146  0.00  0.00     0.015 A 
ATOM      7  C7  IND d   1      -2.725  -0.428   5.997  0.00  0.00    -0.016 A 
ATOM      8  C8  IND d   1      -2.952  -1.669   5.420  0.00  0.00    -0.047 A 
ATOM      9  C9  IND d   1      -3.000  -1.844   4.031  0.00  0.00    -0.096 A 
ATOM     10  HN1 IND d   1      -3.238  -3.056   6.840  0.00  0.00     0.298 HD
ENDROOT
TORSDOF 0
ENDMDL
