MODEL 1
REMARK minimizedAffinity 7.12208843
REMARK minimizedRMSD -1
REMARK  0 active torsions:
REMARK  status: ('A' for Active; 'I' for Inactive)
ROOT
ATOM      1  N1  IND d   1      -0.358  -0.681   1.152  0.00  0.00    -0.196 N 
ATOM      2  C2  IND d   1      -1.703  -0.502   1.317  0.00  0.00     0.054 A 
ATOM      3  C3  IND d   1      -2.263  -0.060   0.169  0.00  0.00    -0.031 A 
ATOM      4  C4  IND d   1      -1.177   0.342  -2.131  0.00  0.00     0.051 A 
ATOM      5  C5  IND d   1       0.034   0.350  -2.764  0.00  0.00    -0.031 A 
ATOM      6  C6  IND d   1       1.200   0.006  -2.111  0.00  0.00     0.015 A 
ATOM      7  C7  IND d   1       1.196  -0.373  -0.798  0.00  0.00    -0.016 A 
ATOM      8  C8  IND d   1      -0.031  -0.376  -0.151  0.00  0.00    -0.047 A 
ATOM      9  C9  IND d   1      -1.212   0.014  -0.796  0.00  0.00    -0.096 A 
ATOM     10  HN1 IND d   1       0.192  -0.941   1.760  0.00  0.00     0.298 HD
ENDROOT
TORSDOF 0
ENDMDL
