MODEL 1
REMARK minimizedAffinity 5.26612949
REMARK minimizedRMSD -1
REMARK  0 active torsions:
REMARK  status: ('A' for Active; 'I' for Inactive)
ROOT
ATOM      1  N1  IND d   1      -1.112  -0.067  -1.023  0.00  0.00    -0.196 N 
ATOM      2  C2  IND d   1       0.183   0.283  -1.285  0.00  0.00     0.054 A 
ATOM      3  C3  IND d   1       0.832   0.580  -0.136  0.00  0.00    -0.031 A 
ATOM      4  C4  IND d   1      -0.009   0.462   2.294  0.00  0.00     0.051 A 
ATOM      5  C5  IND d   1      -1.134   0.231   3.035  0.00  0.00    -0.031 A 
ATOM      6  C6  IND d   1      -2.333  -0.121   2.449  0.00  0.00     0.015 A 
ATOM      7  C7  IND d   1      -2.449  -0.267   1.096  0.00  0.00    -0.016 A 
ATOM      8  C8  IND d   1      -1.310  -0.026   0.340  0.00  0.00    -0.047 A 
ATOM      9  C9  IND d   1      -0.102   0.373   0.925  0.00  0.00    -0.096 A 
ATOM     10  HN1 IND d   1      -1.704  -0.277  -1.610  0.00  0.00     0.298 HD
ENDROOT
TORSDOF 0
ENDMDL
