MODEL 1
REMARK minimizedAffinity 12.2073555
REMARK minimizedRMSD -1
REMARK  0 active torsions:
REMARK  status: ('A' for Active; 'I' for Inactive)
ROOT
ATOM      1  N1  IND d   1      -5.999   5.957   0.244  0.00  0.00    -0.196 N 
ATOM      2  C2  IND d   1      -5.050   5.987  -0.740  0.00  0.00     0.054 A 
ATOM      3  C3  IND d   1      -3.811   5.981  -0.199  0.00  0.00    -0.031 A 
ATOM      4  C4  IND d   1      -3.106   5.820   2.272  0.00  0.00     0.051 A 
ATOM      5  C5  IND d   1      -3.617   5.808   3.539  0.00  0.00    -0.031 A 
ATOM      6  C6  IND d   1      -4.975   5.843   3.778  0.00  0.00     0.015 A 
ATOM      7  C7  IND d   1      -5.878   5.879   2.753  0.00  0.00    -0.016 A 
ATOM      8  C8  IND d   1      -5.362   5.899   1.465  0.00  0.00    -0.047 A 
ATOM      9  C9  IND d   1      -3.984   5.907   1.217  0.00  0.00    -0.096 A 
ATOM     10  HN1 IND d   1      -6.850   5.972   0.121  0.00  0.00     0.298 HD
ENDROOT
TORSDOF 0
ENDMDL
