MODEL 1
REMARK minimizedAffinity -0.863371253
REMARK minimizedRMSD -1
REMARK  0 active torsions:
REMARK  status: ('A' for Active; 'I' for Inactive)
ROOT
ATOM      1  N1  IND d   1      -5.321   5.994   4.146  0.00  0.00    -0.196 N 
ATOM      2  C2  IND d   1      -5.697   5.040   5.050  0.00  0.00     0.054 A 
ATOM      3  C3  IND d   1      -6.000   3.885   4.416  0.00  0.00    -0.031 A 
ATOM      4  C4  IND d   1      -5.851   3.305   1.912  0.00  0.00     0.051 A 
ATOM      5  C5  IND d   1      -5.593   3.862   0.691  0.00  0.00    -0.031 A 
ATOM      6  C6  IND d   1      -5.221   5.184   0.557  0.00  0.00     0.015 A 
ATOM      7  C7  IND d   1      -5.082   5.999   1.644  0.00  0.00    -0.016 A 
ATOM      8  C8  IND d   1      -5.349   5.439   2.885  0.00  0.00    -0.047 A 
ATOM      9  C9  IND d   1      -5.768   4.110   3.025  0.00  0.00    -0.096 A 
ATOM     10  HN1 IND d   1      -5.103   6.805   4.333  0.00  0.00     0.298 HD
ENDROOT
TORSDOF 0
ENDMDL
