MODEL 1
REMARK minimizedAffinity -1.79252422
REMARK minimizedRMSD -1
REMARK  0 active torsions:
REMARK  status: ('A' for Active; 'I' for Inactive)
ROOT
ATOM      1  N1  IND d   1      -0.252  -2.420   1.200  0.00  0.00    -0.196 N 
ATOM      2  C2  IND d   1       0.741  -1.483   1.271  0.00  0.00     0.054 A 
ATOM      3  C3  IND d   1       0.639  -0.611   0.243  0.00  0.00    -0.031 A 
ATOM      4  C4  IND d   1      -1.137  -0.473  -1.615  0.00  0.00     0.051 A 
ATOM      5  C5  IND d   1      -2.223  -1.133  -2.119  0.00  0.00    -0.031 A 
ATOM      6  C6  IND d   1      -2.718  -2.277  -1.528  0.00  0.00     0.015 A 
ATOM      7  C7  IND d   1      -2.151  -2.800  -0.401  0.00  0.00    -0.016 A 
ATOM      8  C8  IND d   1      -1.044  -2.137   0.109  0.00  0.00    -0.047 A 
ATOM      9  C9  IND d   1      -0.511  -0.999  -0.510  0.00  0.00    -0.096 A 
ATOM     10  HN1 IND d   1      -0.362  -3.077   1.744  0.00  0.00     0.298 HD
ENDROOT
TORSDOF 0
ENDMDL
