MODEL 1
REMARK minimizedAffinity -4.07927752
REMARK minimizedRMSD -1
REMARK  0 active torsions:
REMARK  status: ('A' for Active; 'I' for Inactive)
ROOT
ATOM      1  N1  IND d   1      -0.380  -2.451   1.642  0.00  0.00    -0.196 N 
ATOM      2  C2  IND d   1      -1.517  -3.194   1.487  0.00  0.00     0.054 A 
ATOM      3  C3  IND d   1      -2.275  -2.691   0.487  0.00  0.00    -0.031 A 
ATOM      4  C4  IND d   1      -1.796  -0.716  -1.094  0.00  0.00     0.051 A 
ATOM      5  C5  IND d   1      -0.901   0.292  -1.317  0.00  0.00    -0.031 A 
ATOM      6  C6  IND d   1       0.238   0.439  -0.552  0.00  0.00     0.015 A 
ATOM      7  C7  IND d   1       0.531  -0.428   0.463  0.00  0.00    -0.016 A 
ATOM      8  C8  IND d   1      -0.379  -1.449   0.697  0.00  0.00    -0.047 A 
ATOM      9  C9  IND d   1      -1.558  -1.577  -0.049  0.00  0.00    -0.096 A 
ATOM     10  HN1 IND d   1       0.231  -2.587   2.231  0.00  0.00     0.298 HD
ENDROOT
TORSDOF 0
ENDMDL
