MODEL 1
REMARK minimizedAffinity -5.11389446
REMARK minimizedRMSD -1
REMARK  0 active torsions:
REMARK  status: ('A' for Active; 'I' for Inactive)
ROOT
ATOM      1  N1  IND d   1       0.471  -0.367   2.062  0.00  0.00    -0.196 N 
ATOM      2  C2  IND d   1       0.186  -0.904   0.838  0.00  0.00     0.054 A 
ATOM      3  C3  IND d   1       0.792  -0.195  -0.140  0.00  0.00    -0.031 A 
ATOM      4  C4  IND d   1       2.381   1.822   0.047  0.00  0.00     0.051 A 
ATOM      5  C5  IND d   1       2.913   2.694   0.956  0.00  0.00    -0.031 A 
ATOM      6  C6  IND d   1       2.654   2.586   2.307  0.00  0.00     0.015 A 
ATOM      7  C7  IND d   1       1.860   1.591   2.803  0.00  0.00    -0.016 A 
ATOM      8  C8  IND d   1       1.314   0.708   1.883  0.00  0.00    -0.047 A 
ATOM      9  C9  IND d   1       1.538   0.838   0.507  0.00  0.00    -0.096 A 
ATOM     10  HN1 IND d   1       0.174  -0.652   2.817  0.00  0.00     0.298 HD
ENDROOT
TORSDOF 0
ENDMDL
