MODEL 1
REMARK minimizedAffinity 0.115773514
REMARK minimizedRMSD -1
REMARK  0 active torsions:
REMARK  status: ('A' for Active; 'I' for Inactive)
ROOT
ATOM      1  N1  IND d   1       1.407   1.363   1.914  0.00  0.00    -0.196 N 
ATOM      2  C2  IND d   1       2.318   0.828   1.047  0.00  0.00     0.054 A 
ATOM      3  C3  IND d   1       1.987  -0.448   0.745  0.00  0.00    -0.031 A 
ATOM      4  C4  IND d   1      -0.062  -1.823   1.479  0.00  0.00     0.051 A 
ATOM      5  C5  IND d   1      -1.155  -1.774   2.298  0.00  0.00    -0.031 A 
ATOM      6  C6  IND d   1      -1.457  -0.653   3.044  0.00  0.00     0.015 A 
ATOM      7  C7  IND d   1      -0.681   0.469   2.990  0.00  0.00    -0.016 A 
ATOM      8  C8  IND d   1       0.434   0.421   2.165  0.00  0.00    -0.047 A 
ATOM      9  C9  IND d   1       0.770  -0.729   1.438  0.00  0.00    -0.096 A 
ATOM     10  HN1 IND d   1       1.437   2.155   2.247  0.00  0.00     0.298 HD
ENDROOT
TORSDOF 0
ENDMDL
