MODEL 1
REMARK minimizedAffinity 8.63372421
REMARK minimizedRMSD -1
REMARK  2 active torsions:
REMARK  status: ('A' for Active; 'I' for Inactive)
REMARK    1  A    between atoms: C2'_3  and  C1'_4 
REMARK    2  A    between atoms: C1'_4  and  C1_5 
ROOT
ATOM      1  C1  I4B d   1       3.058  -3.434   1.655  0.00  0.00    -0.075 A 
ATOM      2  C2  I4B d   1       3.519  -3.903   2.860  0.00  0.00     0.003 A 
ATOM      3  C3  I4B d   1       4.908  -4.079   3.072  0.00  0.00     0.002 A 
ATOM      4  C4  I4B d   1       5.790  -3.824   2.042  0.00  0.00    -0.004 A 
ATOM      5  C5  I4B d   1       5.323  -3.327   0.829  0.00  0.00     0.002 A 
ATOM      6  C6  I4B d   1       3.949  -3.120   0.637  0.00  0.00     0.003 A 
ENDROOT
BRANCH   1   7
ATOM      7  C1' I4B d   1       1.582  -3.292   1.454  0.00  0.00     0.060 C 
BRANCH   7   8
ATOM      8  C2' I4B d   1       1.241  -1.818   1.532  0.00  0.00    -0.013 C 
ATOM      9  C4' I4B d   1       1.072  -1.224   0.158  0.00  0.00     0.013 C 
ATOM     10  C3' I4B d   1      -0.013  -1.675   2.341  0.00  0.00     0.013 C 
ENDBRANCH   7   8
ENDBRANCH   1   7
TORSDOF 2
ENDMDL
