MODEL 1
REMARK minimizedAffinity 13.618638
REMARK minimizedRMSD -1
REMARK  2 active torsions:
REMARK  status: ('A' for Active; 'I' for Inactive)
REMARK    1  A    between atoms: C2'_3  and  C1'_4 
REMARK    2  A    between atoms: C1'_4  and  C1_5 
ROOT
ATOM      1  C1  I4B d   1       5.454   2.022  -4.951  0.00  0.00    -0.075 A 
ATOM      2  C2  I4B d   1       5.932   2.275  -3.689  0.00  0.00     0.003 A 
ATOM      3  C3  I4B d   1       5.802   1.301  -2.669  0.00  0.00     0.002 A 
ATOM      4  C4  I4B d   1       5.146   0.117  -2.940  0.00  0.00    -0.004 A 
ATOM      5  C5  I4B d   1       4.682  -0.147  -4.225  0.00  0.00     0.002 A 
ATOM      6  C6  I4B d   1       4.847   0.807  -5.241  0.00  0.00     0.003 A 
ENDROOT
BRANCH   1   7
ATOM      7  C1' I4B d   1       5.578   3.086  -5.995  0.00  0.00     0.060 C 
BRANCH   7   8
ATOM      8  C2' I4B d   1       5.160   4.402  -5.373  0.00  0.00    -0.013 C 
ATOM      9  C4' I4B d   1       5.995   5.542  -5.895  0.00  0.00     0.013 C 
ATOM     10  C3' I4B d   1       3.706   4.615  -5.671  0.00  0.00     0.013 C 
ENDBRANCH   7   8
ENDBRANCH   1   7
TORSDOF 2
ENDMDL
