MODEL 1
REMARK minimizedAffinity 12.7352734
REMARK minimizedRMSD -1
REMARK  2 active torsions:
REMARK  status: ('A' for Active; 'I' for Inactive)
REMARK    1  A    between atoms: C2'_3  and  C1'_4 
REMARK    2  A    between atoms: C1'_4  and  C1_5 
ROOT
ATOM      1  C1  I4B d   1       0.654  -1.784  -0.486  0.00  0.00    -0.075 A 
ATOM      2  C2  I4B d   1       1.227  -3.032  -0.515  0.00  0.00     0.003 A 
ATOM      3  C3  I4B d   1       2.093  -3.443   0.527  0.00  0.00     0.002 A 
ATOM      4  C4  I4B d   1       2.398  -2.562   1.545  0.00  0.00    -0.004 A 
ATOM      5  C5  I4B d   1       1.799  -1.307   1.585  0.00  0.00     0.002 A 
ATOM      6  C6  I4B d   1       0.912  -0.919   0.570  0.00  0.00     0.003 A 
ENDROOT
BRANCH   1   7
ATOM      7  C1' I4B d   1      -0.230  -1.370  -1.619  0.00  0.00     0.060 C 
BRANCH   7   8
ATOM      8  C2' I4B d   1      -1.283  -0.429  -1.070  0.00  0.00    -0.013 C 
ATOM      9  C4' I4B d   1      -1.237   0.905  -1.766  0.00  0.00     0.013 C 
ATOM     10  C3' I4B d   1      -2.622  -1.083  -1.239  0.00  0.00     0.013 C 
ENDBRANCH   7   8
ENDBRANCH   1   7
TORSDOF 2
ENDMDL
