MODEL 1
REMARK minimizedAffinity 9.80488873
REMARK minimizedRMSD -1
REMARK  2 active torsions:
REMARK  status: ('A' for Active; 'I' for Inactive)
REMARK    1  A    between atoms: C2'_3  and  C1'_4 
REMARK    2  A    between atoms: C1'_4  and  C1_5 
ROOT
ATOM      1  C1  I4B d   1       2.333  -1.823   2.907  0.00  0.00    -0.075 A 
ATOM      2  C2  I4B d   1       2.169  -3.144   2.573  0.00  0.00     0.003 A 
ATOM      3  C3  I4B d   1       1.549  -3.499   1.350  0.00  0.00     0.002 A 
ATOM      4  C4  I4B d   1       1.067  -2.507   0.520  0.00  0.00    -0.004 A 
ATOM      5  C5  I4B d   1       1.255  -1.168   0.850  0.00  0.00     0.002 A 
ATOM      6  C6  I4B d   1       1.903  -0.823   2.045  0.00  0.00     0.003 A 
ENDROOT
BRANCH   1   7
ATOM      7  C1' I4B d   1       2.962  -1.485   4.222  0.00  0.00     0.060 C 
BRANCH   7   8
ATOM      8  C2' I4B d   1       4.077  -2.478   4.475  0.00  0.00    -0.013 C 
ATOM      9  C4' I4B d   1       5.419  -1.795   4.503  0.00  0.00     0.013 C 
ATOM     10  C3' I4B d   1       3.795  -3.170   5.775  0.00  0.00     0.013 C 
ENDBRANCH   7   8
ENDBRANCH   1   7
TORSDOF 2
ENDMDL
