MODEL 1
REMARK minimizedAffinity 14.4554968
REMARK minimizedRMSD -1
REMARK  2 active torsions:
REMARK  status: ('A' for Active; 'I' for Inactive)
REMARK    1  A    between atoms: C2'_3  and  C1'_4 
REMARK    2  A    between atoms: C1'_4  and  C1_5 
ROOT
ATOM      1  C1  I4B d   1       1.793   4.780   3.839  0.00  0.00    -0.075 A 
ATOM      2  C2  I4B d   1       3.164   4.762   3.783  0.00  0.00     0.003 A 
ATOM      3  C3  I4B d   1       3.928   5.357   4.817  0.00  0.00     0.002 A 
ATOM      4  C4  I4B d   1       3.283   6.000   5.854  0.00  0.00    -0.004 A 
ATOM      5  C5  I4B d   1       1.893   5.998   5.920  0.00  0.00     0.002 A 
ATOM      6  C6  I4B d   1       1.143   5.373   4.913  0.00  0.00     0.003 A 
ENDROOT
BRANCH   1   7
ATOM      7  C1' I4B d   1       1.018   4.171   2.714  0.00  0.00     0.060 C 
BRANCH   7   8
ATOM      8  C2' I4B d   1       1.762   2.935   2.250  0.00  0.00    -0.013 C 
ATOM      9  C4' I4B d   1       1.418   1.740   3.098  0.00  0.00     0.013 C 
ATOM     10  C3' I4B d   1       1.412   2.698   0.811  0.00  0.00     0.013 C 
ENDBRANCH   7   8
ENDBRANCH   1   7
TORSDOF 2
ENDMDL
