MODEL 1
REMARK minimizedAffinity 3.57660246
REMARK minimizedRMSD -1
REMARK  2 active torsions:
REMARK  status: ('A' for Active; 'I' for Inactive)
REMARK    1  A    between atoms: C2'_3  and  C1'_4 
REMARK    2  A    between atoms: C1'_4  and  C1_5 
ROOT
ATOM      1  C1  I4B d   1       2.984  -3.670   1.229  0.00  0.00    -0.075 A 
ATOM      2  C2  I4B d   1       4.316  -3.693   0.900  0.00  0.00     0.003 A 
ATOM      3  C3  I4B d   1       4.896  -4.864   0.355  0.00  0.00     0.002 A 
ATOM      4  C4  I4B d   1       4.124  -5.998   0.205  0.00  0.00    -0.004 A 
ATOM      5  C5  I4B d   1       2.769  -5.967   0.518  0.00  0.00     0.002 A 
ATOM      6  C6  I4B d   1       2.191  -4.792   1.022  0.00  0.00     0.003 A 
ENDROOT
BRANCH   1   7
ATOM      7  C1' I4B d   1       2.412  -2.427   1.832  0.00  0.00     0.060 C 
BRANCH   7   8
ATOM      8  C2' I4B d   1       0.941  -2.369   1.475  0.00  0.00    -0.013 C 
ATOM      9  C4' I4B d   1       0.160  -1.591   2.501  0.00  0.00     0.013 C 
ATOM     10  C3' I4B d   1       0.819  -1.747   0.116  0.00  0.00     0.013 C 
ENDBRANCH   7   8
ENDBRANCH   1   7
TORSDOF 2
ENDMDL
