MODEL 1
REMARK minimizedAffinity -0.462896407
REMARK minimizedRMSD -1
REMARK  0 active torsions:
REMARK  status: ('A' for Active; 'I' for Inactive)
ROOT
ATOM      1  C   UNL d   1       3.148  -1.504   0.046  0.00  0.00    -0.002 A 
ATOM      2  C1  UNL d   1       2.002  -2.245  -0.204  0.00  0.00     0.010 A 
ATOM      3  C2  UNL d   1       0.765  -1.614  -0.345  0.00  0.00     0.041 A 
ATOM      4  C3  UNL d   1       0.699  -0.211  -0.231  0.00  0.00    -0.075 A 
ATOM      5  S   UNL d   1      -0.707   0.778  -0.367  0.00  0.00     0.015 SA
ATOM      6  C4  UNL d   1       0.181   2.207  -0.097  0.00  0.00     0.022 A 
ATOM      7  C5  UNL d   1       1.519   1.955   0.095  0.00  0.00     0.026 A 
ATOM      8  C6  UNL d   1       1.839   0.557   0.020  0.00  0.00    -0.082 A 
ATOM      9  C7  UNL d   1       3.079  -0.113   0.159  0.00  0.00     0.045 A 
ENDROOT
TORSDOF 0
ENDMDL
