MODEL 1
REMARK minimizedAffinity -1.50424743
REMARK minimizedRMSD -1
REMARK  0 active torsions:
REMARK  status: ('A' for Active; 'I' for Inactive)
ROOT
ATOM      1  C   UNL d   1      -3.989   1.508   1.601  0.00  0.00    -0.002 A 
ATOM      2  C1  UNL d   1      -4.359   1.129   0.318  0.00  0.00     0.010 A 
ATOM      3  C2  UNL d   1      -3.394   0.744  -0.615  0.00  0.00     0.041 A 
ATOM      4  C3  UNL d   1      -2.038   0.746  -0.233  0.00  0.00    -0.075 A 
ATOM      5  S   UNL d   1      -0.683   0.313  -1.207  0.00  0.00     0.015 SA
ATOM      6  C4  UNL d   1       0.419   0.620   0.056  0.00  0.00     0.022 A 
ATOM      7  C5  UNL d   1      -0.214   1.044   1.200  0.00  0.00     0.026 A 
ATOM      8  C6  UNL d   1      -1.641   1.123   1.053  0.00  0.00    -0.082 A 
ATOM      9  C7  UNL d   1      -2.643   1.508   1.976  0.00  0.00     0.045 A 
ENDROOT
TORSDOF 0
ENDMDL
