MODEL 1
REMARK minimizedAffinity 5.39318323
REMARK minimizedRMSD -1
REMARK  0 active torsions:
REMARK  status: ('A' for Active; 'I' for Inactive)
ROOT
ATOM      1  C   UNL d   1       3.223  -1.727   1.230  0.00  0.00    -0.002 A 
ATOM      2  C1  UNL d   1       2.295  -2.064   0.254  0.00  0.00     0.010 A 
ATOM      3  C2  UNL d   1       1.517  -1.079  -0.357  0.00  0.00     0.041 A 
ATOM      4  C3  UNL d   1       1.689   0.264   0.032  0.00  0.00    -0.075 A 
ATOM      5  S   UNL d   1       0.848   1.640  -0.579  0.00  0.00     0.015 SA
ATOM      6  C4  UNL d   1       1.701   2.707   0.440  0.00  0.00     0.022 A 
ATOM      7  C5  UNL d   1       2.609   2.047   1.233  0.00  0.00     0.026 A 
ATOM      8  C6  UNL d   1       2.618   0.629   1.011  0.00  0.00    -0.082 A 
ATOM      9  C7  UNL d   1       3.391  -0.393   1.612  0.00  0.00     0.045 A 
ENDROOT
TORSDOF 0
ENDMDL
