MODEL 1
REMARK minimizedAffinity -3.06589746
REMARK minimizedRMSD -1
REMARK  0 active torsions:
REMARK  status: ('A' for Active; 'I' for Inactive)
ROOT
ATOM      1  C   UNL d   1       2.359  -1.804   0.470  0.00  0.00    -0.002 A 
ATOM      2  C1  UNL d   1       2.645  -0.650   1.186  0.00  0.00     0.010 A 
ATOM      3  C2  UNL d   1       1.835   0.481   1.063  0.00  0.00     0.041 A 
ATOM      4  C3  UNL d   1       0.721   0.431   0.202  0.00  0.00    -0.075 A 
ATOM      5  S   UNL d   1      -0.412   1.694  -0.106  0.00  0.00     0.015 SA
ATOM      6  C4  UNL d   1      -1.303   0.731  -1.194  0.00  0.00     0.022 A 
ATOM      7  C5  UNL d   1      -0.763  -0.526  -1.331  0.00  0.00     0.026 A 
ATOM      8  C6  UNL d   1       0.412  -0.720  -0.528  0.00  0.00    -0.082 A 
ATOM      9  C7  UNL d   1       1.253  -1.849  -0.383  0.00  0.00     0.045 A 
ENDROOT
TORSDOF 0
ENDMDL
