MODEL 1
REMARK minimizedAffinity -0.927304327
REMARK minimizedRMSD -1
REMARK  0 active torsions:
REMARK  status: ('A' for Active; 'I' for Inactive)
ROOT
ATOM      1  C   UNL d   1      -0.772   1.915  -0.787  0.00  0.00    -0.002 A 
ATOM      2  C1  UNL d   1       0.528   2.269  -0.456  0.00  0.00     0.010 A 
ATOM      3  C2  UNL d   1       1.482   1.287  -0.180  0.00  0.00     0.041 A 
ATOM      4  C3  UNL d   1       1.104  -0.068  -0.244  0.00  0.00    -0.075 A 
ATOM      5  S   UNL d   1       2.103  -1.441   0.053  0.00  0.00     0.015 SA
ATOM      6  C4  UNL d   1       0.827  -2.529  -0.252  0.00  0.00     0.022 A 
ATOM      7  C5  UNL d   1      -0.340  -1.878  -0.574  0.00  0.00     0.026 A 
ATOM      8  C6  UNL d   1      -0.199  -0.449  -0.575  0.00  0.00    -0.082 A 
ATOM      9  C7  UNL d   1      -1.144   0.570  -0.849  0.00  0.00     0.045 A 
ENDROOT
TORSDOF 0
ENDMDL
