MODEL 1
REMARK minimizedAffinity -4.5117569
REMARK minimizedRMSD -1
REMARK  0 active torsions:
REMARK  status: ('A' for Active; 'I' for Inactive)
ROOT
ATOM      1  C   UNL d   1       3.882   0.276  -0.008  0.00  0.00    -0.002 A 
ATOM      2  C1  UNL d   1       3.377   1.564   0.101  0.00  0.00     0.010 A 
ATOM      3  C2  UNL d   1       2.013   1.808  -0.073  0.00  0.00     0.041 A 
ATOM      4  C3  UNL d   1       1.157   0.727  -0.358  0.00  0.00    -0.075 A 
ATOM      5  S   UNL d   1      -0.547   0.788  -0.610  0.00  0.00     0.015 SA
ATOM      6  C4  UNL d   1      -0.645  -0.894  -0.866  0.00  0.00     0.022 A 
ATOM      7  C5  UNL d   1       0.584  -1.503  -0.767  0.00  0.00     0.026 A 
ATOM      8  C6  UNL d   1       1.643  -0.579  -0.472  0.00  0.00    -0.082 A 
ATOM      9  C7  UNL d   1       3.030  -0.795  -0.291  0.00  0.00     0.045 A 
ENDROOT
TORSDOF 0
ENDMDL
