MODEL 1
REMARK minimizedAffinity -4.51705408
REMARK minimizedRMSD -1
REMARK  0 active torsions:
REMARK  status: ('A' for Active; 'I' for Inactive)
ROOT
ATOM      1  C   UNL d   1       1.925  -1.881   0.451  0.00  0.00    -0.002 A 
ATOM      2  C1  UNL d   1       2.505  -0.732   0.970  0.00  0.00     0.010 A 
ATOM      3  C2  UNL d   1       1.874   0.506   0.834  0.00  0.00     0.041 A 
ATOM      4  C3  UNL d   1       0.636   0.571   0.163  0.00  0.00    -0.075 A 
ATOM      5  S   UNL d   1      -0.320   1.977  -0.122  0.00  0.00     0.015 SA
ATOM      6  C4  UNL d   1      -1.522   1.085  -0.938  0.00  0.00     0.022 A 
ATOM      7  C5  UNL d   1      -1.217  -0.254  -1.000  0.00  0.00     0.026 A 
ATOM      8  C6  UNL d   1       0.032  -0.573  -0.367  0.00  0.00    -0.082 A 
ATOM      9  C7  UNL d   1       0.697  -1.813  -0.213  0.00  0.00     0.045 A 
ENDROOT
TORSDOF 0
ENDMDL
