MODEL 1
REMARK minimizedAffinity -2.66146493
REMARK minimizedRMSD -1
REMARK  0 active torsions:
REMARK  status: ('A' for Active; 'I' for Inactive)
ROOT
ATOM      1  C   UNL d   1       2.771   0.157   1.524  0.00  0.00    -0.002 A 
ATOM      2  C1  UNL d   1       2.859  -1.150   1.066  0.00  0.00     0.010 A 
ATOM      3  C2  UNL d   1       1.886  -1.672   0.212  0.00  0.00     0.041 A 
ATOM      4  C3  UNL d   1       0.812  -0.848  -0.180  0.00  0.00    -0.075 A 
ATOM      5  S   UNL d   1      -0.496  -1.272  -1.220  0.00  0.00     0.015 SA
ATOM      6  C4  UNL d   1      -1.203   0.273  -1.083  0.00  0.00     0.022 A 
ATOM      7  C5  UNL d   1      -0.472   1.104  -0.268  0.00  0.00     0.026 A 
ATOM      8  C6  UNL d   1       0.701   0.472   0.266  0.00  0.00    -0.082 A 
ATOM      9  C7  UNL d   1       1.704   0.971   1.132  0.00  0.00     0.045 A 
ENDROOT
TORSDOF 0
ENDMDL
