MODEL 1
REMARK minimizedAffinity 7.61789513
REMARK minimizedRMSD -1
REMARK  0 active torsions:
REMARK  status: ('A' for Active; 'I' for Inactive)
ROOT
ATOM      1  C4' PXY d   1      -0.775  -2.226   3.414  0.00  0.00     0.077 C 
ATOM      2  C1' PXY d   1       3.468  -3.178  -0.395  0.00  0.00     0.077 C 
ATOM      3  C1  PXY d   1       2.350  -2.940   0.601  0.00  0.00    -0.082 A 
ATOM      4  C2  PXY d   1       2.022  -1.702   0.933  0.00  0.00     0.003 A 
ATOM      5  C3  PXY d   1       1.036  -1.469   1.856  0.00  0.00     0.003 A 
ATOM      6  C4  PXY d   1       0.341  -2.513   2.405  0.00  0.00    -0.082 A 
ATOM      7  C5  PXY d   1       0.662  -3.779   2.063  0.00  0.00     0.003 A 
ATOM      8  C6  PXY d   1       1.694  -3.995   1.155  0.00  0.00     0.003 A 
ENDROOT
TORSDOF 0
ENDMDL
