MODEL 1
REMARK minimizedAffinity 0.0722669065
REMARK minimizedRMSD -1
REMARK  0 active torsions:
REMARK  status: ('A' for Active; 'I' for Inactive)
ROOT
ATOM      1  C4' PXY d   1       5.978  -2.244   0.002  0.00  0.00     0.077 C 
ATOM      2  C1' PXY d   1       6.000   1.586  -4.327  0.00  0.00     0.077 C 
ATOM      3  C1  PXY d   1       5.999   0.590  -3.184  0.00  0.00    -0.082 A 
ATOM      4  C2  PXY d   1       5.998  -0.707  -3.446  0.00  0.00     0.003 A 
ATOM      5  C3  PXY d   1       5.966  -1.621  -2.424  0.00  0.00     0.003 A 
ATOM      6  C4  PXY d   1       5.988  -1.203  -1.120  0.00  0.00    -0.082 A 
ATOM      7  C5  PXY d   1       6.000   0.118  -0.845  0.00  0.00     0.003 A 
ATOM      8  C6  PXY d   1       5.991   1.030  -1.896  0.00  0.00     0.003 A 
ENDROOT
TORSDOF 0
ENDMDL
