MODEL 1
REMARK minimizedAffinity 5.16717958
REMARK minimizedRMSD -1
REMARK  0 active torsions:
REMARK  status: ('A' for Active; 'I' for Inactive)
ROOT
ATOM      1  C4' PXY d   1       3.118  -4.012   0.256  0.00  0.00     0.077 C 
ATOM      2  C1' PXY d   1      -0.396  -0.454   3.155  0.00  0.00     0.077 C 
ATOM      3  C1  PXY d   1       0.521  -1.382   2.383  0.00  0.00    -0.082 A 
ATOM      4  C2  PXY d   1       0.972  -2.484   2.960  0.00  0.00     0.003 A 
ATOM      5  C3  PXY d   1       1.827  -3.319   2.288  0.00  0.00     0.003 A 
ATOM      6  C4  PXY d   1       2.182  -3.050   0.994  0.00  0.00    -0.082 A 
ATOM      7  C5  PXY d   1       1.718  -1.933   0.394  0.00  0.00     0.003 A 
ATOM      8  C6  PXY d   1       0.883  -1.078   1.108  0.00  0.00     0.003 A 
ENDROOT
TORSDOF 0
ENDMDL
