MODEL 1
REMARK minimizedAffinity 6.43334675
REMARK minimizedRMSD -1
REMARK  0 active torsions:
REMARK  status: ('A' for Active; 'I' for Inactive)
ROOT
ATOM      1  C4' PXY d   1       2.076  -1.702   0.284  0.00  0.00     0.077 C 
ATOM      2  C1' PXY d   1       1.306   2.781   3.851  0.00  0.00     0.077 C 
ATOM      3  C1  PXY d   1       1.508   1.597   2.926  0.00  0.00    -0.082 A 
ATOM      4  C2  PXY d   1       2.033   1.787   1.726  0.00  0.00     0.003 A 
ATOM      5  C3  PXY d   1       2.193   0.733   0.864  0.00  0.00     0.003 A 
ATOM      6  C4  PXY d   1       1.863  -0.538   1.255  0.00  0.00    -0.082 A 
ATOM      7  C5  PXY d   1       1.337  -0.741   2.481  0.00  0.00     0.003 A 
ATOM      8  C6  PXY d   1       1.144   0.349   3.325  0.00  0.00     0.003 A 
ENDROOT
TORSDOF 0
ENDMDL
