MODEL 1
REMARK minimizedAffinity 11.3243437
REMARK minimizedRMSD -1
REMARK  0 active torsions:
REMARK  status: ('A' for Active; 'I' for Inactive)
ROOT
ATOM      1  C4' PXY d   1       3.094  -3.800   3.192  0.00  0.00     0.077 C 
ATOM      2  C1' PXY d   1       0.488  -1.238  -1.286  0.00  0.00     0.077 C 
ATOM      3  C1  PXY d   1       1.166  -1.901  -0.104  0.00  0.00    -0.082 A 
ATOM      4  C2  PXY d   1       2.288  -2.577  -0.288  0.00  0.00     0.003 A 
ATOM      5  C3  PXY d   1       2.897  -3.210   0.765  0.00  0.00     0.003 A 
ATOM      6  C4  PXY d   1       2.380  -3.106   2.029  0.00  0.00    -0.082 A 
ATOM      7  C5  PXY d   1       1.241  -2.410   2.226  0.00  0.00     0.003 A 
ATOM      8  C6  PXY d   1       0.616  -1.809   1.138  0.00  0.00     0.003 A 
ENDROOT
TORSDOF 0
ENDMDL
