MODEL 1
REMARK minimizedAffinity 11.9295683
REMARK minimizedRMSD -1
REMARK  0 active torsions:
REMARK  status: ('A' for Active; 'I' for Inactive)
ROOT
ATOM      1  C4' PXY d   1       5.672  -0.934  -2.381  0.00  0.00     0.077 C 
ATOM      2  C1' PXY d   1       5.901   2.820   2.009  0.00  0.00     0.077 C 
ATOM      3  C1  PXY d   1       5.845   1.826   0.866  0.00  0.00    -0.082 A 
ATOM      4  C2  PXY d   1       5.972   2.254  -0.380  0.00  0.00     0.003 A 
ATOM      5  C3  PXY d   1       5.891   1.373  -1.427  0.00  0.00     0.003 A 
ATOM      6  C4  PXY d   1       5.732   0.033  -1.195  0.00  0.00    -0.082 A 
ATOM      7  C5  PXY d   1       5.613  -0.413   0.074  0.00  0.00     0.003 A 
ATOM      8  C6  PXY d   1       5.656   0.503   1.121  0.00  0.00     0.003 A 
ENDROOT
TORSDOF 0
ENDMDL
