MODEL 1
REMARK minimizedAffinity 6.06563997
REMARK minimizedRMSD -1
REMARK  0 active torsions:
REMARK  status: ('A' for Active; 'I' for Inactive)
ROOT
ATOM      1  C4' PXY d   1      -3.688   1.121   2.991  0.00  0.00     0.077 C 
ATOM      2  C1' PXY d   1       0.855  -2.236   1.766  0.00  0.00     0.077 C 
ATOM      3  C1  PXY d   1      -0.341  -1.358   2.075  0.00  0.00    -0.082 A 
ATOM      4  C2  PXY d   1      -0.251  -0.442   3.026  0.00  0.00     0.003 A 
ATOM      5  C3  PXY d   1      -1.333   0.339   3.340  0.00  0.00     0.003 A 
ATOM      6  C4  PXY d   1      -2.503   0.218   2.638  0.00  0.00    -0.082 A 
ATOM      7  C5  PXY d   1      -2.598  -0.706   1.660  0.00  0.00     0.003 A 
ATOM      8  C6  PXY d   1      -1.502  -1.518   1.384  0.00  0.00     0.003 A 
ENDROOT
TORSDOF 0
ENDMDL
