MODEL 1
REMARK minimizedAffinity 3.42217827
REMARK minimizedRMSD -1
REMARK  0 active torsions:
REMARK  status: ('A' for Active; 'I' for Inactive)
ROOT
ATOM      1  C4' PXY d   1       2.585  -5.105  -0.044  0.00  0.00     0.077 C 
ATOM      2  C1' PXY d   1       0.228  -0.510   2.554  0.00  0.00     0.077 C 
ATOM      3  C1  PXY d   1       0.850  -1.708   1.863  0.00  0.00    -0.082 A 
ATOM      4  C2  PXY d   1       0.385  -2.921   2.111  0.00  0.00     0.003 A 
ATOM      5  C3  PXY d   1       0.957  -4.018   1.520  0.00  0.00     0.003 A 
ATOM      6  C4  PXY d   1       1.981  -3.867   0.624  0.00  0.00    -0.082 A 
ATOM      7  C5  PXY d   1       2.455  -2.631   0.357  0.00  0.00     0.003 A 
ATOM      8  C6  PXY d   1       1.888  -1.534   1.000  0.00  0.00     0.003 A 
ENDROOT
TORSDOF 0
ENDMDL
