MODEL 1
REMARK minimizedAffinity 4.15813112
REMARK minimizedRMSD -1
REMARK  0 active torsions:
REMARK  status: ('A' for Active; 'I' for Inactive)
ROOT
ATOM      1  C4' PXY d   1       2.590   2.844  -5.999  0.00  0.00     0.077 C 
ATOM      2  C1' PXY d   1      -2.079   2.250  -2.642  0.00  0.00     0.077 C 
ATOM      3  C1  PXY d   1      -0.852   2.418  -3.518  0.00  0.00    -0.082 A 
ATOM      4  C2  PXY d   1      -0.747   1.721  -4.637  0.00  0.00     0.003 A 
ATOM      5  C3  PXY d   1       0.369   1.836  -5.424  0.00  0.00     0.003 A 
ATOM      6  C4  PXY d   1       1.365   2.714  -5.089  0.00  0.00    -0.082 A 
ATOM      7  C5  PXY d   1       1.261   3.437  -3.954  0.00  0.00     0.003 A 
ATOM      8  C6  PXY d   1       0.138   3.275  -3.148  0.00  0.00     0.003 A 
ENDROOT
TORSDOF 0
ENDMDL
