MODEL 1
REMARK minimizedAffinity 12.0883532
REMARK minimizedRMSD -1
REMARK  0 active torsions:
REMARK  status: ('A' for Active; 'I' for Inactive)
ROOT
ATOM      1  C4' PXY d   1      -0.066  -0.058  -1.603  0.00  0.00     0.077 C 
ATOM      2  C1' PXY d   1      -3.337   4.468  -3.097  0.00  0.00     0.077 C 
ATOM      3  C1  PXY d   1      -2.469   3.286  -2.711  0.00  0.00    -0.082 A 
ATOM      4  C2  PXY d   1      -3.032   2.115  -2.462  0.00  0.00     0.003 A 
ATOM      5  C3  PXY d   1      -2.265   1.045  -2.080  0.00  0.00     0.003 A 
ATOM      6  C4  PXY d   1      -0.902   1.160  -2.005  0.00  0.00    -0.082 A 
ATOM      7  C5  PXY d   1      -0.320   2.349  -2.269  0.00  0.00     0.003 A 
ATOM      8  C6  PXY d   1      -1.120   3.434  -2.614  0.00  0.00     0.003 A 
ENDROOT
TORSDOF 0
ENDMDL
