MODEL 1
REMARK minimizedAffinity 1.02360141
REMARK minimizedRMSD -1
REMARK  0 active torsions:
REMARK  status: ('A' for Active; 'I' for Inactive)
ROOT
ATOM      1  O1  BZF d   1       5.163   1.687   5.933  0.00  0.00    -0.204 OA
ATOM      2  C2  BZF d   1       4.141   0.758   5.929  0.00  0.00     0.174 A 
ATOM      3  C3  BZF d   1       2.940   1.367   5.999  0.00  0.00    -0.012 A 
ATOM      4  C3A BZF d   1       3.226   2.768   5.956  0.00  0.00    -0.107 A 
ATOM      5  C4  BZF d   1       2.443   3.887   5.974  0.00  0.00     0.055 A 
ATOM      6  C5  BZF d   1       3.038   5.109   5.993  0.00  0.00    -0.016 A 
ATOM      7  C6  BZF d   1       4.410   5.248   6.000  0.00  0.00     0.022 A 
ATOM      8  C7  BZF d   1       5.228   4.168   5.977  0.00  0.00     0.029 A 
ATOM      9  C7A BZF d   1       4.630   2.932   5.925  0.00  0.00     0.058 A 
ENDROOT
TORSDOF 0
ENDMDL
