MODEL 1
REMARK minimizedAffinity 5.33278561
REMARK minimizedRMSD -1
REMARK  0 active torsions:
REMARK  status: ('A' for Active; 'I' for Inactive)
ROOT
ATOM      1  O1  BZF d   1       4.136   0.918   5.258  0.00  0.00    -0.204 OA
ATOM      2  C2  BZF d   1       2.833   0.782   5.698  0.00  0.00     0.174 A 
ATOM      3  C3  BZF d   1       2.301   1.985   5.997  0.00  0.00    -0.012 A 
ATOM      4  C3A BZF d   1       3.305   2.940   5.640  0.00  0.00    -0.107 A 
ATOM      5  C4  BZF d   1       3.363   4.303   5.687  0.00  0.00     0.055 A 
ATOM      6  C5  BZF d   1       4.517   4.928   5.333  0.00  0.00    -0.016 A 
ATOM      7  C6  BZF d   1       5.631   4.221   4.931  0.00  0.00     0.022 A 
ATOM      8  C7  BZF d   1       5.620   2.867   4.864  0.00  0.00     0.029 A 
ATOM      9  C7A BZF d   1       4.445   2.235   5.190  0.00  0.00     0.058 A 
ENDROOT
TORSDOF 0
ENDMDL
