MODEL 1
REMARK minimizedAffinity 3.12921929
REMARK minimizedRMSD -1
REMARK  0 active torsions:
REMARK  status: ('A' for Active; 'I' for Inactive)
ROOT
ATOM      1  O1  BZF d   1       3.043   3.244   3.018  0.00  0.00    -0.204 OA
ATOM      2  C2  BZF d   1       3.025   1.998   3.615  0.00  0.00     0.174 A 
ATOM      3  C3  BZF d   1       3.770   1.995   4.739  0.00  0.00    -0.012 A 
ATOM      4  C3A BZF d   1       4.212   3.346   4.902  0.00  0.00    -0.107 A 
ATOM      5  C4  BZF d   1       4.974   3.978   5.842  0.00  0.00     0.055 A 
ATOM      6  C5  BZF d   1       5.282   5.290   5.670  0.00  0.00    -0.016 A 
ATOM      7  C6  BZF d   1       4.849   5.999   4.568  0.00  0.00     0.022 A 
ATOM      8  C7  BZF d   1       4.086   5.417   3.612  0.00  0.00     0.029 A 
ATOM      9  C7A BZF d   1       3.746   4.099   3.799  0.00  0.00     0.058 A 
ENDROOT
TORSDOF 0
ENDMDL
