MODEL 1
REMARK minimizedAffinity -0.197503865
REMARK minimizedRMSD -1
REMARK  0 active torsions:
REMARK  status: ('A' for Active; 'I' for Inactive)
ROOT
ATOM      1  O1  BZF d   1       4.491   2.086   4.873  0.00  0.00    -0.204 OA
ATOM      2  C2  BZF d   1       3.182   1.810   5.218  0.00  0.00     0.174 A 
ATOM      3  C3  BZF d   1       2.587   2.899   5.747  0.00  0.00    -0.012 A 
ATOM      4  C3A BZF d   1       3.559   3.945   5.647  0.00  0.00    -0.107 A 
ATOM      5  C4  BZF d   1       3.554   5.267   5.990  0.00  0.00     0.055 A 
ATOM      6  C5  BZF d   1       4.690   5.995   5.827  0.00  0.00    -0.016 A 
ATOM      7  C6  BZF d   1       5.848   5.433   5.330  0.00  0.00     0.022 A 
ATOM      8  C7  BZF d   1       5.899   4.128   4.971  0.00  0.00     0.029 A 
ATOM      9  C7A BZF d   1       4.744   3.397   5.104  0.00  0.00     0.058 A 
ENDROOT
TORSDOF 0
ENDMDL
