MODEL 1
REMARK minimizedAffinity -3.94463682
REMARK minimizedRMSD -1
REMARK  0 active torsions:
REMARK  status: ('A' for Active; 'I' for Inactive)
ROOT
ATOM      1  O1  BZF d   1       4.366   1.759   6.000  0.00  0.00    -0.204 OA
ATOM      2  C2  BZF d   1       3.114   1.501   5.477  0.00  0.00     0.174 A 
ATOM      3  C3  BZF d   1       2.611   2.598   4.874  0.00  0.00    -0.012 A 
ATOM      4  C3A BZF d   1       3.651   3.578   4.950  0.00  0.00    -0.107 A 
ATOM      5  C4  BZF d   1       3.759   4.867   4.513  0.00  0.00     0.055 A 
ATOM      6  C5  BZF d   1       4.881   5.574   4.812  0.00  0.00    -0.016 A 
ATOM      7  C6  BZF d   1       5.910   5.025   5.549  0.00  0.00     0.022 A 
ATOM      8  C7  BZF d   1       5.850   3.749   5.999  0.00  0.00     0.029 A 
ATOM      9  C7A BZF d   1       4.732   3.021   5.671  0.00  0.00     0.058 A 
ENDROOT
TORSDOF 0
ENDMDL
