MODEL 1
REMARK minimizedAffinity -5.27885103
REMARK minimizedRMSD -1
REMARK  0 active torsions:
REMARK  status: ('A' for Active; 'I' for Inactive)
ROOT
ATOM      1  O1  BZF d   1       3.747   4.962   4.496  0.00  0.00    -0.204 OA
ATOM      2  C2  BZF d   1       4.891   5.194   5.235  0.00  0.00     0.174 A 
ATOM      3  C3  BZF d   1       5.208   4.114   5.977  0.00  0.00    -0.012 A 
ATOM      4  C3A BZF d   1       4.251   3.114   5.614  0.00  0.00    -0.107 A 
ATOM      5  C4  BZF d   1       4.055   1.818   6.000  0.00  0.00     0.055 A 
ATOM      6  C5  BZF d   1       2.985   1.138   5.510  0.00  0.00    -0.016 A 
ATOM      7  C6  BZF d   1       2.090   1.723   4.639  0.00  0.00     0.022 A 
ATOM      8  C7  BZF d   1       2.246   3.004   4.224  0.00  0.00     0.029 A 
ATOM      9  C7A BZF d   1       3.344   3.683   4.691  0.00  0.00     0.058 A 
ENDROOT
TORSDOF 0
ENDMDL
