MODEL 1
REMARK minimizedAffinity -0.606823683
REMARK minimizedRMSD -1
REMARK  0 active torsions:
REMARK  status: ('A' for Active; 'I' for Inactive)
ROOT
ATOM      1  O1  BZF d   1       2.838  -1.903  -1.112  0.00  0.00    -0.204 OA
ATOM      2  C2  BZF d   1       2.363  -2.384   0.093  0.00  0.00     0.174 A 
ATOM      3  C3  BZF d   1       2.584  -1.495   1.083  0.00  0.00    -0.012 A 
ATOM      4  C3A BZF d   1       3.154  -0.350   0.441  0.00  0.00    -0.107 A 
ATOM      5  C4  BZF d   1       3.575   0.867   0.893  0.00  0.00     0.055 A 
ATOM      6  C5  BZF d   1       4.151   1.734   0.019  0.00  0.00    -0.016 A 
ATOM      7  C6  BZF d   1       4.327   1.413  -1.312  0.00  0.00     0.022 A 
ATOM      8  C7  BZF d   1       3.920   0.219  -1.808  0.00  0.00     0.029 A 
ATOM      9  C7A BZF d   1       3.308  -0.645  -0.934  0.00  0.00     0.058 A 
ENDROOT
TORSDOF 0
ENDMDL
