MODEL 1
REMARK minimizedAffinity -3.44158459
REMARK minimizedRMSD -1
REMARK  0 active torsions:
REMARK  status: ('A' for Active; 'I' for Inactive)
ROOT
ATOM      1  O1  BZF d   1       2.254   3.374   5.620  0.00  0.00    -0.204 OA
ATOM      2  C2  BZF d   1       2.643   2.057   5.470  0.00  0.00     0.174 A 
ATOM      3  C3  BZF d   1       3.987   1.955   5.444  0.00  0.00    -0.012 A 
ATOM      4  C3A BZF d   1       4.470   3.281   5.680  0.00  0.00    -0.107 A 
ATOM      5  C4  BZF d   1       5.720   3.820   5.785  0.00  0.00     0.055 A 
ATOM      6  C5  BZF d   1       5.849   5.163   5.946  0.00  0.00    -0.016 A 
ATOM      7  C6  BZF d   1       4.751   5.997   6.000  0.00  0.00     0.022 A 
ATOM      8  C7  BZF d   1       3.490   5.507   5.905  0.00  0.00     0.029 A 
ATOM      9  C7A BZF d   1       3.356   4.147   5.776  0.00  0.00     0.058 A 
ENDROOT
TORSDOF 0
ENDMDL
