MODEL 1
REMARK minimizedAffinity -3.89705133
REMARK minimizedRMSD -1
REMARK  0 active torsions:
REMARK  status: ('A' for Active; 'I' for Inactive)
ROOT
ATOM      1  O1  BZF d   1       3.009   3.748   3.486  0.00  0.00    -0.204 OA
ATOM      2  C2  BZF d   1       2.973   2.394   3.759  0.00  0.00     0.174 A 
ATOM      3  C3  BZF d   1       3.919   2.064   4.662  0.00  0.00    -0.012 A 
ATOM      4  C3A BZF d   1       4.527   3.302   5.041  0.00  0.00    -0.107 A 
ATOM      5  C4  BZF d   1       5.522   3.630   5.917  0.00  0.00     0.055 A 
ATOM      6  C5  BZF d   1       5.930   4.924   5.999  0.00  0.00    -0.016 A 
ATOM      7  C6  BZF d   1       5.369   5.913   5.218  0.00  0.00     0.022 A 
ATOM      8  C7  BZF d   1       4.376   5.637   4.338  0.00  0.00     0.029 A 
ATOM      9  C7A BZF d   1       3.939   4.336   4.277  0.00  0.00     0.058 A 
ENDROOT
TORSDOF 0
ENDMDL
