MODEL 1
REMARK minimizedAffinity 4.28701115
REMARK minimizedRMSD -1
REMARK  0 active torsions:
REMARK  status: ('A' for Active; 'I' for Inactive)
ROOT
ATOM      1  O1  BZF d   1       3.375   1.500   4.873  0.00  0.00    -0.204 OA
ATOM      2  C2  BZF d   1       2.166   1.393   5.532  0.00  0.00     0.174 A 
ATOM      3  C3  BZF d   1       1.768   2.593   6.000  0.00  0.00    -0.012 A 
ATOM      4  C3A BZF d   1       2.747   3.524   5.529  0.00  0.00    -0.107 A 
ATOM      5  C4  BZF d   1       2.893   4.876   5.653  0.00  0.00     0.055 A 
ATOM      6  C5  BZF d   1       4.000   5.471   5.136  0.00  0.00    -0.016 A 
ATOM      7  C6  BZF d   1       4.982   4.745   4.494  0.00  0.00     0.022 A 
ATOM      8  C7  BZF d   1       4.879   3.402   4.342  0.00  0.00     0.029 A 
ATOM      9  C7A BZF d   1       3.745   2.802   4.835  0.00  0.00     0.058 A 
ENDROOT
TORSDOF 0
ENDMDL
