MODEL 1
REMARK minimizedAffinity -4.1779027
REMARK minimizedRMSD -1
REMARK  0 active torsions:
REMARK  status: ('A' for Active; 'I' for Inactive)
ROOT
ATOM      1  O1  BZF d   1       4.643   3.003   5.250  0.00  0.00    -0.204 OA
ATOM      2  C2  BZF d   1       3.745   2.263   5.995  0.00  0.00     0.174 A 
ATOM      3  C3  BZF d   1       2.524   2.837   5.979  0.00  0.00    -0.012 A 
ATOM      4  C3A BZF d   1       2.647   3.958   5.100  0.00  0.00    -0.107 A 
ATOM      5  C4  BZF d   1       1.770   4.911   4.665  0.00  0.00     0.055 A 
ATOM      6  C5  BZF d   1       2.225   5.912   3.866  0.00  0.00    -0.016 A 
ATOM      7  C6  BZF d   1       3.548   5.994   3.487  0.00  0.00     0.022 A 
ATOM      8  C7  BZF d   1       4.454   5.069   3.888  0.00  0.00     0.029 A 
ATOM      9  C7A BZF d   1       3.991   4.038   4.669  0.00  0.00     0.058 A 
ENDROOT
TORSDOF 0
ENDMDL
