MODEL 1
REMARK minimizedAffinity -3.31289315
REMARK minimizedRMSD -1
REMARK  1 active torsions:
REMARK  status: ('A' for Active; 'I' for Inactive)
REMARK    1  A    between atoms: C3_4  and  O_7 
ROOT
ATOM      1  C   UNL d   1       0.248  -1.421   2.033  0.00  0.00    -0.033 A 
ATOM      2  C1  UNL d   1       0.799  -0.875   0.873  0.00  0.00     0.039 A 
ATOM      3  C2  UNL d   1       1.746  -1.595   0.141  0.00  0.00    -0.080 A 
ATOM      4  C3  UNL d   1       2.131  -2.859   0.580  0.00  0.00     0.150 A 
ATOM      5  C4  UNL d   1       1.583  -3.411   1.734  0.00  0.00    -0.007 A 
ATOM      6  C5  UNL d   1       0.639  -2.689   2.463  0.00  0.00     0.039 A 
ENDROOT
BRANCH   4   7
ATOM      7  O   UNL d   1       3.054  -3.598  -0.097  0.00  0.00    -0.526 OA
ATOM      8  H5  UNL d   1       3.367  -3.079  -0.857  0.00  0.00     0.418 HD
ENDBRANCH   4   7
TORSDOF 1
ENDMDL
