MODEL 1
REMARK minimizedAffinity 1.85948133
REMARK minimizedRMSD -1
REMARK  1 active torsions:
REMARK  status: ('A' for Active; 'I' for Inactive)
REMARK    1  A    between atoms: C3_4  and  O_7 
ROOT
ATOM      1  C   UNL d   1      -2.277   0.118   1.825  0.00  0.00    -0.033 A 
ATOM      2  C1  UNL d   1      -1.229  -0.393   2.594  0.00  0.00     0.039 A 
ATOM      3  C2  UNL d   1      -0.100  -0.929   1.972  0.00  0.00    -0.080 A 
ATOM      4  C3  UNL d   1      -0.031  -0.947   0.582  0.00  0.00     0.150 A 
ATOM      5  C4  UNL d   1      -1.068  -0.437  -0.191  0.00  0.00    -0.007 A 
ATOM      6  C5  UNL d   1      -2.195   0.097   0.432  0.00  0.00     0.039 A 
ENDROOT
BRANCH   4   7
ATOM      7  O   UNL d   1       1.049  -1.465  -0.071  0.00  0.00    -0.526 OA
ATOM      8  H5  UNL d   1       1.673  -1.807   0.591  0.00  0.00     0.418 HD
ENDBRANCH   4   7
TORSDOF 1
ENDMDL
