MODEL 1
REMARK minimizedAffinity 1.63956511
REMARK minimizedRMSD -1
REMARK  1 active torsions:
REMARK  status: ('A' for Active; 'I' for Inactive)
REMARK    1  A    between atoms: C3_4  and  O_7 
ROOT
ATOM      1  C   UNL d   1       3.496  -4.775   0.517  0.00  0.00    -0.033 A 
ATOM      2  C1  UNL d   1       4.157  -3.843  -0.286  0.00  0.00     0.039 A 
ATOM      3  C2  UNL d   1       3.545  -2.627  -0.597  0.00  0.00    -0.080 A 
ATOM      4  C3  UNL d   1       2.275  -2.355  -0.098  0.00  0.00     0.150 A 
ATOM      5  C4  UNL d   1       1.611  -3.277   0.705  0.00  0.00    -0.007 A 
ATOM      6  C5  UNL d   1       2.224  -4.491   1.014  0.00  0.00     0.039 A 
ENDROOT
BRANCH   4   7
ATOM      7  O   UNL d   1       1.635  -1.184  -0.378  0.00  0.00    -0.526 OA
ATOM      8  H5  UNL d   1       2.201  -0.657  -0.967  0.00  0.00     0.418 HD
ENDBRANCH   4   7
TORSDOF 1
ENDMDL
