MODEL 1
REMARK minimizedAffinity -4.31509924
REMARK minimizedRMSD -1
REMARK  1 active torsions:
REMARK  status: ('A' for Active; 'I' for Inactive)
REMARK    1  A    between atoms: C3_4  and  O_7 
ROOT
ATOM      1  C   UNL d   1      -0.670  -0.646   1.645  0.00  0.00    -0.033 A 
ATOM      2  C1  UNL d   1       0.142  -1.300   2.574  0.00  0.00     0.039 A 
ATOM      3  C2  UNL d   1       1.308  -1.943   2.153  0.00  0.00    -0.080 A 
ATOM      4  C3  UNL d   1       1.650  -1.923   0.804  0.00  0.00     0.150 A 
ATOM      5  C4  UNL d   1       0.848  -1.270  -0.126  0.00  0.00    -0.007 A 
ATOM      6  C5  UNL d   1      -0.317  -0.629   0.296  0.00  0.00     0.039 A 
ENDROOT
BRANCH   4   7
ATOM      7  O   UNL d   1       2.776  -2.540   0.345  0.00  0.00    -0.526 OA
ATOM      8  H5  UNL d   1       3.217  -2.974   1.095  0.00  0.00     0.418 HD
ENDBRANCH   4   7
TORSDOF 1
ENDMDL
