MODEL 1
REMARK minimizedAffinity 0.0305712596
REMARK minimizedRMSD -1
REMARK  1 active torsions:
REMARK  status: ('A' for Active; 'I' for Inactive)
REMARK    1  A    between atoms: C3_4  and  O_7 
ROOT
ATOM      1  C   UNL d   1       3.879  -4.853   0.019  0.00  0.00    -0.033 A 
ATOM      2  C1  UNL d   1       3.072  -3.715   0.084  0.00  0.00     0.039 A 
ATOM      3  C2  UNL d   1       1.919  -3.718   0.871  0.00  0.00    -0.080 A 
ATOM      4  C3  UNL d   1       1.585  -4.864   1.588  0.00  0.00     0.150 A 
ATOM      5  C4  UNL d   1       2.386  -6.000   1.531  0.00  0.00    -0.007 A 
ATOM      6  C5  UNL d   1       3.536  -5.995   0.744  0.00  0.00     0.039 A 
ENDROOT
BRANCH   4   7
ATOM      7  O   UNL d   1       0.467  -4.916   2.366  0.00  0.00    -0.526 OA
ATOM      8  H5  UNL d   1      -0.004  -4.070   2.286  0.00  0.00     0.418 HD
ENDBRANCH   4   7
TORSDOF 1
ENDMDL
