MODEL 1
REMARK minimizedAffinity 1.75867403
REMARK minimizedRMSD -1
REMARK  1 active torsions:
REMARK  status: ('A' for Active; 'I' for Inactive)
REMARK    1  A    between atoms: C3_4  and  O_7 
ROOT
ATOM      1  C   UNL d   1       3.754  -6.000   1.489  0.00  0.00    -0.033 A 
ATOM      2  C1  UNL d   1       2.604  -5.261   1.775  0.00  0.00     0.039 A 
ATOM      3  C2  UNL d   1       2.253  -4.174   0.973  0.00  0.00    -0.080 A 
ATOM      4  C3  UNL d   1       3.059  -3.836  -0.112  0.00  0.00     0.150 A 
ATOM      5  C4  UNL d   1       4.203  -4.570  -0.405  0.00  0.00    -0.007 A 
ATOM      6  C5  UNL d   1       4.553  -5.655   0.398  0.00  0.00     0.039 A 
ENDROOT
BRANCH   4   7
ATOM      7  O   UNL d   1       2.760  -2.780  -0.920  0.00  0.00    -0.526 OA
ATOM      8  H5  UNL d   1       1.958  -2.350  -0.580  0.00  0.00     0.418 HD
ENDBRANCH   4   7
TORSDOF 1
ENDMDL
