MODEL 1
REMARK minimizedAffinity 2.66856742
REMARK minimizedRMSD -1
REMARK  1 active torsions:
REMARK  status: ('A' for Active; 'I' for Inactive)
REMARK    1  A    between atoms: C3_4  and  O_7 
ROOT
ATOM      1  C   UNL d   1      -3.459   0.126   1.820  0.00  0.00    -0.033 A 
ATOM      2  C1  UNL d   1      -2.312   0.426   2.558  0.00  0.00     0.039 A 
ATOM      3  C2  UNL d   1      -1.050   0.110   2.050  0.00  0.00    -0.080 A 
ATOM      4  C3  UNL d   1      -0.949  -0.503   0.804  0.00  0.00     0.150 A 
ATOM      5  C4  UNL d   1      -2.087  -0.801   0.062  0.00  0.00    -0.007 A 
ATOM      6  C5  UNL d   1      -3.346  -0.486   0.571  0.00  0.00     0.039 A 
ENDROOT
BRANCH   4   7
ATOM      7  O   UNL d   1       0.261  -0.834   0.269  0.00  0.00    -0.526 OA
ATOM      8  H5  UNL d   1       0.955  -0.595   0.906  0.00  0.00     0.418 HD
ENDBRANCH   4   7
TORSDOF 1
ENDMDL
