MODEL 1
REMARK minimizedAffinity -0.314386189
REMARK minimizedRMSD -1
REMARK  1 active torsions:
REMARK  status: ('A' for Active; 'I' for Inactive)
REMARK    1  A    between atoms: C3_4  and  O_7 
ROOT
ATOM      1  C   UNL d   1      -0.732  -0.804   2.795  0.00  0.00    -0.033 A 
ATOM      2  C1  UNL d   1       0.244  -1.791   2.651  0.00  0.00     0.039 A 
ATOM      3  C2  UNL d   1       0.935  -1.922   1.445  0.00  0.00    -0.080 A 
ATOM      4  C3  UNL d   1       0.642  -1.060   0.392  0.00  0.00     0.150 A 
ATOM      5  C4  UNL d   1      -0.327  -0.072   0.530  0.00  0.00    -0.007 A 
ATOM      6  C5  UNL d   1      -1.017   0.057   1.734  0.00  0.00     0.039 A 
ENDROOT
BRANCH   4   7
ATOM      7  O   UNL d   1       1.286  -1.153  -0.805  0.00  0.00    -0.526 OA
ATOM      8  H5  UNL d   1       1.908  -1.899  -0.763  0.00  0.00     0.418 HD
ENDBRANCH   4   7
TORSDOF 1
ENDMDL
