MODEL 1
REMARK minimizedAffinity 1.75247097
REMARK minimizedRMSD -1
REMARK  1 active torsions:
REMARK  status: ('A' for Active; 'I' for Inactive)
REMARK    1  A    between atoms: C3_4  and  O_7 
ROOT
ATOM      1  C   UNL d   1      -0.203  -4.086   3.280  0.00  0.00    -0.033 A 
ATOM      2  C1  UNL d   1       0.586  -5.092   2.718  0.00  0.00     0.039 A 
ATOM      3  C2  UNL d   1       1.497  -4.783   1.706  0.00  0.00    -0.080 A 
ATOM      4  C3  UNL d   1       1.610  -3.466   1.267  0.00  0.00     0.150 A 
ATOM      5  C4  UNL d   1       0.830  -2.459   1.826  0.00  0.00    -0.007 A 
ATOM      6  C5  UNL d   1      -0.080  -2.770   2.835  0.00  0.00     0.039 A 
ENDROOT
BRANCH   4   7
ATOM      7  O   UNL d   1       2.482  -3.117   0.279  0.00  0.00    -0.526 OA
ATOM      8  H5  UNL d   1       2.933  -3.920  -0.032  0.00  0.00     0.418 HD
ENDBRANCH   4   7
TORSDOF 1
ENDMDL
