MODEL 1
REMARK minimizedAffinity 8.55924702
REMARK minimizedRMSD -1
REMARK  1 active torsions:
REMARK  status: ('A' for Active; 'I' for Inactive)
REMARK    1  A    between atoms: C1_2  and  C2_3 
ROOT
ATOM      1  C2  UNL d   1      -0.839   4.331  -4.958  0.00  0.00    -0.076 A 
ATOM      2  C3  UNL d   1      -1.632   5.485  -4.826  0.00  0.00     0.004 A 
ATOM      3  C4  UNL d   1      -3.018   5.393  -4.711  0.00  0.00    -0.003 A 
ATOM      4  C5  UNL d   1      -3.634   4.147  -4.727  0.00  0.00     0.000 A 
ATOM      5  C6  UNL d   1      -2.862   2.991  -4.840  0.00  0.00     0.000 A 
ATOM      6  C7  UNL d   1      -1.462   3.065  -4.940  0.00  0.00    -0.073 A 
ATOM      7  C8  UNL d   1      -0.679   1.787  -5.065  0.00  0.00     0.078 C 
ENDROOT
BRANCH   1   8
ATOM      8  C1  UNL d   1       0.657   4.494  -5.106  0.00  0.00     0.053 C 
ATOM      9  C   UNL d   1       1.030   5.669  -5.996  0.00  0.00     0.018 C 
ENDBRANCH   1   8
TORSDOF 1
ENDMDL
