MODEL 1
REMARK minimizedAffinity 9.49087048
REMARK minimizedRMSD -1
REMARK  1 active torsions:
REMARK  status: ('A' for Active; 'I' for Inactive)
REMARK    1  A    between atoms: C1_2  and  C2_3 
ROOT
ATOM      1  C2  UNL d   1       3.875  -2.877   2.494  0.00  0.00    -0.076 A 
ATOM      2  C3  UNL d   1       2.547  -3.272   2.257  0.00  0.00     0.004 A 
ATOM      3  C4  UNL d   1       1.907  -2.954   1.060  0.00  0.00    -0.003 A 
ATOM      4  C5  UNL d   1       2.586  -2.236   0.081  0.00  0.00     0.000 A 
ATOM      5  C6  UNL d   1       3.909  -1.851   0.293  0.00  0.00     0.000 A 
ATOM      6  C7  UNL d   1       4.574  -2.178   1.487  0.00  0.00    -0.073 A 
ATOM      7  C8  UNL d   1       6.000  -1.733   1.665  0.00  0.00     0.078 C 
ENDROOT
BRANCH   1   8
ATOM      8  C1  UNL d   1       4.509  -3.228   3.822  0.00  0.00     0.053 C 
ATOM      9  C   UNL d   1       4.504  -2.060   4.796  0.00  0.00     0.018 C 
ENDBRANCH   1   8
TORSDOF 1
ENDMDL
