MODEL 1
REMARK minimizedAffinity 18.0079021
REMARK minimizedRMSD -1
REMARK  1 active torsions:
REMARK  status: ('A' for Active; 'I' for Inactive)
REMARK    1  A    between atoms: C1_2  and  C2_3 
ROOT
ATOM      1  C2  UNL d   1       0.003  -1.856   0.397  0.00  0.00    -0.076 A 
ATOM      2  C3  UNL d   1       0.306  -3.000  -0.360  0.00  0.00     0.004 A 
ATOM      3  C4  UNL d   1       1.623  -3.433  -0.512  0.00  0.00    -0.003 A 
ATOM      4  C5  UNL d   1       2.658  -2.728   0.093  0.00  0.00     0.000 A 
ATOM      5  C6  UNL d   1       2.374  -1.600   0.863  0.00  0.00     0.000 A 
ATOM      6  C7  UNL d   1       1.051  -1.160   1.039  0.00  0.00    -0.073 A 
ATOM      7  C8  UNL d   1       0.803   0.066   1.874  0.00  0.00     0.078 C 
ENDROOT
BRANCH   1   8
ATOM      8  C1  UNL d   1      -1.440  -1.419   0.504  0.00  0.00     0.053 C 
ATOM      9  C   UNL d   1      -2.320  -2.470   1.162  0.00  0.00     0.018 C 
ENDBRANCH   1   8
TORSDOF 1
ENDMDL
