MODEL 1
REMARK minimizedAffinity 10.2674074
REMARK minimizedRMSD -1
REMARK  1 active torsions:
REMARK  status: ('A' for Active; 'I' for Inactive)
REMARK    1  A    between atoms: C1_2  and  C2_3 
ROOT
ATOM      1  C2  UNL d   1       0.094  -2.001   1.886  0.00  0.00    -0.076 A 
ATOM      2  C3  UNL d   1       0.456  -2.871   0.843  0.00  0.00     0.004 A 
ATOM      3  C4  UNL d   1       1.750  -2.873   0.326  0.00  0.00    -0.003 A 
ATOM      4  C5  UNL d   1       2.705  -2.005   0.844  0.00  0.00     0.000 A 
ATOM      5  C6  UNL d   1       2.369  -1.148   1.891  0.00  0.00     0.000 A 
ATOM      6  C7  UNL d   1       1.073  -1.145   2.435  0.00  0.00    -0.073 A 
ATOM      7  C8  UNL d   1       0.763  -0.195   3.559  0.00  0.00     0.078 C 
ENDROOT
BRANCH   1   8
ATOM      8  C1  UNL d   1      -1.332  -2.025   2.388  0.00  0.00     0.053 C 
ATOM      9  C   UNL d   1      -1.635  -3.259   3.223  0.00  0.00     0.018 C 
ENDBRANCH   1   8
TORSDOF 1
ENDMDL
