MODEL 1
REMARK minimizedAffinity 6.34522867
REMARK minimizedRMSD -1
REMARK  1 active torsions:
REMARK  status: ('A' for Active; 'I' for Inactive)
REMARK    1  A    between atoms: C1_2  and  C2_3 
ROOT
ATOM      1  C2  UNL d   1       1.131  -3.600   0.445  0.00  0.00    -0.076 A 
ATOM      2  C3  UNL d   1       2.215  -3.277  -0.390  0.00  0.00     0.004 A 
ATOM      3  C4  UNL d   1       2.734  -1.984  -0.424  0.00  0.00    -0.003 A 
ATOM      4  C5  UNL d   1       2.178  -0.993   0.377  0.00  0.00     0.000 A 
ATOM      5  C6  UNL d   1       1.114  -1.299   1.224  0.00  0.00     0.000 A 
ATOM      6  C7  UNL d   1       0.589  -2.602   1.283  0.00  0.00    -0.073 A 
ATOM      7  C8  UNL d   1      -0.563  -2.875   2.211  0.00  0.00     0.078 C 
ENDROOT
BRANCH   1   8
ATOM      8  C1  UNL d   1       0.593  -5.013   0.420  0.00  0.00     0.053 C 
ATOM      9  C   UNL d   1       1.514  -6.000   1.121  0.00  0.00     0.018 C 
ENDBRANCH   1   8
TORSDOF 1
ENDMDL
