MODEL 1
REMARK minimizedAffinity 10.3888044
REMARK minimizedRMSD -1
REMARK  1 active torsions:
REMARK  status: ('A' for Active; 'I' for Inactive)
REMARK    1  A    between atoms: C1_2  and  C2_3 
ROOT
ATOM      1  C2  UNL d   1      -4.217   0.474  -3.115  0.00  0.00    -0.076 A 
ATOM      2  C3  UNL d   1      -5.215   0.712  -4.076  0.00  0.00     0.004 A 
ATOM      3  C4  UNL d   1      -6.000  -0.330  -4.568  0.00  0.00    -0.003 A 
ATOM      4  C5  UNL d   1      -5.800  -1.626  -4.106  0.00  0.00     0.000 A 
ATOM      5  C6  UNL d   1      -4.826  -1.877  -3.140  0.00  0.00     0.000 A 
ATOM      6  C7  UNL d   1      -4.037  -0.836  -2.622  0.00  0.00    -0.073 A 
ATOM      7  C8  UNL d   1      -2.998  -1.165  -1.586  0.00  0.00     0.078 C 
ENDROOT
BRANCH   1   8
ATOM      8  C1  UNL d   1      -3.378   1.639  -2.639  0.00  0.00     0.053 C 
ATOM      9  C   UNL d   1      -3.001   2.585  -3.768  0.00  0.00     0.018 C 
ENDBRANCH   1   8
TORSDOF 1
ENDMDL
