MODEL 1
REMARK minimizedAffinity 10.8417025
REMARK minimizedRMSD -1
REMARK  1 active torsions:
REMARK  status: ('A' for Active; 'I' for Inactive)
REMARK    1  A    between atoms: C1_2  and  C2_3 
ROOT
ATOM      1  C2  UNL d   1       1.368  -2.409   1.019  0.00  0.00    -0.076 A 
ATOM      2  C3  UNL d   1       2.409  -3.011   0.292  0.00  0.00     0.004 A 
ATOM      3  C4  UNL d   1       2.325  -4.342  -0.113  0.00  0.00    -0.003 A 
ATOM      4  C5  UNL d   1       1.198  -5.092   0.201  0.00  0.00     0.000 A 
ATOM      5  C6  UNL d   1       0.147  -4.506   0.906  0.00  0.00     0.000 A 
ATOM      6  C7  UNL d   1       0.209  -3.161   1.308  0.00  0.00    -0.073 A 
ATOM      7  C8  UNL d   1      -0.951  -2.581   2.071  0.00  0.00     0.078 C 
ENDROOT
BRANCH   1   8
ATOM      8  C1  UNL d   1       1.526  -0.970   1.454  0.00  0.00     0.053 C 
ATOM      9  C   UNL d   1       1.952  -0.845   2.909  0.00  0.00     0.018 C 
ENDBRANCH   1   8
TORSDOF 1
ENDMDL
