MODEL 1
REMARK minimizedAffinity 10.1013002
REMARK minimizedRMSD -1
REMARK  1 active torsions:
REMARK  status: ('A' for Active; 'I' for Inactive)
REMARK    1  A    between atoms: C1_2  and  C2_3 
ROOT
ATOM      1  C2  UNL d   1       0.026  -3.089   1.043  0.00  0.00    -0.076 A 
ATOM      2  C3  UNL d   1       0.793  -1.943   0.773  0.00  0.00     0.004 A 
ATOM      3  C4  UNL d   1       2.028  -2.040   0.134  0.00  0.00    -0.003 A 
ATOM      4  C5  UNL d   1       2.515  -3.286  -0.247  0.00  0.00     0.000 A 
ATOM      5  C6  UNL d   1       1.759  -4.432  -0.003  0.00  0.00     0.000 A 
ATOM      6  C7  UNL d   1       0.505  -4.350   0.626  0.00  0.00    -0.073 A 
ATOM      7  C8  UNL d   1      -0.265  -5.619   0.869  0.00  0.00     0.078 C 
ENDROOT
BRANCH   1   8
ATOM      8  C1  UNL d   1      -1.293  -2.925   1.763  0.00  0.00     0.053 C 
ATOM      9  C   UNL d   1      -1.268  -1.787   2.772  0.00  0.00     0.018 C 
ENDBRANCH   1   8
TORSDOF 1
ENDMDL
