MODEL 1
REMARK minimizedAffinity 16.9834099
REMARK minimizedRMSD -1
REMARK  1 active torsions:
REMARK  status: ('A' for Active; 'I' for Inactive)
REMARK    1  A    between atoms: C1_2  and  C2_3 
ROOT
ATOM      1  C2  UNL d   1      -4.470   0.376  -2.631  0.00  0.00    -0.076 A 
ATOM      2  C3  UNL d   1      -5.223   0.796  -3.742  0.00  0.00     0.004 A 
ATOM      3  C4  UNL d   1      -5.981  -0.112  -4.479  0.00  0.00    -0.003 A 
ATOM      4  C5  UNL d   1      -6.000  -1.454  -4.117  0.00  0.00     0.000 A 
ATOM      5  C6  UNL d   1      -5.273  -1.886  -3.008  0.00  0.00     0.000 A 
ATOM      6  C7  UNL d   1      -4.516  -0.981  -2.244  0.00  0.00    -0.073 A 
ATOM      7  C8  UNL d   1      -3.747  -1.502  -1.061  0.00  0.00     0.078 C 
ENDROOT
BRANCH   1   8
ATOM      8  C1  UNL d   1      -3.645   1.400  -1.886  0.00  0.00     0.053 C 
ATOM      9  C   UNL d   1      -2.458   1.896  -2.699  0.00  0.00     0.018 C 
ENDBRANCH   1   8
TORSDOF 1
ENDMDL
