MODEL 1
REMARK minimizedAffinity 1.490044
REMARK minimizedRMSD -1
REMARK  0 active torsions:
REMARK  status: ('A' for Active; 'I' for Inactive)
ROOT
ATOM      1  C   UNL d   1      -0.877  -1.110   3.111  0.00  0.00    -0.002 A 
ATOM      2  C1  UNL d   1      -2.010  -0.834   2.358  0.00  0.00     0.010 A 
ATOM      3  C2  UNL d   1      -1.914  -0.628   0.980  0.00  0.00     0.041 A 
ATOM      4  C3  UNL d   1      -0.649  -0.707   0.366  0.00  0.00    -0.075 A 
ATOM      5  S   UNL d   1      -0.290  -0.492  -1.307  0.00  0.00     0.015 SA
ATOM      6  C4  UNL d   1       1.375  -0.763  -1.061  0.00  0.00     0.022 A 
ATOM      7  C5  UNL d   1       1.668  -1.012   0.258  0.00  0.00     0.026 A 
ATOM      8  C6  UNL d   1       0.506  -0.985   1.103  0.00  0.00    -0.082 A 
ATOM      9  C7  UNL d   1       0.376  -1.188   2.498  0.00  0.00     0.045 A 
ENDROOT
TORSDOF 0
ENDMDL
