MODEL 1
REMARK minimizedAffinity 7.66051722
REMARK minimizedRMSD -1
REMARK  0 active torsions:
REMARK  status: ('A' for Active; 'I' for Inactive)
ROOT
ATOM      1  C   UNL d   1       0.057   0.887   0.332  0.00  0.00    -0.002 A 
ATOM      2  C1  UNL d   1      -1.116   0.151   0.242  0.00  0.00     0.010 A 
ATOM      3  C2  UNL d   1      -1.326  -0.956   1.066  0.00  0.00     0.041 A 
ATOM      4  C3  UNL d   1      -0.327  -1.315   1.992  0.00  0.00    -0.075 A 
ATOM      5  S   UNL d   1      -0.365  -2.632   3.104  0.00  0.00     0.015 SA
ATOM      6  C4  UNL d   1       1.175  -2.249   3.726  0.00  0.00     0.022 A 
ATOM      7  C5  UNL d   1       1.719  -1.147   3.111  0.00  0.00     0.026 A 
ATOM      8  C6  UNL d   1       0.863  -0.589   2.103  0.00  0.00    -0.082 A 
ATOM      9  C7  UNL d   1       1.045   0.528   1.253  0.00  0.00     0.045 A 
ENDROOT
TORSDOF 0
ENDMDL
