MODEL 1
REMARK minimizedAffinity 2.23114991
REMARK minimizedRMSD -1
REMARK  0 active torsions:
REMARK  status: ('A' for Active; 'I' for Inactive)
ROOT
ATOM      1  C   UNL d   1      -1.973  -0.191   2.057  0.00  0.00    -0.002 A 
ATOM      2  C1  UNL d   1      -1.153  -0.753   3.025  0.00  0.00     0.010 A 
ATOM      3  C2  UNL d   1       0.140  -1.171   2.706  0.00  0.00     0.041 A 
ATOM      4  C3  UNL d   1       0.601  -1.013   1.384  0.00  0.00    -0.075 A 
ATOM      5  S   UNL d   1       2.148  -1.452   0.763  0.00  0.00     0.015 SA
ATOM      6  C4  UNL d   1       1.758  -0.903  -0.803  0.00  0.00     0.022 A 
ATOM      7  C5  UNL d   1       0.482  -0.395  -0.868  0.00  0.00     0.026 A 
ATOM      8  C6  UNL d   1      -0.206  -0.449   0.391  0.00  0.00    -0.082 A 
ATOM      9  C7  UNL d   1      -1.512  -0.036   0.746  0.00  0.00     0.045 A 
ENDROOT
TORSDOF 0
ENDMDL
