MODEL 1
REMARK minimizedAffinity 5.03201962
REMARK minimizedRMSD -1
REMARK  0 active torsions:
REMARK  status: ('A' for Active; 'I' for Inactive)
ROOT
ATOM      1  C   UNL d   1       0.621  -0.759   2.928  0.00  0.00    -0.002 A 
ATOM      2  C1  UNL d   1       1.947  -0.628   3.315  0.00  0.00     0.010 A 
ATOM      3  C2  UNL d   1       2.971  -0.657   2.366  0.00  0.00     0.041 A 
ATOM      4  C3  UNL d   1       2.635  -0.819   1.007  0.00  0.00    -0.075 A 
ATOM      5  S   UNL d   1       3.720  -0.882  -0.331  0.00  0.00     0.015 SA
ATOM      6  C4  UNL d   1       2.449  -1.083  -1.448  0.00  0.00     0.022 A 
ATOM      7  C5  UNL d   1       1.220  -1.104  -0.833  0.00  0.00     0.026 A 
ATOM      8  C6  UNL d   1       1.307  -0.952   0.592  0.00  0.00    -0.082 A 
ATOM      9  C7  UNL d   1       0.292  -0.920   1.579  0.00  0.00     0.045 A 
ENDROOT
TORSDOF 0
ENDMDL
