MODEL 1
REMARK minimizedAffinity 2.09705305
REMARK minimizedRMSD -1
REMARK  0 active torsions:
REMARK  status: ('A' for Active; 'I' for Inactive)
ROOT
ATOM      1  C   UNL d   1      -1.907   1.301  -0.107  0.00  0.00    -0.002 A 
ATOM      2  C1  UNL d   1      -0.988   1.091  -1.126  0.00  0.00     0.010 A 
ATOM      3  C2  UNL d   1       0.034   0.151  -0.977  0.00  0.00     0.041 A 
ATOM      4  C3  UNL d   1       0.116  -0.582   0.222  0.00  0.00    -0.075 A 
ATOM      5  S   UNL d   1       1.283  -1.786   0.627  0.00  0.00     0.015 SA
ATOM      6  C4  UNL d   1       0.588  -2.051   2.160  0.00  0.00     0.022 A 
ATOM      7  C5  UNL d   1      -0.508  -1.249   2.375  0.00  0.00     0.026 A 
ATOM      8  C6  UNL d   1      -0.798  -0.389   1.262  0.00  0.00    -0.082 A 
ATOM      9  C7  UNL d   1      -1.822   0.571   1.081  0.00  0.00     0.045 A 
ENDROOT
TORSDOF 0
ENDMDL
