MODEL 1
REMARK minimizedAffinity -3.58292294
REMARK minimizedRMSD -1
REMARK  0 active torsions:
REMARK  status: ('A' for Active; 'I' for Inactive)
ROOT
ATOM      1  C   UNL d   1      -1.796   0.267   1.694  0.00  0.00    -0.002 A 
ATOM      2  C1  UNL d   1      -0.834  -0.133   2.610  0.00  0.00     0.010 A 
ATOM      3  C2  UNL d   1       0.389  -0.650   2.176  0.00  0.00     0.041 A 
ATOM      4  C3  UNL d   1       0.631  -0.757   0.792  0.00  0.00    -0.075 A 
ATOM      5  S   UNL d   1       2.056  -1.358   0.030  0.00  0.00     0.015 SA
ATOM      6  C4  UNL d   1       1.421  -1.098  -1.530  0.00  0.00     0.022 A 
ATOM      7  C5  UNL d   1       0.154  -0.566  -1.489  0.00  0.00     0.026 A 
ATOM      8  C6  UNL d   1      -0.322  -0.360  -0.150  0.00  0.00    -0.082 A 
ATOM      9  C7  UNL d   1      -1.552   0.159   0.322  0.00  0.00     0.045 A 
ENDROOT
TORSDOF 0
ENDMDL
