MODEL 1
REMARK minimizedAffinity -3.20950294
REMARK minimizedRMSD -1
REMARK  0 active torsions:
REMARK  status: ('A' for Active; 'I' for Inactive)
ROOT
ATOM      1  C   UNL d   1       2.741  -2.568   0.078  0.00  0.00    -0.002 A 
ATOM      2  C1  UNL d   1       2.195  -2.591   1.353  0.00  0.00     0.010 A 
ATOM      3  C2  UNL d   1       1.132  -1.749   1.686  0.00  0.00     0.041 A 
ATOM      4  C3  UNL d   1       0.621  -0.876   0.705  0.00  0.00    -0.075 A 
ATOM      5  S   UNL d   1      -0.677   0.244   0.885  0.00  0.00     0.015 SA
ATOM      6  C4  UNL d   1      -0.538   0.779  -0.727  0.00  0.00     0.022 A 
ATOM      7  C5  UNL d   1       0.470   0.130  -1.401  0.00  0.00     0.026 A 
ATOM      8  C6  UNL d   1       1.154  -0.835  -0.587  0.00  0.00    -0.082 A 
ATOM      9  C7  UNL d   1       2.232  -1.701  -0.893  0.00  0.00     0.045 A 
ENDROOT
TORSDOF 0
ENDMDL
