MODEL 1
REMARK minimizedAffinity -0.531251848
REMARK minimizedRMSD -1
REMARK  0 active torsions:
REMARK  status: ('A' for Active; 'I' for Inactive)
ROOT
ATOM      1  C   UNL d   1       1.643  -2.462   1.540  0.00  0.00    -0.002 A 
ATOM      2  C1  UNL d   1       0.848  -2.194   2.646  0.00  0.00     0.010 A 
ATOM      3  C2  UNL d   1      -0.110  -1.179   2.602  0.00  0.00     0.041 A 
ATOM      4  C3  UNL d   1      -0.259  -0.433   1.416  0.00  0.00    -0.075 A 
ATOM      5  S   UNL d   1      -1.367   0.857   1.132  0.00  0.00     0.015 SA
ATOM      6  C4  UNL d   1      -0.813   1.081  -0.464  0.00  0.00     0.022 A 
ATOM      7  C5  UNL d   1       0.193   0.202  -0.789  0.00  0.00     0.026 A 
ATOM      8  C6  UNL d   1       0.529  -0.685   0.290  0.00  0.00    -0.082 A 
ATOM      9  C7  UNL d   1       1.492  -1.720   0.366  0.00  0.00     0.045 A 
ENDROOT
TORSDOF 0
ENDMDL
