MODEL 1
REMARK minimizedAffinity 2.45017409
REMARK minimizedRMSD -1
REMARK  0 active torsions:
REMARK  status: ('A' for Active; 'I' for Inactive)
ROOT
ATOM      1  C   UNL d   1      -1.159   3.221  -1.396  0.00  0.00     0.124 A 
ATOM      2  C1  UNL d   1      -1.782   3.705  -0.253  0.00  0.00     0.062 A 
ATOM      3  C2  UNL d   1      -1.633   3.040   0.960  0.00  0.00     0.162 A 
ATOM      4  C3  UNL d   1      -0.855   1.884   1.038  0.00  0.00    -0.034 A 
ATOM      5  C4  UNL d   1      -0.233   1.403  -0.115  0.00  0.00     0.162 A 
ATOM      6  C5  UNL d   1      -0.385   2.072  -1.325  0.00  0.00     0.062 A 
ATOM      7  F   UNL d   1       0.218   1.603  -2.428  0.00  0.00    -0.097 F 
ATOM      8  F1  UNL d   1       0.522   0.295  -0.076  0.00  0.00    -0.096 F 
ATOM      9  I   UNL d   1      -0.630   0.886   2.851  0.00  0.00    -0.060 I 
ATOM     10  F2  UNL d   1      -2.246   3.529   2.048  0.00  0.00    -0.096 F 
ATOM     11  F3  UNL d   1      -2.531   4.815  -0.319  0.00  0.00    -0.097 F 
ATOM     12  F4  UNL d   1      -1.305   3.863  -2.562  0.00  0.00    -0.092 F 
ENDROOT
TORSDOF 0
ENDMDL
