MODEL 1
REMARK minimizedAffinity 17.1839924
REMARK minimizedRMSD -1
REMARK  0 active torsions:
REMARK  status: ('A' for Active; 'I' for Inactive)
ROOT
ATOM      1  C   UNL d   1      -1.356  -0.214  -2.589  0.00  0.00     0.124 A 
ATOM      2  C1  UNL d   1      -2.346  -0.380  -1.630  0.00  0.00     0.062 A 
ATOM      3  C2  UNL d   1      -2.376   0.439  -0.506  0.00  0.00     0.162 A 
ATOM      4  C3  UNL d   1      -1.413   1.434  -0.334  0.00  0.00    -0.034 A 
ATOM      5  C4  UNL d   1      -0.420   1.594  -1.302  0.00  0.00     0.162 A 
ATOM      6  C5  UNL d   1      -0.395   0.773  -2.425  0.00  0.00     0.062 A 
ATOM      7  F   UNL d   1       0.562   0.935  -3.350  0.00  0.00    -0.097 F 
ATOM      8  F1  UNL d   1       0.521   2.541  -1.169  0.00  0.00    -0.096 F 
ATOM      9  I   UNL d   1      -1.454   2.662   1.346  0.00  0.00    -0.060 I 
ATOM     10  F2  UNL d   1      -3.343   0.256   0.405  0.00  0.00    -0.096 F 
ATOM     11  F3  UNL d   1      -3.276  -1.334  -1.787  0.00  0.00    -0.097 F 
ATOM     12  F4  UNL d   1      -1.329  -1.005  -3.670  0.00  0.00    -0.092 F 
ENDROOT
TORSDOF 0
ENDMDL
