MODEL 1
REMARK minimizedAffinity 23.2756805
REMARK minimizedRMSD -1
REMARK  0 active torsions:
REMARK  status: ('A' for Active; 'I' for Inactive)
ROOT
ATOM      1  C   UNL d   1       1.893   3.173   1.455  0.00  0.00     0.124 A 
ATOM      2  C1  UNL d   1       2.124   3.939   0.320  0.00  0.00     0.062 A 
ATOM      3  C2  UNL d   1       1.123   4.094  -0.634  0.00  0.00     0.162 A 
ATOM      4  C3  UNL d   1      -0.119   3.482  -0.459  0.00  0.00    -0.034 A 
ATOM      5  C4  UNL d   1      -0.342   2.712   0.684  0.00  0.00     0.162 A 
ATOM      6  C5  UNL d   1       0.661   2.560   1.636  0.00  0.00     0.062 A 
ATOM      7  F   UNL d   1       0.437   1.820   2.731  0.00  0.00    -0.097 F 
ATOM      8  F1  UNL d   1      -1.524   2.110   0.885  0.00  0.00    -0.096 F 
ATOM      9  I   UNL d   1      -1.618   3.712  -1.884  0.00  0.00    -0.060 I 
ATOM     10  F2  UNL d   1       1.373   4.840  -1.721  0.00  0.00    -0.096 F 
ATOM     11  F3  UNL d   1       3.314   4.531   0.143  0.00  0.00    -0.097 F 
ATOM     12  F4  UNL d   1       2.859   3.024   2.371  0.00  0.00    -0.092 F 
ENDROOT
TORSDOF 0
ENDMDL
