MODEL 1
REMARK minimizedAffinity 15.5080576
REMARK minimizedRMSD -1
REMARK  0 active torsions:
REMARK  status: ('A' for Active; 'I' for Inactive)
ROOT
ATOM      1  C   UNL d   1      -1.655  -0.236  -2.528  0.00  0.00     0.124 A 
ATOM      2  C1  UNL d   1      -0.954   0.959  -2.614  0.00  0.00     0.062 A 
ATOM      3  C2  UNL d   1      -1.039   1.895  -1.587  0.00  0.00     0.162 A 
ATOM      4  C3  UNL d   1      -1.827   1.638  -0.464  0.00  0.00    -0.034 A 
ATOM      5  C4  UNL d   1      -2.529   0.434  -0.386  0.00  0.00     0.162 A 
ATOM      6  C5  UNL d   1      -2.441  -0.498  -1.415  0.00  0.00     0.062 A 
ATOM      7  F   UNL d   1      -3.118  -1.652  -1.331  0.00  0.00    -0.097 F 
ATOM      8  F1  UNL d   1      -3.296   0.156   0.679  0.00  0.00    -0.096 F 
ATOM      9  I   UNL d   1      -1.957   3.035   1.073  0.00  0.00    -0.060 I 
ATOM     10  F2  UNL d   1      -0.352   3.041  -1.696  0.00  0.00    -0.096 F 
ATOM     11  F3  UNL d   1      -0.195   1.214  -3.688  0.00  0.00    -0.097 F 
ATOM     12  F4  UNL d   1      -1.572  -1.134  -3.518  0.00  0.00    -0.092 F 
ENDROOT
TORSDOF 0
ENDMDL
