MODEL 1
REMARK minimizedAffinity 5.57720947
REMARK minimizedRMSD -1
REMARK  0 active torsions:
REMARK  status: ('A' for Active; 'I' for Inactive)
ROOT
ATOM      1  C   UNL d   1      -0.699   3.249  -1.566  0.00  0.00     0.124 A 
ATOM      2  C1  UNL d   1      -0.503   3.818  -0.315  0.00  0.00     0.062 A 
ATOM      3  C2  UNL d   1      -0.122   3.025   0.763  0.00  0.00     0.162 A 
ATOM      4  C3  UNL d   1       0.068   1.653   0.595  0.00  0.00    -0.034 A 
ATOM      5  C4  UNL d   1      -0.131   1.088  -0.666  0.00  0.00     0.162 A 
ATOM      6  C5  UNL d   1      -0.512   1.885  -1.740  0.00  0.00     0.062 A 
ATOM      7  F   UNL d   1      -0.700   1.333  -2.948  0.00  0.00    -0.097 F 
ATOM      8  F1  UNL d   1       0.043  -0.228  -0.862  0.00  0.00    -0.096 F 
ATOM      9  I   UNL d   1       0.639   0.464   2.205  0.00  0.00    -0.060 I 
ATOM     10  F2  UNL d   1       0.060   3.602   1.960  0.00  0.00    -0.096 F 
ATOM     11  F3  UNL d   1      -0.684   5.136  -0.145  0.00  0.00    -0.097 F 
ATOM     12  F4  UNL d   1      -1.067   4.014  -2.602  0.00  0.00    -0.092 F 
ENDROOT
TORSDOF 0
ENDMDL
