MODEL 1
REMARK minimizedAffinity 9.60365963
REMARK minimizedRMSD -1
REMARK  0 active torsions:
REMARK  status: ('A' for Active; 'I' for Inactive)
ROOT
ATOM      1  C   UNL d   1      -0.917   2.796  -1.342  0.00  0.00     0.124 A 
ATOM      2  C1  UNL d   1      -0.347   1.557  -1.602  0.00  0.00     0.062 A 
ATOM      3  C2  UNL d   1       0.175   0.795  -0.561  0.00  0.00     0.162 A 
ATOM      4  C3  UNL d   1       0.129   1.268   0.750  0.00  0.00    -0.034 A 
ATOM      5  C4  UNL d   1      -0.445   2.515   1.003  0.00  0.00     0.162 A 
ATOM      6  C5  UNL d   1      -0.965   3.273  -0.040  0.00  0.00     0.062 A 
ATOM      7  F   UNL d   1      -1.515   4.470   0.213  0.00  0.00    -0.097 F 
ATOM      8  F1  UNL d   1      -0.505   3.001   2.252  0.00  0.00    -0.096 F 
ATOM      9  I   UNL d   1       0.909   0.131   2.309  0.00  0.00    -0.060 I 
ATOM     10  F2  UNL d   1       0.720  -0.399  -0.842  0.00  0.00    -0.096 F 
ATOM     11  F3  UNL d   1      -0.298   1.094  -2.859  0.00  0.00    -0.097 F 
ATOM     12  F4  UNL d   1      -1.418   3.528  -2.345  0.00  0.00    -0.092 F 
ENDROOT
TORSDOF 0
ENDMDL
