MODEL 1
REMARK minimizedAffinity 3.06256986
REMARK minimizedRMSD -1
REMARK  0 active torsions:
REMARK  status: ('A' for Active; 'I' for Inactive)
ROOT
ATOM      1  C   UNL d   1      -0.362   1.110   2.667  0.00  0.00     0.124 A 
ATOM      2  C1  UNL d   1      -1.038   2.104   1.972  0.00  0.00     0.062 A 
ATOM      3  C2  UNL d   1      -0.863   2.239   0.598  0.00  0.00     0.162 A 
ATOM      4  C3  UNL d   1      -0.009   1.378  -0.091  0.00  0.00    -0.034 A 
ATOM      5  C4  UNL d   1       0.668   0.382   0.615  0.00  0.00     0.162 A 
ATOM      6  C5  UNL d   1       0.490   0.250   1.988  0.00  0.00     0.062 A 
ATOM      7  F   UNL d   1       1.143  -0.710   2.658  0.00  0.00    -0.097 F 
ATOM      8  F1  UNL d   1       1.496  -0.463  -0.017  0.00  0.00    -0.096 F 
ATOM      9  I   UNL d   1       0.255   1.577  -2.146  0.00  0.00    -0.060 I 
ATOM     10  F2  UNL d   1      -1.529   3.208  -0.048  0.00  0.00    -0.096 F 
ATOM     11  F3  UNL d   1      -1.861   2.936   2.626  0.00  0.00    -0.097 F 
ATOM     12  F4  UNL d   1      -0.531   0.983   3.990  0.00  0.00    -0.092 F 
ENDROOT
TORSDOF 0
ENDMDL
