MODEL 1
REMARK minimizedAffinity 17.5817242
REMARK minimizedRMSD -1
REMARK  0 active torsions:
REMARK  status: ('A' for Active; 'I' for Inactive)
ROOT
ATOM      1  C   UNL d   1      -0.658   2.885  -1.206  0.00  0.00     0.124 A 
ATOM      2  C1  UNL d   1      -0.580   3.360   0.096  0.00  0.00     0.062 A 
ATOM      3  C2  UNL d   1      -0.042   2.561   1.101  0.00  0.00     0.162 A 
ATOM      4  C3  UNL d   1       0.422   1.279   0.809  0.00  0.00    -0.034 A 
ATOM      5  C4  UNL d   1       0.339   0.807  -0.503  0.00  0.00     0.162 A 
ATOM      6  C5  UNL d   1      -0.199   1.609  -1.504  0.00  0.00     0.062 A 
ATOM      7  F   UNL d   1      -0.273   1.149  -2.761  0.00  0.00    -0.097 F 
ATOM      8  F1  UNL d   1       0.776  -0.421  -0.818  0.00  0.00    -0.096 F 
ATOM      9  I   UNL d   1       1.226   0.082   2.310  0.00  0.00    -0.060 I 
ATOM     10  F2  UNL d   1       0.021   3.046   2.350  0.00  0.00    -0.096 F 
ATOM     11  F3  UNL d   1      -1.023   4.591   0.386  0.00  0.00    -0.097 F 
ATOM     12  F4  UNL d   1      -1.176   3.655  -2.172  0.00  0.00    -0.092 F 
ENDROOT
TORSDOF 0
ENDMDL
