MODEL 1
REMARK minimizedAffinity -5.24956036
REMARK minimizedRMSD -1
REMARK  0 active torsions:
REMARK  status: ('A' for Active; 'I' for Inactive)
ROOT
ATOM      1  C   UNL d   1      -2.394  -2.421   1.740  0.00  0.00    -0.002 A 
ATOM      2  C1  UNL d   1      -2.954  -1.167   1.943  0.00  0.00     0.010 A 
ATOM      3  C2  UNL d   1      -2.299  -0.017   1.501  0.00  0.00     0.041 A 
ATOM      4  C3  UNL d   1      -1.060  -0.148   0.843  0.00  0.00    -0.075 A 
ATOM      5  S   UNL d   1      -0.077   1.121   0.214  0.00  0.00     0.015 SA
ATOM      6  C4  UNL d   1       1.109   0.029  -0.339  0.00  0.00     0.022 A 
ATOM      7  C5  UNL d   1       0.780  -1.276  -0.059  0.00  0.00     0.026 A 
ATOM      8  C6  UNL d   1      -0.476  -1.400   0.627  0.00  0.00    -0.082 A 
ATOM      9  C7  UNL d   1      -1.165  -2.547   1.088  0.00  0.00     0.045 A 
ENDROOT
TORSDOF 0
ENDMDL
