MODEL 1
REMARK minimizedAffinity -3.99090123
REMARK minimizedRMSD -1
REMARK  0 active torsions:
REMARK  status: ('A' for Active; 'I' for Inactive)
ROOT
ATOM      1  C   UNL d   1      -2.897  -1.675   1.984  0.00  0.00    -0.002 A 
ATOM      2  C1  UNL d   1      -3.014  -0.295   1.909  0.00  0.00     0.010 A 
ATOM      3  C2  UNL d   1      -2.027   0.469   1.281  0.00  0.00     0.041 A 
ATOM      4  C3  UNL d   1      -0.912  -0.186   0.723  0.00  0.00    -0.075 A 
ATOM      5  S   UNL d   1       0.419   0.543  -0.096  0.00  0.00     0.015 SA
ATOM      6  C4  UNL d   1       1.173  -0.961  -0.366  0.00  0.00     0.022 A 
ATOM      7  C5  UNL d   1       0.441  -2.005   0.149  0.00  0.00     0.026 A 
ATOM      8  C6  UNL d   1      -0.773  -1.575   0.784  0.00  0.00    -0.082 A 
ATOM      9  C7  UNL d   1      -1.789  -2.321   1.428  0.00  0.00     0.045 A 
ENDROOT
TORSDOF 0
ENDMDL
