MODEL 1
REMARK minimizedAffinity -3.48500633
REMARK minimizedRMSD -1
REMARK  0 active torsions:
REMARK  status: ('A' for Active; 'I' for Inactive)
ROOT
ATOM      1  C   UNL d   1      -2.332  -2.659   1.484  0.00  0.00    -0.002 A 
ATOM      2  C1  UNL d   1      -1.154  -3.299   1.841  0.00  0.00     0.010 A 
ATOM      3  C2  UNL d   1       0.084  -2.738   1.522  0.00  0.00     0.041 A 
ATOM      4  C3  UNL d   1       0.119  -1.510   0.833  0.00  0.00    -0.075 A 
ATOM      5  S   UNL d   1       1.519  -0.635   0.337  0.00  0.00     0.015 SA
ATOM      6  C4  UNL d   1       0.586   0.610  -0.359  0.00  0.00     0.022 A 
ATOM      7  C5  UNL d   1      -0.762   0.379  -0.227  0.00  0.00     0.026 A 
ATOM      8  C6  UNL d   1      -1.054  -0.846   0.463  0.00  0.00    -0.082 A 
ATOM      9  C7  UNL d   1      -2.294  -1.441   0.800  0.00  0.00     0.045 A 
ENDROOT
TORSDOF 0
ENDMDL
