MODEL 1
REMARK minimizedAffinity -3.70928407
REMARK minimizedRMSD -1
REMARK  0 active torsions:
REMARK  status: ('A' for Active; 'I' for Inactive)
ROOT
ATOM      1  C   UNL d   1      -2.855  -1.831   1.397  0.00  0.00    -0.002 A 
ATOM      2  C1  UNL d   1      -3.029  -0.520   0.976  0.00  0.00     0.010 A 
ATOM      3  C2  UNL d   1      -1.949   0.219   0.488  0.00  0.00     0.041 A 
ATOM      4  C3  UNL d   1      -0.680  -0.390   0.426  0.00  0.00    -0.075 A 
ATOM      5  S   UNL d   1       0.787   0.320  -0.137  0.00  0.00     0.015 SA
ATOM      6  C4  UNL d   1       1.678  -1.100   0.166  0.00  0.00     0.022 A 
ATOM      7  C5  UNL d   1       0.892  -2.102   0.685  0.00  0.00     0.026 A 
ATOM      8  C6  UNL d   1      -0.480  -1.709   0.843  0.00  0.00    -0.082 A 
ATOM      9  C7  UNL d   1      -1.595  -2.431   1.334  0.00  0.00     0.045 A 
ENDROOT
TORSDOF 0
ENDMDL
