MODEL 1
REMARK minimizedAffinity -4.98102856
REMARK minimizedRMSD -1
REMARK  0 active torsions:
REMARK  status: ('A' for Active; 'I' for Inactive)
ROOT
ATOM      1  C   UNL d   1      -2.295  -2.793   1.477  0.00  0.00    -0.002 A 
ATOM      2  C1  UNL d   1      -2.737  -1.657   2.142  0.00  0.00     0.010 A 
ATOM      3  C2  UNL d   1      -2.172  -0.410   1.868  0.00  0.00     0.041 A 
ATOM      4  C3  UNL d   1      -1.148  -0.322   0.905  0.00  0.00    -0.075 A 
ATOM      5  S   UNL d   1      -0.310   1.100   0.406  0.00  0.00     0.015 SA
ATOM      6  C4  UNL d   1       0.652   0.234  -0.703  0.00  0.00     0.022 A 
ATOM      7  C5  UNL d   1       0.355  -1.108  -0.705  0.00  0.00     0.026 A 
ATOM      8  C6  UNL d   1      -0.688  -1.451   0.221  0.00  0.00    -0.082 A 
ATOM      9  C7  UNL d   1      -1.279  -2.701   0.522  0.00  0.00     0.045 A 
ENDROOT
TORSDOF 0
ENDMDL
