MODEL 1
REMARK minimizedAffinity -2.72787333
REMARK minimizedRMSD -1
REMARK  0 active torsions:
REMARK  status: ('A' for Active; 'I' for Inactive)
ROOT
ATOM      1  C   UNL d   1      -0.823  -2.716   1.245  0.00  0.00    -0.002 A 
ATOM      2  C1  UNL d   1      -1.834  -2.253   0.416  0.00  0.00     0.010 A 
ATOM      3  C2  UNL d   1      -1.692  -1.047  -0.272  0.00  0.00     0.041 A 
ATOM      4  C3  UNL d   1      -0.504  -0.307  -0.112  0.00  0.00    -0.075 A 
ATOM      5  S   UNL d   1      -0.109   1.198  -0.856  0.00  0.00     0.015 SA
ATOM      6  C4  UNL d   1       1.412   1.261  -0.090  0.00  0.00     0.022 A 
ATOM      7  C5  UNL d   1       1.630   0.170   0.717  0.00  0.00     0.026 A 
ATOM      8  C6  UNL d   1       0.529  -0.752   0.717  0.00  0.00    -0.082 A 
ATOM      9  C7  UNL d   1       0.354  -1.979   1.402  0.00  0.00     0.045 A 
ENDROOT
TORSDOF 0
ENDMDL
