MODEL 1
REMARK minimizedAffinity -5.2801795
REMARK minimizedRMSD -1
REMARK  0 active torsions:
REMARK  status: ('A' for Active; 'I' for Inactive)
ROOT
ATOM      1  C   UNL d   1      -3.078  -1.297   1.635  0.00  0.00    -0.002 A 
ATOM      2  C1  UNL d   1      -2.325  -2.456   1.509  0.00  0.00     0.010 A 
ATOM      3  C2  UNL d   1      -1.021  -2.405   1.013  0.00  0.00     0.041 A 
ATOM      4  C3  UNL d   1      -0.480  -1.158   0.644  0.00  0.00    -0.075 A 
ATOM      5  S   UNL d   1       1.095  -0.854   0.013  0.00  0.00     0.015 SA
ATOM      6  C4  UNL d   1       0.806   0.822  -0.104  0.00  0.00     0.022 A 
ATOM      7  C5  UNL d   1      -0.456   1.158   0.324  0.00  0.00     0.026 A 
ATOM      8  C6  UNL d   1      -1.218   0.023   0.762  0.00  0.00    -0.082 A 
ATOM      9  C7  UNL d   1      -2.538  -0.062   1.267  0.00  0.00     0.045 A 
ENDROOT
TORSDOF 0
ENDMDL
