MODEL 1
REMARK minimizedAffinity -6.06891251
REMARK minimizedRMSD -1
REMARK  0 active torsions:
REMARK  status: ('A' for Active; 'I' for Inactive)
ROOT
ATOM      1  C   UNL d   1      -3.182  -1.142   2.032  0.00  0.00    -0.002 A 
ATOM      2  C1  UNL d   1      -2.934   0.154   1.600  0.00  0.00     0.010 A 
ATOM      3  C2  UNL d   1      -1.772   0.455   0.888  0.00  0.00     0.041 A 
ATOM      4  C3  UNL d   1      -0.855  -0.579   0.612  0.00  0.00    -0.075 A 
ATOM      5  S   UNL d   1       0.635  -0.445  -0.245  0.00  0.00     0.015 SA
ATOM      6  C4  UNL d   1       0.977  -2.104  -0.059  0.00  0.00     0.022 A 
ATOM      7  C5  UNL d   1      -0.010  -2.759   0.638  0.00  0.00     0.026 A 
ATOM      8  C6  UNL d   1      -1.083  -1.891   1.036  0.00  0.00    -0.082 A 
ATOM      9  C7  UNL d   1      -2.270  -2.164   1.757  0.00  0.00     0.045 A 
ENDROOT
TORSDOF 0
ENDMDL
