MODEL 1
REMARK minimizedAffinity -3.89630532
REMARK minimizedRMSD -1
REMARK  0 active torsions:
REMARK  status: ('A' for Active; 'I' for Inactive)
ROOT
ATOM      1  C   UNL d   1      -1.861  -2.774   1.748  0.00  0.00    -0.002 A 
ATOM      2  C1  UNL d   1      -2.727  -1.779   2.178  0.00  0.00     0.010 A 
ATOM      3  C2  UNL d   1      -2.541  -0.454   1.778  0.00  0.00     0.041 A 
ATOM      4  C3  UNL d   1      -1.461  -0.144   0.929  0.00  0.00    -0.075 A 
ATOM      5  S   UNL d   1      -1.038   1.409   0.310  0.00  0.00     0.015 SA
ATOM      6  C4  UNL d   1       0.302   0.787  -0.541  0.00  0.00     0.022 A 
ATOM      7  C5  UNL d   1       0.438  -0.570  -0.368  0.00  0.00     0.026 A 
ATOM      8  C6  UNL d   1      -0.576  -1.129   0.482  0.00  0.00    -0.082 A 
ATOM      9  C7  UNL d   1      -0.791  -2.462   0.905  0.00  0.00     0.045 A 
ENDROOT
TORSDOF 0
ENDMDL
