MODEL 1
REMARK minimizedAffinity -5.34739971
REMARK minimizedRMSD -1
REMARK  0 active torsions:
REMARK  status: ('A' for Active; 'I' for Inactive)
ROOT
ATOM      1  C   UNL d   1      -2.167  -2.582   1.685  0.00  0.00    -0.002 A 
ATOM      2  C1  UNL d   1      -2.861  -1.382   1.764  0.00  0.00     0.010 A 
ATOM      3  C2  UNL d   1      -2.268  -0.190   1.342  0.00  0.00     0.041 A 
ATOM      4  C3  UNL d   1      -0.955  -0.224   0.834  0.00  0.00    -0.075 A 
ATOM      5  S   UNL d   1      -0.029   1.111   0.258  0.00  0.00     0.015 SA
ATOM      6  C4  UNL d   1       1.309   0.120  -0.108  0.00  0.00     0.022 A 
ATOM      7  C5  UNL d   1       1.072  -1.199   0.196  0.00  0.00     0.026 A 
ATOM      8  C6  UNL d   1      -0.237  -1.420   0.743  0.00  0.00    -0.082 A 
ATOM      9  C7  UNL d   1      -0.865  -2.612   1.179  0.00  0.00     0.045 A 
ENDROOT
TORSDOF 0
ENDMDL
