MODEL 1
REMARK minimizedAffinity -4.55199623
REMARK minimizedRMSD -1
REMARK  0 active torsions:
REMARK  status: ('A' for Active; 'I' for Inactive)
ROOT
ATOM      1  C   UNL d   1      -2.247  -2.192   1.887  0.00  0.00    -0.002 A 
ATOM      2  C1  UNL d   1      -2.950  -0.996   1.929  0.00  0.00     0.010 A 
ATOM      3  C2  UNL d   1      -2.414   0.163   1.364  0.00  0.00     0.041 A 
ATOM      4  C3  UNL d   1      -1.147   0.099   0.750  0.00  0.00    -0.075 A 
ATOM      5  S   UNL d   1      -0.293   1.390  -0.007  0.00  0.00     0.015 SA
ATOM      6  C4  UNL d   1       1.025   0.385  -0.404  0.00  0.00     0.022 A 
ATOM      7  C5  UNL d   1       0.835  -0.907   0.024  0.00  0.00     0.026 A 
ATOM      8  C6  UNL d   1      -0.421  -1.094   0.696  0.00  0.00    -0.082 A 
ATOM      9  C7  UNL d   1      -0.991  -2.252   1.278  0.00  0.00     0.045 A 
ENDROOT
TORSDOF 0
ENDMDL
