MODEL 1
REMARK minimizedAffinity 2.52847385
REMARK minimizedRMSD -1
REMARK  0 active torsions:
REMARK  status: ('A' for Active; 'I' for Inactive)
ROOT
ATOM      1  C   UNL d   1       3.539   1.686  -3.367  0.00  0.00    -0.002 A 
ATOM      2  C1  UNL d   1       2.675   1.934  -4.424  0.00  0.00     0.010 A 
ATOM      3  C2  UNL d   1       1.320   2.177  -4.190  0.00  0.00     0.041 A 
ATOM      4  C3  UNL d   1       0.844   2.169  -2.864  0.00  0.00    -0.075 A 
ATOM      5  S   UNL d   1      -0.775   2.442  -2.339  0.00  0.00     0.015 SA
ATOM      6  C4  UNL d   1      -0.357   2.237  -0.699  0.00  0.00     0.022 A 
ATOM      7  C5  UNL d   1       0.982   1.966  -0.538  0.00  0.00     0.026 A 
ATOM      8  C6  UNL d   1       1.696   1.923  -1.783  0.00  0.00    -0.082 A 
ATOM      9  C7  UNL d   1       3.064   1.679  -2.053  0.00  0.00     0.045 A 
ENDROOT
TORSDOF 0
ENDMDL
