MODEL 1
REMARK minimizedAffinity -3.12449288
REMARK minimizedRMSD -1
REMARK  0 active torsions:
REMARK  status: ('A' for Active; 'I' for Inactive)
ROOT
ATOM      1  C   UNL d   1      -2.724  -1.099   2.302  0.00  0.00    -0.002 A 
ATOM      2  C1  UNL d   1      -2.060  -2.316   2.239  0.00  0.00     0.010 A 
ATOM      3  C2  UNL d   1      -0.873  -2.441   1.513  0.00  0.00     0.041 A 
ATOM      4  C3  UNL d   1      -0.360  -1.310   0.848  0.00  0.00    -0.075 A 
ATOM      5  S   UNL d   1       1.078  -1.226  -0.100  0.00  0.00     0.015 SA
ATOM      6  C4  UNL d   1       0.844   0.427  -0.443  0.00  0.00     0.022 A 
ATOM      7  C5  UNL d   1      -0.298   0.919   0.144  0.00  0.00     0.026 A 
ATOM      8  C6  UNL d   1      -1.010  -0.074   0.897  0.00  0.00    -0.082 A 
ATOM      9  C7  UNL d   1      -2.212   0.020   1.640  0.00  0.00     0.045 A 
ENDROOT
TORSDOF 0
ENDMDL
