MODEL 1
REMARK minimizedAffinity -4.82673407
REMARK minimizedRMSD -1
REMARK  2 active torsions:
REMARK  status: ('A' for Active; 'I' for Inactive)
REMARK    1  A    between atoms: C1_2  and  C2_3 
REMARK    2  A    between atoms: C2_3  and  C3_4 
ROOT
ATOM      1  C3  UNL d   1       1.164  -0.026   0.201  0.00  0.00    -0.075 A 
ATOM      2  C4  UNL d   1       0.050   0.247  -0.605  0.00  0.00     0.002 A 
ATOM      3  C5  UNL d   1      -1.076  -0.576  -0.559  0.00  0.00     0.002 A 
ATOM      4  C6  UNL d   1      -1.098  -1.685   0.284  0.00  0.00    -0.004 A 
ATOM      5  C7  UNL d   1       0.010  -1.975   1.077  0.00  0.00     0.002 A 
ATOM      6  C8  UNL d   1       1.136  -1.151   1.036  0.00  0.00     0.002 A 
ENDROOT
BRANCH   1   7
ATOM      7  C2  UNL d   1       2.375   0.877   0.178  0.00  0.00     0.056 C 
BRANCH   7   8
ATOM      8  C1  UNL d   1       2.365   1.961   1.261  0.00  0.00     0.007 C 
ATOM      9  C   UNL d   1       2.510   3.370   0.701  0.00  0.00     0.009 C 
ENDBRANCH   7   8
ENDBRANCH   1   7
TORSDOF 2
ENDMDL
