MODEL 1
REMARK minimizedAffinity -5.70960093
REMARK minimizedRMSD -1
REMARK  2 active torsions:
REMARK  status: ('A' for Active; 'I' for Inactive)
REMARK    1  A    between atoms: C1_2  and  C2_3 
REMARK    2  A    between atoms: C2_3  and  C3_4 
ROOT
ATOM      1  C3  UNL d   1       0.364  -0.098   0.004  0.00  0.00    -0.075 A 
ATOM      2  C4  UNL d   1      -0.763  -0.500   0.736  0.00  0.00     0.002 A 
ATOM      3  C5  UNL d   1      -2.022  -0.535   0.136  0.00  0.00     0.002 A 
ATOM      4  C6  UNL d   1      -2.172  -0.161  -1.198  0.00  0.00    -0.004 A 
ATOM      5  C7  UNL d   1      -1.062   0.256  -1.930  0.00  0.00     0.002 A 
ATOM      6  C8  UNL d   1       0.200   0.288  -1.333  0.00  0.00     0.002 A 
ENDROOT
BRANCH   1   7
ATOM      7  C2  UNL d   1       1.733  -0.086   0.640  0.00  0.00     0.056 C 
BRANCH   7   8
ATOM      8  C1  UNL d   1       2.096   1.242   1.314  0.00  0.00     0.007 C 
ATOM      9  C   UNL d   1       2.974   2.135   0.448  0.00  0.00     0.009 C 
ENDBRANCH   7   8
ENDBRANCH   1   7
TORSDOF 2
ENDMDL
