MODEL 1
REMARK minimizedAffinity -5.12511015
REMARK minimizedRMSD -1
REMARK  2 active torsions:
REMARK  status: ('A' for Active; 'I' for Inactive)
REMARK    1  A    between atoms: C1_2  and  C2_3 
REMARK    2  A    between atoms: C2_3  and  C3_4 
ROOT
ATOM      1  C3  UNL d   1       0.470   0.110  -0.031  0.00  0.00    -0.075 A 
ATOM      2  C4  UNL d   1      -0.337  -0.600   0.870  0.00  0.00     0.002 A 
ATOM      3  C5  UNL d   1      -1.644  -0.949   0.528  0.00  0.00     0.002 A 
ATOM      4  C6  UNL d   1      -2.163  -0.585  -0.713  0.00  0.00    -0.004 A 
ATOM      5  C7  UNL d   1      -1.376   0.135  -1.609  0.00  0.00     0.002 A 
ATOM      6  C8  UNL d   1      -0.067   0.482  -1.271  0.00  0.00     0.002 A 
ENDROOT
BRANCH   1   7
ATOM      7  C2  UNL d   1       1.894   0.466   0.322  0.00  0.00     0.056 C 
BRANCH   7   8
ATOM      8  C1  UNL d   1       2.018   1.566   1.381  0.00  0.00     0.007 C 
ATOM      9  C   UNL d   1       3.037   2.638   1.016  0.00  0.00     0.009 C 
ENDBRANCH   7   8
ENDBRANCH   1   7
TORSDOF 2
ENDMDL
