MODEL 1
REMARK minimizedAffinity -4.88191128
REMARK minimizedRMSD -1
REMARK  2 active torsions:
REMARK  status: ('A' for Active; 'I' for Inactive)
REMARK    1  A    between atoms: C1_2  and  C2_3 
REMARK    2  A    between atoms: C2_3  and  C3_4 
ROOT
ATOM      1  C3  UNL d   1      -0.708  -0.118  -0.473  0.00  0.00    -0.075 A 
ATOM      2  C4  UNL d   1      -1.289  -0.837  -1.527  0.00  0.00     0.002 A 
ATOM      3  C5  UNL d   1      -2.614  -1.266  -1.446  0.00  0.00     0.002 A 
ATOM      4  C6  UNL d   1      -3.371  -0.991  -0.309  0.00  0.00    -0.004 A 
ATOM      5  C7  UNL d   1      -2.799  -0.292   0.751  0.00  0.00     0.002 A 
ATOM      6  C8  UNL d   1      -1.474   0.143   0.671  0.00  0.00     0.002 A 
ENDROOT
BRANCH   1   7
ATOM      7  C2  UNL d   1       0.716   0.375  -0.566  0.00  0.00     0.056 C 
BRANCH   7   8
ATOM      8  C1  UNL d   1       1.472   0.355   0.767  0.00  0.00     0.007 C 
ATOM      9  C   UNL d   1       2.181   1.667   1.074  0.00  0.00     0.009 C 
ENDBRANCH   7   8
ENDBRANCH   1   7
TORSDOF 2
ENDMDL
