MODEL 1
REMARK minimizedAffinity -6.4540658
REMARK minimizedRMSD -1
REMARK  2 active torsions:
REMARK  status: ('A' for Active; 'I' for Inactive)
REMARK    1  A    between atoms: C1_2  and  C2_3 
REMARK    2  A    between atoms: C2_3  and  C3_4 
ROOT
ATOM      1  C3  UNL d   1       0.094  -0.146   0.052  0.00  0.00    -0.075 A 
ATOM      2  C4  UNL d   1      -0.850  -0.532   1.014  0.00  0.00     0.002 A 
ATOM      3  C5  UNL d   1      -2.182  -0.742   0.655  0.00  0.00     0.002 A 
ATOM      4  C6  UNL d   1      -2.588  -0.557  -0.665  0.00  0.00    -0.004 A 
ATOM      5  C7  UNL d   1      -1.662  -0.157  -1.626  0.00  0.00     0.002 A 
ATOM      6  C8  UNL d   1      -0.327   0.049  -1.270  0.00  0.00     0.002 A 
ENDROOT
BRANCH   1   7
ATOM      7  C2  UNL d   1       1.543   0.054   0.428  0.00  0.00     0.056 C 
BRANCH   7   8
ATOM      8  C1  UNL d   1       1.907   1.505   0.760  0.00  0.00     0.007 C 
ATOM      9  C   UNL d   1       3.094   2.024  -0.040  0.00  0.00     0.009 C 
ENDBRANCH   7   8
ENDBRANCH   1   7
TORSDOF 2
ENDMDL
