MODEL 1
REMARK minimizedAffinity -5.04251862
REMARK minimizedRMSD -1
REMARK  2 active torsions:
REMARK  status: ('A' for Active; 'I' for Inactive)
REMARK    1  A    between atoms: C1_2  and  C2_3 
REMARK    2  A    between atoms: C2_3  and  C3_4 
ROOT
ATOM      1  C3  UNL d   1       0.651   0.392  -0.367  0.00  0.00    -0.075 A 
ATOM      2  C4  UNL d   1       0.113   0.779  -1.602  0.00  0.00     0.002 A 
ATOM      3  C5  UNL d   1      -1.155   0.344  -1.991  0.00  0.00     0.002 A 
ATOM      4  C6  UNL d   1      -1.894  -0.490  -1.155  0.00  0.00    -0.004 A 
ATOM      5  C7  UNL d   1      -1.362  -0.894   0.068  0.00  0.00     0.002 A 
ATOM      6  C8  UNL d   1      -0.096  -0.457   0.460  0.00  0.00     0.002 A 
ENDROOT
BRANCH   1   7
ATOM      7  C2  UNL d   1       2.010   0.884   0.072  0.00  0.00     0.056 C 
BRANCH   7   8
ATOM      8  C1  UNL d   1       1.990   2.267   0.730  0.00  0.00     0.007 C 
ATOM      9  C   UNL d   1       2.268   2.224   2.227  0.00  0.00     0.009 C 
ENDBRANCH   7   8
ENDBRANCH   1   7
TORSDOF 2
ENDMDL
