MODEL 1
REMARK minimizedAffinity -5.73933697
REMARK minimizedRMSD -1
REMARK  2 active torsions:
REMARK  status: ('A' for Active; 'I' for Inactive)
REMARK    1  A    between atoms: C1_2  and  C2_3 
REMARK    2  A    between atoms: C2_3  and  C3_4 
ROOT
ATOM      1  C3  UNL d   1       0.007   0.388   0.223  0.00  0.00    -0.075 A 
ATOM      2  C4  UNL d   1      -0.547   0.532  -1.057  0.00  0.00     0.002 A 
ATOM      3  C5  UNL d   1      -1.810   0.013  -1.345  0.00  0.00     0.002 A 
ATOM      4  C6  UNL d   1      -2.529  -0.662  -0.362  0.00  0.00    -0.004 A 
ATOM      5  C7  UNL d   1      -1.982  -0.825   0.909  0.00  0.00     0.002 A 
ATOM      6  C8  UNL d   1      -0.721  -0.304   1.201  0.00  0.00     0.002 A 
ENDROOT
BRANCH   1   7
ATOM      7  C2  UNL d   1       1.360   0.972   0.549  0.00  0.00     0.056 C 
BRANCH   7   8
ATOM      8  C1  UNL d   1       1.359   2.495   0.716  0.00  0.00     0.007 C 
ATOM      9  C   UNL d   1       2.208   2.972   1.887  0.00  0.00     0.009 C 
ENDBRANCH   7   8
ENDBRANCH   1   7
TORSDOF 2
ENDMDL
