MODEL 1
REMARK minimizedAffinity -2.57697654
REMARK minimizedRMSD -1
REMARK  2 active torsions:
REMARK  status: ('A' for Active; 'I' for Inactive)
REMARK    1  A    between atoms: C1_2  and  C2_3 
REMARK    2  A    between atoms: C2_3  and  C3_4 
ROOT
ATOM      1  C3  UNL d   1       0.437   0.076  -0.159  0.00  0.00    -0.075 A 
ATOM      2  C4  UNL d   1      -0.563  -0.653   0.502  0.00  0.00     0.002 A 
ATOM      3  C5  UNL d   1      -1.774  -0.929  -0.133  0.00  0.00     0.002 A 
ATOM      4  C6  UNL d   1      -2.005  -0.473  -1.429  0.00  0.00    -0.004 A 
ATOM      5  C7  UNL d   1      -1.025   0.265  -2.089  0.00  0.00     0.002 A 
ATOM      6  C8  UNL d   1       0.189   0.540  -1.458  0.00  0.00     0.002 A 
ENDROOT
BRANCH   1   7
ATOM      7  C2  UNL d   1       1.761   0.353   0.512  0.00  0.00     0.056 C 
BRANCH   7   8
ATOM      8  C1  UNL d   1       2.378   1.705   0.138  0.00  0.00     0.007 C 
ATOM      9  C   UNL d   1       2.362   2.709   1.283  0.00  0.00     0.009 C 
ENDBRANCH   7   8
ENDBRANCH   1   7
TORSDOF 2
ENDMDL
