MODEL 1
REMARK minimizedAffinity -4.2114253
REMARK minimizedRMSD -1
REMARK  2 active torsions:
REMARK  status: ('A' for Active; 'I' for Inactive)
REMARK    1  A    between atoms: C1_2  and  C2_3 
REMARK    2  A    between atoms: C2_3  and  C3_4 
ROOT
ATOM      1  C3  UNL d   1      -0.012   0.100   0.008  0.00  0.00    -0.075 A 
ATOM      2  C4  UNL d   1      -0.616  -0.053  -1.249  0.00  0.00     0.002 A 
ATOM      3  C5  UNL d   1      -1.912  -0.559  -1.356  0.00  0.00     0.002 A 
ATOM      4  C6  UNL d   1      -2.616  -0.927  -0.211  0.00  0.00    -0.004 A 
ATOM      5  C7  UNL d   1      -2.020  -0.795   1.041  0.00  0.00     0.002 A 
ATOM      6  C8  UNL d   1      -0.725  -0.285   1.152  0.00  0.00     0.002 A 
ENDROOT
BRANCH   1   7
ATOM      7  C2  UNL d   1       1.379   0.674   0.133  0.00  0.00     0.056 C 
BRANCH   7   8
ATOM      8  C1  UNL d   1       1.473   1.881   1.072  0.00  0.00     0.007 C 
ATOM      9  C   UNL d   1       2.224   3.058   0.463  0.00  0.00     0.009 C 
ENDBRANCH   7   8
ENDBRANCH   1   7
TORSDOF 2
ENDMDL
