MODEL 1
REMARK minimizedAffinity -3.6089766
REMARK minimizedRMSD -1
REMARK  2 active torsions:
REMARK  status: ('A' for Active; 'I' for Inactive)
REMARK    1  A    between atoms: C1_2  and  C2_3 
REMARK    2  A    between atoms: C2_3  and  C3_4 
ROOT
ATOM      1  C3  UNL d   1      -1.397  -0.765  -0.826  0.00  0.00    -0.075 A 
ATOM      2  C4  UNL d   1      -0.620  -0.912   0.332  0.00  0.00     0.002 A 
ATOM      3  C5  UNL d   1       0.594  -0.236   0.462  0.00  0.00     0.002 A 
ATOM      4  C6  UNL d   1       1.050   0.585  -0.566  0.00  0.00    -0.004 A 
ATOM      5  C7  UNL d   1       0.295   0.725  -1.729  0.00  0.00     0.002 A 
ATOM      6  C8  UNL d   1      -0.922   0.054  -1.859  0.00  0.00     0.002 A 
ENDROOT
BRANCH   1   7
ATOM      7  C2  UNL d   1      -2.725  -1.470  -0.960  0.00  0.00     0.056 C 
BRANCH   7   8
ATOM      8  C1  UNL d   1      -3.733  -1.116   0.138  0.00  0.00     0.007 C 
ATOM      9  C   UNL d   1      -4.814  -2.173   0.325  0.00  0.00     0.009 C 
ENDBRANCH   7   8
ENDBRANCH   1   7
TORSDOF 2
ENDMDL
