MODEL 1
REMARK minimizedAffinity -4.736269
REMARK minimizedRMSD -1
REMARK  2 active torsions:
REMARK  status: ('A' for Active; 'I' for Inactive)
REMARK    1  A    between atoms: C1_2  and  C2_3 
REMARK    2  A    between atoms: C2_3  and  C3_4 
ROOT
ATOM      1  C3  UNL d   1      -0.807  -0.587  -0.126  0.00  0.00    -0.075 A 
ATOM      2  C4  UNL d   1      -0.607  -1.601   0.822  0.00  0.00     0.002 A 
ATOM      3  C5  UNL d   1      -1.555  -2.611   0.990  0.00  0.00     0.002 A 
ATOM      4  C6  UNL d   1      -2.718  -2.614   0.222  0.00  0.00    -0.004 A 
ATOM      5  C7  UNL d   1      -2.935  -1.602  -0.711  0.00  0.00     0.002 A 
ATOM      6  C8  UNL d   1      -1.986  -0.593  -0.885  0.00  0.00     0.002 A 
ENDROOT
BRANCH   1   7
ATOM      7  C2  UNL d   1       0.228   0.492  -0.334  0.00  0.00     0.056 C 
BRANCH   7   8
ATOM      8  C1  UNL d   1       1.519   0.280   0.465  0.00  0.00     0.007 C 
ATOM      9  C   UNL d   1       2.284   1.571   0.724  0.00  0.00     0.009 C 
ENDBRANCH   7   8
ENDBRANCH   1   7
TORSDOF 2
ENDMDL
