MODEL 1
REMARK minimizedAffinity -1.06434226
REMARK minimizedRMSD -1
REMARK  2 active torsions:
REMARK  status: ('A' for Active; 'I' for Inactive)
REMARK    1  A    between atoms: C1_2  and  C2_3 
REMARK    2  A    between atoms: C2_3  and  C3_4 
ROOT
ATOM      1  C3  UNL d   1       1.292   0.785   0.727  0.00  0.00    -0.075 A 
ATOM      2  C4  UNL d   1       1.489   1.091   2.081  0.00  0.00     0.002 A 
ATOM      3  C5  UNL d   1       2.436   2.043   2.462  0.00  0.00     0.002 A 
ATOM      4  C6  UNL d   1       3.202   2.692   1.496  0.00  0.00    -0.004 A 
ATOM      5  C7  UNL d   1       3.026   2.384   0.149  0.00  0.00     0.002 A 
ATOM      6  C8  UNL d   1       2.076   1.435  -0.235  0.00  0.00     0.002 A 
ENDROOT
BRANCH   1   7
ATOM      7  C2  UNL d   1       0.249  -0.223   0.306  0.00  0.00     0.056 C 
BRANCH   7   8
ATOM      8  C1  UNL d   1      -0.780   0.323  -0.689  0.00  0.00     0.007 C 
ATOM      9  C   UNL d   1      -2.045  -0.521  -0.768  0.00  0.00     0.009 C 
ENDBRANCH   7   8
ENDBRANCH   1   7
TORSDOF 2
ENDMDL
