MODEL 1
REMARK minimizedAffinity -5.81805325
REMARK minimizedRMSD -1
REMARK  2 active torsions:
REMARK  status: ('A' for Active; 'I' for Inactive)
REMARK    1  A    between atoms: C1_2  and  C2_3 
REMARK    2  A    between atoms: C2_3  and  C3_4 
ROOT
ATOM      1  C3  UNL d   1       0.016  -0.088  -0.064  0.00  0.00    -0.075 A 
ATOM      2  C4  UNL d   1      -0.399   0.477  -1.279  0.00  0.00     0.002 A 
ATOM      3  C5  UNL d   1      -1.746   0.466  -1.642  0.00  0.00     0.002 A 
ATOM      4  C6  UNL d   1      -2.692  -0.116  -0.802  0.00  0.00    -0.004 A 
ATOM      5  C7  UNL d   1      -2.290  -0.694   0.400  0.00  0.00     0.002 A 
ATOM      6  C8  UNL d   1      -0.943  -0.681   0.768  0.00  0.00     0.002 A 
ENDROOT
BRANCH   1   7
ATOM      7  C2  UNL d   1       1.468  -0.053   0.348  0.00  0.00     0.056 C 
BRANCH   7   8
ATOM      8  C1  UNL d   1       2.093   1.345   0.313  0.00  0.00     0.007 C 
ATOM      9  C   UNL d   1       1.549   2.273   1.391  0.00  0.00     0.009 C 
ENDBRANCH   7   8
ENDBRANCH   1   7
TORSDOF 2
ENDMDL
