MODEL 1
REMARK minimizedAffinity -3.31678629
REMARK minimizedRMSD -1
REMARK  2 active torsions:
REMARK  status: ('A' for Active; 'I' for Inactive)
REMARK    1  A    between atoms: C1_2  and  C2_3 
REMARK    2  A    between atoms: C2_3  and  C3_4 
ROOT
ATOM      1  C3  UNL d   1       0.125   0.220  -0.312  0.00  0.00    -0.075 A 
ATOM      2  C4  UNL d   1      -0.566  -0.720   0.466  0.00  0.00     0.002 A 
ATOM      3  C5  UNL d   1      -1.913  -0.988   0.224  0.00  0.00     0.002 A 
ATOM      4  C6  UNL d   1      -2.589  -0.313  -0.791  0.00  0.00    -0.004 A 
ATOM      5  C7  UNL d   1      -1.917   0.634  -1.560  0.00  0.00     0.002 A 
ATOM      6  C8  UNL d   1      -0.567   0.901  -1.323  0.00  0.00     0.002 A 
ENDROOT
BRANCH   1   7
ATOM      7  C2  UNL d   1       1.591   0.493  -0.074  0.00  0.00     0.056 C 
BRANCH   7   8
ATOM      8  C1  UNL d   1       1.862   1.703   0.826  0.00  0.00     0.007 C 
ATOM      9  C   UNL d   1       3.055   2.534   0.372  0.00  0.00     0.009 C 
ENDBRANCH   7   8
ENDBRANCH   1   7
TORSDOF 2
ENDMDL
