MODEL 1
REMARK minimizedAffinity 9.24724197
REMARK minimizedRMSD -1
REMARK  0 active torsions:
REMARK  status: ('A' for Active; 'I' for Inactive)
ROOT
ATOM      1  C   UNL d   1      -5.686   5.632  -5.302  0.00  0.00    -0.002 A 
ATOM      2  C1  UNL d   1      -5.610   4.888  -4.133  0.00  0.00     0.010 A 
ATOM      3  C2  UNL d   1      -4.373   4.496  -3.620  0.00  0.00     0.041 A 
ATOM      4  C3  UNL d   1      -3.201   4.868  -4.307  0.00  0.00    -0.075 A 
ATOM      5  S   UNL d   1      -1.575   4.501  -3.865  0.00  0.00     0.015 SA
ATOM      6  C4  UNL d   1      -0.943   5.323  -5.217  0.00  0.00     0.022 A 
ATOM      7  C5  UNL d   1      -1.933   5.870  -5.998  0.00  0.00     0.026 A 
ATOM      8  C6  UNL d   1      -3.251   5.618  -5.486  0.00  0.00    -0.082 A 
ATOM      9  C7  UNL d   1      -4.521   5.999  -5.981  0.00  0.00     0.045 A 
ENDROOT
TORSDOF 0
ENDMDL
