MODEL 1
REMARK minimizedAffinity 14.1829691
REMARK minimizedRMSD -1
REMARK  0 active torsions:
REMARK  status: ('A' for Active; 'I' for Inactive)
ROOT
ATOM      1  C   UNL d   1      -1.233   5.159  -3.913  0.00  0.00    -0.002 A 
ATOM      2  C1  UNL d   1      -1.185   5.397  -5.280  0.00  0.00     0.010 A 
ATOM      3  C2  UNL d   1      -2.354   5.662  -5.995  0.00  0.00     0.041 A 
ATOM      4  C3  UNL d   1      -3.584   5.687  -5.308  0.00  0.00    -0.075 A 
ATOM      5  S   UNL d   1      -5.143   5.992  -5.977  0.00  0.00     0.015 SA
ATOM      6  C4  UNL d   1      -5.909   5.815  -4.464  0.00  0.00     0.022 A 
ATOM      7  C5  UNL d   1      -5.012   5.530  -3.462  0.00  0.00     0.026 A 
ATOM      8  C6  UNL d   1      -3.657   5.452  -3.932  0.00  0.00    -0.082 A 
ATOM      9  C7  UNL d   1      -2.454   5.185  -3.234  0.00  0.00     0.045 A 
ENDROOT
TORSDOF 0
ENDMDL
