MODEL 1
REMARK minimizedAffinity 10.7992334
REMARK minimizedRMSD -1
REMARK  0 active torsions:
REMARK  status: ('A' for Active; 'I' for Inactive)
ROOT
ATOM      1  C   UNL d   1      -1.115   5.802  -3.886  0.00  0.00    -0.002 A 
ATOM      2  C1  UNL d   1      -1.090   5.889  -5.271  0.00  0.00     0.010 A 
ATOM      3  C2  UNL d   1      -2.279   5.953  -6.000  0.00  0.00     0.041 A 
ATOM      4  C3  UNL d   1      -3.505   5.929  -5.307  0.00  0.00    -0.075 A 
ATOM      5  S   UNL d   1      -5.087   5.997  -5.990  0.00  0.00     0.015 SA
ATOM      6  C4  UNL d   1      -5.833   5.912  -4.460  0.00  0.00     0.022 A 
ATOM      7  C5  UNL d   1      -4.912   5.834  -3.441  0.00  0.00     0.026 A 
ATOM      8  C6  UNL d   1      -3.556   5.843  -3.913  0.00  0.00    -0.082 A 
ATOM      9  C7  UNL d   1      -2.333   5.779  -3.202  0.00  0.00     0.045 A 
ENDROOT
TORSDOF 0
ENDMDL
