MODEL 1
REMARK minimizedAffinity 18.437746
REMARK minimizedRMSD -1
REMARK  0 active torsions:
REMARK  status: ('A' for Active; 'I' for Inactive)
ROOT
ATOM      1  C   UNL d   1       0.964   3.014  -3.714  0.00  0.00    -0.002 A 
ATOM      2  C1  UNL d   1       2.302   3.265  -3.982  0.00  0.00     0.010 A 
ATOM      3  C2  UNL d   1       3.277   3.033  -3.009  0.00  0.00     0.041 A 
ATOM      4  C3  UNL d   1       2.881   2.538  -1.751  0.00  0.00    -0.075 A 
ATOM      5  S   UNL d   1       3.900   2.177  -0.408  0.00  0.00     0.015 SA
ATOM      6  C4  UNL d   1       2.582   1.681   0.553  0.00  0.00     0.022 A 
ATOM      7  C5  UNL d   1       1.387   1.781  -0.119  0.00  0.00     0.026 A 
ATOM      8  C6  UNL d   1       1.539   2.276  -1.458  0.00  0.00    -0.082 A 
ATOM      9  C7  UNL d   1       0.575   2.523  -2.465  0.00  0.00     0.045 A 
ENDROOT
TORSDOF 0
ENDMDL
