MODEL 1
REMARK minimizedAffinity 13.16432
REMARK minimizedRMSD -1
REMARK  0 active torsions:
REMARK  status: ('A' for Active; 'I' for Inactive)
ROOT
ATOM      1  C   UNL d   1      -2.291   4.934  -1.229  0.00  0.00    -0.002 A 
ATOM      2  C1  UNL d   1      -0.906   4.907  -1.134  0.00  0.00     0.010 A 
ATOM      3  C2  UNL d   1      -0.115   4.962  -2.283  0.00  0.00     0.041 A 
ATOM      4  C3  UNL d   1      -0.744   5.047  -3.541  0.00  0.00    -0.075 A 
ATOM      5  S   UNL d   1       0.022   5.127  -5.083  0.00  0.00     0.015 SA
ATOM      6  C4  UNL d   1      -1.470   5.199  -5.904  0.00  0.00     0.022 A 
ATOM      7  C5  UNL d   1      -2.537   5.164  -5.038  0.00  0.00     0.026 A 
ATOM      8  C6  UNL d   1      -2.136   5.077  -3.662  0.00  0.00    -0.082 A 
ATOM      9  C7  UNL d   1      -2.911   5.018  -2.478  0.00  0.00     0.045 A 
ENDROOT
TORSDOF 0
ENDMDL
