MODEL 1
REMARK minimizedAffinity 20.8318348
REMARK minimizedRMSD -1
REMARK  0 active torsions:
REMARK  status: ('A' for Active; 'I' for Inactive)
ROOT
ATOM      1  C   UNL d   1       3.801  -4.403  -1.084  0.00  0.00    -0.002 A 
ATOM      2  C1  UNL d   1       4.612  -3.292  -0.901  0.00  0.00     0.010 A 
ATOM      3  C2  UNL d   1       4.257  -2.296   0.010  0.00  0.00     0.041 A 
ATOM      4  C3  UNL d   1       3.063  -2.436   0.743  0.00  0.00    -0.075 A 
ATOM      5  S   UNL d   1       2.427  -1.343   1.915  0.00  0.00     0.015 SA
ATOM      6  C4  UNL d   1       1.063  -2.325   2.201  0.00  0.00     0.022 A 
ATOM      7  C5  UNL d   1       1.076  -3.463   1.429  0.00  0.00     0.026 A 
ATOM      8  C6  UNL d   1       2.229  -3.546   0.577  0.00  0.00    -0.082 A 
ATOM      9  C7  UNL d   1       2.616  -4.539  -0.355  0.00  0.00     0.045 A 
ENDROOT
TORSDOF 0
ENDMDL
