MODEL 1
REMARK minimizedAffinity 20.6673508
REMARK minimizedRMSD -1
REMARK  0 active torsions:
REMARK  status: ('A' for Active; 'I' for Inactive)
ROOT
ATOM      1  C   UNL d   1       2.304   1.678  -1.374  0.00  0.00    -0.002 A 
ATOM      2  C1  UNL d   1       1.131   2.251  -1.847  0.00  0.00     0.010 A 
ATOM      3  C2  UNL d   1       1.140   3.037  -3.000  0.00  0.00     0.041 A 
ATOM      4  C3  UNL d   1       2.358   3.240  -3.678  0.00  0.00    -0.075 A 
ATOM      5  S   UNL d   1       2.608   4.165  -5.112  0.00  0.00     0.015 SA
ATOM      6  C4  UNL d   1       4.277   3.821  -5.131  0.00  0.00     0.022 A 
ATOM      7  C5  UNL d   1       4.652   3.022  -4.077  0.00  0.00     0.026 A 
ATOM      8  C6  UNL d   1       3.551   2.673  -3.223  0.00  0.00    -0.082 A 
ATOM      9  C7  UNL d   1       3.510   1.881  -2.050  0.00  0.00     0.045 A 
ENDROOT
TORSDOF 0
ENDMDL
