MODEL 1
REMARK minimizedAffinity 25.6318455
REMARK minimizedRMSD -1
REMARK  0 active torsions:
REMARK  status: ('A' for Active; 'I' for Inactive)
ROOT
ATOM      1  C   UNL d   1       6.000   5.649  -2.094  0.00  0.00    -0.002 A 
ATOM      2  C1  UNL d   1       5.440   4.884  -3.107  0.00  0.00     0.010 A 
ATOM      3  C2  UNL d   1       4.603   3.808  -2.805  0.00  0.00     0.041 A 
ATOM      4  C3  UNL d   1       4.333   3.513  -1.454  0.00  0.00    -0.075 A 
ATOM      5  S   UNL d   1       3.336   2.244  -0.846  0.00  0.00     0.015 SA
ATOM      6  C4  UNL d   1       3.629   2.689   0.773  0.00  0.00     0.022 A 
ATOM      7  C5  UNL d   1       4.465   3.777   0.866  0.00  0.00     0.026 A 
ATOM      8  C6  UNL d   1       4.884   4.270  -0.416  0.00  0.00    -0.082 A 
ATOM      9  C7  UNL d   1       5.730   5.353  -0.755  0.00  0.00     0.045 A 
ENDROOT
TORSDOF 0
ENDMDL
