MODEL 1
REMARK minimizedAffinity 19.6364727
REMARK minimizedRMSD -1
REMARK  0 active torsions:
REMARK  status: ('A' for Active; 'I' for Inactive)
ROOT
ATOM      1  C   UNL d   1       4.139   3.753  -3.374  0.00  0.00    -0.002 A 
ATOM      2  C1  UNL d   1       4.928   4.725  -2.776  0.00  0.00     0.010 A 
ATOM      3  C2  UNL d   1       5.068   4.771  -1.387  0.00  0.00     0.041 A 
ATOM      4  C3  UNL d   1       4.397   3.812  -0.603  0.00  0.00    -0.075 A 
ATOM      5  S   UNL d   1       4.423   3.673   1.115  0.00  0.00     0.015 SA
ATOM      6  C4  UNL d   1       3.388   2.319   1.096  0.00  0.00     0.022 A 
ATOM      7  C5  UNL d   1       3.022   1.969  -0.182  0.00  0.00     0.026 A 
ATOM      8  C6  UNL d   1       3.598   2.823  -1.182  0.00  0.00    -0.082 A 
ATOM      9  C7  UNL d   1       3.475   2.804  -2.593  0.00  0.00     0.045 A 
ENDROOT
TORSDOF 0
ENDMDL
