MODEL 1
REMARK minimizedAffinity 18.1163044
REMARK minimizedRMSD -1
REMARK  0 active torsions:
REMARK  status: ('A' for Active; 'I' for Inactive)
ROOT
ATOM      1  C   UNL d   1       3.670   3.232   1.751  0.00  0.00    -0.002 A 
ATOM      2  C1  UNL d   1       3.403   2.318   0.742  0.00  0.00     0.010 A 
ATOM      3  C2  UNL d   1       3.827   2.561  -0.566  0.00  0.00     0.041 A 
ATOM      4  C3  UNL d   1       4.531   3.749  -0.845  0.00  0.00    -0.075 A 
ATOM      5  S   UNL d   1       5.149   4.257  -2.373  0.00  0.00     0.015 SA
ATOM      6  C4  UNL d   1       5.782   5.699  -1.721  0.00  0.00     0.022 A 
ATOM      7  C5  UNL d   1       5.537   5.806  -0.372  0.00  0.00     0.026 A 
ATOM      8  C6  UNL d   1       4.813   4.684   0.155  0.00  0.00    -0.082 A 
ATOM      9  C7  UNL d   1       4.369   4.409   1.471  0.00  0.00     0.045 A 
ENDROOT
TORSDOF 0
ENDMDL
