MODEL 1
REMARK minimizedAffinity 17.3067322
REMARK minimizedRMSD -1
REMARK  0 active torsions:
REMARK  status: ('A' for Active; 'I' for Inactive)
ROOT
ATOM      1  C   UNL d   1      -2.328  -0.786   2.172  0.00  0.00    -0.002 A 
ATOM      2  C1  UNL d   1      -3.525  -0.912   1.481  0.00  0.00     0.010 A 
ATOM      3  C2  UNL d   1      -4.658  -0.204   1.889  0.00  0.00     0.041 A 
ATOM      4  C3  UNL d   1      -4.565   0.642   3.012  0.00  0.00    -0.075 A 
ATOM      5  S   UNL d   1      -5.821   1.606   3.693  0.00  0.00     0.015 SA
ATOM      6  C4  UNL d   1      -4.798   2.209   4.916  0.00  0.00     0.022 A 
ATOM      7  C5  UNL d   1      -3.526   1.696   4.822  0.00  0.00     0.026 A 
ATOM      8  C6  UNL d   1      -3.370   0.785   3.723  0.00  0.00    -0.082 A 
ATOM      9  C7  UNL d   1      -2.240   0.053   3.285  0.00  0.00     0.045 A 
ENDROOT
TORSDOF 0
ENDMDL
