MODEL 1
REMARK minimizedAffinity 3.71363139
REMARK minimizedRMSD -1
REMARK  0 active torsions:
REMARK  status: ('A' for Active; 'I' for Inactive)
ROOT
ATOM      1  C   UNL d   1      -0.090   3.747   0.805  0.00  0.00     0.023 A 
ATOM      2  C1  UNL d   1      -1.048   4.285  -0.054  0.00  0.00     0.003 A 
ATOM      3  C2  UNL d   1      -2.334   3.742  -0.096  0.00  0.00     0.048 A 
ATOM      4  C3  UNL d   1      -2.655   2.661   0.725  0.00  0.00     0.023 A 
ATOM      5  C4  UNL d   1      -1.700   2.120   1.587  0.00  0.00     0.048 A 
ATOM      6  C5  UNL d   1      -0.415   2.666   1.625  0.00  0.00     0.003 A 
ATOM      7  I   UNL d   1      -4.568   1.851   0.665  0.00  0.00    -0.146 I 
ENDROOT
TORSDOF 0
ENDMDL
