MODEL 1
REMARK minimizedAffinity -3.69038916
REMARK minimizedRMSD -1
REMARK  0 active torsions:
REMARK  status: ('A' for Active; 'I' for Inactive)
ROOT
ATOM      1  C   UNL d   1       4.702   3.746  -5.090  0.00  0.00     0.023 A 
ATOM      2  C1  UNL d   1       4.518   2.678  -5.969  0.00  0.00     0.003 A 
ATOM      3  C2  UNL d   1       4.890   1.387  -5.588  0.00  0.00     0.048 A 
ATOM      4  C3  UNL d   1       5.445   1.171  -4.328  0.00  0.00     0.023 A 
ATOM      5  C4  UNL d   1       5.630   2.236  -3.445  0.00  0.00     0.048 A 
ATOM      6  C5  UNL d   1       5.257   3.525  -3.830  0.00  0.00     0.003 A 
ATOM      7  I   UNL d   1       6.000  -0.750  -3.759  0.00  0.00    -0.146 I 
ENDROOT
TORSDOF 0
ENDMDL
