MODEL 1
REMARK minimizedAffinity -1.78244317
REMARK minimizedRMSD -1
REMARK  0 active torsions:
REMARK  status: ('A' for Active; 'I' for Inactive)
ROOT
ATOM      1  C   UNL d   1       4.191   4.247  -5.684  0.00  0.00     0.023 A 
ATOM      2  C1  UNL d   1       5.475   4.099  -5.161  0.00  0.00     0.003 A 
ATOM      3  C2  UNL d   1       5.996   2.824  -4.933  0.00  0.00     0.048 A 
ATOM      4  C3  UNL d   1       5.226   1.700  -5.232  0.00  0.00     0.023 A 
ATOM      5  C4  UNL d   1       3.941   1.842  -5.757  0.00  0.00     0.048 A 
ATOM      6  C5  UNL d   1       3.424   3.120  -5.982  0.00  0.00     0.003 A 
ATOM      7  I   UNL d   1       5.999  -0.200  -4.895  0.00  0.00    -0.146 I 
ENDROOT
TORSDOF 0
ENDMDL
