MODEL 1
REMARK minimizedAffinity -0.0202968344
REMARK minimizedRMSD -1
REMARK  0 active torsions:
REMARK  status: ('A' for Active; 'I' for Inactive)
ROOT
ATOM      1  C   UNL d   1       4.162   4.533  -5.542  0.00  0.00     0.023 A 
ATOM      2  C1  UNL d   1       3.328   3.443  -5.298  0.00  0.00     0.003 A 
ATOM      3  C2  UNL d   1       3.826   2.143  -5.403  0.00  0.00     0.048 A 
ATOM      4  C3  UNL d   1       5.161   1.940  -5.753  0.00  0.00     0.023 A 
ATOM      5  C4  UNL d   1       6.000   3.029  -5.998  0.00  0.00     0.048 A 
ATOM      6  C5  UNL d   1       5.497   4.327  -5.892  0.00  0.00     0.003 A 
ATOM      7  I   UNL d   1       5.906   0.006  -5.911  0.00  0.00    -0.146 I 
ENDROOT
TORSDOF 0
ENDMDL
