MODEL 1
REMARK minimizedAffinity 2.10897279
REMARK minimizedRMSD -1
REMARK  0 active torsions:
REMARK  status: ('A' for Active; 'I' for Inactive)
ROOT
ATOM      1  C   UNL d   1       3.136  -5.689  -5.582  0.00  0.00     0.023 A 
ATOM      2  C1  UNL d   1       1.841  -6.000  -5.997  0.00  0.00     0.003 A 
ATOM      3  C2  UNL d   1       0.759  -5.766  -5.146  0.00  0.00     0.048 A 
ATOM      4  C3  UNL d   1       0.979  -5.221  -3.881  0.00  0.00     0.023 A 
ATOM      5  C4  UNL d   1       2.273  -4.908  -3.462  0.00  0.00     0.048 A 
ATOM      6  C5  UNL d   1       3.352  -5.144  -4.316  0.00  0.00     0.003 A 
ATOM      7  I   UNL d   1      -0.630  -4.873  -2.612  0.00  0.00    -0.146 I 
ENDROOT
TORSDOF 0
ENDMDL
