MODEL 1
REMARK minimizedAffinity 7.01633739
REMARK minimizedRMSD -1
REMARK  0 active torsions:
REMARK  status: ('A' for Active; 'I' for Inactive)
ROOT
ATOM      1  C   UNL d   1      -3.669   5.474  -5.997  0.00  0.00     0.023 A 
ATOM      2  C1  UNL d   1      -2.584   5.997  -5.294  0.00  0.00     0.003 A 
ATOM      3  C2  UNL d   1      -1.872   5.190  -4.405  0.00  0.00     0.048 A 
ATOM      4  C3  UNL d   1      -2.250   3.860  -4.223  0.00  0.00     0.023 A 
ATOM      5  C4  UNL d   1      -3.335   3.332  -4.925  0.00  0.00     0.048 A 
ATOM      6  C5  UNL d   1      -4.044   4.143  -5.813  0.00  0.00     0.003 A 
ATOM      7  I   UNL d   1      -1.192   2.656  -2.900  0.00  0.00    -0.146 I 
ENDROOT
TORSDOF 0
ENDMDL
