MODEL 1
REMARK minimizedAffinity 11.3923836
REMARK minimizedRMSD -1
REMARK  0 active torsions:
REMARK  status: ('A' for Active; 'I' for Inactive)
ROOT
ATOM      1  C   UNL d   1      -0.570  -3.367  -2.201  0.00  0.00     0.023 A 
ATOM      2  C1  UNL d   1      -1.401  -4.309  -1.593  0.00  0.00     0.003 A 
ATOM      3  C2  UNL d   1      -1.830  -4.118  -0.278  0.00  0.00     0.048 A 
ATOM      4  C3  UNL d   1      -1.425  -2.983   0.424  0.00  0.00     0.023 A 
ATOM      5  C4  UNL d   1      -0.594  -2.038  -0.180  0.00  0.00     0.048 A 
ATOM      6  C5  UNL d   1      -0.167  -2.233  -1.495  0.00  0.00     0.003 A 
ATOM      7  I   UNL d   1      -2.062  -2.698   2.381  0.00  0.00    -0.146 I 
ENDROOT
TORSDOF 0
ENDMDL
