MODEL 1
REMARK minimizedAffinity 2.96002698
REMARK minimizedRMSD -1
REMARK  0 active torsions:
REMARK  status: ('A' for Active; 'I' for Inactive)
ROOT
ATOM      1  C   UNL d   1      -2.465   3.221  -4.130  0.00  0.00     0.023 A 
ATOM      2  C1  UNL d   1      -3.793   2.799  -4.060  0.00  0.00     0.003 A 
ATOM      3  C2  UNL d   1      -4.809   3.593  -4.596  0.00  0.00     0.048 A 
ATOM      4  C3  UNL d   1      -4.490   4.808  -5.201  0.00  0.00     0.023 A 
ATOM      5  C4  UNL d   1      -3.162   5.235  -5.274  0.00  0.00     0.048 A 
ATOM      6  C5  UNL d   1      -2.150   4.438  -4.736  0.00  0.00     0.003 A 
ATOM      7  I   UNL d   1      -6.000   5.992  -5.999  0.00  0.00    -0.146 I 
ENDROOT
TORSDOF 0
ENDMDL
