MODEL 1
REMARK minimizedAffinity 9.11520767
REMARK minimizedRMSD -1
REMARK  0 active torsions:
REMARK  status: ('A' for Active; 'I' for Inactive)
ROOT
ATOM      1  C   UNL d   1      -0.392  -1.262   0.148  0.00  0.00     0.023 A 
ATOM      2  C1  UNL d   1      -0.258  -1.428  -1.231  0.00  0.00     0.003 A 
ATOM      3  C2  UNL d   1      -0.727  -2.592  -1.844  0.00  0.00     0.048 A 
ATOM      4  C3  UNL d   1      -1.330  -3.585  -1.073  0.00  0.00     0.023 A 
ATOM      5  C4  UNL d   1      -1.468  -3.422   0.306  0.00  0.00     0.048 A 
ATOM      6  C5  UNL d   1      -0.997  -2.258   0.915  0.00  0.00     0.003 A 
ATOM      7  I   UNL d   1      -2.030  -5.317  -1.984  0.00  0.00    -0.146 I 
ENDROOT
TORSDOF 0
ENDMDL
