MODEL 1
REMARK minimizedAffinity 5.47650623
REMARK minimizedRMSD -1
REMARK  0 active torsions:
REMARK  status: ('A' for Active; 'I' for Inactive)
ROOT
ATOM      1  C   UNL d   1      -1.688   2.923   1.322  0.00  0.00     0.023 A 
ATOM      2  C1  UNL d   1      -0.695   3.423   0.479  0.00  0.00     0.003 A 
ATOM      3  C2  UNL d   1       0.648   3.143   0.738  0.00  0.00     0.048 A 
ATOM      4  C3  UNL d   1       0.991   2.362   1.842  0.00  0.00     0.023 A 
ATOM      5  C4  UNL d   1       0.001   1.859   2.687  0.00  0.00     0.048 A 
ATOM      6  C5  UNL d   1      -1.340   2.143   2.425  0.00  0.00     0.003 A 
ATOM      7  I   UNL d   1       2.990   1.944   2.229  0.00  0.00    -0.146 I 
ENDROOT
TORSDOF 0
ENDMDL
