MODEL 1
REMARK minimizedAffinity 7.95773888
REMARK minimizedRMSD -1
REMARK  0 active torsions:
REMARK  status: ('A' for Active; 'I' for Inactive)
ROOT
ATOM      1  C   UNL d   1      -0.799   3.427  -0.244  0.00  0.00     0.023 A 
ATOM      2  C1  UNL d   1      -1.993   3.697   0.426  0.00  0.00     0.003 A 
ATOM      3  C2  UNL d   1      -2.216   3.165   1.698  0.00  0.00     0.048 A 
ATOM      4  C3  UNL d   1      -1.242   2.366   2.294  0.00  0.00     0.023 A 
ATOM      5  C4  UNL d   1      -0.046   2.095   1.628  0.00  0.00     0.048 A 
ATOM      6  C5  UNL d   1       0.173   2.627   0.356  0.00  0.00     0.003 A 
ATOM      7  I   UNL d   1      -1.572   1.574   4.187  0.00  0.00    -0.146 I 
ENDROOT
TORSDOF 0
ENDMDL
