MODEL 1
REMARK minimizedAffinity 13.846735
REMARK minimizedRMSD -1
REMARK  0 active torsions:
REMARK  status: ('A' for Active; 'I' for Inactive)
ROOT
ATOM      1  C   UNL d   1       3.658   4.337  -5.856  0.00  0.00     0.023 A 
ATOM      2  C1  UNL d   1       2.770   3.266  -5.752  0.00  0.00     0.003 A 
ATOM      3  C2  UNL d   1       3.252   1.956  -5.758  0.00  0.00     0.048 A 
ATOM      4  C3  UNL d   1       4.622   1.723  -5.868  0.00  0.00     0.023 A 
ATOM      5  C4  UNL d   1       5.514   2.791  -5.972  0.00  0.00     0.048 A 
ATOM      6  C5  UNL d   1       5.028   4.100  -5.966  0.00  0.00     0.003 A 
ATOM      7  I   UNL d   1       5.341  -0.227  -5.877  0.00  0.00    -0.146 I 
ENDROOT
TORSDOF 0
ENDMDL
