MODEL 1
REMARK minimizedAffinity 7.82465315
REMARK minimizedRMSD -1
REMARK  0 active torsions:
REMARK  status: ('A' for Active; 'I' for Inactive)
ROOT
ATOM      1  C   UNL d   1      -3.961   3.305   0.348  0.00  0.00     0.023 A 
ATOM      2  C1  UNL d   1      -2.888   4.084  -0.085  0.00  0.00     0.003 A 
ATOM      3  C2  UNL d   1      -2.649   4.249  -1.451  0.00  0.00     0.048 A 
ATOM      4  C3  UNL d   1      -3.487   3.631  -2.378  0.00  0.00     0.023 A 
ATOM      5  C4  UNL d   1      -4.563   2.851  -1.950  0.00  0.00     0.048 A 
ATOM      6  C5  UNL d   1      -4.797   2.689  -0.583  0.00  0.00     0.003 A 
ATOM      7  I   UNL d   1      -3.133   3.874  -4.412  0.00  0.00    -0.146 I 
ENDROOT
TORSDOF 0
ENDMDL
