MODEL 1
REMARK minimizedAffinity -2.01580691
REMARK minimizedRMSD -1
REMARK  0 active torsions:
REMARK  status: ('A' for Active; 'I' for Inactive)
ROOT
ATOM      1  C   UNL d   1       4.050   4.923  -5.969  0.00  0.00     0.023 A 
ATOM      2  C1  UNL d   1       3.230   3.795  -6.000  0.00  0.00     0.003 A 
ATOM      3  C2  UNL d   1       3.785   2.523  -5.852  0.00  0.00     0.048 A 
ATOM      4  C3  UNL d   1       5.161   2.385  -5.672  0.00  0.00     0.023 A 
ATOM      5  C4  UNL d   1       5.985   3.511  -5.640  0.00  0.00     0.048 A 
ATOM      6  C5  UNL d   1       5.426   4.781  -5.789  0.00  0.00     0.003 A 
ATOM      7  I   UNL d   1       5.989   0.492  -5.452  0.00  0.00    -0.146 I 
ENDROOT
TORSDOF 0
ENDMDL
