MODEL 1
REMARK minimizedAffinity -1.70440209
REMARK minimizedRMSD -1
REMARK  1 active torsions:
REMARK  status: ('A' for Active; 'I' for Inactive)
REMARK    1  A    between atoms: C3_4  and  O_7 
ROOT
ATOM      1  C   UNL d   1      -0.379  -5.692  -4.983  0.00  0.00    -0.033 A 
ATOM      2  C1  UNL d   1       0.982  -5.988  -4.887  0.00  0.00     0.039 A 
ATOM      3  C2  UNL d   1       1.738  -5.473  -3.832  0.00  0.00    -0.080 A 
ATOM      4  C3  UNL d   1       1.121  -4.666  -2.880  0.00  0.00     0.150 A 
ATOM      5  C4  UNL d   1      -0.235  -4.370  -2.967  0.00  0.00    -0.007 A 
ATOM      6  C5  UNL d   1      -0.988  -4.884  -4.022  0.00  0.00     0.039 A 
ENDROOT
BRANCH   4   7
ATOM      7  O   UNL d   1       1.819  -4.137  -1.835  0.00  0.00    -0.526 OA
ATOM      8  H5  UNL d   1       2.749  -4.403  -1.920  0.00  0.00     0.418 HD
ENDBRANCH   4   7
TORSDOF 1
ENDMDL
