MODEL 1
REMARK minimizedAffinity -3.38351655
REMARK minimizedRMSD -1
REMARK  1 active torsions:
REMARK  status: ('A' for Active; 'I' for Inactive)
REMARK    1  A    between atoms: C3_4  and  O_7 
ROOT
ATOM      1  C   UNL d   1      -0.746  -0.285  -3.593  0.00  0.00    -0.033 A 
ATOM      2  C1  UNL d   1      -1.201  -1.154  -2.599  0.00  0.00     0.039 A 
ATOM      3  C2  UNL d   1      -0.294  -1.954  -1.901  0.00  0.00    -0.080 A 
ATOM      4  C3  UNL d   1       1.062  -1.875  -2.204  0.00  0.00     0.150 A 
ATOM      5  C4  UNL d   1       1.522  -1.009  -3.190  0.00  0.00    -0.007 A 
ATOM      6  C5  UNL d   1       0.616  -0.211  -3.887  0.00  0.00     0.039 A 
ENDROOT
BRANCH   4   7
ATOM      7  O   UNL d   1       1.984  -2.640  -1.553  0.00  0.00    -0.526 OA
ATOM      8  H5  UNL d   1       1.518  -3.210  -0.919  0.00  0.00     0.418 HD
ENDBRANCH   4   7
TORSDOF 1
ENDMDL
