MODEL 1
REMARK minimizedAffinity -3.21521616
REMARK minimizedRMSD -1
REMARK  1 active torsions:
REMARK  status: ('A' for Active; 'I' for Inactive)
REMARK    1  A    between atoms: C3_4  and  O_7 
ROOT
ATOM      1  C   UNL d   1       5.250  -2.204  -5.626  0.00  0.00    -0.033 A 
ATOM      2  C1  UNL d   1       4.986  -3.213  -4.698  0.00  0.00     0.039 A 
ATOM      3  C2  UNL d   1       5.231  -2.996  -3.340  0.00  0.00    -0.080 A 
ATOM      4  C3  UNL d   1       5.738  -1.768  -2.925  0.00  0.00     0.150 A 
ATOM      5  C4  UNL d   1       6.000  -0.757  -3.844  0.00  0.00    -0.007 A 
ATOM      6  C5  UNL d   1       5.756  -0.976  -5.199  0.00  0.00     0.039 A 
ENDROOT
BRANCH   4   7
ATOM      7  O   UNL d   1       5.998  -1.511  -1.612  0.00  0.00    -0.526 OA
ATOM      8  H5  UNL d   1       5.796  -2.310  -1.096  0.00  0.00     0.418 HD
ENDBRANCH   4   7
TORSDOF 1
ENDMDL
