MODEL 1
REMARK minimizedAffinity -4.34059811
REMARK minimizedRMSD -1
REMARK  1 active torsions:
REMARK  status: ('A' for Active; 'I' for Inactive)
REMARK    1  A    between atoms: C3_4  and  O_7 
ROOT
ATOM      1  C   UNL d   1       0.267  -0.597  -3.878  0.00  0.00    -0.033 A 
ATOM      2  C1  UNL d   1      -0.788  -1.349  -4.398  0.00  0.00     0.039 A 
ATOM      3  C2  UNL d   1      -0.958  -2.679  -4.011  0.00  0.00    -0.080 A 
ATOM      4  C3  UNL d   1      -0.067  -3.245  -3.102  0.00  0.00     0.150 A 
ATOM      5  C4  UNL d   1       0.984  -2.500  -2.577  0.00  0.00    -0.007 A 
ATOM      6  C5  UNL d   1       1.152  -1.172  -2.966  0.00  0.00     0.039 A 
ENDROOT
BRANCH   4   7
ATOM      7  O   UNL d   1      -0.189  -4.541  -2.698  0.00  0.00    -0.526 OA
ATOM      8  H5  UNL d   1      -0.942  -4.939  -3.165  0.00  0.00     0.418 HD
ENDBRANCH   4   7
TORSDOF 1
ENDMDL
