MODEL 1
REMARK minimizedAffinity 3.22684693
REMARK minimizedRMSD -1
REMARK  1 active torsions:
REMARK  status: ('A' for Active; 'I' for Inactive)
REMARK    1  A    between atoms: C3_4  and  O_7 
ROOT
ATOM      1  C   UNL d   1       0.781  -0.993   2.782  0.00  0.00    -0.033 A 
ATOM      2  C1  UNL d   1       0.744  -0.419   4.055  0.00  0.00     0.039 A 
ATOM      3  C2  UNL d   1       1.849  -0.521   4.901  0.00  0.00    -0.080 A 
ATOM      4  C3  UNL d   1       2.985  -1.197   4.464  0.00  0.00     0.150 A 
ATOM      5  C4  UNL d   1       3.031  -1.767   3.196  0.00  0.00    -0.007 A 
ATOM      6  C5  UNL d   1       1.925  -1.665   2.352  0.00  0.00     0.039 A 
ENDROOT
BRANCH   4   7
ATOM      7  O   UNL d   1       4.087  -1.327   5.256  0.00  0.00    -0.526 OA
ATOM      8  H5  UNL d   1       3.900  -0.909   6.113  0.00  0.00     0.418 HD
ENDBRANCH   4   7
TORSDOF 1
ENDMDL
