MODEL 1
REMARK minimizedAffinity 5.67572355
REMARK minimizedRMSD -1
REMARK  1 active torsions:
REMARK  status: ('A' for Active; 'I' for Inactive)
REMARK    1  A    between atoms: C3_4  and  O_7 
ROOT
ATOM      1  C   UNL d   1       4.806  -2.247  -5.083  0.00  0.00    -0.033 A 
ATOM      2  C1  UNL d   1       3.613  -1.854  -4.474  0.00  0.00     0.039 A 
ATOM      3  C2  UNL d   1       3.611  -1.441  -3.141  0.00  0.00    -0.080 A 
ATOM      4  C3  UNL d   1       4.807  -1.425  -2.428  0.00  0.00     0.150 A 
ATOM      5  C4  UNL d   1       6.000  -1.811  -3.030  0.00  0.00    -0.007 A 
ATOM      6  C5  UNL d   1       6.000  -2.224  -4.362  0.00  0.00     0.039 A 
ENDROOT
BRANCH   4   7
ATOM      7  O   UNL d   1       4.853  -1.034  -1.123  0.00  0.00    -0.526 OA
ATOM      8  H5  UNL d   1       3.950  -0.823  -0.832  0.00  0.00     0.418 HD
ENDBRANCH   4   7
TORSDOF 1
ENDMDL
