MODEL 1
REMARK minimizedAffinity 4.62622213
REMARK minimizedRMSD -1
REMARK  1 active torsions:
REMARK  status: ('A' for Active; 'I' for Inactive)
REMARK    1  A    between atoms: C3_4  and  O_7 
ROOT
ATOM      1  C   UNL d   1       2.197  -2.462   6.000  0.00  0.00    -0.033 A 
ATOM      2  C1  UNL d   1       2.984  -1.413   5.522  0.00  0.00     0.039 A 
ATOM      3  C2  UNL d   1       2.646  -0.771   4.329  0.00  0.00    -0.080 A 
ATOM      4  C3  UNL d   1       1.519  -1.186   3.626  0.00  0.00     0.150 A 
ATOM      5  C4  UNL d   1       0.727  -2.228   4.098  0.00  0.00    -0.007 A 
ATOM      6  C5  UNL d   1       1.067  -2.868   5.289  0.00  0.00     0.039 A 
ENDROOT
BRANCH   4   7
ATOM      7  O   UNL d   1       1.151  -0.593   2.454  0.00  0.00    -0.526 OA
ATOM      8  H5  UNL d   1       1.807   0.091   2.237  0.00  0.00     0.418 HD
ENDBRANCH   4   7
TORSDOF 1
ENDMDL
