MODEL 1
REMARK minimizedAffinity 3.01616645
REMARK minimizedRMSD -1
REMARK  1 active torsions:
REMARK  status: ('A' for Active; 'I' for Inactive)
REMARK    1  A    between atoms: C3_4  and  O_7 
ROOT
ATOM      1  C   UNL d   1       4.790  -2.442  -5.301  0.00  0.00    -0.033 A 
ATOM      2  C1  UNL d   1       5.999  -2.263  -4.625  0.00  0.00     0.039 A 
ATOM      3  C2  UNL d   1       6.000  -1.877  -3.283  0.00  0.00    -0.080 A 
ATOM      4  C3  UNL d   1       4.788  -1.675  -2.629  0.00  0.00     0.150 A 
ATOM      5  C4  UNL d   1       3.580  -1.856  -3.295  0.00  0.00    -0.007 A 
ATOM      6  C5  UNL d   1       3.580  -2.241  -4.635  0.00  0.00     0.039 A 
ENDROOT
BRANCH   4   7
ATOM      7  O   UNL d   1       4.739  -1.294  -1.321  0.00  0.00    -0.526 OA
ATOM      8  H5  UNL d   1       5.648  -1.179  -1.000  0.00  0.00     0.418 HD
ENDBRANCH   4   7
TORSDOF 1
ENDMDL
