MODEL 1
REMARK minimizedAffinity -0.285496444
REMARK minimizedRMSD -1
REMARK  1 active torsions:
REMARK  status: ('A' for Active; 'I' for Inactive)
REMARK    1  A    between atoms: C3_4  and  O_7 
ROOT
ATOM      1  C   UNL d   1      -0.159  -5.455  -2.916  0.00  0.00    -0.033 A 
ATOM      2  C1  UNL d   1      -0.832  -4.367  -2.356  0.00  0.00     0.039 A 
ATOM      3  C2  UNL d   1      -0.114  -3.265  -1.888  0.00  0.00    -0.080 A 
ATOM      4  C3  UNL d   1       1.274  -3.262  -1.987  0.00  0.00     0.150 A 
ATOM      5  C4  UNL d   1       1.952  -4.340  -2.547  0.00  0.00    -0.007 A 
ATOM      6  C5  UNL d   1       1.233  -5.440  -3.013  0.00  0.00     0.039 A 
ENDROOT
BRANCH   4   7
ATOM      7  O   UNL d   1       2.018  -2.211  -1.539  0.00  0.00    -0.526 OA
ATOM      8  H5  UNL d   1       1.418  -1.552  -1.151  0.00  0.00     0.418 HD
ENDBRANCH   4   7
TORSDOF 1
ENDMDL
