MODEL 1
REMARK minimizedAffinity -2.85177088
REMARK minimizedRMSD -1
REMARK  0 active torsions:
REMARK  status: ('A' for Active; 'I' for Inactive)
ROOT
ATOM      1  C   UNL d   1       0.974  -0.655   3.426  0.00  0.00     0.023 A 
ATOM      2  C1  UNL d   1       1.913  -0.155   2.523  0.00  0.00     0.003 A 
ATOM      3  C2  UNL d   1       1.543   0.106   1.202  0.00  0.00     0.048 A 
ATOM      4  C3  UNL d   1       0.233  -0.135   0.791  0.00  0.00     0.023 A 
ATOM      5  C4  UNL d   1      -0.710  -0.635   1.691  0.00  0.00     0.048 A 
ATOM      6  C5  UNL d   1      -0.335  -0.894   3.010  0.00  0.00     0.003 A 
ATOM      7  I   UNL d   1      -0.320   0.252  -1.175  0.00  0.00    -0.146 I 
ENDROOT
TORSDOF 0
ENDMDL
