MODEL 1
REMARK minimizedAffinity -4.71759319
REMARK minimizedRMSD -1
REMARK  0 active torsions:
REMARK  status: ('A' for Active; 'I' for Inactive)
ROOT
ATOM      1  C   UNL d   1       1.780  -0.955   3.110  0.00  0.00     0.023 A 
ATOM      2  C1  UNL d   1       0.576  -0.261   3.233  0.00  0.00     0.003 A 
ATOM      3  C2  UNL d   1      -0.157   0.075   2.093  0.00  0.00     0.048 A 
ATOM      4  C3  UNL d   1       0.319  -0.286   0.833  0.00  0.00     0.023 A 
ATOM      5  C4  UNL d   1       1.523  -0.981   0.705  0.00  0.00     0.048 A 
ATOM      6  C5  UNL d   1       2.253  -1.314   1.848  0.00  0.00     0.003 A 
ATOM      7  I   UNL d   1      -0.770   0.213  -0.865  0.00  0.00    -0.146 I 
ENDROOT
TORSDOF 0
ENDMDL
