MODEL 1
REMARK minimizedAffinity -4.01304865
REMARK minimizedRMSD -1
REMARK  0 active torsions:
REMARK  status: ('A' for Active; 'I' for Inactive)
ROOT
ATOM      1  C   UNL d   1       0.581  -0.860   2.719  0.00  0.00     0.023 A 
ATOM      2  C1  UNL d   1      -0.714  -0.455   2.395  0.00  0.00     0.003 A 
ATOM      3  C2  UNL d   1      -0.998   0.019   1.113  0.00  0.00     0.048 A 
ATOM      4  C3  UNL d   1       0.017   0.084   0.159  0.00  0.00     0.023 A 
ATOM      5  C4  UNL d   1       1.314  -0.321   0.478  0.00  0.00     0.048 A 
ATOM      6  C5  UNL d   1       1.594  -0.793   1.762  0.00  0.00     0.003 A 
ATOM      7  I   UNL d   1      -0.404   0.789  -1.751  0.00  0.00    -0.146 I 
ENDROOT
TORSDOF 0
ENDMDL
