MODEL 1
REMARK minimizedAffinity -4.20167112
REMARK minimizedRMSD -1
REMARK  0 active torsions:
REMARK  status: ('A' for Active; 'I' for Inactive)
ROOT
ATOM      1  C   UNL d   1      -1.087  -0.242  -1.291  0.00  0.00     0.023 A 
ATOM      2  C1  UNL d   1      -1.846  -0.335  -0.125  0.00  0.00     0.003 A 
ATOM      3  C2  UNL d   1      -1.214  -0.423   1.117  0.00  0.00     0.048 A 
ATOM      4  C3  UNL d   1       0.179  -0.418   1.185  0.00  0.00     0.023 A 
ATOM      5  C4  UNL d   1       0.943  -0.325   0.021  0.00  0.00     0.048 A 
ATOM      6  C5  UNL d   1       0.306  -0.237  -1.218  0.00  0.00     0.003 A 
ATOM      7  I   UNL d   1       1.123  -0.549   3.032  0.00  0.00    -0.146 I 
ENDROOT
TORSDOF 0
ENDMDL
