MODEL 1
REMARK minimizedAffinity -2.90103698
REMARK minimizedRMSD -1
REMARK  0 active torsions:
REMARK  status: ('A' for Active; 'I' for Inactive)
ROOT
ATOM      1  C   UNL d   1       0.583  -0.758   2.770  0.00  0.00     0.023 A 
ATOM      2  C1  UNL d   1      -0.741  -0.690   2.336  0.00  0.00     0.003 A 
ATOM      3  C2  UNL d   1      -1.039  -0.148   1.084  0.00  0.00     0.048 A 
ATOM      4  C3  UNL d   1      -0.009   0.324   0.271  0.00  0.00     0.023 A 
ATOM      5  C4  UNL d   1       1.317   0.257   0.701  0.00  0.00     0.048 A 
ATOM      6  C5  UNL d   1       1.611  -0.285   1.954  0.00  0.00     0.003 A 
ATOM      7  I   UNL d   1      -0.451   1.131  -1.592  0.00  0.00    -0.146 I 
ENDROOT
TORSDOF 0
ENDMDL
