MODEL 1
REMARK minimizedAffinity -2.17266417
REMARK minimizedRMSD -1
REMARK  0 active torsions:
REMARK  status: ('A' for Active; 'I' for Inactive)
ROOT
ATOM      1  C   UNL d   1       0.879  -0.673   2.691  0.00  0.00     0.023 A 
ATOM      2  C1  UNL d   1      -0.470  -0.445   2.417  0.00  0.00     0.003 A 
ATOM      3  C2  UNL d   1      -0.864  -0.026   1.145  0.00  0.00     0.048 A 
ATOM      4  C3  UNL d   1       0.096   0.162   0.151  0.00  0.00     0.023 A 
ATOM      5  C4  UNL d   1       1.446  -0.066   0.420  0.00  0.00     0.048 A 
ATOM      6  C5  UNL d   1       1.836  -0.484   1.694  0.00  0.00     0.003 A 
ATOM      7  I   UNL d   1      -0.489   0.784  -1.744  0.00  0.00    -0.146 I 
ENDROOT
TORSDOF 0
ENDMDL
