MODEL 1
REMARK minimizedAffinity -1.91286027
REMARK minimizedRMSD -1
REMARK  0 active torsions:
REMARK  status: ('A' for Active; 'I' for Inactive)
ROOT
ATOM      1  C   UNL d   1       2.603  -0.947   2.094  0.00  0.00     0.023 A 
ATOM      2  C1  UNL d   1       2.358  -0.514   0.791  0.00  0.00     0.003 A 
ATOM      3  C2  UNL d   1       1.049  -0.447   0.311  0.00  0.00     0.048 A 
ATOM      4  C3  UNL d   1      -0.011  -0.813   1.139  0.00  0.00     0.023 A 
ATOM      5  C4  UNL d   1       0.229  -1.246   2.444  0.00  0.00     0.048 A 
ATOM      6  C5  UNL d   1       1.540  -1.313   2.920  0.00  0.00     0.003 A 
ATOM      7  I   UNL d   1      -1.961  -0.714   0.427  0.00  0.00    -0.146 I 
ENDROOT
TORSDOF 0
ENDMDL
