MODEL 1
REMARK minimizedAffinity -4.02387953
REMARK minimizedRMSD -1
REMARK  0 active torsions:
REMARK  status: ('A' for Active; 'I' for Inactive)
ROOT
ATOM      1  C   UNL d   1       0.896  -1.720   2.011  0.00  0.00     0.023 A 
ATOM      2  C1  UNL d   1       1.610  -1.787   0.815  0.00  0.00     0.003 A 
ATOM      3  C2  UNL d   1       1.211  -1.021  -0.282  0.00  0.00     0.048 A 
ATOM      4  C3  UNL d   1       0.097  -0.189  -0.175  0.00  0.00     0.023 A 
ATOM      5  C4  UNL d   1      -0.620  -0.117   1.020  0.00  0.00     0.048 A 
ATOM      6  C5  UNL d   1      -0.217  -0.886   2.114  0.00  0.00     0.003 A 
ATOM      7  I   UNL d   1      -0.499   0.953  -1.806  0.00  0.00    -0.146 I 
ENDROOT
TORSDOF 0
ENDMDL
