MODEL 1
REMARK minimizedAffinity -3.43178916
REMARK minimizedRMSD -1
REMARK  0 active torsions:
REMARK  status: ('A' for Active; 'I' for Inactive)
ROOT
ATOM      1  C2' OXE d   1      -0.693  -0.575   1.844  0.00  0.00     0.078 C 
ATOM      2  C1' OXE d   1       0.672   0.925  -0.096  0.00  0.00     0.078 C 
ATOM      3  C1  OXE d   1       0.192  -0.452  -0.481  0.00  0.00    -0.078 A 
ATOM      4  C2  OXE d   1      -0.434  -1.197   0.489  0.00  0.00    -0.078 A 
ATOM      5  C3  OXE d   1      -0.944  -2.453   0.172  0.00  0.00     0.003 A 
ATOM      6  C4  OXE d   1      -0.692  -3.025  -1.081  0.00  0.00    -0.002 A 
ATOM      7  C5  OXE d   1      -0.021  -2.299  -2.071  0.00  0.00    -0.002 A 
ATOM      8  C6  OXE d   1       0.389  -0.997  -1.801  0.00  0.00     0.003 A 
ENDROOT
TORSDOF 0
ENDMDL
