MODEL 1
REMARK minimizedAffinity -4.66339588
REMARK minimizedRMSD -1
REMARK  0 active torsions:
REMARK  status: ('A' for Active; 'I' for Inactive)
ROOT
ATOM      1  C2' OXE d   1      -0.362  -0.712   0.365  0.00  0.00     0.078 C 
ATOM      2  C1' OXE d   1      -0.366   1.369  -1.520  0.00  0.00     0.078 C 
ATOM      3  C1  OXE d   1       0.418   1.573  -0.248  0.00  0.00    -0.078 A 
ATOM      4  C2  OXE d   1       0.376   0.569   0.689  0.00  0.00    -0.078 A 
ATOM      5  C3  OXE d   1       1.126   0.683   1.856  0.00  0.00     0.003 A 
ATOM      6  C4  OXE d   1       1.798   1.875   2.153  0.00  0.00    -0.002 A 
ATOM      7  C5  OXE d   1       1.821   2.926   1.230  0.00  0.00    -0.002 A 
ATOM      8  C6  OXE d   1       1.173   2.775   0.009  0.00  0.00     0.003 A 
ENDROOT
TORSDOF 0
ENDMDL
