MODEL 1
REMARK minimizedAffinity -3.66319609
REMARK minimizedRMSD -1
REMARK  0 active torsions:
REMARK  status: ('A' for Active; 'I' for Inactive)
ROOT
ATOM      1  C2' OXE d   1       0.342  -3.235   0.921  0.00  0.00     0.078 C 
ATOM      2  C1' OXE d   1      -1.223  -1.449   2.417  0.00  0.00     0.078 C 
ATOM      3  C1  OXE d   1      -0.645  -0.956   1.114  0.00  0.00    -0.078 A 
ATOM      4  C2  OXE d   1       0.158  -1.822   0.412  0.00  0.00    -0.078 A 
ATOM      5  C3  OXE d   1       0.673  -1.437  -0.823  0.00  0.00     0.003 A 
ATOM      6  C4  OXE d   1       0.507  -0.125  -1.282  0.00  0.00    -0.002 A 
ATOM      7  C5  OXE d   1      -0.275   0.786  -0.563  0.00  0.00    -0.002 A 
ATOM      8  C6  OXE d   1      -0.891   0.374   0.614  0.00  0.00     0.003 A 
ENDROOT
TORSDOF 0
ENDMDL
