MODEL 1
REMARK minimizedAffinity -1.84997261
REMARK minimizedRMSD -1
REMARK  0 active torsions:
REMARK  status: ('A' for Active; 'I' for Inactive)
ROOT
ATOM      1  C2' OXE d   1       0.199  -0.663  -0.902  0.00  0.00     0.078 C 
ATOM      2  C1' OXE d   1      -1.344   0.549   1.106  0.00  0.00     0.078 C 
ATOM      3  C1  OXE d   1      -0.091   1.258   0.658  0.00  0.00    -0.078 A 
ATOM      4  C2  OXE d   1       0.683   0.635  -0.291  0.00  0.00    -0.078 A 
ATOM      5  C3  OXE d   1       1.821   1.271  -0.779  0.00  0.00     0.003 A 
ATOM      6  C4  OXE d   1       2.267   2.466  -0.202  0.00  0.00    -0.002 A 
ATOM      7  C5  OXE d   1       1.515   3.098   0.794  0.00  0.00    -0.002 A 
ATOM      8  C6  OXE d   1       0.314   2.530   1.204  0.00  0.00     0.003 A 
ENDROOT
TORSDOF 0
ENDMDL
