MODEL 1
REMARK minimizedAffinity -5.73371696
REMARK minimizedRMSD -1
REMARK  0 active torsions:
REMARK  status: ('A' for Active; 'I' for Inactive)
ROOT
ATOM      1  C2' OXE d   1      -2.157   0.207   1.425  0.00  0.00     0.078 C 
ATOM      2  C1' OXE d   1      -0.047   1.328  -0.047  0.00  0.00     0.078 C 
ATOM      3  C1  OXE d   1      -0.008  -0.156   0.219  0.00  0.00    -0.078 A 
ATOM      4  C2  OXE d   1      -1.021  -0.688   0.981  0.00  0.00    -0.078 A 
ATOM      5  C3  OXE d   1      -1.063  -2.060   1.210  0.00  0.00     0.003 A 
ATOM      6  C4  OXE d   1      -0.003  -2.880   0.804  0.00  0.00    -0.002 A 
ATOM      7  C5  OXE d   1       1.059  -2.351   0.061  0.00  0.00    -0.002 A 
ATOM      8  C6  OXE d   1       1.050  -1.002  -0.275  0.00  0.00     0.003 A 
ENDROOT
TORSDOF 0
ENDMDL
