MODEL 1
REMARK minimizedAffinity -3.86627984
REMARK minimizedRMSD -1
REMARK  0 active torsions:
REMARK  status: ('A' for Active; 'I' for Inactive)
ROOT
ATOM      1  C2' OXE d   1      -0.642  -1.193   0.353  0.00  0.00     0.078 C 
ATOM      2  C1' OXE d   1       1.651  -0.814   1.927  0.00  0.00     0.078 C 
ATOM      3  C1  OXE d   1       1.174   0.345   1.088  0.00  0.00    -0.078 A 
ATOM      4  C2  OXE d   1       0.079   0.136   0.285  0.00  0.00    -0.078 A 
ATOM      5  C3  OXE d   1      -0.435   1.187  -0.468  0.00  0.00     0.003 A 
ATOM      6  C4  OXE d   1       0.244   2.410  -0.533  0.00  0.00    -0.002 A 
ATOM      7  C5  OXE d   1       1.384   2.632   0.246  0.00  0.00    -0.002 A 
ATOM      8  C6  OXE d   1       1.837   1.626   1.093  0.00  0.00     0.003 A 
ENDROOT
TORSDOF 0
ENDMDL
