MODEL 1
REMARK minimizedAffinity -4.7163887
REMARK minimizedRMSD -1
REMARK  0 active torsions:
REMARK  status: ('A' for Active; 'I' for Inactive)
ROOT
ATOM      1  C2' OXE d   1       0.147  -3.247   0.363  0.00  0.00     0.078 C 
ATOM      2  C1' OXE d   1       1.003  -1.793  -1.880  0.00  0.00     0.078 C 
ATOM      3  C1  OXE d   1       0.255  -1.048  -0.803  0.00  0.00    -0.078 A 
ATOM      4  C2  OXE d   1      -0.201  -1.777   0.269  0.00  0.00    -0.078 A 
ATOM      5  C3  OXE d   1      -0.849  -1.130   1.318  0.00  0.00     0.003 A 
ATOM      6  C4  OXE d   1      -1.175   0.228   1.219  0.00  0.00    -0.002 A 
ATOM      7  C5  OXE d   1      -0.755   0.981   0.117  0.00  0.00    -0.002 A 
ATOM      8  C6  OXE d   1      -0.004   0.368  -0.880  0.00  0.00     0.003 A 
ENDROOT
TORSDOF 0
ENDMDL
