MODEL 1
REMARK minimizedAffinity -1.864784
REMARK minimizedRMSD -1
REMARK  0 active torsions:
REMARK  status: ('A' for Active; 'I' for Inactive)
ROOT
ATOM      1  C2' OXE d   1       0.364   1.421   0.242  0.00  0.00     0.078 C 
ATOM      2  C1' OXE d   1      -1.771   0.427   1.770  0.00  0.00     0.078 C 
ATOM      3  C1  OXE d   1      -1.009  -0.548   0.907  0.00  0.00    -0.078 A 
ATOM      4  C2  OXE d   1       0.004  -0.045   0.127  0.00  0.00    -0.078 A 
ATOM      5  C3  OXE d   1       0.774  -0.909  -0.646  0.00  0.00     0.003 A 
ATOM      6  C4  OXE d   1       0.428  -2.262  -0.754  0.00  0.00    -0.002 A 
ATOM      7  C5  OXE d   1      -0.625  -2.788   0.002  0.00  0.00    -0.002 A 
ATOM      8  C6  OXE d   1      -1.325  -1.955   0.868  0.00  0.00     0.003 A 
ENDROOT
TORSDOF 0
ENDMDL
