MODEL 1
REMARK minimizedAffinity -4.20640373
REMARK minimizedRMSD -1
REMARK  0 active torsions:
REMARK  status: ('A' for Active; 'I' for Inactive)
ROOT
ATOM      1  C2' OXE d   1       0.720   1.424  -0.193  0.00  0.00     0.078 C 
ATOM      2  C1' OXE d   1       0.544  -0.808  -1.886  0.00  0.00     0.078 C 
ATOM      3  C1  OXE d   1       0.075  -0.967  -0.461  0.00  0.00    -0.078 A 
ATOM      4  C2  OXE d   1       0.209   0.116   0.373  0.00  0.00    -0.078 A 
ATOM      5  C3  OXE d   1      -0.259   0.040   1.682  0.00  0.00     0.003 A 
ATOM      6  C4  OXE d   1      -0.721  -1.175   2.200  0.00  0.00    -0.002 A 
ATOM      7  C5  OXE d   1      -0.828  -2.303   1.378  0.00  0.00    -0.002 A 
ATOM      8  C6  OXE d   1      -0.475  -2.204   0.037  0.00  0.00     0.003 A 
ENDROOT
TORSDOF 0
ENDMDL
