MODEL 1
REMARK minimizedAffinity -2.72530508
REMARK minimizedRMSD -1
REMARK  0 active torsions:
REMARK  status: ('A' for Active; 'I' for Inactive)
ROOT
ATOM      1  C2' OXE d   1      -1.236  -3.100   0.123  0.00  0.00     0.078 C 
ATOM      2  C1' OXE d   1      -0.106  -2.273  -2.310  0.00  0.00     0.078 C 
ATOM      3  C1  OXE d   1      -0.312  -1.230  -1.239  0.00  0.00    -0.078 A 
ATOM      4  C2  OXE d   1      -0.909  -1.635  -0.070  0.00  0.00    -0.078 A 
ATOM      5  C3  OXE d   1      -1.073  -0.725   0.971  0.00  0.00     0.003 A 
ATOM      6  C4  OXE d   1      -0.777   0.630   0.781  0.00  0.00    -0.002 A 
ATOM      7  C5  OXE d   1      -0.205   1.071  -0.417  0.00  0.00    -0.002 A 
ATOM      8  C6  OXE d   1       0.072   0.148  -1.420  0.00  0.00     0.003 A 
ENDROOT
TORSDOF 0
ENDMDL
