MODEL 1
REMARK minimizedAffinity -1.59262991
REMARK minimizedRMSD -1
REMARK  0 active torsions:
REMARK  status: ('A' for Active; 'I' for Inactive)
ROOT
ATOM      1  C2' OXE d   1      -0.590   1.985   0.197  0.00  0.00     0.078 C 
ATOM      2  C1' OXE d   1       0.118  -0.021   2.029  0.00  0.00     0.078 C 
ATOM      3  C1  OXE d   1       0.255  -0.330   0.559  0.00  0.00    -0.078 A 
ATOM      4  C2  OXE d   1      -0.138   0.641  -0.331  0.00  0.00    -0.078 A 
ATOM      5  C3  OXE d   1       0.019   0.428  -1.697  0.00  0.00     0.003 A 
ATOM      6  C4  OXE d   1       0.429  -0.822  -2.177  0.00  0.00    -0.002 A 
ATOM      7  C5  OXE d   1       0.797  -1.838  -1.289  0.00  0.00    -0.002 A 
ATOM      8  C6  OXE d   1       0.756  -1.595   0.079  0.00  0.00     0.003 A 
ENDROOT
TORSDOF 0
ENDMDL
