MODEL 1
REMARK minimizedAffinity -3.52953601
REMARK minimizedRMSD -1
REMARK  0 active torsions:
REMARK  status: ('A' for Active; 'I' for Inactive)
ROOT
ATOM      1  C2' OXE d   1       0.760  -1.394  -2.513  0.00  0.00     0.078 C 
ATOM      2  C1' OXE d   1       0.440   0.461  -0.431  0.00  0.00     0.078 C 
ATOM      3  C1  OXE d   1      -0.067  -0.942  -0.207  0.00  0.00    -0.078 A 
ATOM      4  C2  OXE d   1       0.052  -1.830  -1.249  0.00  0.00    -0.078 A 
ATOM      5  C3  OXE d   1      -0.350  -3.152  -1.077  0.00  0.00     0.003 A 
ATOM      6  C4  OXE d   1      -1.013  -3.545   0.092  0.00  0.00    -0.002 A 
ATOM      7  C5  OXE d   1      -1.180  -2.645   1.150  0.00  0.00    -0.002 A 
ATOM      8  C6  OXE d   1      -0.676  -1.354   1.033  0.00  0.00     0.003 A 
ENDROOT
TORSDOF 0
ENDMDL
