MODEL 1
REMARK minimizedAffinity -5.02481461
REMARK minimizedRMSD -1
REMARK  0 active torsions:
REMARK  status: ('A' for Active; 'I' for Inactive)
ROOT
ATOM      1  C2' OXE d   1      -0.051   0.391   0.326  0.00  0.00     0.078 C 
ATOM      2  C1' OXE d   1       0.485  -0.377  -2.320  0.00  0.00     0.078 C 
ATOM      3  C1  OXE d   1      -0.000  -1.438  -1.364  0.00  0.00    -0.078 A 
ATOM      4  C2  OXE d   1      -0.216  -1.063  -0.060  0.00  0.00    -0.078 A 
ATOM      5  C3  OXE d   1      -0.716  -1.990   0.850  0.00  0.00     0.003 A 
ATOM      6  C4  OXE d   1      -0.856  -3.335   0.488  0.00  0.00    -0.002 A 
ATOM      7  C5  OXE d   1      -0.605  -3.746  -0.825  0.00  0.00    -0.002 A 
ATOM      8  C6  OXE d   1      -0.218  -2.804  -1.772  0.00  0.00     0.003 A 
ENDROOT
TORSDOF 0
ENDMDL
