MODEL 1
REMARK minimizedAffinity -3.22751832
REMARK minimizedRMSD -1
REMARK  0 active torsions:
REMARK  status: ('A' for Active; 'I' for Inactive)
ROOT
ATOM      1  C2' OXE d   1       0.610  -3.041   0.136  0.00  0.00     0.078 C 
ATOM      2  C1' OXE d   1       1.039  -1.859  -2.374  0.00  0.00     0.078 C 
ATOM      3  C1  OXE d   1       0.499  -0.987  -1.270  0.00  0.00    -0.078 A 
ATOM      4  C2  OXE d   1       0.248  -1.584  -0.058  0.00  0.00    -0.078 A 
ATOM      5  C3  OXE d   1      -0.200  -0.813   1.011  0.00  0.00     0.003 A 
ATOM      6  C4  OXE d   1      -0.542   0.532   0.821  0.00  0.00    -0.002 A 
ATOM      7  C5  OXE d   1      -0.332   1.150  -0.416  0.00  0.00    -0.002 A 
ATOM      8  C6  OXE d   1       0.227   0.417  -1.458  0.00  0.00     0.003 A 
ENDROOT
TORSDOF 0
ENDMDL
