MODEL 1
REMARK minimizedAffinity -0.202013686
REMARK minimizedRMSD -1
REMARK  0 active torsions:
REMARK  status: ('A' for Active; 'I' for Inactive)
ROOT
ATOM      1  C2' OXE d   1      -0.207   1.373  -1.745  0.00  0.00     0.078 C 
ATOM      2  C1' OXE d   1       0.755   2.376   0.695  0.00  0.00     0.078 C 
ATOM      3  C1  OXE d   1       0.291   0.942   0.658  0.00  0.00    -0.078 A 
ATOM      4  C2  OXE d   1      -0.221   0.473  -0.528  0.00  0.00    -0.078 A 
ATOM      5  C3  OXE d   1      -0.613  -0.859  -0.632  0.00  0.00     0.003 A 
ATOM      6  C4  OXE d   1      -0.633  -1.682   0.501  0.00  0.00    -0.002 A 
ATOM      7  C5  OXE d   1      -0.152  -1.213   1.728  0.00  0.00    -0.002 A 
ATOM      8  C6  OXE d   1       0.352   0.080   1.813  0.00  0.00     0.003 A 
ENDROOT
TORSDOF 0
ENDMDL
