MODEL 1
REMARK minimizedAffinity -3.16798496
REMARK minimizedRMSD -1
REMARK  0 active torsions:
REMARK  status: ('A' for Active; 'I' for Inactive)
ROOT
ATOM      1  C2' OXE d   1      -0.019   0.968  -0.932  0.00  0.00     0.078 C 
ATOM      2  C1' OXE d   1       0.173  -1.539  -2.181  0.00  0.00     0.078 C 
ATOM      3  C1  OXE d   1      -0.228  -1.506  -0.727  0.00  0.00    -0.078 A 
ATOM      4  C2  OXE d   1      -0.274  -0.278  -0.112  0.00  0.00    -0.078 A 
ATOM      5  C3  OXE d   1      -0.691  -0.187   1.213  0.00  0.00     0.003 A 
ATOM      6  C4  OXE d   1      -0.915  -1.345   1.967  0.00  0.00    -0.002 A 
ATOM      7  C5  OXE d   1      -0.835  -2.607   1.371  0.00  0.00    -0.002 A 
ATOM      8  C6  OXE d   1      -0.535  -2.703   0.016  0.00  0.00     0.003 A 
ENDROOT
TORSDOF 0
ENDMDL
