MODEL 1
REMARK minimizedAffinity -5.2874198
REMARK minimizedRMSD -1
REMARK  0 active torsions:
REMARK  status: ('A' for Active; 'I' for Inactive)
ROOT
ATOM      1  C2' OXE d   1      -0.125   0.584  -0.046  0.00  0.00     0.078 C 
ATOM      2  C1' OXE d   1      -0.503  -1.750   1.467  0.00  0.00     0.078 C 
ATOM      3  C1  OXE d   1      -0.305  -1.901  -0.020  0.00  0.00    -0.078 A 
ATOM      4  C2  OXE d   1      -0.168  -0.750  -0.759  0.00  0.00    -0.078 A 
ATOM      5  C3  OXE d   1       0.073  -0.835  -2.128  0.00  0.00     0.003 A 
ATOM      6  C4  OXE d   1       0.022  -2.072  -2.782  0.00  0.00    -0.002 A 
ATOM      7  C5  OXE d   1      -0.156  -3.253  -2.053  0.00  0.00    -0.002 A 
ATOM      8  C6  OXE d   1      -0.278  -3.188  -0.670  0.00  0.00     0.003 A 
ENDROOT
TORSDOF 0
ENDMDL
