MODEL 1
REMARK minimizedAffinity -5.27895212
REMARK minimizedRMSD -1
REMARK  0 active torsions:
REMARK  status: ('A' for Active; 'I' for Inactive)
ROOT
ATOM      1  C2' OXE d   1       0.816  -1.256  -0.055  0.00  0.00     0.078 C 
ATOM      2  C1' OXE d   1      -1.102   0.061   1.515  0.00  0.00     0.078 C 
ATOM      3  C1  OXE d   1      -0.108   0.909   0.762  0.00  0.00    -0.078 A 
ATOM      4  C2  OXE d   1       0.856   0.255   0.033  0.00  0.00    -0.078 A 
ATOM      5  C3  OXE d   1       1.765   0.989  -0.724  0.00  0.00     0.003 A 
ATOM      6  C4  OXE d   1       1.801   2.385  -0.629  0.00  0.00    -0.002 A 
ATOM      7  C5  OXE d   1       0.853   3.070   0.139  0.00  0.00    -0.002 A 
ATOM      8  C6  OXE d   1      -0.132   2.350   0.805  0.00  0.00     0.003 A 
ENDROOT
TORSDOF 0
ENDMDL
