MODEL 1
REMARK minimizedAffinity 1.47384989
REMARK minimizedRMSD -1
REMARK  0 active torsions:
REMARK  status: ('A' for Active; 'I' for Inactive)
ROOT
ATOM      1  C2' OXE d   1      -0.718  -0.691   2.218  0.00  0.00     0.078 C 
ATOM      2  C1' OXE d   1      -0.007   0.718  -0.103  0.00  0.00     0.078 C 
ATOM      3  C1  OXE d   1      -0.281  -0.759  -0.233  0.00  0.00    -0.078 A 
ATOM      4  C2  OXE d   1      -0.583  -1.450   0.916  0.00  0.00    -0.078 A 
ATOM      5  C3  OXE d   1      -0.898  -2.804   0.844  0.00  0.00     0.003 A 
ATOM      6  C4  OXE d   1      -0.760  -3.500  -0.363  0.00  0.00    -0.002 A 
ATOM      7  C5  OXE d   1      -0.415  -2.824  -1.538  0.00  0.00    -0.002 A 
ATOM      8  C6  OXE d   1      -0.214  -1.448  -1.498  0.00  0.00     0.003 A 
ENDROOT
TORSDOF 0
ENDMDL
