MODEL 1
REMARK minimizedAffinity -5.21314764
REMARK minimizedRMSD -1
REMARK  0 active torsions:
REMARK  status: ('A' for Active; 'I' for Inactive)
ROOT
ATOM      1  C   UNL d   1      -1.179   1.353   2.468  0.00  0.00     0.023 A 
ATOM      2  C1  UNL d   1       0.196   1.295   2.242  0.00  0.00     0.003 A 
ATOM      3  C2  UNL d   1       0.699   0.547   1.175  0.00  0.00     0.048 A 
ATOM      4  C3  UNL d   1      -0.179  -0.140   0.338  0.00  0.00     0.023 A 
ATOM      5  C4  UNL d   1      -1.556  -0.085   0.560  0.00  0.00     0.048 A 
ATOM      6  C5  UNL d   1      -2.054   0.664   1.629  0.00  0.00     0.003 A 
ATOM      7  I   UNL d   1       0.567  -1.254  -1.250  0.00  0.00    -0.146 I 
ENDROOT
TORSDOF 0
ENDMDL
