MODEL 1
REMARK minimizedAffinity -1.6732949
REMARK minimizedRMSD -1
REMARK  0 active torsions:
REMARK  status: ('A' for Active; 'I' for Inactive)
ROOT
ATOM      1  C   UNL d   1       0.884   0.287   1.546  0.00  0.00     0.023 A 
ATOM      2  C1  UNL d   1       0.253   1.329   0.866  0.00  0.00     0.003 A 
ATOM      3  C2  UNL d   1       0.128   1.283  -0.524  0.00  0.00     0.048 A 
ATOM      4  C3  UNL d   1       0.636   0.193  -1.228  0.00  0.00     0.023 A 
ATOM      5  C4  UNL d   1       1.268  -0.853  -0.553  0.00  0.00     0.048 A 
ATOM      6  C5  UNL d   1       1.391  -0.803   0.837  0.00  0.00     0.003 A 
ATOM      7  I   UNL d   1       0.452   0.123  -3.297  0.00  0.00    -0.146 I 
ENDROOT
TORSDOF 0
ENDMDL
