MODEL 1
REMARK minimizedAffinity 0.209186777
REMARK minimizedRMSD -1
REMARK  0 active torsions:
REMARK  status: ('A' for Active; 'I' for Inactive)
ROOT
ATOM      1  C   UNL d   1      -0.484   1.080   3.559  0.00  0.00     0.023 A 
ATOM      2  C1  UNL d   1       0.419   1.793   2.769  0.00  0.00     0.003 A 
ATOM      3  C2  UNL d   1       0.615   1.435   1.434  0.00  0.00     0.048 A 
ATOM      4  C3  UNL d   1      -0.097   0.364   0.894  0.00  0.00     0.023 A 
ATOM      5  C4  UNL d   1      -1.002  -0.351   1.680  0.00  0.00     0.048 A 
ATOM      6  C5  UNL d   1      -1.194   0.010   3.015  0.00  0.00     0.003 A 
ATOM      7  I   UNL d   1       0.192  -0.171  -1.094  0.00  0.00    -0.146 I 
ENDROOT
TORSDOF 0
ENDMDL
