MODEL 1
REMARK minimizedAffinity -1.27458966
REMARK minimizedRMSD -1
REMARK  0 active torsions:
REMARK  status: ('A' for Active; 'I' for Inactive)
ROOT
ATOM      1  C   UNL d   1      -1.532   0.488   1.975  0.00  0.00     0.023 A 
ATOM      2  C1  UNL d   1      -0.168   0.196   1.995  0.00  0.00     0.003 A 
ATOM      3  C2  UNL d   1       0.568   0.211   0.808  0.00  0.00     0.048 A 
ATOM      4  C3  UNL d   1      -0.067   0.519  -0.395  0.00  0.00     0.023 A 
ATOM      5  C4  UNL d   1      -1.431   0.813  -0.419  0.00  0.00     0.048 A 
ATOM      6  C5  UNL d   1      -2.163   0.796   0.770  0.00  0.00     0.003 A 
ATOM      7  I   UNL d   1       1.025   0.542  -2.163  0.00  0.00    -0.146 I 
ENDROOT
TORSDOF 0
ENDMDL
