MODEL 1
REMARK minimizedAffinity -1.07549369
REMARK minimizedRMSD -1
REMARK  0 active torsions:
REMARK  status: ('A' for Active; 'I' for Inactive)
ROOT
ATOM      1  C   UNL d   1      -0.884   0.113   1.336  0.00  0.00     0.023 A 
ATOM      2  C1  UNL d   1      -1.619   0.817   0.382  0.00  0.00     0.003 A 
ATOM      3  C2  UNL d   1      -1.113   0.981  -0.909  0.00  0.00     0.048 A 
ATOM      4  C3  UNL d   1       0.128   0.438  -1.241  0.00  0.00     0.023 A 
ATOM      5  C4  UNL d   1       0.866  -0.268  -0.290  0.00  0.00     0.048 A 
ATOM      6  C5  UNL d   1       0.357  -0.429   1.000  0.00  0.00     0.003 A 
ATOM      7  I   UNL d   1       0.882   0.682  -3.162  0.00  0.00    -0.146 I 
ENDROOT
TORSDOF 0
ENDMDL
