MODEL 1
REMARK minimizedAffinity -2.37072325
REMARK minimizedRMSD -1
REMARK  0 active torsions:
REMARK  status: ('A' for Active; 'I' for Inactive)
ROOT
ATOM      1  C   UNL d   1      -0.974  -0.036   1.613  0.00  0.00     0.023 A 
ATOM      2  C1  UNL d   1       0.356  -0.433   1.466  0.00  0.00     0.003 A 
ATOM      3  C2  UNL d   1       0.959  -0.404   0.208  0.00  0.00     0.048 A 
ATOM      4  C3  UNL d   1       0.229   0.024  -0.900  0.00  0.00     0.023 A 
ATOM      5  C4  UNL d   1      -1.101   0.423  -0.758  0.00  0.00     0.048 A 
ATOM      6  C5  UNL d   1      -1.701   0.392   0.502  0.00  0.00     0.003 A 
ATOM      7  I   UNL d   1       1.125   0.068  -2.775  0.00  0.00    -0.146 I 
ENDROOT
TORSDOF 0
ENDMDL
