MODEL 1
REMARK minimizedAffinity -4.21739054
REMARK minimizedRMSD -1
REMARK  0 active torsions:
REMARK  status: ('A' for Active; 'I' for Inactive)
ROOT
ATOM      1  C   UNL d   1      -1.420   1.244   2.564  0.00  0.00     0.023 A 
ATOM      2  C1  UNL d   1      -0.037   1.344   2.405  0.00  0.00     0.003 A 
ATOM      3  C2  UNL d   1       0.558   0.954   1.203  0.00  0.00     0.048 A 
ATOM      4  C3  UNL d   1      -0.234   0.466   0.165  0.00  0.00     0.023 A 
ATOM      5  C4  UNL d   1      -1.618   0.364   0.320  0.00  0.00     0.048 A 
ATOM      6  C5  UNL d   1      -2.209   0.755   1.523  0.00  0.00     0.003 A 
ATOM      7  I   UNL d   1       0.650  -0.115  -1.624  0.00  0.00    -0.146 I 
ENDROOT
TORSDOF 0
ENDMDL
