MODEL 1
REMARK minimizedAffinity -4.40083218
REMARK minimizedRMSD -1
REMARK  0 active torsions:
REMARK  status: ('A' for Active; 'I' for Inactive)
ROOT
ATOM      1  C   UNL d   1      -1.140   1.012   2.594  0.00  0.00     0.023 A 
ATOM      2  C1  UNL d   1       0.157   1.369   2.225  0.00  0.00     0.003 A 
ATOM      3  C2  UNL d   1       0.653   1.005   0.972  0.00  0.00     0.048 A 
ATOM      4  C3  UNL d   1      -0.153   0.284   0.092  0.00  0.00     0.023 A 
ATOM      5  C4  UNL d   1      -1.452  -0.076   0.457  0.00  0.00     0.048 A 
ATOM      6  C5  UNL d   1      -1.943   0.290   1.711  0.00  0.00     0.003 A 
ATOM      7  I   UNL d   1       0.583  -0.260  -1.774  0.00  0.00    -0.146 I 
ENDROOT
TORSDOF 0
ENDMDL
