MODEL 1
REMARK minimizedAffinity -4.3946104
REMARK minimizedRMSD -1
REMARK  0 active torsions:
REMARK  status: ('A' for Active; 'I' for Inactive)
ROOT
ATOM      1  N1  IND d   1       1.914  -0.264   2.167  0.00  0.00    -0.196 N 
ATOM      2  C2  IND d   1       1.771  -0.225   3.526  0.00  0.00     0.054 A 
ATOM      3  C3  IND d   1       0.509   0.130   3.856  0.00  0.00    -0.031 A 
ATOM      4  C4  IND d   1      -1.512   0.593   2.330  0.00  0.00     0.051 A 
ATOM      5  C5  IND d   1      -1.863   0.715   1.015  0.00  0.00    -0.031 A 
ATOM      6  C6  IND d   1      -0.956   0.511  -0.004  0.00  0.00     0.015 A 
ATOM      7  C7  IND d   1       0.340   0.163   0.255  0.00  0.00    -0.016 A 
ATOM      8  C8  IND d   1       0.702   0.045   1.589  0.00  0.00    -0.047 A 
ATOM      9  C9  IND d   1      -0.204   0.293   2.629  0.00  0.00    -0.096 A 
ATOM     10  HN1 IND d   1       2.639  -0.451   1.744  0.00  0.00     0.298 HD
ENDROOT
TORSDOF 0
ENDMDL
