MODEL 1
REMARK minimizedAffinity -5.0729003
REMARK minimizedRMSD -1
REMARK  0 active torsions:
REMARK  status: ('A' for Active; 'I' for Inactive)
ROOT
ATOM      1  N1  IND d   1       0.997  -0.523  -0.500  0.00  0.00    -0.196 N 
ATOM      2  C2  IND d   1      -0.085  -0.180  -1.262  0.00  0.00     0.054 A 
ATOM      3  C3  IND d   1      -1.068   0.324  -0.482  0.00  0.00    -0.031 A 
ATOM      4  C4  IND d   1      -1.078   0.772   2.053  0.00  0.00     0.051 A 
ATOM      5  C5  IND d   1      -0.330   0.590   3.182  0.00  0.00    -0.031 A 
ATOM      6  C6  IND d   1       0.926   0.018   3.140  0.00  0.00     0.015 A 
ATOM      7  C7  IND d   1       1.487  -0.383   1.960  0.00  0.00    -0.016 A 
ATOM      8  C8  IND d   1       0.727  -0.206   0.813  0.00  0.00    -0.047 A 
ATOM      9  C9  IND d   1      -0.565   0.334   0.855  0.00  0.00    -0.096 A 
ATOM     10  HN1 IND d   1       1.724  -0.876  -0.792  0.00  0.00     0.298 HD
ENDROOT
TORSDOF 0
ENDMDL
