MODEL 1
REMARK minimizedAffinity -3.95027542
REMARK minimizedRMSD -1
REMARK  0 active torsions:
REMARK  status: ('A' for Active; 'I' for Inactive)
ROOT
ATOM      1  N1  IND d   1       1.507  -0.799   0.356  0.00  0.00    -0.196 N 
ATOM      2  C2  IND d   1       0.763  -1.388  -0.629  0.00  0.00     0.054 A 
ATOM      3  C3  IND d   1      -0.522  -0.973  -0.559  0.00  0.00    -0.031 A 
ATOM      4  C4  IND d   1      -1.603   0.744   1.025  0.00  0.00     0.051 A 
ATOM      5  C5  IND d   1      -1.334   1.522   2.116  0.00  0.00    -0.031 A 
ATOM      6  C6  IND d   1      -0.078   1.569   2.686  0.00  0.00     0.015 A 
ATOM      7  C7  IND d   1       0.963   0.845   2.177  0.00  0.00    -0.016 A 
ATOM      8  C8  IND d   1       0.691   0.048   1.073  0.00  0.00    -0.047 A 
ATOM      9  C9  IND d   1      -0.591  -0.036   0.517  0.00  0.00    -0.096 A 
ATOM     10  HN1 IND d   1       2.343  -0.936   0.503  0.00  0.00     0.298 HD
ENDROOT
TORSDOF 0
ENDMDL
