MODEL 1
REMARK minimizedAffinity -4.46467304
REMARK minimizedRMSD -1
REMARK  0 active torsions:
REMARK  status: ('A' for Active; 'I' for Inactive)
ROOT
ATOM      1  N1  IND d   1       0.360   0.614  -1.061  0.00  0.00    -0.196 N 
ATOM      2  C2  IND d   1       0.375  -0.703  -1.427  0.00  0.00     0.054 A 
ATOM      3  C3  IND d   1      -0.149  -1.470  -0.445  0.00  0.00    -0.031 A 
ATOM      4  C4  IND d   1      -1.182  -0.765   1.805  0.00  0.00     0.051 A 
ATOM      5  C5  IND d   1      -1.389   0.327   2.601  0.00  0.00    -0.031 A 
ATOM      6  C6  IND d   1      -1.019   1.596   2.207  0.00  0.00     0.015 A 
ATOM      7  C7  IND d   1      -0.435   1.823   0.993  0.00  0.00    -0.016 A 
ATOM      8  C8  IND d   1      -0.217   0.716   0.185  0.00  0.00    -0.047 A 
ATOM      9  C9  IND d   1      -0.552  -0.580   0.597  0.00  0.00    -0.096 A 
ATOM     10  HN1 IND d   1       0.660   1.268  -1.531  0.00  0.00     0.298 HD
ENDROOT
TORSDOF 0
ENDMDL
