MODEL 1
REMARK minimizedAffinity 2.94895649
REMARK minimizedRMSD -1
REMARK  0 active torsions:
REMARK  status: ('A' for Active; 'I' for Inactive)
ROOT
ATOM      1  N1  IND d   1       0.866  -1.031   1.041  0.00  0.00    -0.196 N 
ATOM      2  C2  IND d   1       0.462  -0.171   0.058  0.00  0.00     0.054 A 
ATOM      3  C3  IND d   1      -0.099   0.933   0.601  0.00  0.00    -0.031 A 
ATOM      4  C4  IND d   1      -0.365   1.583   3.078  0.00  0.00     0.051 A 
ATOM      5  C5  IND d   1      -0.181   1.102   4.344  0.00  0.00    -0.031 A 
ATOM      6  C6  IND d   1       0.376  -0.139   4.578  0.00  0.00     0.015 A 
ATOM      7  C7  IND d   1       0.781  -0.944   3.551  0.00  0.00    -0.016 A 
ATOM      8  C8  IND d   1       0.589  -0.461   2.264  0.00  0.00    -0.047 A 
ATOM      9  C9  IND d   1      -0.015   0.779   2.019  0.00  0.00    -0.096 A 
ATOM     10  HN1 IND d   1       1.231  -1.799   0.916  0.00  0.00     0.298 HD
ENDROOT
TORSDOF 0
ENDMDL
