MODEL 1
REMARK minimizedAffinity -2.73680973
REMARK minimizedRMSD -1
REMARK  0 active torsions:
REMARK  status: ('A' for Active; 'I' for Inactive)
ROOT
ATOM      1  N1  IND d   1       1.511  -1.622   1.235  0.00  0.00    -0.196 N 
ATOM      2  C2  IND d   1       2.732  -1.011   1.305  0.00  0.00     0.054 A 
ATOM      3  C3  IND d   1       2.584   0.303   1.590  0.00  0.00    -0.031 A 
ATOM      4  C4  IND d   1       0.440   1.638   2.083  0.00  0.00     0.051 A 
ATOM      5  C5  IND d   1      -0.922   1.521   2.103  0.00  0.00    -0.031 A 
ATOM      6  C6  IND d   1      -1.555   0.325   1.832  0.00  0.00     0.015 A 
ATOM      7  C7  IND d   1      -0.846  -0.806   1.540  0.00  0.00    -0.016 A 
ATOM      8  C8  IND d   1       0.537  -0.689   1.513  0.00  0.00    -0.047 A 
ATOM      9  C9  IND d   1       1.183   0.532   1.745  0.00  0.00    -0.096 A 
ATOM     10  HN1 IND d   1       1.375  -2.451   1.050  0.00  0.00     0.298 HD
ENDROOT
TORSDOF 0
ENDMDL
