MODEL 1
REMARK minimizedAffinity -6.04657984
REMARK minimizedRMSD -1
REMARK  2 active torsions:
REMARK  status: ('A' for Active; 'I' for Inactive)
REMARK    1  A    between atoms: C1_2  and  C2_3 
REMARK    2  A    between atoms: C2_3  and  C3_4 
ROOT
ATOM      1  C3  UNL d   1       0.316   0.760   0.217  0.00  0.00    -0.075 A 
ATOM      2  C4  UNL d   1      -0.237  -0.327   0.911  0.00  0.00     0.002 A 
ATOM      3  C5  UNL d   1       0.543  -1.444   1.213  0.00  0.00     0.002 A 
ATOM      4  C6  UNL d   1       1.878  -1.493   0.818  0.00  0.00    -0.004 A 
ATOM      5  C7  UNL d   1       2.432  -0.427   0.114  0.00  0.00     0.002 A 
ATOM      6  C8  UNL d   1       1.656   0.694  -0.186  0.00  0.00     0.002 A 
ENDROOT
BRANCH   1   7
ATOM      7  C2  UNL d   1      -0.514   1.984  -0.088  0.00  0.00     0.056 C 
BRANCH   7   8
ATOM      8  C1  UNL d   1      -0.623   2.308  -1.581  0.00  0.00     0.007 C 
ATOM      9  C   UNL d   1      -0.021   3.658  -1.948  0.00  0.00     0.009 C 
ENDBRANCH   7   8
ENDBRANCH   1   7
TORSDOF 2
ENDMDL
