MODEL 1
REMARK minimizedAffinity -5.09873962
REMARK minimizedRMSD -1
REMARK  2 active torsions:
REMARK  status: ('A' for Active; 'I' for Inactive)
REMARK    1  A    between atoms: C1_2  and  C2_3 
REMARK    2  A    between atoms: C2_3  and  C3_4 
ROOT
ATOM      1  C3  UNL d   1       0.514   0.387   0.167  0.00  0.00    -0.075 A 
ATOM      2  C4  UNL d   1       0.422  -0.762   0.967  0.00  0.00     0.002 A 
ATOM      3  C5  UNL d   1       1.567  -1.485   1.302  0.00  0.00     0.002 A 
ATOM      4  C6  UNL d   1       2.814  -1.077   0.834  0.00  0.00    -0.004 A 
ATOM      5  C7  UNL d   1       2.915   0.053   0.026  0.00  0.00     0.002 A 
ATOM      6  C8  UNL d   1       1.772   0.782  -0.307  0.00  0.00     0.002 A 
ENDROOT
BRANCH   1   7
ATOM      7  C2  UNL d   1      -0.718   1.191  -0.174  0.00  0.00     0.056 C 
BRANCH   7   8
ATOM      8  C1  UNL d   1      -0.491   2.248  -1.260  0.00  0.00     0.007 C 
ATOM      9  C   UNL d   1      -1.682   2.413  -2.196  0.00  0.00     0.009 C 
ENDBRANCH   7   8
ENDBRANCH   1   7
TORSDOF 2
ENDMDL
