MODEL 1
REMARK minimizedAffinity -6.22699928
REMARK minimizedRMSD -1
REMARK  2 active torsions:
REMARK  status: ('A' for Active; 'I' for Inactive)
REMARK    1  A    between atoms: C1_2  and  C2_3 
REMARK    2  A    between atoms: C2_3  and  C3_4 
ROOT
ATOM      1  C3  UNL d   1       1.029  -0.135  -0.041  0.00  0.00    -0.075 A 
ATOM      2  C4  UNL d   1       0.154   0.961  -0.009  0.00  0.00     0.002 A 
ATOM      3  C5  UNL d   1      -0.903   0.996   0.901  0.00  0.00     0.002 A 
ATOM      4  C6  UNL d   1      -1.104  -0.064   1.782  0.00  0.00    -0.004 A 
ATOM      5  C7  UNL d   1      -0.251  -1.165   1.748  0.00  0.00     0.002 A 
ATOM      6  C8  UNL d   1       0.810  -1.201   0.841  0.00  0.00     0.002 A 
ENDROOT
BRANCH   1   7
ATOM      7  C2  UNL d   1       2.193  -0.166  -1.003  0.00  0.00     0.056 C 
BRANCH   7   8
ATOM      8  C1  UNL d   1       3.558  -0.319  -0.326  0.00  0.00     0.007 C 
ATOM      9  C   UNL d   1       4.719   0.114  -1.211  0.00  0.00     0.009 C 
ENDBRANCH   7   8
ENDBRANCH   1   7
TORSDOF 2
ENDMDL
