MODEL 1
REMARK minimizedAffinity -2.94939184
REMARK minimizedRMSD -1
REMARK  2 active torsions:
REMARK  status: ('A' for Active; 'I' for Inactive)
REMARK    1  A    between atoms: C1_2  and  C2_3 
REMARK    2  A    between atoms: C2_3  and  C3_4 
ROOT
ATOM      1  C3  UNL d   1      -0.033   0.782  -0.650  0.00  0.00    -0.075 A 
ATOM      2  C4  UNL d   1      -0.126  -0.474  -0.034  0.00  0.00     0.002 A 
ATOM      3  C5  UNL d   1       1.025  -1.203   0.267  0.00  0.00     0.002 A 
ATOM      4  C6  UNL d   1       2.281  -0.691  -0.053  0.00  0.00    -0.004 A 
ATOM      5  C7  UNL d   1       2.384   0.549  -0.680  0.00  0.00     0.002 A 
ATOM      6  C8  UNL d   1       1.234   1.282  -0.978  0.00  0.00     0.002 A 
ENDROOT
BRANCH   1   7
ATOM      7  C2  UNL d   1      -1.273   1.589  -0.951  0.00  0.00     0.056 C 
BRANCH   7   8
ATOM      8  C1  UNL d   1      -1.251   2.280  -2.319  0.00  0.00     0.007 C 
ATOM      9  C   UNL d   1      -2.592   2.229  -3.039  0.00  0.00     0.009 C 
ENDBRANCH   7   8
ENDBRANCH   1   7
TORSDOF 2
ENDMDL
