MODEL 1
REMARK minimizedAffinity -2.85431099
REMARK minimizedRMSD -1
REMARK  2 active torsions:
REMARK  status: ('A' for Active; 'I' for Inactive)
REMARK    1  A    between atoms: C1_2  and  C2_3 
REMARK    2  A    between atoms: C2_3  and  C3_4 
ROOT
ATOM      1  C3  UNL d   1       0.301  -1.137   0.595  0.00  0.00    -0.075 A 
ATOM      2  C4  UNL d   1       0.666  -0.137  -0.318  0.00  0.00     0.002 A 
ATOM      3  C5  UNL d   1      -0.088   1.031  -0.429  0.00  0.00     0.002 A 
ATOM      4  C6  UNL d   1      -1.220   1.210   0.363  0.00  0.00    -0.004 A 
ATOM      5  C7  UNL d   1      -1.602   0.217   1.262  0.00  0.00     0.002 A 
ATOM      6  C8  UNL d   1      -0.847  -0.952   1.377  0.00  0.00     0.002 A 
ENDROOT
BRANCH   1   7
ATOM      7  C2  UNL d   1       1.129  -2.391   0.740  0.00  0.00     0.056 C 
BRANCH   7   8
ATOM      8  C1  UNL d   1       2.233  -2.290   1.798  0.00  0.00     0.007 C 
ATOM      9  C   UNL d   1       3.098  -1.046   1.647  0.00  0.00     0.009 C 
ENDBRANCH   7   8
ENDBRANCH   1   7
TORSDOF 2
ENDMDL
