MODEL 1
REMARK minimizedAffinity -4.46905518
REMARK minimizedRMSD -1
REMARK  2 active torsions:
REMARK  status: ('A' for Active; 'I' for Inactive)
REMARK    1  A    between atoms: C1_2  and  C2_3 
REMARK    2  A    between atoms: C2_3  and  C3_4 
ROOT
ATOM      1  C3  UNL d   1       0.204   0.525  -0.453  0.00  0.00    -0.075 A 
ATOM      2  C4  UNL d   1       0.286  -0.750   0.127  0.00  0.00     0.002 A 
ATOM      3  C5  UNL d   1       1.526  -1.352   0.341  0.00  0.00     0.002 A 
ATOM      4  C6  UNL d   1       2.697  -0.693  -0.030  0.00  0.00    -0.004 A 
ATOM      5  C7  UNL d   1       2.626   0.566  -0.622  0.00  0.00     0.002 A 
ATOM      6  C8  UNL d   1       1.387   1.173  -0.833  0.00  0.00     0.002 A 
ENDROOT
BRANCH   1   7
ATOM      7  C2  UNL d   1      -1.134   1.194  -0.660  0.00  0.00     0.056 C 
BRANCH   7   8
ATOM      8  C1  UNL d   1      -1.130   2.272  -1.750  0.00  0.00     0.007 C 
ATOM      9  C   UNL d   1      -2.380   2.250  -2.619  0.00  0.00     0.009 C 
ENDBRANCH   7   8
ENDBRANCH   1   7
TORSDOF 2
ENDMDL
