MODEL 1
REMARK minimizedAffinity -3.30936909
REMARK minimizedRMSD -1
REMARK  2 active torsions:
REMARK  status: ('A' for Active; 'I' for Inactive)
REMARK    1  A    between atoms: C1_2  and  C2_3 
REMARK    2  A    between atoms: C2_3  and  C3_4 
ROOT
ATOM      1  C3  UNL d   1       0.322  -0.053  -0.337  0.00  0.00    -0.075 A 
ATOM      2  C4  UNL d   1       1.712  -0.207  -0.235  0.00  0.00     0.002 A 
ATOM      3  C5  UNL d   1       2.257  -1.328   0.391  0.00  0.00     0.002 A 
ATOM      4  C6  UNL d   1       1.422  -2.304   0.930  0.00  0.00    -0.004 A 
ATOM      5  C7  UNL d   1       0.039  -2.154   0.849  0.00  0.00     0.002 A 
ATOM      6  C8  UNL d   1      -0.509  -1.035   0.220  0.00  0.00     0.002 A 
ENDROOT
BRANCH   1   7
ATOM      7  C2  UNL d   1      -0.274   1.144  -1.039  0.00  0.00     0.056 C 
BRANCH   7   8
ATOM      8  C1  UNL d   1      -1.431   0.801  -1.983  0.00  0.00     0.007 C 
ATOM      9  C   UNL d   1      -1.812   1.949  -2.908  0.00  0.00     0.009 C 
ENDBRANCH   7   8
ENDBRANCH   1   7
TORSDOF 2
ENDMDL
