MODEL 1
REMARK minimizedAffinity -5.21007061
REMARK minimizedRMSD -1
REMARK  2 active torsions:
REMARK  status: ('A' for Active; 'I' for Inactive)
REMARK    1  A    between atoms: C1_2  and  C2_3 
REMARK    2  A    between atoms: C2_3  and  C3_4 
ROOT
ATOM      1  C3  UNL d   1      -0.231   0.389  -0.000  0.00  0.00    -0.075 A 
ATOM      2  C4  UNL d   1       1.094   0.716  -0.324  0.00  0.00     0.002 A 
ATOM      3  C5  UNL d   1       2.124  -0.199  -0.107  0.00  0.00     0.002 A 
ATOM      4  C6  UNL d   1       1.845  -1.447   0.446  0.00  0.00    -0.004 A 
ATOM      5  C7  UNL d   1       0.535  -1.777   0.787  0.00  0.00     0.002 A 
ATOM      6  C8  UNL d   1      -0.498  -0.865   0.567  0.00  0.00     0.002 A 
ENDROOT
BRANCH   1   7
ATOM      7  C2  UNL d   1      -1.354   1.364  -0.260  0.00  0.00     0.056 C 
BRANCH   7   8
ATOM      8  C1  UNL d   1      -1.384   1.913  -1.691  0.00  0.00     0.007 C 
ATOM      9  C   UNL d   1      -2.600   1.455  -2.484  0.00  0.00     0.009 C 
ENDBRANCH   7   8
ENDBRANCH   1   7
TORSDOF 2
ENDMDL
