MODEL 1
REMARK minimizedAffinity -1.01743412
REMARK minimizedRMSD -1
REMARK  2 active torsions:
REMARK  status: ('A' for Active; 'I' for Inactive)
REMARK    1  A    between atoms: C1_2  and  C2_3 
REMARK    2  A    between atoms: C2_3  and  C3_4 
ROOT
ATOM      1  C3  UNL d   1      -0.920   2.213  -2.588  0.00  0.00    -0.075 A 
ATOM      2  C4  UNL d   1       0.274   2.947  -2.610  0.00  0.00     0.002 A 
ATOM      3  C5  UNL d   1       0.511   3.885  -3.616  0.00  0.00     0.002 A 
ATOM      4  C6  UNL d   1      -0.436   4.092  -4.616  0.00  0.00    -0.004 A 
ATOM      5  C7  UNL d   1      -1.619   3.355  -4.614  0.00  0.00     0.002 A 
ATOM      6  C8  UNL d   1      -1.860   2.420  -3.607  0.00  0.00     0.002 A 
ENDROOT
BRANCH   1   7
ATOM      7  C2  UNL d   1      -1.196   1.218  -1.486  0.00  0.00     0.056 C 
BRANCH   7   8
ATOM      8  C1  UNL d   1      -0.119   1.181  -0.396  0.00  0.00     0.007 C 
ATOM      9  C   UNL d   1      -0.365   0.106   0.654  0.00  0.00     0.009 C 
ENDBRANCH   7   8
ENDBRANCH   1   7
TORSDOF 2
ENDMDL
