MODEL 1
REMARK minimizedAffinity -3.69769263
REMARK minimizedRMSD -1
REMARK  2 active torsions:
REMARK  status: ('A' for Active; 'I' for Inactive)
REMARK    1  A    between atoms: C1_2  and  C2_3 
REMARK    2  A    between atoms: C2_3  and  C3_4 
ROOT
ATOM      1  C3  UNL d   1       0.586   0.091   0.132  0.00  0.00    -0.075 A 
ATOM      2  C4  UNL d   1      -0.173  -1.000   0.580  0.00  0.00     0.002 A 
ATOM      3  C5  UNL d   1       0.451  -2.190   0.955  0.00  0.00     0.002 A 
ATOM      4  C6  UNL d   1       1.836  -2.309   0.876  0.00  0.00    -0.004 A 
ATOM      5  C7  UNL d   1       2.599  -1.238   0.416  0.00  0.00     0.002 A 
ATOM      6  C8  UNL d   1       1.978  -0.044   0.045  0.00  0.00     0.002 A 
ENDROOT
BRANCH   1   7
ATOM      7  C2  UNL d   1      -0.081   1.392  -0.247  0.00  0.00     0.056 C 
BRANCH   7   8
ATOM      8  C1  UNL d   1      -1.555   1.247  -0.637  0.00  0.00     0.007 C 
ATOM      9  C   UNL d   1      -1.936   2.069  -1.861  0.00  0.00     0.009 C 
ENDBRANCH   7   8
ENDBRANCH   1   7
TORSDOF 2
ENDMDL
