MODEL 1
REMARK minimizedAffinity -2.39808726
REMARK minimizedRMSD -1
REMARK  2 active torsions:
REMARK  status: ('A' for Active; 'I' for Inactive)
REMARK    1  A    between atoms: C1_2  and  C2_3 
REMARK    2  A    between atoms: C2_3  and  C3_4 
ROOT
ATOM      1  C3  UNL d   1      -1.434   3.045  -3.501  0.00  0.00    -0.075 A 
ATOM      2  C4  UNL d   1      -1.056   1.773  -3.048  0.00  0.00     0.002 A 
ATOM      3  C5  UNL d   1      -2.015   0.874  -2.581  0.00  0.00     0.002 A 
ATOM      4  C6  UNL d   1      -3.359   1.237  -2.551  0.00  0.00    -0.004 A 
ATOM      5  C7  UNL d   1      -3.744   2.504  -2.984  0.00  0.00     0.002 A 
ATOM      6  C8  UNL d   1      -2.787   3.405  -3.455  0.00  0.00     0.002 A 
ENDROOT
BRANCH   1   7
ATOM      7  C2  UNL d   1      -0.404   4.012  -4.035  0.00  0.00     0.056 C 
BRANCH   7   8
ATOM      8  C1  UNL d   1       0.006   5.101  -3.038  0.00  0.00     0.007 C 
ATOM      9  C   UNL d   1       1.122   5.999  -3.554  0.00  0.00     0.009 C 
ENDBRANCH   7   8
ENDBRANCH   1   7
TORSDOF 2
ENDMDL
