MODEL 1
REMARK minimizedAffinity -3.63982701
REMARK minimizedRMSD -1
REMARK  2 active torsions:
REMARK  status: ('A' for Active; 'I' for Inactive)
REMARK    1  A    between atoms: C1_2  and  C2_3 
REMARK    2  A    between atoms: C2_3  and  C3_4 
ROOT
ATOM      1  C3  UNL d   1       0.844  -0.004  -0.288  0.00  0.00    -0.075 A 
ATOM      2  C4  UNL d   1       0.221  -1.259  -0.340  0.00  0.00     0.002 A 
ATOM      3  C5  UNL d   1       0.883  -2.398   0.120  0.00  0.00     0.002 A 
ATOM      4  C6  UNL d   1       2.176  -2.298   0.627  0.00  0.00    -0.004 A 
ATOM      5  C7  UNL d   1       2.811  -1.059   0.668  0.00  0.00     0.002 A 
ATOM      6  C8  UNL d   1       2.150   0.083   0.213  0.00  0.00     0.002 A 
ENDROOT
BRANCH   1   7
ATOM      7  C2  UNL d   1       0.122   1.237  -0.756  0.00  0.00     0.056 C 
BRANCH   7   8
ATOM      8  C1  UNL d   1      -1.377   1.245  -0.437  0.00  0.00     0.007 C 
ATOM      9  C   UNL d   1      -1.682   0.918   1.018  0.00  0.00     0.009 C 
ENDBRANCH   7   8
ENDBRANCH   1   7
TORSDOF 2
ENDMDL
