MODEL 1
REMARK minimizedAffinity 7.65939283
REMARK minimizedRMSD -1
REMARK  0 active torsions:
REMARK  status: ('A' for Active; 'I' for Inactive)
ROOT
ATOM      1  C   UNL d   1      -1.281   3.135   2.225  0.00  0.00     0.023 A 
ATOM      2  C1  UNL d   1      -1.051   1.779   1.993  0.00  0.00     0.003 A 
ATOM      3  C2  UNL d   1      -0.527   1.358   0.769  0.00  0.00     0.048 A 
ATOM      4  C3  UNL d   1      -0.235   2.299  -0.219  0.00  0.00     0.023 A 
ATOM      5  C4  UNL d   1      -0.463   3.657   0.010  0.00  0.00     0.048 A 
ATOM      6  C5  UNL d   1      -0.988   4.073   1.235  0.00  0.00     0.003 A 
ATOM      7  I   UNL d   1       0.545   1.675  -2.041  0.00  0.00    -0.146 I 
ENDROOT
TORSDOF 0
ENDMDL
