MODEL 1
REMARK minimizedAffinity 3.7115922
REMARK minimizedRMSD -1
REMARK  0 active torsions:
REMARK  status: ('A' for Active; 'I' for Inactive)
ROOT
ATOM      1  C   UNL d   1       0.043   0.230  -3.929  0.00  0.00     0.023 A 
ATOM      2  C1  UNL d   1      -1.227   0.005  -3.397  0.00  0.00     0.003 A 
ATOM      3  C2  UNL d   1      -1.573   0.547  -2.158  0.00  0.00     0.048 A 
ATOM      4  C3  UNL d   1      -0.644   1.314  -1.456  0.00  0.00     0.023 A 
ATOM      5  C4  UNL d   1       0.627   1.544  -1.984  0.00  0.00     0.048 A 
ATOM      6  C5  UNL d   1       0.969   0.999  -3.224  0.00  0.00     0.003 A 
ATOM      7  I   UNL d   1      -1.156   2.123   0.389  0.00  0.00    -0.146 I 
ENDROOT
TORSDOF 0
ENDMDL
