MODEL 1
REMARK minimizedAffinity 1.64279783
REMARK minimizedRMSD -1
REMARK  0 active torsions:
REMARK  status: ('A' for Active; 'I' for Inactive)
ROOT
ATOM      1  C   UNL d   1       0.052   0.259  -3.618  0.00  0.00     0.023 A 
ATOM      2  C1  UNL d   1       0.850   1.305  -3.156  0.00  0.00     0.003 A 
ATOM      3  C2  UNL d   1       0.604   1.874  -1.905  0.00  0.00     0.048 A 
ATOM      4  C3  UNL d   1      -0.442   1.390  -1.120  0.00  0.00     0.023 A 
ATOM      5  C4  UNL d   1      -1.243   0.343  -1.577  0.00  0.00     0.048 A 
ATOM      6  C5  UNL d   1      -0.993  -0.222  -2.829  0.00  0.00     0.003 A 
ATOM      7  I   UNL d   1      -0.811   2.235   0.743  0.00  0.00    -0.146 I 
ENDROOT
TORSDOF 0
ENDMDL
