MODEL 1
REMARK minimizedAffinity 6.80109215
REMARK minimizedRMSD -1
REMARK  0 active torsions:
REMARK  status: ('A' for Active; 'I' for Inactive)
ROOT
ATOM      1  C   UNL d   1      -1.234   1.252   3.666  0.00  0.00     0.023 A 
ATOM      2  C1  UNL d   1       0.078   1.653   3.412  0.00  0.00     0.003 A 
ATOM      3  C2  UNL d   1       0.387   2.327   2.229  0.00  0.00     0.048 A 
ATOM      4  C3  UNL d   1      -0.622   2.599   1.305  0.00  0.00     0.023 A 
ATOM      5  C4  UNL d   1      -1.936   2.201   1.555  0.00  0.00     0.048 A 
ATOM      6  C5  UNL d   1      -2.239   1.526   2.739  0.00  0.00     0.003 A 
ATOM      7  I   UNL d   1      -0.165   3.603  -0.457  0.00  0.00    -0.146 I 
ENDROOT
TORSDOF 0
ENDMDL
