MODEL 1
REMARK minimizedAffinity 13.7786894
REMARK minimizedRMSD -1
REMARK  0 active torsions:
REMARK  status: ('A' for Active; 'I' for Inactive)
ROOT
ATOM      1  C   UNL d   1       2.168  -6.000  -2.860  0.00  0.00     0.023 A 
ATOM      2  C1  UNL d   1       3.250  -5.999  -1.980  0.00  0.00     0.003 A 
ATOM      3  C2  UNL d   1       3.310  -5.063  -0.945  0.00  0.00     0.048 A 
ATOM      4  C3  UNL d   1       2.282  -4.132  -0.795  0.00  0.00     0.023 A 
ATOM      5  C4  UNL d   1       1.197  -4.130  -1.672  0.00  0.00     0.048 A 
ATOM      6  C5  UNL d   1       1.143  -5.067  -2.706  0.00  0.00     0.003 A 
ATOM      7  I   UNL d   1       2.368  -2.739   0.745  0.00  0.00    -0.146 I 
ENDROOT
TORSDOF 0
ENDMDL
