MODEL 1
REMARK minimizedAffinity 6.75825119
REMARK minimizedRMSD -1
REMARK  0 active torsions:
REMARK  status: ('A' for Active; 'I' for Inactive)
ROOT
ATOM      1  C   UNL d   1       2.251  -6.000  -2.338  0.00  0.00     0.023 A 
ATOM      2  C1  UNL d   1       1.299  -4.980  -2.312  0.00  0.00     0.003 A 
ATOM      3  C2  UNL d   1       1.460  -3.895  -1.448  0.00  0.00     0.048 A 
ATOM      4  C3  UNL d   1       2.575  -3.836  -0.613  0.00  0.00     0.023 A 
ATOM      5  C4  UNL d   1       3.530  -4.853  -0.635  0.00  0.00     0.048 A 
ATOM      6  C5  UNL d   1       3.365  -5.936  -1.500  0.00  0.00     0.003 A 
ATOM      7  I   UNL d   1       2.816  -2.221   0.674  0.00  0.00    -0.146 I 
ENDROOT
TORSDOF 0
ENDMDL
