MODEL 1
REMARK minimizedAffinity 4.43460941
REMARK minimizedRMSD -1
REMARK  0 active torsions:
REMARK  status: ('A' for Active; 'I' for Inactive)
ROOT
ATOM      1  C   UNL d   1       0.374   4.127  -0.757  0.00  0.00     0.023 A 
ATOM      2  C1  UNL d   1      -0.372   3.339   0.120  0.00  0.00     0.003 A 
ATOM      3  C2  UNL d   1      -1.488   3.875   0.766  0.00  0.00     0.048 A 
ATOM      4  C3  UNL d   1      -1.853   5.200   0.529  0.00  0.00     0.023 A 
ATOM      5  C4  UNL d   1      -1.111   5.992  -0.348  0.00  0.00     0.048 A 
ATOM      6  C5  UNL d   1       0.005   5.452  -0.991  0.00  0.00     0.003 A 
ATOM      7  I   UNL d   1      -3.514   6.000   1.489  0.00  0.00    -0.146 I 
ENDROOT
TORSDOF 0
ENDMDL
