MODEL 1
REMARK minimizedAffinity 7.19386959
REMARK minimizedRMSD -1
REMARK  0 active torsions:
REMARK  status: ('A' for Active; 'I' for Inactive)
ROOT
ATOM      1  C   UNL d   1      -0.723   4.923  -1.472  0.00  0.00     0.023 A 
ATOM      2  C1  UNL d   1      -1.363   5.228  -0.270  0.00  0.00     0.003 A 
ATOM      3  C2  UNL d   1      -1.315   4.327   0.796  0.00  0.00     0.048 A 
ATOM      4  C3  UNL d   1      -0.625   3.124   0.654  0.00  0.00     0.023 A 
ATOM      5  C4  UNL d   1       0.018   2.815  -0.546  0.00  0.00     0.048 A 
ATOM      6  C5  UNL d   1      -0.033   3.719  -1.609  0.00  0.00     0.003 A 
ATOM      7  I   UNL d   1      -0.552   1.782   2.239  0.00  0.00    -0.146 I 
ENDROOT
TORSDOF 0
ENDMDL
