MODEL 1
REMARK minimizedAffinity 6.2641449
REMARK minimizedRMSD -1
REMARK  0 active torsions:
REMARK  status: ('A' for Active; 'I' for Inactive)
ROOT
ATOM      1  C   UNL d   1       0.455   3.100   0.175  0.00  0.00     0.023 A 
ATOM      2  C1  UNL d   1       0.476   3.773  -1.046  0.00  0.00     0.003 A 
ATOM      3  C2  UNL d   1      -0.431   3.428  -2.051  0.00  0.00     0.048 A 
ATOM      4  C3  UNL d   1      -1.356   2.409  -1.826  0.00  0.00     0.023 A 
ATOM      5  C4  UNL d   1      -1.381   1.733  -0.605  0.00  0.00     0.048 A 
ATOM      6  C5  UNL d   1      -0.472   2.081   0.395  0.00  0.00     0.003 A 
ATOM      7  I   UNL d   1      -2.707   1.894  -3.320  0.00  0.00    -0.146 I 
ENDROOT
TORSDOF 0
ENDMDL
