MODEL 1
REMARK minimizedAffinity 5.41805696
REMARK minimizedRMSD -1
REMARK  0 active torsions:
REMARK  status: ('A' for Active; 'I' for Inactive)
ROOT
ATOM      1  C   UNL d   1      -2.401   1.397   0.195  0.00  0.00     0.023 A 
ATOM      2  C1  UNL d   1      -1.158   1.480  -0.431  0.00  0.00     0.003 A 
ATOM      3  C2  UNL d   1      -0.061   2.003   0.257  0.00  0.00     0.048 A 
ATOM      4  C3  UNL d   1      -0.215   2.439   1.573  0.00  0.00     0.023 A 
ATOM      5  C4  UNL d   1      -1.457   2.357   2.204  0.00  0.00     0.048 A 
ATOM      6  C5  UNL d   1      -2.550   1.835   1.511  0.00  0.00     0.003 A 
ATOM      7  I   UNL d   1       1.416   3.218   2.599  0.00  0.00    -0.146 I 
ENDROOT
TORSDOF 0
ENDMDL
