MODEL 1
REMARK minimizedAffinity 14.3489971
REMARK minimizedRMSD -1
REMARK  0 active torsions:
REMARK  status: ('A' for Active; 'I' for Inactive)
ROOT
ATOM      1  C   UNL d   1       2.535  -5.997  -2.996  0.00  0.00     0.023 A 
ATOM      2  C1  UNL d   1       1.507  -5.066  -3.148  0.00  0.00     0.003 A 
ATOM      3  C2  UNL d   1       1.312  -4.076  -2.183  0.00  0.00     0.048 A 
ATOM      4  C3  UNL d   1       2.150  -4.022  -1.069  0.00  0.00     0.023 A 
ATOM      5  C4  UNL d   1       3.180  -4.951  -0.913  0.00  0.00     0.048 A 
ATOM      6  C5  UNL d   1       3.370  -5.940  -1.880  0.00  0.00     0.003 A 
ATOM      7  I   UNL d   1       1.862  -2.548   0.368  0.00  0.00    -0.146 I 
ENDROOT
TORSDOF 0
ENDMDL
