MODEL 1
REMARK minimizedAffinity 8.71808624
REMARK minimizedRMSD -1
REMARK  0 active torsions:
REMARK  status: ('A' for Active; 'I' for Inactive)
ROOT
ATOM      1  C   UNL d   1       0.708   2.682   0.653  0.00  0.00     0.023 A 
ATOM      2  C1  UNL d   1       1.147   3.669  -0.230  0.00  0.00     0.003 A 
ATOM      3  C2  UNL d   1       0.468   3.883  -1.432  0.00  0.00     0.048 A 
ATOM      4  C3  UNL d   1      -0.648   3.107  -1.743  0.00  0.00     0.023 A 
ATOM      5  C4  UNL d   1      -1.091   2.120  -0.862  0.00  0.00     0.048 A 
ATOM      6  C5  UNL d   1      -0.409   1.909   0.338  0.00  0.00     0.003 A 
ATOM      7  I   UNL d   1      -1.659   3.424  -3.531  0.00  0.00    -0.146 I 
ENDROOT
TORSDOF 0
ENDMDL
