MODEL 1
REMARK minimizedAffinity 15.3484488
REMARK minimizedRMSD -1
REMARK  0 active torsions:
REMARK  status: ('A' for Active; 'I' for Inactive)
ROOT
ATOM      1  C   UNL d   1      -4.496   4.487  -1.473  0.00  0.00     0.023 A 
ATOM      2  C1  UNL d   1      -3.838   3.892  -0.396  0.00  0.00     0.003 A 
ATOM      3  C2  UNL d   1      -4.094   4.325   0.906  0.00  0.00     0.048 A 
ATOM      4  C3  UNL d   1      -5.011   5.353   1.126  0.00  0.00     0.023 A 
ATOM      5  C4  UNL d   1      -5.673   5.950   0.052  0.00  0.00     0.048 A 
ATOM      6  C5  UNL d   1      -5.413   5.515  -1.249  0.00  0.00     0.003 A 
ATOM      7  I   UNL d   1      -5.394   5.999   3.064  0.00  0.00    -0.146 I 
ENDROOT
TORSDOF 0
ENDMDL
