MODEL 1
REMARK minimizedAffinity 8.80431366
REMARK minimizedRMSD -1
REMARK  0 active torsions:
REMARK  status: ('A' for Active; 'I' for Inactive)
ROOT
ATOM      1  C   UNL d   1       0.693   3.325   0.156  0.00  0.00     0.023 A 
ATOM      2  C1  UNL d   1       1.015   3.607  -1.171  0.00  0.00     0.003 A 
ATOM      3  C2  UNL d   1       0.105   3.314  -2.189  0.00  0.00     0.048 A 
ATOM      4  C3  UNL d   1      -1.125   2.740  -1.873  0.00  0.00     0.023 A 
ATOM      5  C4  UNL d   1      -1.452   2.457  -0.546  0.00  0.00     0.048 A 
ATOM      6  C5  UNL d   1      -0.539   2.750   0.469  0.00  0.00     0.003 A 
ATOM      7  I   UNL d   1      -2.481   2.303  -3.386  0.00  0.00    -0.146 I 
ENDROOT
TORSDOF 0
ENDMDL
