MODEL 1
REMARK minimizedAffinity -4.12347984
REMARK minimizedRMSD -1
REMARK  0 active torsions:
REMARK  status: ('A' for Active; 'I' for Inactive)
ROOT
ATOM      1  C   UNL d   1      -0.130   2.744  -4.413  0.00  0.00     0.077 C 
ATOM      2  C1  UNL d   1      -0.860   2.167  -3.236  0.00  0.00    -0.074 A 
ATOM      3  C2  UNL d   1      -2.257   2.111  -3.214  0.00  0.00    -0.005 A 
ATOM      4  C3  UNL d   1      -2.921   1.563  -2.117  0.00  0.00     0.006 A 
ATOM      5  C4  UNL d   1      -2.197   1.067  -1.033  0.00  0.00    -0.005 A 
ATOM      6  C5  UNL d   1      -0.799   1.114  -1.037  0.00  0.00    -0.074 A 
ATOM      7  C6  UNL d   1      -0.005   0.576   0.116  0.00  0.00     0.077 C 
ATOM      8  C7  UNL d   1      -0.138   1.660  -2.146  0.00  0.00    -0.001 A 
ENDROOT
TORSDOF 0
ENDMDL
