MODEL 1
REMARK minimizedAffinity -4.62250519
REMARK minimizedRMSD -1
REMARK  0 active torsions:
REMARK  status: ('A' for Active; 'I' for Inactive)
ROOT
ATOM      1  C   UNL d   1       0.928  -3.358   1.341  0.00  0.00     0.077 C 
ATOM      2  C1  UNL d   1       0.986  -1.969   0.779  0.00  0.00    -0.074 A 
ATOM      3  C2  UNL d   1       2.203  -1.289   0.666  0.00  0.00    -0.005 A 
ATOM      4  C3  UNL d   1       2.242  -0.001   0.132  0.00  0.00     0.006 A 
ATOM      5  C4  UNL d   1       1.066   0.619  -0.294  0.00  0.00    -0.005 A 
ATOM      6  C5  UNL d   1      -0.160  -0.046  -0.189  0.00  0.00    -0.074 A 
ATOM      7  C6  UNL d   1      -1.431   0.602  -0.651  0.00  0.00     0.077 C 
ATOM      8  C7  UNL d   1      -0.190  -1.343   0.342  0.00  0.00    -0.001 A 
ENDROOT
TORSDOF 0
ENDMDL
