MODEL 1
REMARK minimizedAffinity -4.17301178
REMARK minimizedRMSD -1
REMARK  0 active torsions:
REMARK  status: ('A' for Active; 'I' for Inactive)
ROOT
ATOM      1  C   UNL d   1      -1.114   1.435  -0.183  0.00  0.00     0.077 C 
ATOM      2  C1  UNL d   1       0.082   0.543  -0.038  0.00  0.00    -0.074 A 
ATOM      3  C2  UNL d   1       1.374   1.029  -0.265  0.00  0.00    -0.005 A 
ATOM      4  C3  UNL d   1       2.477   0.189  -0.117  0.00  0.00     0.006 A 
ATOM      5  C4  UNL d   1       2.301  -1.143   0.259  0.00  0.00    -0.005 A 
ATOM      6  C5  UNL d   1       1.018  -1.647   0.492  0.00  0.00    -0.074 A 
ATOM      7  C6  UNL d   1       0.812  -3.073   0.906  0.00  0.00     0.077 C 
ATOM      8  C7  UNL d   1      -0.086  -0.795   0.348  0.00  0.00    -0.001 A 
ENDROOT
TORSDOF 0
ENDMDL
