MODEL 1
REMARK minimizedAffinity -6.26856422
REMARK minimizedRMSD -1
REMARK  0 active torsions:
REMARK  status: ('A' for Active; 'I' for Inactive)
ROOT
ATOM      1  C   UNL d   1       1.553   0.011  -0.880  0.00  0.00     0.077 C 
ATOM      2  C1  UNL d   1       1.181  -0.968   0.194  0.00  0.00    -0.074 A 
ATOM      3  C2  UNL d   1       1.858  -2.184   0.325  0.00  0.00    -0.005 A 
ATOM      4  C3  UNL d   1       1.507  -3.080   1.335  0.00  0.00     0.006 A 
ATOM      5  C4  UNL d   1       0.476  -2.769   2.223  0.00  0.00    -0.005 A 
ATOM      6  C5  UNL d   1      -0.213  -1.557   2.107  0.00  0.00    -0.074 A 
ATOM      7  C6  UNL d   1      -1.317  -1.203   3.059  0.00  0.00     0.077 C 
ATOM      8  C7  UNL d   1       0.151  -0.659   1.094  0.00  0.00    -0.001 A 
ENDROOT
TORSDOF 0
ENDMDL
