MODEL 1
REMARK minimizedAffinity -4.25802898
REMARK minimizedRMSD -1
REMARK  0 active torsions:
REMARK  status: ('A' for Active; 'I' for Inactive)
ROOT
ATOM      1  C   UNL d   1       1.609  -2.839   0.745  0.00  0.00     0.077 C 
ATOM      2  C1  UNL d   1       1.495  -1.474   0.134  0.00  0.00    -0.074 A 
ATOM      3  C2  UNL d   1       2.523  -0.952  -0.657  0.00  0.00    -0.005 A 
ATOM      4  C3  UNL d   1       2.399   0.315  -1.227  0.00  0.00     0.006 A 
ATOM      5  C4  UNL d   1       1.247   1.073  -1.010  0.00  0.00    -0.005 A 
ATOM      6  C5  UNL d   1       0.208   0.567  -0.222  0.00  0.00    -0.074 A 
ATOM      7  C6  UNL d   1      -1.041   1.365   0.013  0.00  0.00     0.077 C 
ATOM      8  C7  UNL d   1       0.338  -0.710   0.341  0.00  0.00    -0.001 A 
ENDROOT
TORSDOF 0
ENDMDL
