MODEL 1
REMARK minimizedAffinity -4.58686209
REMARK minimizedRMSD -1
REMARK  0 active torsions:
REMARK  status: ('A' for Active; 'I' for Inactive)
ROOT
ATOM      1  C   UNL d   1      -1.063   1.721  -3.509  0.00  0.00     0.077 C 
ATOM      2  C1  UNL d   1      -0.975   1.348  -2.059  0.00  0.00    -0.074 A 
ATOM      3  C2  UNL d   1      -1.845   1.910  -1.119  0.00  0.00    -0.005 A 
ATOM      4  C3  UNL d   1      -1.758   1.546   0.225  0.00  0.00     0.006 A 
ATOM      5  C4  UNL d   1      -0.802   0.618   0.641  0.00  0.00    -0.005 A 
ATOM      6  C5  UNL d   1       0.075   0.045  -0.285  0.00  0.00    -0.074 A 
ATOM      7  C6  UNL d   1       1.102  -0.961   0.144  0.00  0.00     0.077 C 
ATOM      8  C7  UNL d   1      -0.023   0.411  -1.635  0.00  0.00    -0.001 A 
ENDROOT
TORSDOF 0
ENDMDL
