MODEL 1
REMARK minimizedAffinity -4.09863281
REMARK minimizedRMSD -1
REMARK  0 active torsions:
REMARK  status: ('A' for Active; 'I' for Inactive)
ROOT
ATOM      1  C   UNL d   1       1.052  -2.978   0.868  0.00  0.00     0.077 C 
ATOM      2  C1  UNL d   1       1.149  -1.510   0.575  0.00  0.00    -0.074 A 
ATOM      3  C2  UNL d   1       2.301  -0.967  -0.003  0.00  0.00    -0.005 A 
ATOM      4  C3  UNL d   1       2.373   0.398  -0.278  0.00  0.00     0.006 A 
ATOM      5  C4  UNL d   1       1.296   1.233   0.022  0.00  0.00    -0.005 A 
ATOM      6  C5  UNL d   1       0.136   0.708   0.600  0.00  0.00    -0.074 A 
ATOM      7  C6  UNL d   1      -1.035   1.590   0.920  0.00  0.00     0.077 C 
ATOM      8  C7  UNL d   1       0.069  -0.666   0.867  0.00  0.00    -0.001 A 
ENDROOT
TORSDOF 0
ENDMDL
