MODEL 1
REMARK minimizedAffinity -5.36775017
REMARK minimizedRMSD -1
REMARK  0 active torsions:
REMARK  status: ('A' for Active; 'I' for Inactive)
ROOT
ATOM      1  C   UNL d   1       0.762  -3.134   1.775  0.00  0.00     0.077 C 
ATOM      2  C1  UNL d   1       1.089  -1.930   0.943  0.00  0.00    -0.074 A 
ATOM      3  C2  UNL d   1       2.375  -1.742   0.424  0.00  0.00    -0.005 A 
ATOM      4  C3  UNL d   1       2.662  -0.622  -0.356  0.00  0.00     0.006 A 
ATOM      5  C4  UNL d   1       1.668   0.320  -0.626  0.00  0.00    -0.005 A 
ATOM      6  C5  UNL d   1       0.377   0.148  -0.117  0.00  0.00    -0.074 A 
ATOM      7  C6  UNL d   1      -0.705   1.146  -0.405  0.00  0.00     0.077 C 
ATOM      8  C7  UNL d   1       0.094  -0.983   0.661  0.00  0.00    -0.001 A 
ENDROOT
TORSDOF 0
ENDMDL
