MODEL 1
REMARK minimizedAffinity -2.68116164
REMARK minimizedRMSD -1
REMARK  0 active torsions:
REMARK  status: ('A' for Active; 'I' for Inactive)
ROOT
ATOM      1  C   UNL d   1      -1.003   1.317   0.080  0.00  0.00     0.077 C 
ATOM      2  C1  UNL d   1       0.186   0.404   0.044  0.00  0.00    -0.074 A 
ATOM      3  C2  UNL d   1       1.288   0.689  -0.769  0.00  0.00    -0.005 A 
ATOM      4  C3  UNL d   1       2.391  -0.165  -0.784  0.00  0.00     0.006 A 
ATOM      5  C4  UNL d   1       2.403  -1.311   0.011  0.00  0.00    -0.005 A 
ATOM      6  C5  UNL d   1       1.311  -1.612   0.831  0.00  0.00    -0.074 A 
ATOM      7  C6  UNL d   1       1.313  -2.835   1.700  0.00  0.00     0.077 C 
ATOM      8  C7  UNL d   1       0.210  -0.746   0.847  0.00  0.00    -0.001 A 
ENDROOT
TORSDOF 0
ENDMDL
