MODEL 1
REMARK minimizedAffinity -2.42256975
REMARK minimizedRMSD -1
REMARK  0 active torsions:
REMARK  status: ('A' for Active; 'I' for Inactive)
ROOT
ATOM      1  C   UNL d   1       1.533  -2.947   1.124  0.00  0.00     0.077 C 
ATOM      2  C1  UNL d   1       1.433  -1.644   0.388  0.00  0.00    -0.074 A 
ATOM      3  C2  UNL d   1       2.481  -1.194  -0.422  0.00  0.00    -0.005 A 
ATOM      4  C3  UNL d   1       2.370   0.015  -1.108  0.00  0.00     0.006 A 
ATOM      5  C4  UNL d   1       1.212   0.785  -0.993  0.00  0.00    -0.005 A 
ATOM      6  C5  UNL d   1       0.154   0.351  -0.188  0.00  0.00    -0.074 A 
ATOM      7  C6  UNL d   1      -1.102   1.161  -0.060  0.00  0.00     0.077 C 
ATOM      8  C7  UNL d   1       0.270  -0.869   0.493  0.00  0.00    -0.001 A 
ENDROOT
TORSDOF 0
ENDMDL
