MODEL 1
REMARK minimizedAffinity -3.01078653
REMARK minimizedRMSD -1
REMARK  0 active torsions:
REMARK  status: ('A' for Active; 'I' for Inactive)
ROOT
ATOM      1  C   UNL d   1      -1.098   1.161   0.323  0.00  0.00     0.077 C 
ATOM      2  C1  UNL d   1      -1.579   1.519  -1.052  0.00  0.00    -0.074 A 
ATOM      3  C2  UNL d   1      -2.904   1.284  -1.433  0.00  0.00    -0.005 A 
ATOM      4  C3  UNL d   1      -3.340   1.630  -2.712  0.00  0.00     0.006 A 
ATOM      5  C4  UNL d   1      -2.457   2.214  -3.621  0.00  0.00    -0.005 A 
ATOM      6  C5  UNL d   1      -1.129   2.458  -3.258  0.00  0.00    -0.074 A 
ATOM      7  C6  UNL d   1      -0.170   3.094  -4.219  0.00  0.00     0.077 C 
ATOM      8  C7  UNL d   1      -0.700   2.113  -1.969  0.00  0.00    -0.001 A 
ENDROOT
TORSDOF 0
ENDMDL
