MODEL 1
REMARK minimizedAffinity -1.79697502
REMARK minimizedRMSD -1
REMARK  0 active torsions:
REMARK  status: ('A' for Active; 'I' for Inactive)
ROOT
ATOM      1  C   UNL d   1      -1.937   0.840   1.267  0.00  0.00     0.077 C 
ATOM      2  C1  UNL d   1      -0.674   0.290   0.675  0.00  0.00    -0.074 A 
ATOM      3  C2  UNL d   1       0.349   1.142   0.245  0.00  0.00    -0.005 A 
ATOM      4  C3  UNL d   1       1.522   0.615  -0.294  0.00  0.00     0.006 A 
ATOM      5  C4  UNL d   1       1.685  -0.766  -0.409  0.00  0.00    -0.005 A 
ATOM      6  C5  UNL d   1       0.673  -1.633   0.016  0.00  0.00    -0.074 A 
ATOM      7  C6  UNL d   1       0.835  -3.121  -0.092  0.00  0.00     0.077 C 
ATOM      8  C7  UNL d   1      -0.500  -1.097   0.563  0.00  0.00    -0.001 A 
ENDROOT
TORSDOF 0
ENDMDL
