MODEL 1
REMARK minimizedAffinity -3.99576139
REMARK minimizedRMSD -1
REMARK  0 active torsions:
REMARK  status: ('A' for Active; 'I' for Inactive)
ROOT
ATOM      1  C   UNL d   1      -1.218   1.407  -1.656  0.00  0.00     0.077 C 
ATOM      2  C1  UNL d   1      -0.961   0.459  -0.522  0.00  0.00    -0.074 A 
ATOM      3  C2  UNL d   1      -1.740   0.500   0.639  0.00  0.00    -0.005 A 
ATOM      4  C3  UNL d   1      -1.495  -0.394   1.681  0.00  0.00     0.006 A 
ATOM      5  C4  UNL d   1      -0.471  -1.336   1.574  0.00  0.00    -0.005 A 
ATOM      6  C5  UNL d   1       0.317  -1.392   0.420  0.00  0.00    -0.074 A 
ATOM      7  C6  UNL d   1       1.415  -2.404   0.284  0.00  0.00     0.077 C 
ATOM      8  C7  UNL d   1       0.061  -0.495  -0.626  0.00  0.00    -0.001 A 
ENDROOT
TORSDOF 0
ENDMDL
