MODEL 1
REMARK minimizedAffinity -5.10419416
REMARK minimizedRMSD -1
REMARK  0 active torsions:
REMARK  status: ('A' for Active; 'I' for Inactive)
ROOT
ATOM      1  C   UNL d   1      -0.564   1.914  -1.311  0.00  0.00     0.077 C 
ATOM      2  C1  UNL d   1      -0.608   0.789  -0.320  0.00  0.00    -0.074 A 
ATOM      3  C2  UNL d   1      -1.478   0.827   0.774  0.00  0.00    -0.005 A 
ATOM      4  C3  UNL d   1      -1.514  -0.231   1.681  0.00  0.00     0.006 A 
ATOM      5  C4  UNL d   1      -0.682  -1.337   1.504  0.00  0.00    -0.005 A 
ATOM      6  C5  UNL d   1       0.194  -1.394   0.416  0.00  0.00    -0.074 A 
ATOM      7  C6  UNL d   1       1.089  -2.579   0.206  0.00  0.00     0.077 C 
ATOM      8  C7  UNL d   1       0.220  -0.329  -0.496  0.00  0.00    -0.001 A 
ENDROOT
TORSDOF 0
ENDMDL
