MODEL 1
REMARK minimizedAffinity -2.46431875
REMARK minimizedRMSD -1
REMARK  0 active torsions:
REMARK  status: ('A' for Active; 'I' for Inactive)
ROOT
ATOM      1  C   UNL d   1       1.338  -3.327   0.606  0.00  0.00     0.077 C 
ATOM      2  C1  UNL d   1       1.128  -1.893   0.218  0.00  0.00    -0.074 A 
ATOM      3  C2  UNL d   1       2.187  -0.981   0.236  0.00  0.00    -0.005 A 
ATOM      4  C3  UNL d   1       1.978   0.347  -0.137  0.00  0.00     0.006 A 
ATOM      5  C4  UNL d   1       0.710   0.775  -0.531  0.00  0.00    -0.005 A 
ATOM      6  C5  UNL d   1      -0.361  -0.124  -0.556  0.00  0.00    -0.074 A 
ATOM      7  C6  UNL d   1      -1.729   0.317  -0.987  0.00  0.00     0.077 C 
ATOM      8  C7  UNL d   1      -0.142  -1.458  -0.187  0.00  0.00    -0.001 A 
ENDROOT
TORSDOF 0
ENDMDL
