MODEL 1
REMARK minimizedAffinity 1.46266413
REMARK minimizedRMSD -1
REMARK  0 active torsions:
REMARK  status: ('A' for Active; 'I' for Inactive)
ROOT
ATOM      1  O1  BZF d   1       3.078  -5.688  -2.570  0.00  0.00    -0.204 OA
ATOM      2  C2  BZF d   1       1.834  -5.943  -3.114  0.00  0.00     0.174 A 
ATOM      3  C3  BZF d   1       1.897  -5.966  -4.461  0.00  0.00    -0.012 A 
ATOM      4  C3A BZF d   1       3.283  -5.802  -4.776  0.00  0.00    -0.107 A 
ATOM      5  C4  BZF d   1       3.981  -5.758  -5.949  0.00  0.00     0.055 A 
ATOM      6  C5  BZF d   1       5.317  -5.512  -5.914  0.00  0.00    -0.016 A 
ATOM      7  C6  BZF d   1       5.986  -5.300  -4.726  0.00  0.00     0.022 A 
ATOM      8  C7  BZF d   1       5.337  -5.340  -3.536  0.00  0.00     0.029 A 
ATOM      9  C7A BZF d   1       3.993  -5.621  -3.566  0.00  0.00     0.058 A 
ENDROOT
TORSDOF 0
ENDMDL
