MODEL 1
REMARK minimizedAffinity 4.23556948
REMARK minimizedRMSD -1
REMARK  0 active torsions:
REMARK  status: ('A' for Active; 'I' for Inactive)
ROOT
ATOM      1  O1  BZF d   1       5.999   4.123   0.997  0.00  0.00    -0.204 OA
ATOM      2  C2  BZF d   1       5.932   4.752   2.225  0.00  0.00     0.174 A 
ATOM      3  C3  BZF d   1       4.753   4.498   2.828  0.00  0.00    -0.012 A 
ATOM      4  C3A BZF d   1       4.076   3.583   1.962  0.00  0.00    -0.107 A 
ATOM      5  C4  BZF d   1       2.867   2.950   2.024  0.00  0.00     0.055 A 
ATOM      6  C5  BZF d   1       2.471   2.178   0.978  0.00  0.00    -0.016 A 
ATOM      7  C6  BZF d   1       3.256   2.020  -0.146  0.00  0.00     0.022 A 
ATOM      8  C7  BZF d   1       4.465   2.623  -0.251  0.00  0.00     0.029 A 
ATOM      9  C7A BZF d   1       4.882   3.378   0.818  0.00  0.00     0.058 A 
ENDROOT
TORSDOF 0
ENDMDL
