MODEL 1
REMARK minimizedAffinity 3.40562654
REMARK minimizedRMSD -1
REMARK  0 active torsions:
REMARK  status: ('A' for Active; 'I' for Inactive)
ROOT
ATOM      1  O1  BZF d   1       4.451  -3.662  -2.881  0.00  0.00    -0.204 OA
ATOM      2  C2  BZF d   1       5.677  -3.198  -3.316  0.00  0.00     0.174 A 
ATOM      3  C3  BZF d   1       5.998  -3.739  -4.509  0.00  0.00    -0.012 A 
ATOM      4  C3A BZF d   1       4.861  -4.524  -4.884  0.00  0.00    -0.107 A 
ATOM      5  C4  BZF d   1       4.569  -5.291  -5.975  0.00  0.00     0.055 A 
ATOM      6  C5  BZF d   1       3.402  -5.986  -6.000  0.00  0.00    -0.016 A 
ATOM      7  C6  BZF d   1       2.507  -5.941  -4.951  0.00  0.00     0.022 A 
ATOM      8  C7  BZF d   1       2.751  -5.190  -3.849  0.00  0.00     0.029 A 
ATOM      9  C7A BZF d   1       3.915  -4.461  -3.835  0.00  0.00     0.058 A 
ENDROOT
TORSDOF 0
ENDMDL
