MODEL 1
REMARK minimizedAffinity 18.7582798
REMARK minimizedRMSD -1
REMARK  0 active torsions:
REMARK  status: ('A' for Active; 'I' for Inactive)
ROOT
ATOM      1  O1  BZF d   1      -1.871  -3.181  -1.857  0.00  0.00    -0.204 OA
ATOM      2  C2  BZF d   1      -1.590  -4.533  -1.816  0.00  0.00     0.174 A 
ATOM      3  C3  BZF d   1      -1.245  -4.913  -0.569  0.00  0.00    -0.012 A 
ATOM      4  C3A BZF d   1      -1.404  -3.743   0.238  0.00  0.00    -0.107 A 
ATOM      5  C4  BZF d   1      -1.230  -3.489   1.569  0.00  0.00     0.055 A 
ATOM      6  C5  BZF d   1      -1.399  -2.221   2.027  0.00  0.00    -0.016 A 
ATOM      7  C6  BZF d   1      -1.738  -1.183   1.184  0.00  0.00     0.022 A 
ATOM      8  C7  BZF d   1      -1.927  -1.387  -0.143  0.00  0.00     0.029 A 
ATOM      9  C7A BZF d   1      -1.788  -2.674  -0.604  0.00  0.00     0.058 A 
ENDROOT
TORSDOF 0
ENDMDL
