MODEL 1
REMARK minimizedAffinity 16.4604073
REMARK minimizedRMSD -1
REMARK  0 active torsions:
REMARK  status: ('A' for Active; 'I' for Inactive)
ROOT
ATOM      1  O1  BZF d   1       2.257  -5.370  -3.765  0.00  0.00    -0.204 OA
ATOM      2  C2  BZF d   1       1.869  -5.982  -4.941  0.00  0.00     0.174 A 
ATOM      3  C3  BZF d   1       2.562  -5.490  -5.988  0.00  0.00    -0.012 A 
ATOM      4  C3A BZF d   1       3.503  -4.574  -5.419  0.00  0.00    -0.107 A 
ATOM      5  C4  BZF d   1       4.480  -3.782  -5.950  0.00  0.00     0.055 A 
ATOM      6  C5  BZF d   1       5.174  -2.950  -5.130  0.00  0.00    -0.016 A 
ATOM      7  C6  BZF d   1       4.913  -2.880  -3.777  0.00  0.00     0.022 A 
ATOM      8  C7  BZF d   1       3.957  -3.651  -3.204  0.00  0.00     0.029 A 
ATOM      9  C7A BZF d   1       3.277  -4.517  -4.025  0.00  0.00     0.058 A 
ENDROOT
TORSDOF 0
ENDMDL
