MODEL 1
REMARK minimizedAffinity 17.1447468
REMARK minimizedRMSD -1
REMARK  0 active torsions:
REMARK  status: ('A' for Active; 'I' for Inactive)
ROOT
ATOM      1  O1  BZF d   1       0.714   2.243   3.631  0.00  0.00    -0.204 OA
ATOM      2  C2  BZF d   1       2.040   1.896   3.805  0.00  0.00     0.174 A 
ATOM      3  C3  BZF d   1       2.623   1.626   2.619  0.00  0.00    -0.012 A 
ATOM      4  C3A BZF d   1       1.622   1.905   1.635  0.00  0.00    -0.107 A 
ATOM      5  C4  BZF d   1       1.604   1.844   0.271  0.00  0.00     0.055 A 
ATOM      6  C5  BZF d   1       0.446   2.112  -0.387  0.00  0.00    -0.016 A 
ATOM      7  C6  BZF d   1      -0.713   2.440   0.287  0.00  0.00     0.022 A 
ATOM      8  C7  BZF d   1      -0.742   2.518   1.640  0.00  0.00     0.029 A 
ATOM      9  C7A BZF d   1       0.435   2.280   2.306  0.00  0.00     0.058 A 
ENDROOT
TORSDOF 0
ENDMDL
