MODEL 1
REMARK minimizedAffinity 12.3667049
REMARK minimizedRMSD -1
REMARK  0 active torsions:
REMARK  status: ('A' for Active; 'I' for Inactive)
ROOT
ATOM      1  O1  BZF d   1       3.438   2.288   2.627  0.00  0.00    -0.204 OA
ATOM      2  C2  BZF d   1       2.755   1.682   1.591  0.00  0.00     0.174 A 
ATOM      3  C3  BZF d   1       2.534   2.555   0.587  0.00  0.00    -0.012 A 
ATOM      4  C3A BZF d   1       3.196   3.760   0.985  0.00  0.00    -0.107 A 
ATOM      5  C4  BZF d   1       3.349   4.984   0.399  0.00  0.00     0.055 A 
ATOM      6  C5  BZF d   1       3.990   5.968   1.083  0.00  0.00    -0.016 A 
ATOM      7  C6  BZF d   1       4.485   5.765   2.355  0.00  0.00     0.022 A 
ATOM      8  C7  BZF d   1       4.361   4.566   2.975  0.00  0.00     0.029 A 
ATOM      9  C7A BZF d   1       3.743   3.560   2.273  0.00  0.00     0.058 A 
ENDROOT
TORSDOF 0
ENDMDL
