MODEL 1
REMARK minimizedAffinity 9.0663929
REMARK minimizedRMSD -1
REMARK  0 active torsions:
REMARK  status: ('A' for Active; 'I' for Inactive)
ROOT
ATOM      1  O1  BZF d   1       3.917  -4.321  -2.387  0.00  0.00    -0.204 OA
ATOM      2  C2  BZF d   1       5.001  -3.577  -1.965  0.00  0.00     0.174 A 
ATOM      3  C3  BZF d   1       5.996  -3.621  -2.874  0.00  0.00    -0.012 A 
ATOM      4  C3A BZF d   1       5.467  -4.369  -3.973  0.00  0.00    -0.107 A 
ATOM      5  C4  BZF d   1       5.973  -4.740  -5.186  0.00  0.00     0.055 A 
ATOM      6  C5  BZF d   1       5.226  -5.532  -6.000  0.00  0.00    -0.016 A 
ATOM      7  C6  BZF d   1       3.972  -5.974  -5.631  0.00  0.00     0.022 A 
ATOM      8  C7  BZF d   1       3.426  -5.628  -4.439  0.00  0.00     0.029 A 
ATOM      9  C7A BZF d   1       4.166  -4.801  -3.629  0.00  0.00     0.058 A 
ENDROOT
TORSDOF 0
ENDMDL
