MODEL 1
REMARK minimizedAffinity 10.0934134
REMARK minimizedRMSD -1
REMARK  0 active torsions:
REMARK  status: ('A' for Active; 'I' for Inactive)
ROOT
ATOM      1  O1  BZF d   1       1.564  -5.064  -5.213  0.00  0.00    -0.204 OA
ATOM      2  C2  BZF d   1       2.665  -5.344  -5.998  0.00  0.00     0.174 A 
ATOM      3  C3  BZF d   1       3.722  -5.689  -5.234  0.00  0.00    -0.012 A 
ATOM      4  C3A BZF d   1       3.226  -5.709  -3.892  0.00  0.00    -0.107 A 
ATOM      5  C4  BZF d   1       3.795  -5.995  -2.685  0.00  0.00     0.055 A 
ATOM      6  C5  BZF d   1       3.055  -5.850  -1.554  0.00  0.00    -0.016 A 
ATOM      7  C6  BZF d   1       1.746  -5.416  -1.594  0.00  0.00     0.022 A 
ATOM      8  C7  BZF d   1       1.137  -5.124  -2.769  0.00  0.00     0.029 A 
ATOM      9  C7A BZF d   1       1.871  -5.302  -3.916  0.00  0.00     0.058 A 
ENDROOT
TORSDOF 0
ENDMDL
