MODEL 1
REMARK minimizedAffinity 5.8868947
REMARK minimizedRMSD -1
REMARK  0 active torsions:
REMARK  status: ('A' for Active; 'I' for Inactive)
ROOT
ATOM      1  O1  BZF d   1      -3.912   2.430  -4.220  0.00  0.00    -0.204 OA
ATOM      2  C2  BZF d   1      -4.878   2.283  -5.198  0.00  0.00     0.174 A 
ATOM      3  C3  BZF d   1      -4.915   3.367  -6.000  0.00  0.00    -0.012 A 
ATOM      4  C3A BZF d   1      -3.848   4.206  -5.548  0.00  0.00    -0.107 A 
ATOM      5  C4  BZF d   1      -3.368   5.418  -5.958  0.00  0.00     0.055 A 
ATOM      6  C5  BZF d   1      -2.360   6.000  -5.258  0.00  0.00    -0.016 A 
ATOM      7  C6  BZF d   1      -1.811   5.402  -4.142  0.00  0.00     0.022 A 
ATOM      8  C7  BZF d   1      -2.250   4.199  -3.700  0.00  0.00     0.029 A 
ATOM      9  C7A BZF d   1      -3.247   3.592  -4.425  0.00  0.00     0.058 A 
ENDROOT
TORSDOF 0
ENDMDL
