MODEL 1
REMARK minimizedAffinity -0.370745122
REMARK minimizedRMSD -1
REMARK  0 active torsions:
REMARK  status: ('A' for Active; 'I' for Inactive)
ROOT
ATOM      1  O1  BZF d   1      -5.009   1.698  -4.529  0.00  0.00    -0.204 OA
ATOM      2  C2  BZF d   1      -5.998   2.225  -5.337  0.00  0.00     0.174 A 
ATOM      3  C3  BZF d   1      -5.547   3.311  -5.998  0.00  0.00    -0.012 A 
ATOM      4  C3A BZF d   1      -4.165   3.419  -5.647  0.00  0.00    -0.107 A 
ATOM      5  C4  BZF d   1      -3.172   4.288  -5.998  0.00  0.00     0.055 A 
ATOM      6  C5  BZF d   1      -1.948   4.161  -5.421  0.00  0.00    -0.016 A 
ATOM      7  C6  BZF d   1      -1.684   3.181  -4.487  0.00  0.00     0.022 A 
ATOM      8  C7  BZF d   1      -2.635   2.292  -4.110  0.00  0.00     0.029 A 
ATOM      9  C7A BZF d   1      -3.864   2.397  -4.716  0.00  0.00     0.058 A 
ENDROOT
TORSDOF 0
ENDMDL
