MODEL 1
REMARK minimizedAffinity 8.4122839
REMARK minimizedRMSD -1
REMARK  0 active torsions:
REMARK  status: ('A' for Active; 'I' for Inactive)
ROOT
ATOM      1  O1  BZF d   1       1.698   1.735   2.097  0.00  0.00    -0.204 OA
ATOM      2  C2  BZF d   1       0.497   1.375   1.516  0.00  0.00     0.174 A 
ATOM      3  C3  BZF d   1       0.614   1.315   0.174  0.00  0.00    -0.012 A 
ATOM      4  C3A BZF d   1       1.996   1.569  -0.096  0.00  0.00    -0.107 A 
ATOM      5  C4  BZF d   1       2.733   1.627  -1.244  0.00  0.00     0.055 A 
ATOM      6  C5  BZF d   1       4.046   1.970  -1.169  0.00  0.00    -0.016 A 
ATOM      7  C6  BZF d   1       4.652   2.266   0.035  0.00  0.00     0.022 A 
ATOM      8  C7  BZF d   1       3.962   2.217   1.201  0.00  0.00     0.029 A 
ATOM      9  C7A BZF d   1       2.644   1.838   1.132  0.00  0.00     0.058 A 
ENDROOT
TORSDOF 0
ENDMDL
