MODEL 1
REMARK minimizedAffinity -2.53017497
REMARK minimizedRMSD -1
REMARK  0 active torsions:
REMARK  status: ('A' for Active; 'I' for Inactive)
ROOT
ATOM      1  O1  BZF d   1       2.395  -5.752  -4.798  0.00  0.00    -0.204 OA
ATOM      2  C2  BZF d   1       3.029  -5.999  -6.000  0.00  0.00     0.174 A 
ATOM      3  C3  BZF d   1       4.341  -5.696  -5.919  0.00  0.00    -0.012 A 
ATOM      4  C3A BZF d   1       4.557  -5.317  -4.557  0.00  0.00    -0.107 A 
ATOM      5  C4  BZF d   1       5.661  -4.923  -3.855  0.00  0.00     0.055 A 
ATOM      6  C5  BZF d   1       5.520  -4.554  -2.555  0.00  0.00    -0.016 A 
ATOM      7  C6  BZF d   1       4.292  -4.561  -1.927  0.00  0.00     0.022 A 
ATOM      8  C7  BZF d   1       3.169  -4.948  -2.580  0.00  0.00     0.029 A 
ATOM      9  C7A BZF d   1       3.314  -5.354  -3.885  0.00  0.00     0.058 A 
ENDROOT
TORSDOF 0
ENDMDL
