MODEL 1
REMARK minimizedAffinity 8.91664982
REMARK minimizedRMSD -1
REMARK  0 active torsions:
REMARK  status: ('A' for Active; 'I' for Inactive)
ROOT
ATOM      1  O1  BZF d   1      -5.991   3.572  -2.205  0.00  0.00    -0.204 OA
ATOM      2  C2  BZF d   1      -5.947   2.216  -2.467  0.00  0.00     0.174 A 
ATOM      3  C3  BZF d   1      -5.940   1.985  -3.796  0.00  0.00    -0.012 A 
ATOM      4  C3A BZF d   1      -5.889   3.280  -4.402  0.00  0.00    -0.107 A 
ATOM      5  C4  BZF d   1      -5.845   3.709  -5.698  0.00  0.00     0.055 A 
ATOM      6  C5  BZF d   1      -5.876   5.043  -5.954  0.00  0.00    -0.016 A 
ATOM      7  C6  BZF d   1      -5.957   5.975  -4.939  0.00  0.00     0.022 A 
ATOM      8  C7  BZF d   1      -5.997   5.598  -3.638  0.00  0.00     0.029 A 
ATOM      9  C7A BZF d   1      -5.933   4.252  -3.375  0.00  0.00     0.058 A 
ENDROOT
TORSDOF 0
ENDMDL
