MODEL 1
REMARK minimizedAffinity 8.21699619
REMARK minimizedRMSD -1
REMARK  0 active torsions:
REMARK  status: ('A' for Active; 'I' for Inactive)
ROOT
ATOM      1  O1  BZF d   1      -1.860  -6.000   1.023  0.00  0.00    -0.204 OA
ATOM      2  C2  BZF d   1      -1.859  -5.173  -0.084  0.00  0.00     0.174 A 
ATOM      3  C3  BZF d   1      -1.010  -4.141   0.091  0.00  0.00    -0.012 A 
ATOM      4  C3A BZF d   1      -0.376  -4.384   1.351  0.00  0.00    -0.107 A 
ATOM      5  C4  BZF d   1       0.578  -3.718   2.066  0.00  0.00     0.055 A 
ATOM      6  C5  BZF d   1       0.925  -4.182   3.296  0.00  0.00    -0.016 A 
ATOM      7  C6  BZF d   1       0.336  -5.303   3.842  0.00  0.00     0.022 A 
ATOM      8  C7  BZF d   1      -0.612  -6.000   3.168  0.00  0.00     0.029 A 
ATOM      9  C7A BZF d   1      -0.941  -5.553   1.912  0.00  0.00     0.058 A 
ENDROOT
TORSDOF 0
ENDMDL
