MODEL 1
REMARK minimizedAffinity 12.7202225
REMARK minimizedRMSD -1
REMARK  0 active torsions:
REMARK  status: ('A' for Active; 'I' for Inactive)
ROOT
ATOM      1  O1  BZF d   1      -3.421  -3.937  -2.336  0.00  0.00    -0.204 OA
ATOM      2  C2  BZF d   1      -2.246  -3.428  -2.853  0.00  0.00     0.174 A 
ATOM      3  C3  BZF d   1      -1.266  -3.451  -1.927  0.00  0.00    -0.012 A 
ATOM      4  C3A BZF d   1      -1.842  -4.095  -0.786  0.00  0.00    -0.107 A 
ATOM      5  C4  BZF d   1      -1.359  -4.427   0.448  0.00  0.00     0.055 A 
ATOM      6  C5  BZF d   1      -2.201  -4.983   1.358  0.00  0.00    -0.016 A 
ATOM      7  C6  BZF d   1      -3.530  -5.216   1.071  0.00  0.00     0.022 A 
ATOM      8  C7  BZF d   1      -4.053  -4.909  -0.141  0.00  0.00     0.029 A 
ATOM      9  C7A BZF d   1      -3.197  -4.377  -1.074  0.00  0.00     0.058 A 
ENDROOT
TORSDOF 0
ENDMDL
