MODEL 1
REMARK minimizedAffinity 12.5715675
REMARK minimizedRMSD -1
REMARK  0 active torsions:
REMARK  status: ('A' for Active; 'I' for Inactive)
ROOT
ATOM      1  O1  BZF d   1       1.738  -4.126  -0.114  0.00  0.00    -0.204 OA
ATOM      2  C2  BZF d   1       2.350  -4.234   1.120  0.00  0.00     0.174 A 
ATOM      3  C3  BZF d   1       1.443  -4.134   2.114  0.00  0.00    -0.012 A 
ATOM      4  C3A BZF d   1       0.174  -4.046   1.458  0.00  0.00    -0.107 A 
ATOM      5  C4  BZF d   1      -1.110  -3.944   1.910  0.00  0.00     0.055 A 
ATOM      6  C5  BZF d   1      -2.118  -3.804   1.009  0.00  0.00    -0.016 A 
ATOM      7  C6  BZF d   1      -1.877  -3.756  -0.348  0.00  0.00     0.022 A 
ATOM      8  C7  BZF d   1      -0.620  -3.859  -0.844  0.00  0.00     0.029 A 
ATOM      9  C7A BZF d   1       0.398  -4.034   0.062  0.00  0.00     0.058 A 
ENDROOT
TORSDOF 0
ENDMDL
