MODEL 1
REMARK minimizedAffinity 3.92315102
REMARK minimizedRMSD -1
REMARK  0 active torsions:
REMARK  status: ('A' for Active; 'I' for Inactive)
ROOT
ATOM      1  O1  BZF d   1       2.859   0.222   0.572  0.00  0.00    -0.204 OA
ATOM      2  C2  BZF d   1       2.853   1.585   0.795  0.00  0.00     0.174 A 
ATOM      3  C3  BZF d   1       2.511   2.253  -0.325  0.00  0.00    -0.012 A 
ATOM      4  C3A BZF d   1       2.198   1.239  -1.286  0.00  0.00    -0.107 A 
ATOM      5  C4  BZF d   1       1.777   1.274  -2.585  0.00  0.00     0.055 A 
ATOM      6  C5  BZF d   1       1.634   0.106  -3.264  0.00  0.00    -0.016 A 
ATOM      7  C6  BZF d   1       1.908  -1.112  -2.679  0.00  0.00     0.022 A 
ATOM      8  C7  BZF d   1       2.323  -1.198  -1.392  0.00  0.00     0.029 A 
ATOM      9  C7A BZF d   1       2.437  -0.022  -0.692  0.00  0.00     0.058 A 
ENDROOT
TORSDOF 0
ENDMDL
