MODEL 1
REMARK minimizedAffinity 12.2343683
REMARK minimizedRMSD -1
REMARK  0 active torsions:
REMARK  status: ('A' for Active; 'I' for Inactive)
ROOT
ATOM      1  O1  BZF d   1       2.759   3.019   0.080  0.00  0.00    -0.204 OA
ATOM      2  C2  BZF d   1       3.136   2.240   1.156  0.00  0.00     0.174 A 
ATOM      3  C3  BZF d   1       2.058   1.853   1.868  0.00  0.00    -0.012 A 
ATOM      4  C3A BZF d   1       0.930   2.349   1.141  0.00  0.00    -0.107 A 
ATOM      5  C4  BZF d   1      -0.420   2.274   1.336  0.00  0.00     0.055 A 
ATOM      6  C5  BZF d   1      -1.248   2.929   0.481  0.00  0.00    -0.016 A 
ATOM      7  C6  BZF d   1      -0.762   3.671  -0.575  0.00  0.00     0.022 A 
ATOM      8  C7  BZF d   1       0.568   3.772  -0.812  0.00  0.00     0.029 A 
ATOM      9  C7A BZF d   1       1.407   3.084   0.031  0.00  0.00     0.058 A 
ENDROOT
TORSDOF 0
ENDMDL
