MODEL 1
REMARK minimizedAffinity 4.84260225
REMARK minimizedRMSD -1
REMARK  0 active torsions:
REMARK  status: ('A' for Active; 'I' for Inactive)
ROOT
ATOM      1  O1  BZF d   1       2.598  -0.222   0.452  0.00  0.00    -0.204 OA
ATOM      2  C2  BZF d   1       2.369   1.130   0.620  0.00  0.00     0.174 A 
ATOM      3  C3  BZF d   1       1.898   1.680  -0.517  0.00  0.00    -0.012 A 
ATOM      4  C3A BZF d   1       1.740   0.587  -1.427  0.00  0.00    -0.107 A 
ATOM      5  C4  BZF d   1       1.293   0.494  -2.714  0.00  0.00     0.055 A 
ATOM      6  C5  BZF d   1       1.334  -0.710  -3.342  0.00  0.00    -0.016 A 
ATOM      7  C6  BZF d   1       1.819  -1.840  -2.716  0.00  0.00     0.022 A 
ATOM      8  C7  BZF d   1       2.269  -1.798  -1.438  0.00  0.00     0.029 A 
ATOM      9  C7A BZF d   1       2.198  -0.589  -0.790  0.00  0.00     0.058 A 
ENDROOT
TORSDOF 0
ENDMDL
