MODEL 1
REMARK minimizedAffinity 4.39188671
REMARK minimizedRMSD -1
REMARK  0 active torsions:
REMARK  status: ('A' for Active; 'I' for Inactive)
ROOT
ATOM      1  C   UNL d   1       3.814   0.075  -1.029  0.00  0.00    -0.002 A 
ATOM      2  C1  UNL d   1       3.063   1.177  -0.646  0.00  0.00     0.010 A 
ATOM      3  C2  UNL d   1       1.700   1.046  -0.369  0.00  0.00     0.041 A 
ATOM      4  C3  UNL d   1       1.100  -0.223  -0.485  0.00  0.00    -0.075 A 
ATOM      5  S   UNL d   1      -0.552  -0.622  -0.196  0.00  0.00     0.015 SA
ATOM      6  C4  UNL d   1      -0.300  -2.264  -0.574  0.00  0.00     0.022 A 
ATOM      7  C5  UNL d   1       1.007  -2.520  -0.915  0.00  0.00     0.026 A 
ATOM      8  C6  UNL d   1       1.836  -1.348  -0.869  0.00  0.00    -0.082 A 
ATOM      9  C7  UNL d   1       3.215  -1.183  -1.143  0.00  0.00     0.045 A 
ENDROOT
TORSDOF 0
ENDMDL
