MODEL 1
REMARK minimizedAffinity 0.182478189
REMARK minimizedRMSD -1
REMARK  0 active torsions:
REMARK  status: ('A' for Active; 'I' for Inactive)
ROOT
ATOM      1  C   UNL d   1       4.039  -2.043  -2.442  0.00  0.00    -0.002 A 
ATOM      2  C1  UNL d   1       4.390  -0.776  -1.998  0.00  0.00     0.010 A 
ATOM      3  C2  UNL d   1       3.466   0.020  -1.317  0.00  0.00     0.041 A 
ATOM      4  C3  UNL d   1       2.171  -0.486  -1.086  0.00  0.00    -0.075 A 
ATOM      5  S   UNL d   1       0.875   0.309  -0.273  0.00  0.00     0.015 SA
ATOM      6  C4  UNL d   1      -0.175  -1.015  -0.495  0.00  0.00     0.022 A 
ATOM      7  C5  UNL d   1       0.432  -2.047  -1.171  0.00  0.00     0.026 A 
ATOM      8  C6  UNL d   1       1.794  -1.759  -1.522  0.00  0.00    -0.082 A 
ATOM      9  C7  UNL d   1       2.754  -2.541  -2.210  0.00  0.00     0.045 A 
ENDROOT
TORSDOF 0
ENDMDL
