MODEL 1
REMARK minimizedAffinity 3.77696419
REMARK minimizedRMSD -1
REMARK  0 active torsions:
REMARK  status: ('A' for Active; 'I' for Inactive)
ROOT
ATOM      1  C   UNL d   1       4.553   0.471  -1.521  0.00  0.00    -0.002 A 
ATOM      2  C1  UNL d   1       4.558  -0.896  -1.761  0.00  0.00     0.010 A 
ATOM      3  C2  UNL d   1       3.368  -1.626  -1.735  0.00  0.00     0.041 A 
ATOM      4  C3  UNL d   1       2.161  -0.953  -1.462  0.00  0.00    -0.075 A 
ATOM      5  S   UNL d   1       0.582  -1.641  -1.379  0.00  0.00     0.015 SA
ATOM      6  C4  UNL d   1      -0.136  -0.137  -1.023  0.00  0.00     0.022 A 
ATOM      7  C5  UNL d   1       0.791   0.876  -0.965  0.00  0.00     0.026 A 
ATOM      8  C6  UNL d   1       2.130   0.423  -1.217  0.00  0.00    -0.082 A 
ATOM      9  C7  UNL d   1       3.353   1.135  -1.250  0.00  0.00     0.045 A 
ENDROOT
TORSDOF 0
ENDMDL
