MODEL 1
REMARK minimizedAffinity 0.730296016
REMARK minimizedRMSD -1
REMARK  0 active torsions:
REMARK  status: ('A' for Active; 'I' for Inactive)
ROOT
ATOM      1  C   UNL d   1       4.796  -0.286  -1.962  0.00  0.00    -0.002 A 
ATOM      2  C1  UNL d   1       4.425  -1.598  -2.218  0.00  0.00     0.010 A 
ATOM      3  C2  UNL d   1       3.133  -2.040  -1.927  0.00  0.00     0.041 A 
ATOM      4  C3  UNL d   1       2.211  -1.132  -1.371  0.00  0.00    -0.075 A 
ATOM      5  S   UNL d   1       0.573  -1.449  -0.934  0.00  0.00     0.015 SA
ATOM      6  C4  UNL d   1       0.328   0.151  -0.399  0.00  0.00     0.022 A 
ATOM      7  C5  UNL d   1       1.457   0.921  -0.543  0.00  0.00     0.026 A 
ATOM      8  C6  UNL d   1       2.561   0.195  -1.106  0.00  0.00    -0.082 A 
ATOM      9  C7  UNL d   1       3.879   0.612  -1.411  0.00  0.00     0.045 A 
ENDROOT
TORSDOF 0
ENDMDL
