MODEL 1
REMARK minimizedAffinity 3.51486063
REMARK minimizedRMSD -1
REMARK  0 active torsions:
REMARK  status: ('A' for Active; 'I' for Inactive)
ROOT
ATOM      1  C   UNL d   1      -3.066   2.336   3.540  0.00  0.00    -0.002 A 
ATOM      2  C1  UNL d   1      -3.845   2.627   2.430  0.00  0.00     0.010 A 
ATOM      3  C2  UNL d   1      -3.499   3.674   1.574  0.00  0.00     0.041 A 
ATOM      4  C3  UNL d   1      -2.344   4.431   1.855  0.00  0.00    -0.075 A 
ATOM      5  S   UNL d   1      -1.726   5.759   0.947  0.00  0.00     0.015 SA
ATOM      6  C4  UNL d   1      -0.412   5.971   2.011  0.00  0.00     0.022 A 
ATOM      7  C5  UNL d   1      -0.429   5.060   3.040  0.00  0.00     0.026 A 
ATOM      8  C6  UNL d   1      -1.543   4.156   2.967  0.00  0.00    -0.082 A 
ATOM      9  C7  UNL d   1      -1.921   3.088   3.816  0.00  0.00     0.045 A 
ENDROOT
TORSDOF 0
ENDMDL
