MODEL 1
REMARK minimizedAffinity 0.717873573
REMARK minimizedRMSD -1
REMARK  0 active torsions:
REMARK  status: ('A' for Active; 'I' for Inactive)
ROOT
ATOM      1  C   UNL d   1       2.511   0.168  -0.282  0.00  0.00    -0.002 A 
ATOM      2  C1  UNL d   1       2.756  -1.170  -0.006  0.00  0.00     0.010 A 
ATOM      3  C2  UNL d   1       1.882  -2.160  -0.457  0.00  0.00     0.041 A 
ATOM      4  C3  UNL d   1       0.747  -1.780  -1.200  0.00  0.00    -0.075 A 
ATOM      5  S   UNL d   1      -0.462  -2.819  -1.856  0.00  0.00     0.015 SA
ATOM      6  C4  UNL d   1      -1.332  -1.512  -2.519  0.00  0.00     0.022 A 
ATOM      7  C5  UNL d   1      -0.729  -0.305  -2.256  0.00  0.00     0.026 A 
ATOM      8  C6  UNL d   1       0.479  -0.439  -1.491  0.00  0.00    -0.082 A 
ATOM      9  C7  UNL d   1       1.384   0.541  -1.018  0.00  0.00     0.045 A 
ENDROOT
TORSDOF 0
ENDMDL
