MODEL 1
REMARK minimizedAffinity 1.62594235
REMARK minimizedRMSD -1
REMARK  0 active torsions:
REMARK  status: ('A' for Active; 'I' for Inactive)
ROOT
ATOM      1  C   UNL d   1      -0.966  -0.454   0.355  0.00  0.00    -0.002 A 
ATOM      2  C1  UNL d   1      -0.549   0.856   0.543  0.00  0.00     0.010 A 
ATOM      3  C2  UNL d   1       0.716   1.266   0.116  0.00  0.00     0.041 A 
ATOM      4  C3  UNL d   1       1.562   0.329  -0.509  0.00  0.00    -0.075 A 
ATOM      5  S   UNL d   1       3.153   0.605  -1.114  0.00  0.00     0.015 SA
ATOM      6  C4  UNL d   1       3.315  -1.009  -1.636  0.00  0.00     0.022 A 
ATOM      7  C5  UNL d   1       2.193  -1.754  -1.363  0.00  0.00     0.026 A 
ATOM      8  C6  UNL d   1       1.164  -0.996  -0.710  0.00  0.00    -0.082 A 
ATOM      9  C7  UNL d   1      -0.124  -1.381  -0.266  0.00  0.00     0.045 A 
ENDROOT
TORSDOF 0
ENDMDL
