MODEL 1
REMARK minimizedAffinity 3.53989744
REMARK minimizedRMSD -1
REMARK  0 active torsions:
REMARK  status: ('A' for Active; 'I' for Inactive)
ROOT
ATOM      1  C   UNL d   1       3.874  -1.390  -1.074  0.00  0.00    -0.002 A 
ATOM      2  C1  UNL d   1       4.007  -0.038  -0.795  0.00  0.00     0.010 A 
ATOM      3  C2  UNL d   1       2.879   0.765  -0.616  0.00  0.00     0.041 A 
ATOM      4  C3  UNL d   1       1.602   0.180  -0.722  0.00  0.00    -0.075 A 
ATOM      5  S   UNL d   1       0.079   0.968  -0.541  0.00  0.00     0.015 SA
ATOM      6  C4  UNL d   1      -0.784  -0.473  -0.828  0.00  0.00     0.022 A 
ATOM      7  C5  UNL d   1       0.053  -1.539  -1.058  0.00  0.00     0.026 A 
ATOM      8  C6  UNL d   1       1.442  -1.180  -1.000  0.00  0.00    -0.082 A 
ATOM      9  C7  UNL d   1       2.605  -1.968  -1.177  0.00  0.00     0.045 A 
ENDROOT
TORSDOF 0
ENDMDL
