MODEL 1
REMARK minimizedAffinity -5.10960579
REMARK minimizedRMSD -1
REMARK  1 active torsions:
REMARK  status: ('A' for Active; 'I' for Inactive)
REMARK    1  A    between atoms: C1_2  and  C2_3 
ROOT
ATOM      1  C2  UNL d   1       1.127  -0.064  -1.728  0.00  0.00    -0.076 A 
ATOM      2  C3  UNL d   1       1.946  -0.472  -2.794  0.00  0.00     0.004 A 
ATOM      3  C4  UNL d   1       2.257  -1.817  -2.985  0.00  0.00    -0.003 A 
ATOM      4  C5  UNL d   1       1.754  -2.776  -2.113  0.00  0.00     0.000 A 
ATOM      5  C6  UNL d   1       0.925  -2.390  -1.060  0.00  0.00     0.000 A 
ATOM      6  C7  UNL d   1       0.588  -1.040  -0.863  0.00  0.00    -0.073 A 
ATOM      7  C8  UNL d   1      -0.305  -0.680   0.293  0.00  0.00     0.078 C 
ENDROOT
BRANCH   1   8
ATOM      8  C1  UNL d   1       0.846   1.412  -1.555  0.00  0.00     0.053 C 
ATOM      9  C   UNL d   1       1.433   1.970  -0.268  0.00  0.00     0.018 C 
ENDBRANCH   1   8
TORSDOF 1
ENDMDL
