MODEL 1
REMARK minimizedAffinity -5.94399834
REMARK minimizedRMSD -1
REMARK  1 active torsions:
REMARK  status: ('A' for Active; 'I' for Inactive)
REMARK    1  A    between atoms: C1_2  and  C2_3 
ROOT
ATOM      1  C2  UNL d   1       0.497  -0.261  -0.065  0.00  0.00    -0.076 A 
ATOM      2  C3  UNL d   1       0.606  -1.500  -0.720  0.00  0.00     0.004 A 
ATOM      3  C4  UNL d   1       1.295  -1.616  -1.926  0.00  0.00    -0.003 A 
ATOM      4  C5  UNL d   1       1.888  -0.495  -2.496  0.00  0.00     0.000 A 
ATOM      5  C6  UNL d   1       1.805   0.739  -1.851  0.00  0.00     0.000 A 
ATOM      6  C7  UNL d   1       1.128   0.870  -0.626  0.00  0.00    -0.073 A 
ATOM      7  C8  UNL d   1       1.065   2.225   0.022  0.00  0.00     0.078 C 
ENDROOT
BRANCH   1   8
ATOM      8  C1  UNL d   1      -0.286  -0.191   1.227  0.00  0.00     0.053 C 
ATOM      9  C   UNL d   1      -1.767  -0.470   1.026  0.00  0.00     0.018 C 
ENDBRANCH   1   8
TORSDOF 1
ENDMDL
