MODEL 1
REMARK minimizedAffinity -5.33578396
REMARK minimizedRMSD -1
REMARK  1 active torsions:
REMARK  status: ('A' for Active; 'I' for Inactive)
REMARK    1  A    between atoms: C1_2  and  C2_3 
ROOT
ATOM      1  C2  UNL d   1       1.057  -0.980  -1.352  0.00  0.00    -0.076 A 
ATOM      2  C3  UNL d   1       1.810  -0.181  -2.229  0.00  0.00     0.004 A 
ATOM      3  C4  UNL d   1       1.833   1.207  -2.095  0.00  0.00    -0.003 A 
ATOM      4  C5  UNL d   1       1.104   1.817  -1.082  0.00  0.00     0.000 A 
ATOM      5  C6  UNL d   1       0.364   1.039  -0.191  0.00  0.00     0.000 A 
ATOM      6  C7  UNL d   1       0.344  -0.362  -0.302  0.00  0.00    -0.073 A 
ATOM      7  C8  UNL d   1      -0.476  -1.152   0.682  0.00  0.00     0.078 C 
ENDROOT
BRANCH   1   8
ATOM      8  C1  UNL d   1       1.048  -2.477  -1.562  0.00  0.00     0.053 C 
ATOM      9  C   UNL d   1       2.429  -3.028  -1.884  0.00  0.00     0.018 C 
ENDBRANCH   1   8
TORSDOF 1
ENDMDL
