MODEL 1
REMARK minimizedAffinity -0.556745768
REMARK minimizedRMSD -1
REMARK  1 active torsions:
REMARK  status: ('A' for Active; 'I' for Inactive)
REMARK    1  A    between atoms: C1_2  and  C2_3 
ROOT
ATOM      1  C2  UNL d   1       0.727  -1.082  -0.282  0.00  0.00    -0.076 A 
ATOM      2  C3  UNL d   1       1.759  -1.080  -1.237  0.00  0.00     0.004 A 
ATOM      3  C4  UNL d   1       2.224   0.112  -1.789  0.00  0.00    -0.003 A 
ATOM      4  C5  UNL d   1       1.665   1.323  -1.395  0.00  0.00     0.000 A 
ATOM      5  C6  UNL d   1       0.652   1.341  -0.436  0.00  0.00     0.000 A 
ATOM      6  C7  UNL d   1       0.184   0.149   0.143  0.00  0.00    -0.073 A 
ATOM      7  C8  UNL d   1      -0.914   0.228   1.168  0.00  0.00     0.078 C 
ENDROOT
BRANCH   1   8
ATOM      8  C1  UNL d   1       0.246  -2.408   0.262  0.00  0.00     0.053 C 
ATOM      9  C   UNL d   1       0.657  -3.581  -0.614  0.00  0.00     0.018 C 
ENDBRANCH   1   8
TORSDOF 1
ENDMDL
