MODEL 1
REMARK minimizedAffinity -4.085536
REMARK minimizedRMSD -1
REMARK  1 active torsions:
REMARK  status: ('A' for Active; 'I' for Inactive)
REMARK    1  A    between atoms: C1_2  and  C2_3 
ROOT
ATOM      1  C2  UNL d   1       0.407  -0.633  -0.768  0.00  0.00    -0.076 A 
ATOM      2  C3  UNL d   1       1.601  -1.376  -0.764  0.00  0.00     0.004 A 
ATOM      3  C4  UNL d   1       2.399  -1.458  -1.903  0.00  0.00    -0.003 A 
ATOM      4  C5  UNL d   1       2.017  -0.797  -3.066  0.00  0.00     0.000 A 
ATOM      5  C6  UNL d   1       0.846  -0.041  -3.083  0.00  0.00     0.000 A 
ATOM      6  C7  UNL d   1       0.038   0.065  -1.938  0.00  0.00    -0.073 A 
ATOM      7  C8  UNL d   1      -1.218   0.889  -2.015  0.00  0.00     0.078 C 
ENDROOT
BRANCH   1   8
ATOM      8  C1  UNL d   1      -0.432  -0.602   0.489  0.00  0.00     0.053 C 
ATOM      9  C   UNL d   1      -0.052   0.542   1.416  0.00  0.00     0.018 C 
ENDBRANCH   1   8
TORSDOF 1
ENDMDL
