MODEL 1
REMARK minimizedAffinity -5.37645102
REMARK minimizedRMSD -1
REMARK  1 active torsions:
REMARK  status: ('A' for Active; 'I' for Inactive)
REMARK    1  A    between atoms: C1_2  and  C2_3 
ROOT
ATOM      1  C2  UNL d   1      -0.136  -0.415  -0.251  0.00  0.00    -0.076 A 
ATOM      2  C3  UNL d   1       0.296   0.912  -0.417  0.00  0.00     0.004 A 
ATOM      3  C4  UNL d   1       1.294   1.232  -1.335  0.00  0.00    -0.003 A 
ATOM      4  C5  UNL d   1       1.877   0.229  -2.103  0.00  0.00     0.000 A 
ATOM      5  C6  UNL d   1       1.448  -1.090  -1.964  0.00  0.00     0.000 A 
ATOM      6  C7  UNL d   1       0.431  -1.427  -1.055  0.00  0.00    -0.073 A 
ATOM      7  C8  UNL d   1       0.012  -2.868  -0.942  0.00  0.00     0.078 C 
ENDROOT
BRANCH   1   8
ATOM      8  C1  UNL d   1      -1.204  -0.706   0.780  0.00  0.00     0.053 C 
ATOM      9  C   UNL d   1      -1.741   0.557   1.434  0.00  0.00     0.018 C 
ENDBRANCH   1   8
TORSDOF 1
ENDMDL
