MODEL 1
REMARK minimizedAffinity -3.2884779
REMARK minimizedRMSD -1
REMARK  1 active torsions:
REMARK  status: ('A' for Active; 'I' for Inactive)
REMARK    1  A    between atoms: C1_2  and  C2_3 
ROOT
ATOM      1  C2  UNL d   1      -1.900   0.203  -0.013  0.00  0.00    -0.076 A 
ATOM      2  C3  UNL d   1      -3.127   0.686  -0.501  0.00  0.00     0.004 A 
ATOM      3  C4  UNL d   1      -4.186   0.956   0.363  0.00  0.00    -0.003 A 
ATOM      4  C5  UNL d   1      -4.035   0.749   1.730  0.00  0.00     0.000 A 
ATOM      5  C6  UNL d   1      -2.819   0.288   2.233  0.00  0.00     0.000 A 
ATOM      6  C7  UNL d   1      -1.736   0.026   1.377  0.00  0.00    -0.073 A 
ATOM      7  C8  UNL d   1      -0.449  -0.476   1.973  0.00  0.00     0.078 C 
ENDROOT
BRANCH   1   8
ATOM      8  C1  UNL d   1      -0.795  -0.098  -1.001  0.00  0.00     0.053 C 
ATOM      9  C   UNL d   1       0.162   1.071  -1.180  0.00  0.00     0.018 C 
ENDBRANCH   1   8
TORSDOF 1
ENDMDL
