MODEL 1
REMARK minimizedAffinity -0.888233483
REMARK minimizedRMSD -1
REMARK  1 active torsions:
REMARK  status: ('A' for Active; 'I' for Inactive)
REMARK    1  A    between atoms: C1_2  and  C2_3 
ROOT
ATOM      1  C2  UNL d   1      -0.915   0.183   0.122  0.00  0.00    -0.076 A 
ATOM      2  C3  UNL d   1      -0.825   1.499  -0.364  0.00  0.00     0.004 A 
ATOM      3  C4  UNL d   1       0.361   1.982  -0.913  0.00  0.00    -0.003 A 
ATOM      4  C5  UNL d   1       1.477   1.157  -0.986  0.00  0.00     0.000 A 
ATOM      5  C6  UNL d   1       1.402  -0.157  -0.525  0.00  0.00     0.000 A 
ATOM      6  C7  UNL d   1       0.208  -0.665   0.017  0.00  0.00    -0.073 A 
ATOM      7  C8  UNL d   1       0.185  -2.087   0.504  0.00  0.00     0.078 C 
ENDROOT
BRANCH   1   8
ATOM      8  C1  UNL d   1      -2.220  -0.276   0.732  0.00  0.00     0.053 C 
ATOM      9  C   UNL d   1      -3.279   0.815   0.734  0.00  0.00     0.018 C 
ENDBRANCH   1   8
TORSDOF 1
ENDMDL
