MODEL 1
REMARK minimizedAffinity -4.97586346
REMARK minimizedRMSD -1
REMARK  1 active torsions:
REMARK  status: ('A' for Active; 'I' for Inactive)
REMARK    1  A    between atoms: C1_2  and  C2_3 
ROOT
ATOM      1  C2  UNL d   1       0.655  -0.065   0.236  0.00  0.00    -0.076 A 
ATOM      2  C3  UNL d   1       0.737  -1.419  -0.131  0.00  0.00     0.004 A 
ATOM      3  C4  UNL d   1       1.395  -1.808  -1.296  0.00  0.00    -0.003 A 
ATOM      4  C5  UNL d   1       1.984  -0.849  -2.113  0.00  0.00     0.000 A 
ATOM      5  C6  UNL d   1       1.928   0.498  -1.755  0.00  0.00     0.000 A 
ATOM      6  C7  UNL d   1       1.282   0.905  -0.575  0.00  0.00    -0.073 A 
ATOM      7  C8  UNL d   1       1.246   2.371  -0.241  0.00  0.00     0.078 C 
ENDROOT
BRANCH   1   8
ATOM      8  C1  UNL d   1      -0.096   0.299   1.497  0.00  0.00     0.053 C 
ATOM      9  C   UNL d   1      -1.598   0.386   1.276  0.00  0.00     0.018 C 
ENDBRANCH   1   8
TORSDOF 1
ENDMDL
