MODEL 1
REMARK minimizedAffinity -3.33826089
REMARK minimizedRMSD -1
REMARK  1 active torsions:
REMARK  status: ('A' for Active; 'I' for Inactive)
REMARK    1  A    between atoms: C1_2  and  C2_3 
ROOT
ATOM      1  C2  UNL d   1       1.133  -0.723  -1.187  0.00  0.00    -0.076 A 
ATOM      2  C3  UNL d   1      -0.156  -1.101  -0.769  0.00  0.00     0.004 A 
ATOM      3  C4  UNL d   1      -0.843  -0.363   0.193  0.00  0.00    -0.003 A 
ATOM      4  C5  UNL d   1      -0.253   0.765   0.753  0.00  0.00     0.000 A 
ATOM      5  C6  UNL d   1       1.017   1.164   0.338  0.00  0.00     0.000 A 
ATOM      6  C7  UNL d   1       1.717   0.440  -0.642  0.00  0.00    -0.073 A 
ATOM      7  C8  UNL d   1       3.086   0.912  -1.048  0.00  0.00     0.078 C 
ENDROOT
BRANCH   1   8
ATOM      8  C1  UNL d   1       1.840  -1.578  -2.214  0.00  0.00     0.053 C 
ATOM      9  C   UNL d   1       1.851  -0.941  -3.595  0.00  0.00     0.018 C 
ENDBRANCH   1   8
TORSDOF 1
ENDMDL
