MODEL 1
REMARK minimizedAffinity 1.58067489
REMARK minimizedRMSD -1
REMARK  1 active torsions:
REMARK  status: ('A' for Active; 'I' for Inactive)
REMARK    1  A    between atoms: C1_2  and  C2_3 
ROOT
ATOM      1  C2  UNL d   1       0.865  -0.437   0.217  0.00  0.00    -0.076 A 
ATOM      2  C3  UNL d   1       2.016  -0.380  -0.588  0.00  0.00     0.004 A 
ATOM      3  C4  UNL d   1       2.367   0.792  -1.257  0.00  0.00    -0.003 A 
ATOM      4  C5  UNL d   1       1.572   1.926  -1.132  0.00  0.00     0.000 A 
ATOM      5  C6  UNL d   1       0.436   1.892  -0.324  0.00  0.00     0.000 A 
ATOM      6  C7  UNL d   1       0.077   0.724   0.370  0.00  0.00    -0.073 A 
ATOM      7  C8  UNL d   1      -1.162   0.742   1.223  0.00  0.00     0.078 C 
ENDROOT
BRANCH   1   8
ATOM      8  C1  UNL d   1       0.520  -1.743   0.896  0.00  0.00     0.053 C 
ATOM      9  C   UNL d   1      -0.687  -2.425   0.270  0.00  0.00     0.018 C 
ENDBRANCH   1   8
TORSDOF 1
ENDMDL
