MODEL 1
REMARK minimizedAffinity -6.26000309
REMARK minimizedRMSD -1
REMARK  1 active torsions:
REMARK  status: ('A' for Active; 'I' for Inactive)
REMARK    1  A    between atoms: C1_2  and  C2_3 
ROOT
ATOM      1  C2  UNL d   1       0.149  -0.233  -0.230  0.00  0.00    -0.076 A 
ATOM      2  C3  UNL d   1       0.414   0.707  -1.241  0.00  0.00     0.004 A 
ATOM      3  C4  UNL d   1       1.079   0.337  -2.409  0.00  0.00    -0.003 A 
ATOM      4  C5  UNL d   1       1.488  -0.980  -2.585  0.00  0.00     0.000 A 
ATOM      5  C6  UNL d   1       1.218  -1.930  -1.601  0.00  0.00     0.000 A 
ATOM      6  C7  UNL d   1       0.535  -1.576  -0.424  0.00  0.00    -0.073 A 
ATOM      7  C8  UNL d   1       0.276  -2.640   0.607  0.00  0.00     0.078 C 
ENDROOT
BRANCH   1   8
ATOM      8  C1  UNL d   1      -0.551   0.233   1.027  0.00  0.00     0.053 C 
ATOM      9  C   UNL d   1      -2.065   0.222   0.888  0.00  0.00     0.018 C 
ENDBRANCH   1   8
TORSDOF 1
ENDMDL
