MODEL 1
REMARK minimizedAffinity 9.69780636
REMARK minimizedRMSD -1
REMARK  0 active torsions:
REMARK  status: ('A' for Active; 'I' for Inactive)
ROOT
ATOM      1  N1  IND d   1       0.384   1.235   0.311  0.00  0.00    -0.196 N 
ATOM      2  C2  IND d   1      -0.409   1.136  -0.798  0.00  0.00     0.054 A 
ATOM      3  C3  IND d   1      -1.531   0.437  -0.514  0.00  0.00    -0.031 A 
ATOM      4  C4  IND d   1      -2.319  -0.548   1.731  0.00  0.00     0.051 A 
ATOM      5  C5  IND d   1      -1.917  -0.742   3.022  0.00  0.00    -0.031 A 
ATOM      6  C6  IND d   1      -0.704  -0.275   3.486  0.00  0.00     0.015 A 
ATOM      7  C7  IND d   1       0.151   0.416   2.675  0.00  0.00    -0.016 A 
ATOM      8  C8  IND d   1      -0.251   0.609   1.361  0.00  0.00    -0.047 A 
ATOM      9  C9  IND d   1      -1.462   0.101   0.873  0.00  0.00    -0.096 A 
ATOM     10  HN1 IND d   1       1.150   1.624   0.347  0.00  0.00     0.298 HD
ENDROOT
TORSDOF 0
ENDMDL
