MODEL 1
REMARK minimizedAffinity -3.83548522
REMARK minimizedRMSD -1
REMARK  0 active torsions:
REMARK  status: ('A' for Active; 'I' for Inactive)
ROOT
ATOM      1  N1  IND d   1      -0.752  -1.148  -0.888  0.00  0.00    -0.196 N 
ATOM      2  C2  IND d   1       0.040  -0.484  -1.783  0.00  0.00     0.054 A 
ATOM      3  C3  IND d   1       0.864   0.372  -1.137  0.00  0.00    -0.031 A 
ATOM      4  C4  IND d   1       1.155   0.769   1.390  0.00  0.00     0.051 A 
ATOM      5  C5  IND d   1       0.628   0.422   2.602  0.00  0.00    -0.031 A 
ATOM      6  C6  IND d   1      -0.404  -0.486   2.716  0.00  0.00     0.015 A 
ATOM      7  C7  IND d   1      -0.943  -1.093   1.617  0.00  0.00    -0.016 A 
ATOM      8  C8  IND d   1      -0.416  -0.738   0.383  0.00  0.00    -0.047 A 
ATOM      9  C9  IND d   1       0.603   0.215   0.259  0.00  0.00    -0.096 A 
ATOM     10  HN1 IND d   1      -1.358  -1.725  -1.086  0.00  0.00     0.298 HD
ENDROOT
TORSDOF 0
ENDMDL
