MODEL 1
REMARK minimizedAffinity -1.12105668
REMARK minimizedRMSD -1
REMARK  0 active torsions:
REMARK  status: ('A' for Active; 'I' for Inactive)
ROOT
ATOM      1  N1  IND d   1      -2.371   1.086  -1.422  0.00  0.00    -0.196 N 
ATOM      2  C2  IND d   1      -3.479   0.817  -0.668  0.00  0.00     0.054 A 
ATOM      3  C3  IND d   1      -3.137   0.115   0.436  0.00  0.00    -0.031 A 
ATOM      4  C4  IND d   1      -0.808  -0.610   1.257  0.00  0.00     0.051 A 
ATOM      5  C5  IND d   1       0.508  -0.625   0.887  0.00  0.00    -0.031 A 
ATOM      6  C6  IND d   1       0.941  -0.057  -0.293  0.00  0.00     0.015 A 
ATOM      7  C7  IND d   1       0.071   0.561  -1.147  0.00  0.00    -0.016 A 
ATOM      8  C8  IND d   1      -1.267   0.572  -0.779  0.00  0.00    -0.047 A 
ATOM      9  C9  IND d   1      -1.718  -0.041   0.398  0.00  0.00    -0.096 A 
ATOM     10  HN1 IND d   1      -2.365   1.506  -2.173  0.00  0.00     0.298 HD
ENDROOT
TORSDOF 0
ENDMDL
