MODEL 1
REMARK minimizedAffinity 4.6387229
REMARK minimizedRMSD -1
REMARK  0 active torsions:
REMARK  status: ('A' for Active; 'I' for Inactive)
ROOT
ATOM      1  N1  IND d   1      -3.761  -0.504   2.906  0.00  0.00    -0.196 N 
ATOM      2  C2  IND d   1      -4.225   0.532   2.144  0.00  0.00     0.054 A 
ATOM      3  C3  IND d   1      -3.194   1.277   1.686  0.00  0.00    -0.031 A 
ATOM      4  C4  IND d   1      -0.662   0.919   1.977  0.00  0.00     0.051 A 
ATOM      5  C5  IND d   1       0.248   0.128   2.622  0.00  0.00    -0.031 A 
ATOM      6  C6  IND d   1      -0.141  -0.937   3.408  0.00  0.00     0.015 A 
ATOM      7  C7  IND d   1      -1.459  -1.260   3.570  0.00  0.00    -0.016 A 
ATOM      8  C8  IND d   1      -2.385  -0.454   2.922  0.00  0.00    -0.047 A 
ATOM      9  C9  IND d   1      -1.998   0.654   2.158  0.00  0.00    -0.096 A 
ATOM     10  HN1 IND d   1      -4.248  -1.089   3.307  0.00  0.00     0.298 HD
ENDROOT
TORSDOF 0
ENDMDL
