MODEL 1
REMARK minimizedAffinity 10.6514149
REMARK minimizedRMSD -1
REMARK  0 active torsions:
REMARK  status: ('A' for Active; 'I' for Inactive)
ROOT
ATOM      1  N1  IND d   1      -3.616   0.443  -0.358  0.00  0.00    -0.196 N 
ATOM      2  C2  IND d   1      -2.563   0.371  -1.227  0.00  0.00     0.054 A 
ATOM      3  C3  IND d   1      -1.400   0.253  -0.548  0.00  0.00    -0.031 A 
ATOM      4  C4  IND d   1      -0.999   0.056   1.987  0.00  0.00     0.051 A 
ATOM      5  C5  IND d   1      -1.649   0.107   3.188  0.00  0.00    -0.031 A 
ATOM      6  C6  IND d   1      -3.016   0.273   3.269  0.00  0.00     0.015 A 
ATOM      7  C7  IND d   1      -3.789   0.384   2.148  0.00  0.00    -0.016 A 
ATOM      8  C8  IND d   1      -3.131   0.340   0.927  0.00  0.00    -0.047 A 
ATOM      9  C9  IND d   1      -1.739   0.214   0.839  0.00  0.00    -0.096 A 
ATOM     10  HN1 IND d   1      -4.442   0.538  -0.577  0.00  0.00     0.298 HD
ENDROOT
TORSDOF 0
ENDMDL
