MODEL 1
REMARK minimizedAffinity 7.29545975
REMARK minimizedRMSD -1
REMARK  0 active torsions:
REMARK  status: ('A' for Active; 'I' for Inactive)
ROOT
ATOM      1  N1  IND d   1      -3.504   0.701  -1.370  0.00  0.00    -0.196 N 
ATOM      2  C2  IND d   1      -2.502   0.464  -2.269  0.00  0.00     0.054 A 
ATOM      3  C3  IND d   1      -1.353   0.161  -1.624  0.00  0.00    -0.031 A 
ATOM      4  C4  IND d   1      -0.914  -0.105   0.898  0.00  0.00     0.051 A 
ATOM      5  C5  IND d   1      -1.513   0.046   2.118  0.00  0.00    -0.031 A 
ATOM      6  C6  IND d   1      -2.834   0.428   2.239  0.00  0.00     0.015 A 
ATOM      7  C7  IND d   1      -3.611   0.664   1.140  0.00  0.00    -0.016 A 
ATOM      8  C8  IND d   1      -3.004   0.518  -0.099  0.00  0.00    -0.047 A 
ATOM      9  C9  IND d   1      -1.653   0.172  -0.228  0.00  0.00    -0.096 A 
ATOM     10  HN1 IND d   1      -4.310   0.926  -1.565  0.00  0.00     0.298 HD
ENDROOT
TORSDOF 0
ENDMDL
