MODEL 1
REMARK minimizedAffinity 4.97362185
REMARK minimizedRMSD -1
REMARK  0 active torsions:
REMARK  status: ('A' for Active; 'I' for Inactive)
ROOT
ATOM      1  N1  IND d   1       2.290   3.081   0.825  0.00  0.00    -0.196 N 
ATOM      2  C2  IND d   1       1.894   2.751  -0.442  0.00  0.00     0.054 A 
ATOM      3  C3  IND d   1       0.982   1.755  -0.405  0.00  0.00    -0.031 A 
ATOM      4  C4  IND d   1      -0.083   0.586   1.627  0.00  0.00     0.051 A 
ATOM      5  C5  IND d   1      -0.014   0.520   2.990  0.00  0.00    -0.031 A 
ATOM      6  C6  IND d   1       0.842   1.322   3.716  0.00  0.00     0.015 A 
ATOM      7  C7  IND d   1       1.656   2.233   3.104  0.00  0.00    -0.016 A 
ATOM      8  C8  IND d   1       1.594   2.298   1.719  0.00  0.00    -0.047 A 
ATOM      9  C9  IND d   1       0.758   1.456   0.974  0.00  0.00    -0.096 A 
ATOM     10  HN1 IND d   1       2.875   3.677   1.028  0.00  0.00     0.298 HD
ENDROOT
TORSDOF 0
ENDMDL
