MODEL 1
REMARK minimizedAffinity 6.93293333
REMARK minimizedRMSD -1
REMARK  0 active torsions:
REMARK  status: ('A' for Active; 'I' for Inactive)
ROOT
ATOM      1  N1  IND d   1      -3.250   0.788  -0.723  0.00  0.00    -0.196 N 
ATOM      2  C2  IND d   1      -1.984   0.590  -1.199  0.00  0.00     0.054 A 
ATOM      3  C3  IND d   1      -1.124   0.381  -0.177  0.00  0.00    -0.031 A 
ATOM      4  C4  IND d   1      -1.595   0.217   2.348  0.00  0.00     0.051 A 
ATOM      5  C5  IND d   1      -2.594   0.365   3.270  0.00  0.00    -0.031 A 
ATOM      6  C6  IND d   1      -3.889   0.664   2.899  0.00  0.00     0.015 A 
ATOM      7  C7  IND d   1      -4.238   0.817   1.587  0.00  0.00    -0.016 A 
ATOM      8  C8  IND d   1      -3.225   0.675   0.649  0.00  0.00    -0.047 A 
ATOM      9  C9  IND d   1      -1.900   0.413   1.022  0.00  0.00    -0.096 A 
ATOM     10  HN1 IND d   1      -3.945   0.955  -1.201  0.00  0.00     0.298 HD
ENDROOT
TORSDOF 0
ENDMDL
