MODEL 1
REMARK minimizedAffinity 7.13230515
REMARK minimizedRMSD -1
REMARK  0 active torsions:
REMARK  status: ('A' for Active; 'I' for Inactive)
ROOT
ATOM      1  N1  IND d   1      -4.190   1.201  -0.093  0.00  0.00    -0.196 N 
ATOM      2  C2  IND d   1      -5.407   0.718   0.300  0.00  0.00     0.054 A 
ATOM      3  C3  IND d   1      -5.273  -0.055   1.400  0.00  0.00    -0.031 A 
ATOM      4  C4  IND d   1      -3.167  -0.582   2.783  0.00  0.00     0.051 A 
ATOM      5  C5  IND d   1      -1.813  -0.397   2.796  0.00  0.00    -0.031 A 
ATOM      6  C6  IND d   1      -1.169   0.348   1.829  0.00  0.00     0.015 A 
ATOM      7  C7  IND d   1      -1.861   0.947   0.814  0.00  0.00    -0.016 A 
ATOM      8  C8  IND d   1      -3.235   0.755   0.794  0.00  0.00    -0.047 A 
ATOM      9  C9  IND d   1      -3.888  -0.034   1.749  0.00  0.00    -0.096 A 
ATOM     10  HN1 IND d   1      -4.046   1.700  -0.779  0.00  0.00     0.298 HD
ENDROOT
TORSDOF 0
ENDMDL
