MODEL 1
REMARK minimizedAffinity 8.68577194
REMARK minimizedRMSD -1
REMARK  0 active torsions:
REMARK  status: ('A' for Active; 'I' for Inactive)
ROOT
ATOM      1  N1  IND d   1      -2.165   1.614   2.254  0.00  0.00    -0.196 N 
ATOM      2  C2  IND d   1      -3.202   0.725   2.186  0.00  0.00     0.054 A 
ATOM      3  C3  IND d   1      -2.744  -0.542   2.301  0.00  0.00    -0.031 A 
ATOM      4  C4  IND d   1      -0.345  -1.383   2.710  0.00  0.00     0.051 A 
ATOM      5  C5  IND d   1       0.947  -0.949   2.807  0.00  0.00    -0.031 A 
ATOM      6  C6  IND d   1       1.274   0.389   2.725  0.00  0.00     0.015 A 
ATOM      7  C7  IND d   1       0.316   1.348   2.554  0.00  0.00    -0.016 A 
ATOM      8  C8  IND d   1      -0.997   0.910   2.449  0.00  0.00    -0.047 A 
ATOM      9  C9  IND d   1      -1.330  -0.450   2.488  0.00  0.00    -0.096 A 
ATOM     10  HN1 IND d   1      -2.231   2.468   2.186  0.00  0.00     0.298 HD
ENDROOT
TORSDOF 0
ENDMDL
