MODEL 1
REMARK minimizedAffinity 1.04126775
REMARK minimizedRMSD -1
REMARK  0 active torsions:
REMARK  status: ('A' for Active; 'I' for Inactive)
ROOT
ATOM      1  N1  IND d   1      -0.961  -0.003   4.351  0.00  0.00    -0.196 N 
ATOM      2  C2  IND d   1      -2.288  -0.290   4.193  0.00  0.00     0.054 A 
ATOM      3  C3  IND d   1      -2.668  -0.072   2.914  0.00  0.00    -0.031 A 
ATOM      4  C4  IND d   1      -1.253   0.658   0.890  0.00  0.00     0.051 A 
ATOM      5  C5  IND d   1       0.003   1.073   0.547  0.00  0.00    -0.031 A 
ATOM      6  C6  IND d   1       1.023   1.149   1.473  0.00  0.00     0.015 A 
ATOM      7  C7  IND d   1       0.827   0.801   2.780  0.00  0.00    -0.016 A 
ATOM      8  C8  IND d   1      -0.449   0.386   3.133  0.00  0.00    -0.047 A 
ATOM      9  C9  IND d   1      -1.499   0.347   2.207  0.00  0.00    -0.096 A 
ATOM     10  HN1 IND d   1      -0.521  -0.056   5.087  0.00  0.00     0.298 HD
ENDROOT
TORSDOF 0
ENDMDL
