MODEL 1
REMARK minimizedAffinity 3.27670264
REMARK minimizedRMSD -1
REMARK  0 active torsions:
REMARK  status: ('A' for Active; 'I' for Inactive)
ROOT
ATOM      1  N1  IND d   1      -1.043   0.887  -0.426  0.00  0.00    -0.196 N 
ATOM      2  C2  IND d   1      -0.264   1.101  -1.528  0.00  0.00     0.054 A 
ATOM      3  C3  IND d   1       1.045   1.074  -1.191  0.00  0.00    -0.031 A 
ATOM      4  C4  IND d   1       2.137   0.593   1.090  0.00  0.00     0.051 A 
ATOM      5  C5  IND d   1       1.834   0.376   2.405  0.00  0.00    -0.031 A 
ATOM      6  C6  IND d   1       0.530   0.314   2.852  0.00  0.00     0.015 A 
ATOM      7  C7  IND d   1      -0.525   0.456   1.995  0.00  0.00    -0.016 A 
ATOM      8  C8  IND d   1      -0.220   0.684   0.660  0.00  0.00    -0.047 A 
ATOM      9  C9  IND d   1       1.101   0.790   0.208  0.00  0.00    -0.096 A 
ATOM     10  HN1 IND d   1      -1.903   0.881  -0.413  0.00  0.00     0.298 HD
ENDROOT
TORSDOF 0
ENDMDL
