MODEL 1
REMARK minimizedAffinity -0.825823307
REMARK minimizedRMSD -1
REMARK  0 active torsions:
REMARK  status: ('A' for Active; 'I' for Inactive)
ROOT
ATOM      1  N1  IND d   1      -1.938   0.906   2.621  0.00  0.00    -0.196 N 
ATOM      2  C2  IND d   1      -1.451   1.164   3.872  0.00  0.00     0.054 A 
ATOM      3  C3  IND d   1      -0.109   1.006   3.897  0.00  0.00    -0.031 A 
ATOM      4  C4  IND d   1       1.506   0.428   1.977  0.00  0.00     0.051 A 
ATOM      5  C5  IND d   1       1.526   0.068   0.659  0.00  0.00    -0.031 A 
ATOM      6  C6  IND d   1       0.370  -0.031  -0.089  0.00  0.00     0.015 A 
ATOM      7  C7  IND d   1      -0.854   0.239   0.454  0.00  0.00    -0.016 A 
ATOM      8  C8  IND d   1      -0.879   0.599   1.794  0.00  0.00    -0.047 A 
ATOM      9  C9  IND d   1       0.286   0.659   2.569  0.00  0.00    -0.096 A 
ATOM     10  HN1 IND d   1      -2.765   0.931   2.389  0.00  0.00     0.298 HD
ENDROOT
TORSDOF 0
ENDMDL
