MODEL 1
REMARK minimizedAffinity 5.1916914
REMARK minimizedRMSD -1
REMARK  0 active torsions:
REMARK  status: ('A' for Active; 'I' for Inactive)
ROOT
ATOM      1  N1  IND d   1      -1.410   0.745   0.427  0.00  0.00    -0.196 N 
ATOM      2  C2  IND d   1      -1.295   0.296  -0.860  0.00  0.00     0.054 A 
ATOM      3  C3  IND d   1      -0.024  -0.090  -1.111  0.00  0.00    -0.031 A 
ATOM      4  C4  IND d   1       2.005  -0.169   0.472  0.00  0.00     0.051 A 
ATOM      5  C5  IND d   1       2.400   0.173   1.734  0.00  0.00    -0.031 A 
ATOM      6  C6  IND d   1       1.527   0.732   2.645  0.00  0.00     0.015 A 
ATOM      7  C7  IND d   1       0.218   0.960   2.329  0.00  0.00    -0.016 A 
ATOM      8  C8  IND d   1      -0.185   0.621   1.045  0.00  0.00    -0.047 A 
ATOM      9  C9  IND d   1       0.707   0.092   0.103  0.00  0.00    -0.096 A 
ATOM     10  HN1 IND d   1      -2.127   1.052   0.788  0.00  0.00     0.298 HD
ENDROOT
TORSDOF 0
ENDMDL
