MODEL 1
REMARK minimizedAffinity -2.15315008
REMARK minimizedRMSD -1
REMARK  0 active torsions:
REMARK  status: ('A' for Active; 'I' for Inactive)
ROOT
ATOM      1  N1  IND d   1       0.859   0.743  -0.117  0.00  0.00    -0.196 N 
ATOM      2  C2  IND d   1       0.647  -0.021  -1.231  0.00  0.00     0.054 A 
ATOM      3  C3  IND d   1      -0.034  -1.143  -0.909  0.00  0.00    -0.031 A 
ATOM      4  C4  IND d   1      -0.991  -1.880   1.365  0.00  0.00     0.051 A 
ATOM      5  C5  IND d   1      -1.021  -1.529   2.686  0.00  0.00    -0.031 A 
ATOM      6  C6  IND d   1      -0.417  -0.378   3.148  0.00  0.00     0.015 A 
ATOM      7  C7  IND d   1       0.234   0.475   2.302  0.00  0.00    -0.016 A 
ATOM      8  C8  IND d   1       0.273   0.118   0.961  0.00  0.00    -0.047 A 
ATOM      9  C9  IND d   1      -0.302  -1.070   0.493  0.00  0.00    -0.096 A 
ATOM     10  HN1 IND d   1       1.286   1.489  -0.094  0.00  0.00     0.298 HD
ENDROOT
TORSDOF 0
ENDMDL
