MODEL 1
REMARK minimizedAffinity -3.86959743
REMARK minimizedRMSD -1
REMARK  0 active torsions:
REMARK  status: ('A' for Active; 'I' for Inactive)
ROOT
ATOM      1  N1  IND d   1       0.906   0.435  -0.441  0.00  0.00    -0.196 N 
ATOM      2  C2  IND d   1       0.057   0.351  -1.509  0.00  0.00     0.054 A 
ATOM      3  C3  IND d   1      -1.183   0.002  -1.097  0.00  0.00    -0.031 A 
ATOM      4  C4  IND d   1      -2.066  -0.382   1.290  0.00  0.00     0.051 A 
ATOM      5  C5  IND d   1      -1.656  -0.455   2.592  0.00  0.00    -0.031 A 
ATOM      6  C6  IND d   1      -0.345  -0.228   2.957  0.00  0.00     0.015 A 
ATOM      7  C7  IND d   1       0.607   0.094   2.030  0.00  0.00    -0.016 A 
ATOM      8  C8  IND d   1       0.195   0.162   0.707  0.00  0.00    -0.047 A 
ATOM      9  C9  IND d   1      -1.125  -0.110   0.326  0.00  0.00    -0.096 A 
ATOM     10  HN1 IND d   1       1.743   0.626  -0.480  0.00  0.00     0.298 HD
ENDROOT
TORSDOF 0
ENDMDL
