MODEL 1
REMARK minimizedAffinity -0.10202428
REMARK minimizedRMSD -1
REMARK  0 active torsions:
REMARK  status: ('A' for Active; 'I' for Inactive)
ROOT
ATOM      1  N1  IND d   1       0.321   0.084   3.391  0.00  0.00    -0.196 N 
ATOM      2  C2  IND d   1      -0.681  -0.828   3.572  0.00  0.00     0.054 A 
ATOM      3  C3  IND d   1      -1.201  -1.197   2.380  0.00  0.00    -0.031 A 
ATOM      4  C4  IND d   1      -0.495  -0.508   0.003  0.00  0.00     0.051 A 
ATOM      5  C5  IND d   1       0.348   0.332  -0.670  0.00  0.00    -0.031 A 
ATOM      6  C6  IND d   1       1.245   1.147  -0.010  0.00  0.00     0.015 A 
ATOM      7  C7  IND d   1       1.341   1.143   1.353  0.00  0.00    -0.016 A 
ATOM      8  C8  IND d   1       0.482   0.297   2.040  0.00  0.00    -0.047 A 
ATOM      9  C9  IND d   1      -0.460  -0.501   1.377  0.00  0.00    -0.096 A 
ATOM     10  HN1 IND d   1       0.775   0.462   4.016  0.00  0.00     0.298 HD
ENDROOT
TORSDOF 0
ENDMDL
