MODEL 1
REMARK minimizedAffinity -4.71201849
REMARK minimizedRMSD -1
REMARK  0 active torsions:
REMARK  status: ('A' for Active; 'I' for Inactive)
ROOT
ATOM      1  C4' PXY d   1      -1.264   3.027   1.611  0.00  0.00     0.077 C 
ATOM      2  C1' PXY d   1       0.671  -1.849  -0.816  0.00  0.00     0.077 C 
ATOM      3  C1  PXY d   1       0.163  -0.576  -0.168  0.00  0.00    -0.082 A 
ATOM      4  C2  PXY d   1      -0.462   0.328  -0.904  0.00  0.00     0.003 A 
ATOM      5  C3  PXY d   1      -0.900   1.499  -0.340  0.00  0.00     0.003 A 
ATOM      6  C4  PXY d   1      -0.742   1.723   1.001  0.00  0.00    -0.082 A 
ATOM      7  C5  PXY d   1      -0.115   0.801   1.761  0.00  0.00     0.003 A 
ATOM      8  C6  PXY d   1       0.358  -0.363   1.162  0.00  0.00     0.003 A 
ENDROOT
TORSDOF 0
ENDMDL
