MODEL 1
REMARK minimizedAffinity -4.81370735
REMARK minimizedRMSD -1
REMARK  0 active torsions:
REMARK  status: ('A' for Active; 'I' for Inactive)
ROOT
ATOM      1  C4' PXY d   1       1.854  -0.511   2.588  0.00  0.00     0.077 C 
ATOM      2  C1' PXY d   1      -1.677   3.130  -0.184  0.00  0.00     0.077 C 
ATOM      3  C1  PXY d   1      -0.756   2.165   0.537  0.00  0.00    -0.082 A 
ATOM      4  C2  PXY d   1      -0.205   2.521   1.686  0.00  0.00     0.003 A 
ATOM      5  C3  PXY d   1       0.654   1.673   2.335  0.00  0.00     0.003 A 
ATOM      6  C4  PXY d   1       0.911   0.427   1.830  0.00  0.00    -0.082 A 
ATOM      7  C5  PXY d   1       0.345   0.052   0.664  0.00  0.00     0.003 A 
ATOM      8  C6  PXY d   1      -0.493   0.943  -0.001  0.00  0.00     0.003 A 
ENDROOT
TORSDOF 0
ENDMDL
