MODEL 1
REMARK minimizedAffinity -5.79537201
REMARK minimizedRMSD -1
REMARK  0 active torsions:
REMARK  status: ('A' for Active; 'I' for Inactive)
ROOT
ATOM      1  C4' PXY d   1       0.719  -1.489  -1.435  0.00  0.00     0.077 C 
ATOM      2  C1' PXY d   1      -0.936   2.951   1.876  0.00  0.00     0.077 C 
ATOM      3  C1  PXY d   1      -0.493   1.784   1.016  0.00  0.00    -0.082 A 
ATOM      4  C2  PXY d   1      -0.778   1.777  -0.276  0.00  0.00     0.003 A 
ATOM      5  C3  PXY d   1      -0.413   0.714  -1.062  0.00  0.00     0.003 A 
ATOM      6  C4  PXY d   1       0.299  -0.327  -0.531  0.00  0.00    -0.082 A 
ATOM      7  C5  PXY d   1       0.604  -0.323   0.784  0.00  0.00     0.003 A 
ATOM      8  C6  PXY d   1       0.188   0.746   1.573  0.00  0.00     0.003 A 
ENDROOT
TORSDOF 0
ENDMDL
