MODEL 1
REMARK minimizedAffinity -4.04248762
REMARK minimizedRMSD -1
REMARK  0 active torsions:
REMARK  status: ('A' for Active; 'I' for Inactive)
ROOT
ATOM      1  C4' PXY d   1      -0.155  -2.993  -1.287  0.00  0.00     0.077 C 
ATOM      2  C1' PXY d   1       0.198   1.672   2.109  0.00  0.00     0.077 C 
ATOM      3  C1  PXY d   1       0.098   0.455   1.210  0.00  0.00    -0.082 A 
ATOM      4  C2  PXY d   1       0.261  -0.753   1.723  0.00  0.00     0.003 A 
ATOM      5  C3  PXY d   1       0.206  -1.862   0.919  0.00  0.00     0.003 A 
ATOM      6  C4  PXY d   1      -0.072  -1.737  -0.416  0.00  0.00    -0.082 A 
ATOM      7  C5  PXY d   1      -0.251  -0.508  -0.946  0.00  0.00     0.003 A 
ATOM      8  C6  PXY d   1      -0.150   0.608  -0.120  0.00  0.00     0.003 A 
ENDROOT
TORSDOF 0
ENDMDL
