MODEL 1
REMARK minimizedAffinity -5.29050779
REMARK minimizedRMSD -1
REMARK  0 active torsions:
REMARK  status: ('A' for Active; 'I' for Inactive)
ROOT
ATOM      1  C4' PXY d   1       0.855  -1.174  -1.145  0.00  0.00     0.077 C 
ATOM      2  C1' PXY d   1      -1.477   3.335   1.622  0.00  0.00     0.077 C 
ATOM      3  C1  PXY d   1      -0.874   2.154   0.887  0.00  0.00    -0.082 A 
ATOM      4  C2  PXY d   1      -0.180   1.250   1.559  0.00  0.00     0.003 A 
ATOM      5  C3  PXY d   1       0.399   0.193   0.905  0.00  0.00     0.003 A 
ATOM      6  C4  PXY d   1       0.220   0.030  -0.443  0.00  0.00    -0.082 A 
ATOM      7  C5  PXY d   1      -0.495   0.942  -1.134  0.00  0.00     0.003 A 
ATOM      8  C6  PXY d   1      -1.040   2.030  -0.458  0.00  0.00     0.003 A 
ENDROOT
TORSDOF 0
ENDMDL
