MODEL 1
REMARK minimizedAffinity -4.30705118
REMARK minimizedRMSD -1
REMARK  0 active torsions:
REMARK  status: ('A' for Active; 'I' for Inactive)
ROOT
ATOM      1  C4' PXY d   1       0.881  -2.754  -1.240  0.00  0.00     0.077 C 
ATOM      2  C1' PXY d   1      -1.078   2.581  -0.186  0.00  0.00     0.077 C 
ATOM      3  C1  PXY d   1      -0.564   1.185  -0.475  0.00  0.00    -0.082 A 
ATOM      4  C2  PXY d   1      -0.754   0.221   0.412  0.00  0.00     0.003 A 
ATOM      5  C3  PXY d   1      -0.268  -1.040   0.181  0.00  0.00     0.003 A 
ATOM      6  C4  PXY d   1       0.372  -1.331  -0.994  0.00  0.00    -0.082 A 
ATOM      7  C5  PXY d   1       0.560  -0.356  -1.909  0.00  0.00     0.003 A 
ATOM      8  C6  PXY d   1       0.095   0.927  -1.637  0.00  0.00     0.003 A 
ENDROOT
TORSDOF 0
ENDMDL
