MODEL 1
REMARK minimizedAffinity -5.22956467
REMARK minimizedRMSD -1
REMARK  0 active torsions:
REMARK  status: ('A' for Active; 'I' for Inactive)
ROOT
ATOM      1  C4' PXY d   1       0.584  -1.324  -0.951  0.00  0.00     0.077 C 
ATOM      2  C1' PXY d   1      -1.394   3.333   1.845  0.00  0.00     0.077 C 
ATOM      3  C1  PXY d   1      -0.866   2.110   1.121  0.00  0.00    -0.082 A 
ATOM      4  C2  PXY d   1      -1.103   1.963  -0.172  0.00  0.00     0.003 A 
ATOM      5  C3  PXY d   1      -0.660   0.848  -0.836  0.00  0.00     0.003 A 
ATOM      6  C4  PXY d   1       0.079  -0.101  -0.181  0.00  0.00    -0.082 A 
ATOM      7  C5  PXY d   1       0.334   0.048   1.136  0.00  0.00     0.003 A 
ATOM      8  C6  PXY d   1      -0.159   1.166   1.801  0.00  0.00     0.003 A 
ENDROOT
TORSDOF 0
ENDMDL
