MODEL 1
REMARK minimizedAffinity -5.97401237
REMARK minimizedRMSD -1
REMARK  0 active torsions:
REMARK  status: ('A' for Active; 'I' for Inactive)
ROOT
ATOM      1  C4' PXY d   1      -1.162   4.013   1.053  0.00  0.00     0.077 C 
ATOM      2  C1' PXY d   1       1.114  -0.912  -0.943  0.00  0.00     0.077 C 
ATOM      3  C1  PXY d   1       0.514   0.373  -0.409  0.00  0.00    -0.082 A 
ATOM      4  C2  PXY d   1       0.149   1.325  -1.252  0.00  0.00     0.003 A 
ATOM      5  C3  PXY d   1      -0.366   2.507  -0.784  0.00  0.00     0.003 A 
ATOM      6  C4  PXY d   1      -0.560   2.695   0.558  0.00  0.00    -0.082 A 
ATOM      7  C5  PXY d   1      -0.200   1.724   1.424  0.00  0.00     0.003 A 
ATOM      8  C6  PXY d   1       0.359   0.549   0.932  0.00  0.00     0.003 A 
ENDROOT
TORSDOF 0
ENDMDL
