MODEL 1
REMARK minimizedAffinity -5.29271507
REMARK minimizedRMSD -1
REMARK  0 active torsions:
REMARK  status: ('A' for Active; 'I' for Inactive)
ROOT
ATOM      1  C4' PXY d   1      -1.413   2.245   1.310  0.00  0.00     0.077 C 
ATOM      2  C1' PXY d   1       0.745  -2.545  -1.101  0.00  0.00     0.077 C 
ATOM      3  C1  PXY d   1       0.191  -1.284  -0.468  0.00  0.00    -0.082 A 
ATOM      4  C2  PXY d   1      -0.977  -1.322   0.151  0.00  0.00     0.003 A 
ATOM      5  C3  PXY d   1      -1.508  -0.183   0.701  0.00  0.00     0.003 A 
ATOM      6  C4  PXY d   1      -0.811   0.994   0.664  0.00  0.00    -0.082 A 
ATOM      7  C5  PXY d   1       0.388   1.039   0.044  0.00  0.00     0.003 A 
ATOM      8  C6  PXY d   1       0.890  -0.119  -0.544  0.00  0.00     0.003 A 
ENDROOT
TORSDOF 0
ENDMDL
