MODEL 1
REMARK minimizedAffinity -4.71628714
REMARK minimizedRMSD -1
REMARK  0 active torsions:
REMARK  status: ('A' for Active; 'I' for Inactive)
ROOT
ATOM      1  O1  BZF d   1       0.662  -0.834   0.177  0.00  0.00    -0.204 OA
ATOM      2  C2  BZF d   1      -0.719  -0.870   0.169  0.00  0.00     0.174 A 
ATOM      3  C3  BZF d   1      -1.231   0.369   0.311  0.00  0.00    -0.012 A 
ATOM      4  C3A BZF d   1      -0.100   1.245   0.321  0.00  0.00    -0.107 A 
ATOM      5  C4  BZF d   1       0.038   2.600   0.420  0.00  0.00     0.055 A 
ATOM      6  C5  BZF d   1       1.286   3.135   0.472  0.00  0.00    -0.016 A 
ATOM      7  C6  BZF d   1       2.416   2.346   0.434  0.00  0.00     0.022 A 
ATOM      8  C7  BZF d   1       2.331   0.997   0.332  0.00  0.00     0.029 A 
ATOM      9  C7A BZF d   1       1.071   0.456   0.245  0.00  0.00     0.058 A 
ENDROOT
TORSDOF 0
ENDMDL
