MODEL 1
REMARK minimizedAffinity -4.49296427
REMARK minimizedRMSD -1
REMARK  0 active torsions:
REMARK  status: ('A' for Active; 'I' for Inactive)
ROOT
ATOM      1  O1  BZF d   1      -0.756   2.902   0.253  0.00  0.00    -0.204 OA
ATOM      2  C2  BZF d   1       0.388   3.304  -0.409  0.00  0.00     0.174 A 
ATOM      3  C3  BZF d   1       1.179   2.247  -0.683  0.00  0.00    -0.012 A 
ATOM      4  C3A BZF d   1       0.443   1.102  -0.242  0.00  0.00    -0.107 A 
ATOM      5  C4  BZF d   1       0.695  -0.240  -0.257  0.00  0.00     0.055 A 
ATOM      6  C5  BZF d   1      -0.198  -1.087   0.318  0.00  0.00    -0.016 A 
ATOM      7  C6  BZF d   1      -1.349  -0.627   0.923  0.00  0.00     0.022 A 
ATOM      8  C7  BZF d   1      -1.646   0.695   0.959  0.00  0.00     0.029 A 
ATOM      9  C7A BZF d   1      -0.761   1.551   0.349  0.00  0.00     0.058 A 
ENDROOT
TORSDOF 0
ENDMDL
