MODEL 1
REMARK minimizedAffinity -3.28877974
REMARK minimizedRMSD -1
REMARK  0 active torsions:
REMARK  status: ('A' for Active; 'I' for Inactive)
ROOT
ATOM      1  O1  BZF d   1      -0.956   3.340   0.134  0.00  0.00    -0.204 OA
ATOM      2  C2  BZF d   1       0.321   3.826  -0.072  0.00  0.00     0.174 A 
ATOM      3  C3  BZF d   1       1.201   2.814  -0.211  0.00  0.00    -0.012 A 
ATOM      4  C3A BZF d   1       0.412   1.622  -0.176  0.00  0.00    -0.107 A 
ATOM      5  C4  BZF d   1       0.713   0.293  -0.281  0.00  0.00     0.055 A 
ATOM      6  C5  BZF d   1      -0.280  -0.622  -0.132  0.00  0.00    -0.016 A 
ATOM      7  C6  BZF d   1      -1.582  -0.246   0.127  0.00  0.00     0.022 A 
ATOM      8  C7  BZF d   1      -1.930   1.060   0.234  0.00  0.00     0.029 A 
ATOM      9  C7A BZF d   1      -0.934   1.988   0.051  0.00  0.00     0.058 A 
ENDROOT
TORSDOF 0
ENDMDL
