MODEL 1
REMARK minimizedAffinity -5.02311945
REMARK minimizedRMSD -1
REMARK  0 active torsions:
REMARK  status: ('A' for Active; 'I' for Inactive)
ROOT
ATOM      1  O1  BZF d   1      -0.930   2.173   0.342  0.00  0.00    -0.204 OA
ATOM      2  C2  BZF d   1      -0.230   3.357   0.221  0.00  0.00     0.174 A 
ATOM      3  C3  BZF d   1       1.099   3.136   0.290  0.00  0.00    -0.012 A 
ATOM      4  C3A BZF d   1       1.240   1.715   0.373  0.00  0.00    -0.107 A 
ATOM      5  C4  BZF d   1       2.319   0.881   0.450  0.00  0.00     0.055 A 
ATOM      6  C5  BZF d   1       2.114  -0.454   0.592  0.00  0.00    -0.016 A 
ATOM      7  C6  BZF d   1       0.844  -0.989   0.667  0.00  0.00     0.022 A 
ATOM      8  C7  BZF d   1      -0.257  -0.203   0.591  0.00  0.00     0.029 A 
ATOM      9  C7A BZF d   1      -0.053   1.143   0.413  0.00  0.00     0.058 A 
ENDROOT
TORSDOF 0
ENDMDL
