MODEL 1
REMARK minimizedAffinity -4.43345594
REMARK minimizedRMSD -1
REMARK  0 active torsions:
REMARK  status: ('A' for Active; 'I' for Inactive)
ROOT
ATOM      1  O1  BZF d   1      -1.028  -0.754   0.072  0.00  0.00    -0.204 OA
ATOM      2  C2  BZF d   1      -0.020  -1.456  -0.562  0.00  0.00     0.174 A 
ATOM      3  C3  BZF d   1       0.939  -0.619  -1.005  0.00  0.00    -0.012 A 
ATOM      4  C3A BZF d   1       0.550   0.679  -0.544  0.00  0.00    -0.107 A 
ATOM      5  C4  BZF d   1       1.107   1.921  -0.654  0.00  0.00     0.055 A 
ATOM      6  C5  BZF d   1       0.437   2.992  -0.154  0.00  0.00    -0.016 A 
ATOM      7  C6  BZF d   1      -0.793   2.858   0.457  0.00  0.00     0.022 A 
ATOM      8  C7  BZF d   1      -1.383   1.646   0.594  0.00  0.00     0.029 A 
ATOM      9  C7A BZF d   1      -0.693   0.557   0.119  0.00  0.00     0.058 A 
ENDROOT
TORSDOF 0
ENDMDL
