MODEL 1
REMARK minimizedAffinity -3.50028348
REMARK minimizedRMSD -1
REMARK  0 active torsions:
REMARK  status: ('A' for Active; 'I' for Inactive)
ROOT
ATOM      1  O1  BZF d   1      -0.792  -1.252   0.263  0.00  0.00    -0.204 OA
ATOM      2  C2  BZF d   1       0.406  -1.713  -0.246  0.00  0.00     0.174 A 
ATOM      3  C3  BZF d   1       1.234  -0.686  -0.525  0.00  0.00    -0.012 A 
ATOM      4  C3A BZF d   1       0.543   0.486  -0.081  0.00  0.00    -0.107 A 
ATOM      5  C4  BZF d   1       0.858   1.815  -0.073  0.00  0.00     0.055 A 
ATOM      6  C5  BZF d   1      -0.067   2.709   0.363  0.00  0.00    -0.016 A 
ATOM      7  C6  BZF d   1      -1.317   2.312   0.792  0.00  0.00     0.022 A 
ATOM      8  C7  BZF d   1      -1.673   1.004   0.807  0.00  0.00     0.029 A 
ATOM      9  C7A BZF d   1      -0.728   0.094   0.398  0.00  0.00     0.058 A 
ENDROOT
TORSDOF 0
ENDMDL
