MODEL 1
REMARK minimizedAffinity -3.08747435
REMARK minimizedRMSD -1
REMARK  0 active torsions:
REMARK  status: ('A' for Active; 'I' for Inactive)
ROOT
ATOM      1  O1  BZF d   1       0.940  -0.746  -0.288  0.00  0.00    -0.204 OA
ATOM      2  C2  BZF d   1      -0.034  -1.702  -0.074  0.00  0.00     0.174 A 
ATOM      3  C3  BZF d   1      -1.176  -1.131   0.363  0.00  0.00    -0.012 A 
ATOM      4  C3A BZF d   1      -0.927   0.277   0.336  0.00  0.00    -0.107 A 
ATOM      5  C4  BZF d   1      -1.685   1.371   0.643  0.00  0.00     0.055 A 
ATOM      6  C5  BZF d   1      -1.120   2.605   0.579  0.00  0.00    -0.016 A 
ATOM      7  C6  BZF d   1       0.200   2.782   0.219  0.00  0.00     0.022 A 
ATOM      8  C7  BZF d   1       0.990   1.728  -0.098  0.00  0.00     0.029 A 
ATOM      9  C7A BZF d   1       0.413   0.482  -0.067  0.00  0.00     0.058 A 
ENDROOT
TORSDOF 0
ENDMDL
