MODEL 1
REMARK minimizedAffinity -2.8387773
REMARK minimizedRMSD -1
REMARK  0 active torsions:
REMARK  status: ('A' for Active; 'I' for Inactive)
ROOT
ATOM      1  O1  BZF d   1      -0.024  -0.915  -0.260  0.00  0.00    -0.204 OA
ATOM      2  C2  BZF d   1      -1.139  -1.142   0.522  0.00  0.00     0.174 A 
ATOM      3  C3  BZF d   1      -1.655   0.022   0.969  0.00  0.00    -0.012 A 
ATOM      4  C3A BZF d   1      -0.863   1.044   0.356  0.00  0.00    -0.107 A 
ATOM      5  C4  BZF d   1      -0.895   2.408   0.398  0.00  0.00     0.055 A 
ATOM      6  C5  BZF d   1       0.065   3.112  -0.257  0.00  0.00    -0.016 A 
ATOM      7  C6  BZF d   1       1.074   2.485  -0.958  0.00  0.00     0.022 A 
ATOM      8  C7  BZF d   1       1.145   1.134  -1.033  0.00  0.00     0.029 A 
ATOM      9  C7A BZF d   1       0.157   0.420  -0.399  0.00  0.00     0.058 A 
ENDROOT
TORSDOF 0
ENDMDL
