MODEL 1
REMARK minimizedAffinity -1.72074234
REMARK minimizedRMSD -1
REMARK  0 active torsions:
REMARK  status: ('A' for Active; 'I' for Inactive)
ROOT
ATOM      1  O1  BZF d   1      -1.116   0.010   0.810  0.00  0.00    -0.204 OA
ATOM      2  C2  BZF d   1      -0.687  -0.846  -0.187  0.00  0.00     0.174 A 
ATOM      3  C3  BZF d   1       0.078  -0.190  -1.084  0.00  0.00    -0.012 A 
ATOM      4  C3A BZF d   1       0.206   1.138  -0.569  0.00  0.00    -0.107 A 
ATOM      5  C4  BZF d   1       0.861   2.255  -1.005  0.00  0.00     0.055 A 
ATOM      6  C5  BZF d   1       0.726   3.414  -0.308  0.00  0.00    -0.016 A 
ATOM      7  C6  BZF d   1      -0.059   3.494   0.823  0.00  0.00     0.022 A 
ATOM      8  C7  BZF d   1      -0.724   2.412   1.297  0.00  0.00     0.029 A 
ATOM      9  C7A BZF d   1      -0.563   1.231   0.614  0.00  0.00     0.058 A 
ENDROOT
TORSDOF 0
ENDMDL
