MODEL 1
REMARK minimizedAffinity -5.02861023
REMARK minimizedRMSD -1
REMARK  0 active torsions:
REMARK  status: ('A' for Active; 'I' for Inactive)
ROOT
ATOM      1  O1  BZF d   1      -0.415  -0.830   0.328  0.00  0.00    -0.204 OA
ATOM      2  C2  BZF d   1       0.760  -1.555   0.289  0.00  0.00     0.174 A 
ATOM      3  C3  BZF d   1       1.798  -0.766  -0.058  0.00  0.00    -0.012 A 
ATOM      4  C3A BZF d   1       1.251   0.553  -0.157  0.00  0.00    -0.107 A 
ATOM      5  C4  BZF d   1       1.789   1.773  -0.453  0.00  0.00     0.055 A 
ATOM      6  C5  BZF d   1       0.969   2.853  -0.538  0.00  0.00    -0.016 A 
ATOM      7  C6  BZF d   1      -0.392   2.749  -0.338  0.00  0.00     0.022 A 
ATOM      8  C7  BZF d   1      -0.971   1.562  -0.037  0.00  0.00     0.029 A 
ATOM      9  C7A BZF d   1      -0.140   0.474   0.082  0.00  0.00     0.058 A 
ENDROOT
TORSDOF 0
ENDMDL
