MODEL 1
REMARK minimizedAffinity -4.77037573
REMARK minimizedRMSD -1
REMARK  0 active torsions:
REMARK  status: ('A' for Active; 'I' for Inactive)
ROOT
ATOM      1  O1  BZF d   1       1.467   3.019  -0.136  0.00  0.00    -0.204 OA
ATOM      2  C2  BZF d   1       0.388   3.882  -0.116  0.00  0.00     0.174 A 
ATOM      3  C3  BZF d   1      -0.766   3.201   0.036  0.00  0.00    -0.012 A 
ATOM      4  C3A BZF d   1      -0.377   1.835   0.210  0.00  0.00    -0.107 A 
ATOM      5  C4  BZF d   1      -1.074   0.680   0.422  0.00  0.00     0.055 A 
ATOM      6  C5  BZF d   1      -0.400  -0.498   0.474  0.00  0.00    -0.016 A 
ATOM      7  C6  BZF d   1       0.969  -0.559   0.314  0.00  0.00     0.022 A 
ATOM      8  C7  BZF d   1       1.704   0.561   0.107  0.00  0.00     0.029 A 
ATOM      9  C7A BZF d   1       1.029   1.757   0.086  0.00  0.00     0.058 A 
ENDROOT
TORSDOF 0
ENDMDL
