MODEL 1
REMARK minimizedAffinity -3.38381076
REMARK minimizedRMSD -1
REMARK  0 active torsions:
REMARK  status: ('A' for Active; 'I' for Inactive)
ROOT
ATOM      1  O1  BZF d   1      -1.292  -0.801   0.115  0.00  0.00    -0.204 OA
ATOM      2  C2  BZF d   1      -0.129  -1.541   0.021  0.00  0.00     0.174 A 
ATOM      3  C3  BZF d   1       0.929  -0.740  -0.217  0.00  0.00    -0.012 A 
ATOM      4  C3A BZF d   1       0.408   0.593  -0.183  0.00  0.00    -0.107 A 
ATOM      5  C4  BZF d   1       0.974   1.826  -0.334  0.00  0.00     0.055 A 
ATOM      6  C5  BZF d   1       0.176   2.926  -0.318  0.00  0.00    -0.016 A 
ATOM      7  C6  BZF d   1      -1.191   2.828  -0.159  0.00  0.00     0.022 A 
ATOM      8  C7  BZF d   1      -1.798   1.626  -0.001  0.00  0.00     0.029 A 
ATOM      9  C7A BZF d   1      -0.990   0.516   0.017  0.00  0.00     0.058 A 
ENDROOT
TORSDOF 0
ENDMDL
