MODEL 1
REMARK minimizedAffinity -3.2948854
REMARK minimizedRMSD -1
REMARK  0 active torsions:
REMARK  status: ('A' for Active; 'I' for Inactive)
ROOT
ATOM      1  O1  BZF d   1       1.600  -0.431   0.502  0.00  0.00    -0.204 OA
ATOM      2  C2  BZF d   1       0.840  -1.584   0.549  0.00  0.00     0.174 A 
ATOM      3  C3  BZF d   1      -0.467  -1.303   0.374  0.00  0.00    -0.012 A 
ATOM      4  C3A BZF d   1      -0.519   0.103   0.114  0.00  0.00    -0.107 A 
ATOM      5  C4  BZF d   1      -1.538   0.971  -0.155  0.00  0.00     0.055 A 
ATOM      6  C5  BZF d   1      -1.260   2.295  -0.287  0.00  0.00    -0.016 A 
ATOM      7  C6  BZF d   1       0.022   2.785  -0.151  0.00  0.00     0.022 A 
ATOM      8  C7  BZF d   1       1.067   1.962   0.111  0.00  0.00     0.029 A 
ATOM      9  C7A BZF d   1       0.794   0.619   0.212  0.00  0.00     0.058 A 
ENDROOT
TORSDOF 0
ENDMDL
