MODEL 1
REMARK minimizedAffinity -2.58849049
REMARK minimizedRMSD -1
REMARK  0 active torsions:
REMARK  status: ('A' for Active; 'I' for Inactive)
ROOT
ATOM      1  O1  BZF d   1      -1.105  -0.067   1.116  0.00  0.00    -0.204 OA
ATOM      2  C2  BZF d   1      -0.812  -1.048   0.189  0.00  0.00     0.174 A 
ATOM      3  C3  BZF d   1       0.010  -0.571  -0.768  0.00  0.00    -0.012 A 
ATOM      4  C3A BZF d   1       0.318   0.767  -0.367  0.00  0.00    -0.107 A 
ATOM      5  C4  BZF d   1       1.100   1.751  -0.902  0.00  0.00     0.055 A 
ATOM      6  C5  BZF d   1       1.129   2.970  -0.302  0.00  0.00    -0.016 A 
ATOM      7  C6  BZF d   1       0.386   3.242   0.828  0.00  0.00     0.022 A 
ATOM      8  C7  BZF d   1      -0.400   2.296   1.398  0.00  0.00     0.029 A 
ATOM      9  C7A BZF d   1      -0.406   1.053   0.813  0.00  0.00     0.058 A 
ENDROOT
TORSDOF 0
ENDMDL
