MODEL 1
REMARK minimizedAffinity 9.65244007
REMARK minimizedRMSD -1
REMARK  0 active torsions:
REMARK  status: ('A' for Active; 'I' for Inactive)
ROOT
ATOM      1  O1  BZF d   1       2.105   0.846   0.945  0.00  0.00    -0.204 OA
ATOM      2  C2  BZF d   1       2.771  -0.123   0.219  0.00  0.00     0.174 A 
ATOM      3  C3  BZF d   1       1.900  -0.999  -0.322  0.00  0.00    -0.012 A 
ATOM      4  C3A BZF d   1       0.603  -0.496   0.015  0.00  0.00    -0.107 A 
ATOM      5  C4  BZF d   1      -0.667  -0.921  -0.253  0.00  0.00     0.055 A 
ATOM      6  C5  BZF d   1      -1.716  -0.245   0.284  0.00  0.00    -0.016 A 
ATOM      7  C6  BZF d   1      -1.532   0.855   1.096  0.00  0.00     0.022 A 
ATOM      8  C7  BZF d   1      -0.291   1.317   1.386  0.00  0.00     0.029 A 
ATOM      9  C7A BZF d   1       0.770   0.656   0.818  0.00  0.00     0.058 A 
ENDROOT
TORSDOF 0
ENDMDL
