MODEL 1
REMARK minimizedAffinity -5.46145439
REMARK minimizedRMSD -1
REMARK  0 active torsions:
REMARK  status: ('A' for Active; 'I' for Inactive)
ROOT
ATOM      1  O1  BZF d   1      -1.049  -0.105   1.265  0.00  0.00    -0.204 OA
ATOM      2  C2  BZF d   1      -0.418  -1.228   0.766  0.00  0.00     0.174 A 
ATOM      3  C3  BZF d   1       0.546  -0.885  -0.113  0.00  0.00    -0.012 A 
ATOM      4  C3A BZF d   1       0.577   0.546  -0.097  0.00  0.00    -0.107 A 
ATOM      5  C4  BZF d   1       1.336   1.476  -0.748  0.00  0.00     0.055 A 
ATOM      6  C5  BZF d   1       1.065   2.795  -0.565  0.00  0.00    -0.016 A 
ATOM      7  C6  BZF d   1       0.042   3.219   0.256  0.00  0.00     0.022 A 
ATOM      8  C7  BZF d   1      -0.735   2.334   0.927  0.00  0.00     0.029 A 
ATOM      9  C7A BZF d   1      -0.443   1.001   0.770  0.00  0.00     0.058 A 
ENDROOT
TORSDOF 0
ENDMDL
