MODEL 1
REMARK minimizedAffinity 1.19976711
REMARK minimizedRMSD -1
REMARK  0 active torsions:
REMARK  status: ('A' for Active; 'I' for Inactive)
ROOT
ATOM      1  O1  BZF d   1       0.750  -0.621  -1.189  0.00  0.00    -0.204 OA
ATOM      2  C2  BZF d   1       0.198  -0.158  -0.010  0.00  0.00     0.174 A 
ATOM      3  C3  BZF d   1      -0.801  -0.965   0.400  0.00  0.00    -0.012 A 
ATOM      4  C3A BZF d   1      -0.818  -2.048  -0.535  0.00  0.00    -0.107 A 
ATOM      5  C4  BZF d   1      -1.579  -3.176  -0.651  0.00  0.00     0.055 A 
ATOM      6  C5  BZF d   1      -1.390  -3.993  -1.720  0.00  0.00    -0.016 A 
ATOM      7  C6  BZF d   1      -0.455  -3.710  -2.694  0.00  0.00     0.022 A 
ATOM      8  C7  BZF d   1       0.326  -2.605  -2.620  0.00  0.00     0.029 A 
ATOM      9  C7A BZF d   1       0.161  -1.795  -1.523  0.00  0.00     0.058 A 
ENDROOT
TORSDOF 0
ENDMDL
