MODEL 1
REMARK minimizedAffinity 1.47118461
REMARK minimizedRMSD -1
REMARK  0 active torsions:
REMARK  status: ('A' for Active; 'I' for Inactive)
ROOT
ATOM      1  O1  BZF d   1      -0.125  -1.288   0.587  0.00  0.00    -0.204 OA
ATOM      2  C2  BZF d   1       0.946  -0.465   0.299  0.00  0.00     0.174 A 
ATOM      3  C3  BZF d   1       1.439  -0.733  -0.927  0.00  0.00    -0.012 A 
ATOM      4  C3A BZF d   1       0.567  -1.727  -1.474  0.00  0.00    -0.107 A 
ATOM      5  C4  BZF d   1       0.527  -2.385  -2.670  0.00  0.00     0.055 A 
ATOM      6  C5  BZF d   1      -0.411  -3.349  -2.862  0.00  0.00    -0.016 A 
ATOM      7  C6  BZF d   1      -1.319  -3.684  -1.880  0.00  0.00     0.022 A 
ATOM      8  C7  BZF d   1      -1.322  -3.056  -0.679  0.00  0.00     0.029 A 
ATOM      9  C7A BZF d   1      -0.396  -2.058  -0.494  0.00  0.00     0.058 A 
ENDROOT
TORSDOF 0
ENDMDL
