MODEL 1
REMARK minimizedAffinity 14.7458296
REMARK minimizedRMSD -1
REMARK  3 active torsions:
REMARK  status: ('A' for Active; 'I' for Inactive)
REMARK    1  A    between atoms: C3'_2  and  C2'_3 
REMARK    2  A    between atoms: C2'_3  and  C1'_4 
REMARK    3  A    between atoms: C1'_4  and  C1_5 
ROOT
ATOM      1  C1  N4B d   1       5.254   3.749   4.168  0.00  0.00    -0.075 A 
ATOM      2  C2  N4B d   1       4.031   3.707   4.872  0.00  0.00     0.002 A 
ATOM      3  C3  N4B d   1       3.599   4.813   5.563  0.00  0.00     0.002 A 
ATOM      4  C4  N4B d   1       4.378   5.960   5.579  0.00  0.00    -0.004 A 
ATOM      5  C5  N4B d   1       5.547   6.000   4.876  0.00  0.00     0.002 A 
ATOM      6  C6  N4B d   1       5.991   4.897   4.174  0.00  0.00     0.002 A 
ENDROOT
BRANCH   1   7
ATOM      7  C1' N4B d   1       5.810   2.538   3.470  0.00  0.00     0.057 C 
BRANCH   7   8
ATOM      8  C2' N4B d   1       4.904   2.177   2.296  0.00  0.00     0.009 C 
BRANCH   8   9
ATOM      9  C3' N4B d   1       4.646   3.368   1.390  0.00  0.00     0.004 C 
ATOM     10  C4' N4B d   1       4.119   2.970   0.043  0.00  0.00     0.003 C 
ENDBRANCH   8   9
ENDBRANCH   7   8
ENDBRANCH   1   7
TORSDOF 3
ENDMDL
