MODEL 1
REMARK minimizedAffinity 12.0571117
REMARK minimizedRMSD -1
REMARK  3 active torsions:
REMARK  status: ('A' for Active; 'I' for Inactive)
REMARK    1  A    between atoms: C3'_2  and  C2'_3 
REMARK    2  A    between atoms: C2'_3  and  C1'_4 
REMARK    3  A    between atoms: C1'_4  and  C1_5 
ROOT
ATOM      1  C1  N4B d   1      -1.769  -2.659   1.914  0.00  0.00    -0.075 A 
ATOM      2  C2  N4B d   1      -2.159  -1.834   0.836  0.00  0.00     0.002 A 
ATOM      3  C3  N4B d   1      -1.643  -2.052  -0.418  0.00  0.00     0.002 A 
ATOM      4  C4  N4B d   1      -0.725  -3.074  -0.614  0.00  0.00    -0.004 A 
ATOM      5  C5  N4B d   1      -0.373  -3.882   0.427  0.00  0.00     0.002 A 
ATOM      6  C6  N4B d   1      -0.887  -3.677   1.692  0.00  0.00     0.002 A 
ENDROOT
BRANCH   1   7
ATOM      7  C1' N4B d   1      -2.240  -2.405   3.319  0.00  0.00     0.057 C 
BRANCH   7   8
ATOM      8  C2' N4B d   1      -1.612  -3.437   4.252  0.00  0.00     0.009 C 
BRANCH   8   9
ATOM      9  C3' N4B d   1      -1.184  -2.822   5.573  0.00  0.00     0.004 C 
ATOM     10  C4' N4B d   1      -1.443  -1.347   5.639  0.00  0.00     0.003 C 
ENDBRANCH   8   9
ENDBRANCH   7   8
ENDBRANCH   1   7
TORSDOF 3
ENDMDL
