MODEL 1
REMARK minimizedAffinity 5.03074408
REMARK minimizedRMSD -1
REMARK  3 active torsions:
REMARK  status: ('A' for Active; 'I' for Inactive)
REMARK    1  A    between atoms: C3'_2  and  C2'_3 
REMARK    2  A    between atoms: C2'_3  and  C1'_4 
REMARK    3  A    between atoms: C1'_4  and  C1_5 
ROOT
ATOM      1  C1  N4B d   1      -2.021  -3.334   2.511  0.00  0.00    -0.075 A 
ATOM      2  C2  N4B d   1      -2.292  -2.369   1.516  0.00  0.00     0.002 A 
ATOM      3  C3  N4B d   1      -1.691  -2.464   0.285  0.00  0.00     0.002 A 
ATOM      4  C4  N4B d   1      -0.804  -3.500   0.033  0.00  0.00    -0.004 A 
ATOM      5  C5  N4B d   1      -0.567  -4.443   0.990  0.00  0.00     0.002 A 
ATOM      6  C6  N4B d   1      -1.167  -4.362   2.231  0.00  0.00     0.002 A 
ENDROOT
BRANCH   1   7
ATOM      7  C1' N4B d   1      -2.587  -3.224   3.900  0.00  0.00     0.057 C 
BRANCH   7   8
ATOM      8  C2' N4B d   1      -1.443  -3.060   4.896  0.00  0.00     0.009 C 
BRANCH   8   9
ATOM      9  C3' N4B d   1      -1.266  -1.613   5.324  0.00  0.00     0.004 C 
ATOM     10  C4' N4B d   1      -2.565  -0.871   5.416  0.00  0.00     0.003 C 
ENDBRANCH   8   9
ENDBRANCH   7   8
ENDBRANCH   1   7
TORSDOF 3
ENDMDL
