MODEL 1
REMARK minimizedAffinity 7.33957005
REMARK minimizedRMSD -1
REMARK  3 active torsions:
REMARK  status: ('A' for Active; 'I' for Inactive)
REMARK    1  A    between atoms: C3'_2  and  C2'_3 
REMARK    2  A    between atoms: C2'_3  and  C1'_4 
REMARK    3  A    between atoms: C1'_4  and  C1_5 
ROOT
ATOM      1  C1  N4B d   1      -1.480  -2.401   0.218  0.00  0.00    -0.075 A 
ATOM      2  C2  N4B d   1      -1.086  -3.368   1.168  0.00  0.00     0.002 A 
ATOM      3  C3  N4B d   1      -0.525  -4.550   0.752  0.00  0.00     0.002 A 
ATOM      4  C4  N4B d   1      -0.367  -4.795  -0.604  0.00  0.00    -0.004 A 
ATOM      5  C5  N4B d   1      -0.727  -3.845  -1.514  0.00  0.00     0.002 A 
ATOM      6  C6  N4B d   1      -1.289  -2.650  -1.110  0.00  0.00     0.002 A 
ENDROOT
BRANCH   1   7
ATOM      7  C1' N4B d   1      -2.177  -1.129   0.620  0.00  0.00     0.057 C 
BRANCH   7   8
ATOM      8  C2' N4B d   1      -3.664  -1.252   0.305  0.00  0.00     0.009 C 
BRANCH   8   9
ATOM      9  C3' N4B d   1      -4.333  -2.338   1.129  0.00  0.00     0.004 C 
ATOM     10  C4' N4B d   1      -5.802  -2.457   0.852  0.00  0.00     0.003 C 
ENDBRANCH   8   9
ENDBRANCH   7   8
ENDBRANCH   1   7
TORSDOF 3
ENDMDL
