MODEL 1
REMARK minimizedAffinity 7.74994755
REMARK minimizedRMSD -1
REMARK  3 active torsions:
REMARK  status: ('A' for Active; 'I' for Inactive)
REMARK    1  A    between atoms: C3'_2  and  C2'_3 
REMARK    2  A    between atoms: C2'_3  and  C1'_4 
REMARK    3  A    between atoms: C1'_4  and  C1_5 
ROOT
ATOM      1  C1  N4B d   1       3.293   1.419  -1.588  0.00  0.00    -0.075 A 
ATOM      2  C2  N4B d   1       2.139   0.884  -0.974  0.00  0.00     0.002 A 
ATOM      3  C3  N4B d   1       1.873   1.160   0.345  0.00  0.00     0.002 A 
ATOM      4  C4  N4B d   1       2.752   1.949   1.071  0.00  0.00    -0.004 A 
ATOM      5  C5  N4B d   1       3.850   2.483   0.463  0.00  0.00     0.002 A 
ATOM      6  C6  N4B d   1       4.128   2.218  -0.862  0.00  0.00     0.002 A 
ENDROOT
BRANCH   1   7
ATOM      7  C1' N4B d   1       3.671   1.075  -3.003  0.00  0.00     0.057 C 
BRANCH   7   8
ATOM      8  C2' N4B d   1       4.683  -0.066  -2.988  0.00  0.00     0.009 C 
BRANCH   8   9
ATOM      9  C3' N4B d   1       5.979   0.314  -3.682  0.00  0.00     0.004 C 
ATOM     10  C4' N4B d   1       5.997   1.743  -4.137  0.00  0.00     0.003 C 
ENDBRANCH   8   9
ENDBRANCH   7   8
ENDBRANCH   1   7
TORSDOF 3
ENDMDL
