MODEL 1
REMARK minimizedAffinity 11.3019695
REMARK minimizedRMSD -1
REMARK  3 active torsions:
REMARK  status: ('A' for Active; 'I' for Inactive)
REMARK    1  A    between atoms: C3'_2  and  C2'_3 
REMARK    2  A    between atoms: C2'_3  and  C1'_4 
REMARK    3  A    between atoms: C1'_4  and  C1_5 
ROOT
ATOM      1  C1  N4B d   1       3.308   2.238   0.036  0.00  0.00    -0.075 A 
ATOM      2  C2  N4B d   1       2.619   2.644  -1.127  0.00  0.00     0.002 A 
ATOM      3  C3  N4B d   1       1.952   1.716  -1.889  0.00  0.00     0.002 A 
ATOM      4  C4  N4B d   1       1.977   0.379  -1.520  0.00  0.00    -0.004 A 
ATOM      5  C5  N4B d   1       2.624  -0.001  -0.380  0.00  0.00     0.002 A 
ATOM      6  C6  N4B d   1       3.294   0.922   0.397  0.00  0.00     0.002 A 
ENDROOT
BRANCH   1   7
ATOM      7  C1' N4B d   1       4.123   3.203   0.854  0.00  0.00     0.057 C 
BRANCH   7   8
ATOM      8  C2' N4B d   1       5.088   3.946  -0.064  0.00  0.00     0.009 C 
BRANCH   8   9
ATOM      9  C3' N4B d   1       4.867   5.448  -0.024  0.00  0.00     0.004 C 
ATOM     10  C4' N4B d   1       4.872   6.000   1.370  0.00  0.00     0.003 C 
ENDBRANCH   8   9
ENDBRANCH   7   8
ENDBRANCH   1   7
TORSDOF 3
ENDMDL
