MODEL 1
REMARK minimizedAffinity 13.2981415
REMARK minimizedRMSD -1
REMARK  3 active torsions:
REMARK  status: ('A' for Active; 'I' for Inactive)
REMARK    1  A    between atoms: C3'_2  and  C2'_3 
REMARK    2  A    between atoms: C2'_3  and  C1'_4 
REMARK    3  A    between atoms: C1'_4  and  C1_5 
ROOT
ATOM      1  C1  N4B d   1      -2.162  -0.962   5.482  0.00  0.00    -0.075 A 
ATOM      2  C2  N4B d   1      -2.393  -1.999   4.551  0.00  0.00     0.002 A 
ATOM      3  C3  N4B d   1      -1.346  -2.768   4.107  0.00  0.00     0.002 A 
ATOM      4  C4  N4B d   1      -0.062  -2.508   4.562  0.00  0.00    -0.004 A 
ATOM      5  C5  N4B d   1       0.149  -1.522   5.481  0.00  0.00     0.002 A 
ATOM      6  C6  N4B d   1      -0.895  -0.743   5.939  0.00  0.00     0.002 A 
ENDROOT
BRANCH   1   7
ATOM      7  C1' N4B d   1      -3.262  -0.039   5.932  0.00  0.00     0.057 C 
BRANCH   7   8
ATOM      8  C2' N4B d   1      -2.913   1.390   5.526  0.00  0.00     0.009 C 
BRANCH   8   9
ATOM      9  C3' N4B d   1      -3.959   2.385   5.997  0.00  0.00     0.004 C 
ATOM     10  C4' N4B d   1      -5.348   1.820   5.982  0.00  0.00     0.003 C 
ENDBRANCH   8   9
ENDBRANCH   7   8
ENDBRANCH   1   7
TORSDOF 3
ENDMDL
