MODEL 1
REMARK minimizedAffinity 4.9349885
REMARK minimizedRMSD -1
REMARK  3 active torsions:
REMARK  status: ('A' for Active; 'I' for Inactive)
REMARK    1  A    between atoms: C3'_2  and  C2'_3 
REMARK    2  A    between atoms: C2'_3  and  C1'_4 
REMARK    3  A    between atoms: C1'_4  and  C1_5 
ROOT
ATOM      1  C1  N4B d   1      -3.597   4.324  -4.708  0.00  0.00    -0.075 A 
ATOM      2  C2  N4B d   1      -4.092   5.634  -4.523  0.00  0.00     0.002 A 
ATOM      3  C3  N4B d   1      -5.291   6.000  -5.084  0.00  0.00     0.002 A 
ATOM      4  C4  N4B d   1      -5.999   5.084  -5.847  0.00  0.00    -0.004 A 
ATOM      5  C5  N4B d   1      -5.526   3.813  -5.999  0.00  0.00     0.002 A 
ATOM      6  C6  N4B d   1      -4.325   3.430  -5.438  0.00  0.00     0.002 A 
ENDROOT
BRANCH   1   7
ATOM      7  C1' N4B d   1      -2.250   3.903  -4.186  0.00  0.00     0.057 C 
BRANCH   7   8
ATOM      8  C2' N4B d   1      -1.810   2.630  -4.903  0.00  0.00     0.009 C 
BRANCH   8   9
ATOM      9  C3' N4B d   1      -0.469   2.802  -5.595  0.00  0.00     0.004 C 
ATOM     10  C4' N4B d   1       0.552   3.472  -4.724  0.00  0.00     0.003 C 
ENDBRANCH   8   9
ENDBRANCH   7   8
ENDBRANCH   1   7
TORSDOF 3
ENDMDL
