MODEL 1
REMARK minimizedAffinity 1.42426169
REMARK minimizedRMSD -1
REMARK  3 active torsions:
REMARK  status: ('A' for Active; 'I' for Inactive)
REMARK    1  A    between atoms: C3'_2  and  C2'_3 
REMARK    2  A    between atoms: C2'_3  and  C1'_4 
REMARK    3  A    between atoms: C1'_4  and  C1_5 
ROOT
ATOM      1  C1  N4B d   1      -1.173  -0.327  -2.464  0.00  0.00    -0.075 A 
ATOM      2  C2  N4B d   1      -1.385  -0.746  -1.132  0.00  0.00     0.002 A 
ATOM      3  C3  N4B d   1      -2.620  -0.588  -0.551  0.00  0.00     0.002 A 
ATOM      4  C4  N4B d   1      -3.647   0.000  -1.273  0.00  0.00    -0.004 A 
ATOM      5  C5  N4B d   1      -3.441   0.379  -2.568  0.00  0.00     0.002 A 
ATOM      6  C6  N4B d   1      -2.207   0.223  -3.165  0.00  0.00     0.002 A 
ENDROOT
BRANCH   1   7
ATOM      7  C1' N4B d   1       0.182  -0.400  -3.113  0.00  0.00     0.057 C 
BRANCH   7   8
ATOM      8  C2' N4B d   1       1.216   0.231  -2.185  0.00  0.00     0.009 C 
BRANCH   8   9
ATOM      9  C3' N4B d   1       1.138   1.748  -2.195  0.00  0.00     0.004 C 
ATOM     10  C4' N4B d   1       1.611   2.363  -0.912  0.00  0.00     0.003 C 
ENDBRANCH   8   9
ENDBRANCH   7   8
ENDBRANCH   1   7
TORSDOF 3
ENDMDL
