MODEL 1
REMARK minimizedAffinity 18.1862507
REMARK minimizedRMSD -1
REMARK  3 active torsions:
REMARK  status: ('A' for Active; 'I' for Inactive)
REMARK    1  A    between atoms: C3'_2  and  C2'_3 
REMARK    2  A    between atoms: C2'_3  and  C1'_4 
REMARK    3  A    between atoms: C1'_4  and  C1_5 
ROOT
ATOM      1  C1  N4B d   1      -1.805  -1.126  -2.355  0.00  0.00    -0.075 A 
ATOM      2  C2  N4B d   1      -0.671  -1.876  -1.973  0.00  0.00     0.002 A 
ATOM      3  C3  N4B d   1      -0.522  -2.281  -0.669  0.00  0.00     0.002 A 
ATOM      4  C4  N4B d   1      -1.481  -1.933   0.270  0.00  0.00    -0.004 A 
ATOM      5  C5  N4B d   1      -2.586  -1.230  -0.112  0.00  0.00     0.002 A 
ATOM      6  C6  N4B d   1      -2.750  -0.820  -1.420  0.00  0.00     0.002 A 
ENDROOT
BRANCH   1   7
ATOM      7  C1' N4B d   1      -1.968  -0.588  -3.750  0.00  0.00     0.057 C 
BRANCH   7   8
ATOM      8  C2' N4B d   1      -2.765   0.712  -3.696  0.00  0.00     0.009 C 
BRANCH   8   9
ATOM      9  C3' N4B d   1      -2.545   1.565  -4.933  0.00  0.00     0.004 C 
ATOM     10  C4' N4B d   1      -1.375   2.493  -4.797  0.00  0.00     0.003 C 
ENDBRANCH   8   9
ENDBRANCH   7   8
ENDBRANCH   1   7
TORSDOF 3
ENDMDL
