MODEL 1
REMARK minimizedAffinity 10.4612169
REMARK minimizedRMSD -1
REMARK  0 active torsions:
REMARK  status: ('A' for Active; 'I' for Inactive)
ROOT
ATOM      1  O1  BZF d   1       1.917   1.060   4.415  0.00  0.00    -0.204 OA
ATOM      2  C2  BZF d   1       1.802   2.125   3.543  0.00  0.00     0.174 A 
ATOM      3  C3  BZF d   1       1.997   1.724   2.270  0.00  0.00    -0.012 A 
ATOM      4  C3A BZF d   1       2.159   0.304   2.344  0.00  0.00    -0.107 A 
ATOM      5  C4  BZF d   1       2.369  -0.666   1.406  0.00  0.00     0.055 A 
ATOM      6  C5  BZF d   1       2.557  -1.949   1.815  0.00  0.00    -0.016 A 
ATOM      7  C6  BZF d   1       2.546  -2.295   3.150  0.00  0.00     0.022 A 
ATOM      8  C7  BZF d   1       2.336  -1.368   4.116  0.00  0.00     0.029 A 
ATOM      9  C7A BZF d   1       2.113  -0.076   3.705  0.00  0.00     0.058 A 
ENDROOT
TORSDOF 0
ENDMDL
