MODEL 1
REMARK minimizedAffinity 10.9054976
REMARK minimizedRMSD -1
REMARK  0 active torsions:
REMARK  status: ('A' for Active; 'I' for Inactive)
ROOT
ATOM      1  O1  BZF d   1      -2.684   1.878   1.872  0.00  0.00    -0.204 OA
ATOM      2  C2  BZF d   1      -1.941   1.878   0.708  0.00  0.00     0.174 A 
ATOM      3  C3  BZF d   1      -2.635   2.443  -0.302  0.00  0.00    -0.012 A 
ATOM      4  C3A BZF d   1      -3.854   2.902   0.290  0.00  0.00    -0.107 A 
ATOM      5  C4  BZF d   1      -4.946   3.560  -0.201  0.00  0.00     0.055 A 
ATOM      6  C5  BZF d   1      -6.000   3.797   0.624  0.00  0.00    -0.016 A 
ATOM      7  C6  BZF d   1      -5.998   3.385   1.941  0.00  0.00     0.022 A 
ATOM      8  C7  BZF d   1      -4.935   2.733   2.474  0.00  0.00     0.029 A 
ATOM      9  C7A BZF d   1      -3.855   2.522   1.652  0.00  0.00     0.058 A 
ENDROOT
TORSDOF 0
ENDMDL
