MODEL 1
REMARK minimizedAffinity 4.18525028
REMARK minimizedRMSD -1
REMARK  0 active torsions:
REMARK  status: ('A' for Active; 'I' for Inactive)
ROOT
ATOM      1  O1  BZF d   1       5.894  -5.826  -4.054  0.00  0.00    -0.204 OA
ATOM      2  C2  BZF d   1       5.999  -5.892  -5.429  0.00  0.00     0.174 A 
ATOM      3  C3  BZF d   1       4.780  -5.999  -5.997  0.00  0.00    -0.012 A 
ATOM      4  C3A BZF d   1       3.851  -5.907  -4.913  0.00  0.00    -0.107 A 
ATOM      5  C4  BZF d   1       2.487  -5.931  -4.841  0.00  0.00     0.055 A 
ATOM      6  C5  BZF d   1       1.890  -5.892  -3.622  0.00  0.00    -0.016 A 
ATOM      7  C6  BZF d   1       2.624  -5.834  -2.455  0.00  0.00     0.022 A 
ATOM      8  C7  BZF d   1       3.978  -5.803  -2.476  0.00  0.00     0.029 A 
ATOM      9  C7A BZF d   1       4.585  -5.809  -3.709  0.00  0.00     0.058 A 
ENDROOT
TORSDOF 0
ENDMDL
