MODEL 1
REMARK minimizedAffinity 10.5456429
REMARK minimizedRMSD -1
REMARK  0 active torsions:
REMARK  status: ('A' for Active; 'I' for Inactive)
ROOT
ATOM      1  O1  BZF d   1      -2.491   2.487   1.644  0.00  0.00    -0.204 OA
ATOM      2  C2  BZF d   1      -1.721   2.995   0.616  0.00  0.00     0.174 A 
ATOM      3  C3  BZF d   1      -2.456   3.800  -0.178  0.00  0.00    -0.012 A 
ATOM      4  C3A BZF d   1      -3.743   3.869   0.442  0.00  0.00    -0.107 A 
ATOM      5  C4  BZF d   1      -4.900   4.526   0.135  0.00  0.00     0.055 A 
ATOM      6  C5  BZF d   1      -6.000   4.323   0.906  0.00  0.00    -0.016 A 
ATOM      7  C6  BZF d   1      -5.981   3.467   1.987  0.00  0.00     0.022 A 
ATOM      8  C7  BZF d   1      -4.855   2.797   2.335  0.00  0.00     0.029 A 
ATOM      9  C7A BZF d   1      -3.733   3.025   1.577  0.00  0.00     0.058 A 
ENDROOT
TORSDOF 0
ENDMDL
