MODEL 1
REMARK minimizedAffinity 9.91584969
REMARK minimizedRMSD -1
REMARK  0 active torsions:
REMARK  status: ('A' for Active; 'I' for Inactive)
ROOT
ATOM      1  O1  BZF d   1       2.907   1.956   4.792  0.00  0.00    -0.204 OA
ATOM      2  C2  BZF d   1       3.165   1.336   5.999  0.00  0.00     0.174 A 
ATOM      3  C3  BZF d   1       2.992   0.002   5.899  0.00  0.00    -0.012 A 
ATOM      4  C3A BZF d   1       2.691  -0.235   4.520  0.00  0.00    -0.107 A 
ATOM      5  C4  BZF d   1       2.433  -1.364   3.796  0.00  0.00     0.055 A 
ATOM      6  C5  BZF d   1       2.104  -1.245   2.483  0.00  0.00    -0.016 A 
ATOM      7  C6  BZF d   1       2.019  -0.016   1.864  0.00  0.00     0.022 A 
ATOM      8  C7  BZF d   1       2.272   1.132   2.539  0.00  0.00     0.029 A 
ATOM      9  C7A BZF d   1       2.636   1.014   3.858  0.00  0.00     0.058 A 
ENDROOT
TORSDOF 0
ENDMDL
