MODEL 1
REMARK minimizedAffinity 10.9596748
REMARK minimizedRMSD -1
REMARK  0 active torsions:
REMARK  status: ('A' for Active; 'I' for Inactive)
ROOT
ATOM      1  O1  BZF d   1      -2.974   2.478  -0.263  0.00  0.00    -0.204 OA
ATOM      2  C2  BZF d   1      -2.146   1.773   0.590  0.00  0.00     0.174 A 
ATOM      3  C3  BZF d   1      -2.608   1.826   1.856  0.00  0.00    -0.012 A 
ATOM      4  C3A BZF d   1      -3.848   2.535   1.775  0.00  0.00    -0.107 A 
ATOM      5  C4  BZF d   1      -4.786   2.893   2.701  0.00  0.00     0.055 A 
ATOM      6  C5  BZF d   1      -5.848   3.645   2.308  0.00  0.00    -0.016 A 
ATOM      7  C6  BZF d   1      -5.999   4.060   1.001  0.00  0.00     0.022 A 
ATOM      8  C7  BZF d   1      -5.097   3.725   0.046  0.00  0.00     0.029 A 
ATOM      9  C7A BZF d   1      -4.041   2.937   0.434  0.00  0.00     0.058 A 
ENDROOT
TORSDOF 0
ENDMDL
