MODEL 1
REMARK minimizedAffinity 13.9220257
REMARK minimizedRMSD -1
REMARK  0 active torsions:
REMARK  status: ('A' for Active; 'I' for Inactive)
ROOT
ATOM      1  O1  BZF d   1       0.174   4.050   2.277  0.00  0.00    -0.204 OA
ATOM      2  C2  BZF d   1       1.243   3.851   3.129  0.00  0.00     0.174 A 
ATOM      3  C3  BZF d   1       2.407   3.863   2.448  0.00  0.00    -0.012 A 
ATOM      4  C3A BZF d   1       2.050   4.175   1.098  0.00  0.00    -0.107 A 
ATOM      5  C4  BZF d   1       2.771   4.345  -0.049  0.00  0.00     0.055 A 
ATOM      6  C5  BZF d   1       2.113   4.571  -1.216  0.00  0.00    -0.016 A 
ATOM      7  C6  BZF d   1       0.736   4.629  -1.273  0.00  0.00     0.022 A 
ATOM      8  C7  BZF d   1      -0.022   4.472  -0.161  0.00  0.00     0.029 A 
ATOM      9  C7A BZF d   1       0.641   4.276   1.026  0.00  0.00     0.058 A 
ENDROOT
TORSDOF 0
ENDMDL
