MODEL 1
REMARK minimizedAffinity -0.309384227
REMARK minimizedRMSD -1
REMARK  1 active torsions:
REMARK  status: ('A' for Active; 'I' for Inactive)
REMARK    1  A    between atoms: C3_4  and  O_7 
ROOT
ATOM      1  C   UNL d   1      -0.569   0.540   1.332  0.00  0.00    -0.033 A 
ATOM      2  C1  UNL d   1       0.696   0.123   0.914  0.00  0.00     0.039 A 
ATOM      3  C2  UNL d   1       0.821  -0.788  -0.137  0.00  0.00    -0.080 A 
ATOM      4  C3  UNL d   1      -0.325  -1.273  -0.761  0.00  0.00     0.150 A 
ATOM      5  C4  UNL d   1      -1.588  -0.859  -0.352  0.00  0.00    -0.007 A 
ATOM      6  C5  UNL d   1      -1.711   0.050   0.698  0.00  0.00     0.039 A 
ENDROOT
BRANCH   4   7
ATOM      7  O   UNL d   1      -0.254  -2.167  -1.787  0.00  0.00    -0.526 OA
ATOM      8  H5  UNL d   1       0.681  -2.384  -1.942  0.00  0.00     0.418 HD
ENDBRANCH   4   7
TORSDOF 1
ENDMDL
