MODEL 1
REMARK minimizedAffinity -3.65760326
REMARK minimizedRMSD -1
REMARK  1 active torsions:
REMARK  status: ('A' for Active; 'I' for Inactive)
REMARK    1  A    between atoms: C3_4  and  O_7 
ROOT
ATOM      1  C   UNL d   1       0.392   1.907   3.207  0.00  0.00    -0.033 A 
ATOM      2  C1  UNL d   1      -0.269   0.743   3.605  0.00  0.00     0.039 A 
ATOM      3  C2  UNL d   1      -0.733  -0.161   2.647  0.00  0.00    -0.080 A 
ATOM      4  C3  UNL d   1      -0.530   0.110   1.297  0.00  0.00     0.150 A 
ATOM      5  C4  UNL d   1       0.131   1.266   0.893  0.00  0.00    -0.007 A 
ATOM      6  C5  UNL d   1       0.593   2.167   1.851  0.00  0.00     0.039 A 
ENDROOT
BRANCH   4   7
ATOM      7  O   UNL d   1      -0.969  -0.739   0.326  0.00  0.00    -0.526 OA
ATOM      8  H5  UNL d   1      -1.433  -1.480   0.751  0.00  0.00     0.418 HD
ENDBRANCH   4   7
TORSDOF 1
ENDMDL
