MODEL 1
REMARK minimizedAffinity -2.70107388
REMARK minimizedRMSD -1
REMARK  1 active torsions:
REMARK  status: ('A' for Active; 'I' for Inactive)
REMARK    1  A    between atoms: C3_4  and  O_7 
ROOT
ATOM      1  C   UNL d   1      -1.669   0.082   0.760  0.00  0.00    -0.033 A 
ATOM      2  C1  UNL d   1      -0.320  -0.228   0.575  0.00  0.00     0.039 A 
ATOM      3  C2  UNL d   1       0.519  -0.388   1.679  0.00  0.00    -0.080 A 
ATOM      4  C3  UNL d   1      -0.002  -0.236   2.961  0.00  0.00     0.150 A 
ATOM      5  C4  UNL d   1      -1.346   0.069   3.153  0.00  0.00    -0.007 A 
ATOM      6  C5  UNL d   1      -2.182   0.229   2.049  0.00  0.00     0.039 A 
ENDROOT
BRANCH   4   7
ATOM      7  O   UNL d   1       0.779  -0.378   4.069  0.00  0.00    -0.526 OA
ATOM      8  H5  UNL d   1       1.690  -0.560   3.782  0.00  0.00     0.418 HD
ENDBRANCH   4   7
TORSDOF 1
ENDMDL
