MODEL 1
REMARK minimizedAffinity -0.684935272
REMARK minimizedRMSD -1
REMARK  1 active torsions:
REMARK  status: ('A' for Active; 'I' for Inactive)
REMARK    1  A    between atoms: C3_4  and  O_7 
ROOT
ATOM      1  C   UNL d   1      -2.033   0.074   3.333  0.00  0.00    -0.033 A 
ATOM      2  C1  UNL d   1      -2.482   0.579   2.111  0.00  0.00     0.039 A 
ATOM      3  C2  UNL d   1      -1.726   0.385   0.953  0.00  0.00    -0.080 A 
ATOM      4  C3  UNL d   1      -0.526  -0.315   1.030  0.00  0.00     0.150 A 
ATOM      5  C4  UNL d   1      -0.074  -0.825   2.243  0.00  0.00    -0.007 A 
ATOM      6  C5  UNL d   1      -0.830  -0.630   3.398  0.00  0.00     0.039 A 
ENDROOT
BRANCH   4   7
ATOM      7  O   UNL d   1       0.249  -0.525  -0.072  0.00  0.00    -0.526 OA
ATOM      8  H5  UNL d   1      -0.174  -0.092  -0.832  0.00  0.00     0.418 HD
ENDBRANCH   4   7
TORSDOF 1
ENDMDL
