MODEL 1
REMARK minimizedAffinity -1.08743489
REMARK minimizedRMSD -1
REMARK  1 active torsions:
REMARK  status: ('A' for Active; 'I' for Inactive)
REMARK    1  A    between atoms: C3_4  and  O_7 
ROOT
ATOM      1  C   UNL d   1       3.916   0.886  -2.102  0.00  0.00    -0.033 A 
ATOM      2  C1  UNL d   1       3.798   1.717  -3.218  0.00  0.00     0.039 A 
ATOM      3  C2  UNL d   1       2.561   1.877  -3.844  0.00  0.00    -0.080 A 
ATOM      4  C3  UNL d   1       1.450   1.201  -3.346  0.00  0.00     0.150 A 
ATOM      5  C4  UNL d   1       1.560   0.374  -2.233  0.00  0.00    -0.007 A 
ATOM      6  C5  UNL d   1       2.796   0.215  -1.609  0.00  0.00     0.039 A 
ENDROOT
BRANCH   4   7
ATOM      7  O   UNL d   1       0.223   1.321  -3.927  0.00  0.00    -0.526 OA
ATOM      8  H5  UNL d   1       0.305   1.902  -4.702  0.00  0.00     0.418 HD
ENDBRANCH   4   7
TORSDOF 1
ENDMDL
