MODEL 1
REMARK minimizedAffinity -2.74598265
REMARK minimizedRMSD -1
REMARK  1 active torsions:
REMARK  status: ('A' for Active; 'I' for Inactive)
REMARK    1  A    between atoms: C3_4  and  O_7 
ROOT
ATOM      1  C   UNL d   1      -1.685  -0.330   0.242  0.00  0.00    -0.033 A 
ATOM      2  C1  UNL d   1      -0.869   0.099   1.291  0.00  0.00     0.039 A 
ATOM      3  C2  UNL d   1       0.463  -0.313   1.355  0.00  0.00    -0.080 A 
ATOM      4  C3  UNL d   1       0.967  -1.153   0.365  0.00  0.00     0.150 A 
ATOM      5  C4  UNL d   1       0.161  -1.580  -0.685  0.00  0.00    -0.007 A 
ATOM      6  C5  UNL d   1      -1.170  -1.168  -0.747  0.00  0.00     0.039 A 
ENDROOT
BRANCH   4   7
ATOM      7  O   UNL d   1       2.259  -1.585   0.387  0.00  0.00    -0.526 OA
ATOM      8  H5  UNL d   1       2.688  -1.233   1.185  0.00  0.00     0.418 HD
ENDBRANCH   4   7
TORSDOF 1
ENDMDL
