MODEL 1
REMARK minimizedAffinity -2.20481586
REMARK minimizedRMSD -1
REMARK  1 active torsions:
REMARK  status: ('A' for Active; 'I' for Inactive)
REMARK    1  A    between atoms: C3_4  and  O_7 
ROOT
ATOM      1  C   UNL d   1      -2.130   0.352   0.035  0.00  0.00    -0.033 A 
ATOM      2  C1  UNL d   1      -0.828  -0.146  -0.028  0.00  0.00     0.039 A 
ATOM      3  C2  UNL d   1      -0.147  -0.476   1.146  0.00  0.00    -0.080 A 
ATOM      4  C3  UNL d   1      -0.780  -0.303   2.374  0.00  0.00     0.150 A 
ATOM      5  C4  UNL d   1      -2.079   0.189   2.444  0.00  0.00    -0.007 A 
ATOM      6  C5  UNL d   1      -2.756   0.518   1.271  0.00  0.00     0.039 A 
ENDROOT
BRANCH   4   7
ATOM      7  O   UNL d   1      -0.154  -0.606   3.547  0.00  0.00    -0.526 OA
ATOM      8  H5  UNL d   1       0.748  -0.908   3.345  0.00  0.00     0.418 HD
ENDBRANCH   4   7
TORSDOF 1
ENDMDL
