MODEL 1
REMARK minimizedAffinity 1.37143409
REMARK minimizedRMSD -1
REMARK  1 active torsions:
REMARK  status: ('A' for Active; 'I' for Inactive)
REMARK    1  A    between atoms: C3_4  and  O_7 
ROOT
ATOM      1  C   UNL d   1      -1.475  -0.636  -0.807  0.00  0.00    -0.033 A 
ATOM      2  C1  UNL d   1      -2.747  -0.150  -0.500  0.00  0.00     0.039 A 
ATOM      3  C2  UNL d   1      -2.940   0.640   0.634  0.00  0.00    -0.080 A 
ATOM      4  C3  UNL d   1      -1.854   0.938   1.452  0.00  0.00     0.150 A 
ATOM      5  C4  UNL d   1      -0.583   0.460   1.151  0.00  0.00    -0.007 A 
ATOM      6  C5  UNL d   1      -0.392  -0.329   0.018  0.00  0.00     0.039 A 
ENDROOT
BRANCH   4   7
ATOM      7  O   UNL d   1      -1.994   1.701   2.573  0.00  0.00    -0.526 OA
ATOM      8  H5  UNL d   1      -2.932   1.936   2.670  0.00  0.00     0.418 HD
ENDBRANCH   4   7
TORSDOF 1
ENDMDL
