MODEL 1
REMARK minimizedAffinity -3.93995547
REMARK minimizedRMSD -1
REMARK  0 active torsions:
REMARK  status: ('A' for Active; 'I' for Inactive)
ROOT
ATOM      1  C   UNL d   1       1.692  -0.403   0.108  0.00  0.00    -0.002 A 
ATOM      2  C1  UNL d   1       0.769  -1.109   0.867  0.00  0.00     0.010 A 
ATOM      3  C2  UNL d   1      -0.601  -0.913   0.682  0.00  0.00     0.041 A 
ATOM      4  C3  UNL d   1      -1.032   0.012  -0.289  0.00  0.00    -0.075 A 
ATOM      5  S   UNL d   1      -2.660   0.415  -0.689  0.00  0.00     0.015 SA
ATOM      6  C4  UNL d   1      -2.169   1.534  -1.878  0.00  0.00     0.022 A 
ATOM      7  C5  UNL d   1      -0.800   1.611  -1.979  0.00  0.00     0.026 A 
ATOM      8  C6  UNL d   1      -0.122   0.735  -1.066  0.00  0.00    -0.082 A 
ATOM      9  C7  UNL d   1       1.260   0.515  -0.854  0.00  0.00     0.045 A 
ENDROOT
TORSDOF 0
ENDMDL
