MODEL 1
REMARK minimizedAffinity -2.15070438
REMARK minimizedRMSD -1
REMARK  0 active torsions:
REMARK  status: ('A' for Active; 'I' for Inactive)
ROOT
ATOM      1  C   UNL d   1       1.672  -2.268   1.097  0.00  0.00    -0.002 A 
ATOM      2  C1  UNL d   1       0.377  -2.640   0.766  0.00  0.00     0.010 A 
ATOM      3  C2  UNL d   1      -0.508  -1.714   0.210  0.00  0.00     0.041 A 
ATOM      4  C3  UNL d   1      -0.065  -0.395  -0.011  0.00  0.00    -0.075 A 
ATOM      5  S   UNL d   1      -0.973   0.908  -0.681  0.00  0.00     0.015 SA
ATOM      6  C4  UNL d   1       0.337   1.989  -0.545  0.00  0.00     0.022 A 
ATOM      7  C5  UNL d   1       1.448   1.388  -0.003  0.00  0.00     0.026 A 
ATOM      8  C6  UNL d   1       1.235   0.003   0.313  0.00  0.00    -0.082 A 
ATOM      9  C7  UNL d   1       2.108  -0.958   0.876  0.00  0.00     0.045 A 
ENDROOT
TORSDOF 0
ENDMDL
