MODEL 1
REMARK minimizedAffinity 4.94864368
REMARK minimizedRMSD -1
REMARK  0 active torsions:
REMARK  status: ('A' for Active; 'I' for Inactive)
ROOT
ATOM      1  C   UNL d   1      -2.138   2.617  -3.675  0.00  0.00    -0.002 A 
ATOM      2  C1  UNL d   1      -3.013   1.585  -3.368  0.00  0.00     0.010 A 
ATOM      3  C2  UNL d   1      -2.775   0.754  -2.271  0.00  0.00     0.041 A 
ATOM      4  C3  UNL d   1      -1.633   0.982  -1.479  0.00  0.00    -0.075 A 
ATOM      5  S   UNL d   1      -1.138   0.093  -0.087  0.00  0.00     0.015 SA
ATOM      6  C4  UNL d   1       0.245   1.063   0.133  0.00  0.00     0.022 A 
ATOM      7  C5  UNL d   1       0.344   2.046  -0.823  0.00  0.00     0.026 A 
ATOM      8  C6  UNL d   1      -0.737   2.016  -1.768  0.00  0.00    -0.082 A 
ATOM      9  C7  UNL d   1      -1.006   2.840  -2.887  0.00  0.00     0.045 A 
ENDROOT
TORSDOF 0
ENDMDL
