MODEL 1
REMARK minimizedAffinity -1.80327785
REMARK minimizedRMSD -1
REMARK  0 active torsions:
REMARK  status: ('A' for Active; 'I' for Inactive)
ROOT
ATOM      1  C   UNL d   1       1.664  -2.677   0.669  0.00  0.00    -0.002 A 
ATOM      2  C1  UNL d   1       0.319  -2.990   0.531  0.00  0.00     0.010 A 
ATOM      3  C2  UNL d   1      -0.622  -1.988   0.288  0.00  0.00     0.041 A 
ATOM      4  C3  UNL d   1      -0.184  -0.653   0.183  0.00  0.00    -0.075 A 
ATOM      5  S   UNL d   1      -1.157   0.740  -0.113  0.00  0.00     0.015 SA
ATOM      6  C4  UNL d   1       0.190   1.783  -0.064  0.00  0.00     0.022 A 
ATOM      7  C5  UNL d   1       1.361   1.102   0.171  0.00  0.00     0.026 A 
ATOM      8  C6  UNL d   1       1.165  -0.313   0.317  0.00  0.00    -0.082 A 
ATOM      9  C7  UNL d   1       2.094  -1.352   0.564  0.00  0.00     0.045 A 
ENDROOT
TORSDOF 0
ENDMDL
