MODEL 1
REMARK minimizedAffinity -1.6812135
REMARK minimizedRMSD -1
REMARK  0 active torsions:
REMARK  status: ('A' for Active; 'I' for Inactive)
ROOT
ATOM      1  C   UNL d   1      -1.111   1.079  -0.730  0.00  0.00    -0.002 A 
ATOM      2  C1  UNL d   1       0.094   1.752  -0.587  0.00  0.00     0.010 A 
ATOM      3  C2  UNL d   1       1.200   1.115  -0.021  0.00  0.00     0.041 A 
ATOM      4  C3  UNL d   1       1.074  -0.223   0.401  0.00  0.00    -0.075 A 
ATOM      5  S   UNL d   1       2.294  -1.206   1.121  0.00  0.00     0.015 SA
ATOM      6  C4  UNL d   1       1.245  -2.542   1.255  0.00  0.00     0.022 A 
ATOM      7  C5  UNL d   1      -0.010  -2.263   0.767  0.00  0.00     0.026 A 
ATOM      8  C6  UNL d   1      -0.129  -0.922   0.266  0.00  0.00    -0.082 A 
ATOM      9  C7  UNL d   1      -1.232  -0.248  -0.310  0.00  0.00     0.045 A 
ENDROOT
TORSDOF 0
ENDMDL
