MODEL 1
REMARK minimizedAffinity -3.92655611
REMARK minimizedRMSD -1
REMARK  0 active torsions:
REMARK  status: ('A' for Active; 'I' for Inactive)
ROOT
ATOM      1  C   UNL d   1       2.020  -1.818   0.639  0.00  0.00    -0.002 A 
ATOM      2  C1  UNL d   1       1.083  -2.661   0.060  0.00  0.00     0.010 A 
ATOM      3  C2  UNL d   1      -0.075  -2.143  -0.522  0.00  0.00     0.041 A 
ATOM      4  C3  UNL d   1      -0.277  -0.749  -0.513  0.00  0.00    -0.075 A 
ATOM      5  S   UNL d   1      -1.621   0.111  -1.167  0.00  0.00     0.015 SA
ATOM      6  C4  UNL d   1      -0.983   1.618  -0.693  0.00  0.00     0.022 A 
ATOM      7  C5  UNL d   1       0.226   1.488  -0.050  0.00  0.00     0.026 A 
ATOM      8  C6  UNL d   1       0.652   0.121   0.063  0.00  0.00    -0.082 A 
ATOM      9  C7  UNL d   1       1.816  -0.435   0.646  0.00  0.00     0.045 A 
ENDROOT
TORSDOF 0
ENDMDL
