MODEL 1
REMARK minimizedAffinity -3.23428369
REMARK minimizedRMSD -1
REMARK  0 active torsions:
REMARK  status: ('A' for Active; 'I' for Inactive)
ROOT
ATOM      1  C   UNL d   1       1.630  -2.845   1.026  0.00  0.00    -0.002 A 
ATOM      2  C1  UNL d   1       2.281  -2.014   0.125  0.00  0.00     0.010 A 
ATOM      3  C2  UNL d   1       1.720  -0.790  -0.244  0.00  0.00     0.041 A 
ATOM      4  C3  UNL d   1       0.483  -0.411   0.314  0.00  0.00    -0.075 A 
ATOM      5  S   UNL d   1      -0.393   1.042   0.009  0.00  0.00     0.015 SA
ATOM      6  C4  UNL d   1      -1.651   0.594   1.068  0.00  0.00     0.022 A 
ATOM      7  C5  UNL d   1      -1.425  -0.631   1.648  0.00  0.00     0.026 A 
ATOM      8  C6  UNL d   1      -0.191  -1.231   1.223  0.00  0.00    -0.082 A 
ATOM      9  C7  UNL d   1       0.404  -2.466   1.577  0.00  0.00     0.045 A 
ENDROOT
TORSDOF 0
ENDMDL
