MODEL 1
REMARK minimizedAffinity -2.30348063
REMARK minimizedRMSD -1
REMARK  0 active torsions:
REMARK  status: ('A' for Active; 'I' for Inactive)
ROOT
ATOM      1  C   UNL d   1       0.628  -2.869   1.632  0.00  0.00    -0.002 A 
ATOM      2  C1  UNL d   1       1.985  -2.581   1.666  0.00  0.00     0.010 A 
ATOM      3  C2  UNL d   1       2.483  -1.435   1.043  0.00  0.00     0.041 A 
ATOM      4  C3  UNL d   1       1.586  -0.574   0.381  0.00  0.00    -0.075 A 
ATOM      5  S   UNL d   1       1.970   0.887  -0.450  0.00  0.00     0.015 SA
ATOM      6  C4  UNL d   1       0.341   1.164  -0.869  0.00  0.00     0.022 A 
ATOM      7  C5  UNL d   1      -0.489   0.175  -0.395  0.00  0.00     0.026 A 
ATOM      8  C6  UNL d   1       0.215  -0.842   0.334  0.00  0.00    -0.082 A 
ATOM      9  C7  UNL d   1      -0.259  -2.013   0.974  0.00  0.00     0.045 A 
ENDROOT
TORSDOF 0
ENDMDL
