MODEL 1
REMARK minimizedAffinity 6.65967131
REMARK minimizedRMSD -1
REMARK  0 active torsions:
REMARK  status: ('A' for Active; 'I' for Inactive)
ROOT
ATOM      1  C   UNL d   1      -1.568  -1.377   2.266  0.00  0.00    -0.002 A 
ATOM      2  C1  UNL d   1      -0.946  -2.216   1.352  0.00  0.00     0.010 A 
ATOM      3  C2  UNL d   1      -0.079  -1.698   0.388  0.00  0.00     0.041 A 
ATOM      4  C3  UNL d   1       0.157  -0.309   0.359  0.00  0.00    -0.075 A 
ATOM      5  S   UNL d   1       1.181   0.549  -0.731  0.00  0.00     0.015 SA
ATOM      6  C4  UNL d   1       0.818   2.049  -0.009  0.00  0.00     0.022 A 
ATOM      7  C5  UNL d   1      -0.062   1.917   1.040  0.00  0.00     0.026 A 
ATOM      8  C6  UNL d   1      -0.457   0.556   1.270  0.00  0.00    -0.082 A 
ATOM      9  C7  UNL d   1      -1.331   0.000   2.234  0.00  0.00     0.045 A 
ENDROOT
TORSDOF 0
ENDMDL
