MODEL 1
REMARK minimizedAffinity -1.36323273
REMARK minimizedRMSD -1
REMARK  0 active torsions:
REMARK  status: ('A' for Active; 'I' for Inactive)
ROOT
ATOM      1  C   UNL d   1       0.018   0.118  -6.000  0.00  0.00    -0.002 A 
ATOM      2  C1  UNL d   1      -0.834  -0.735  -5.313  0.00  0.00     0.010 A 
ATOM      3  C2  UNL d   1      -0.763  -0.843  -3.923  0.00  0.00     0.041 A 
ATOM      4  C3  UNL d   1       0.188  -0.071  -3.227  0.00  0.00    -0.075 A 
ATOM      5  S   UNL d   1       0.457  -0.038  -1.525  0.00  0.00     0.015 SA
ATOM      6  C4  UNL d   1       1.709   1.108  -1.669  0.00  0.00     0.022 A 
ATOM      7  C5  UNL d   1       1.931   1.469  -2.977  0.00  0.00     0.026 A 
ATOM      8  C6  UNL d   1       1.058   0.796  -3.897  0.00  0.00    -0.082 A 
ATOM      9  C7  UNL d   1       0.961   0.882  -5.307  0.00  0.00     0.045 A 
ENDROOT
TORSDOF 0
ENDMDL
