MODEL 1
REMARK minimizedAffinity -0.344170421
REMARK minimizedRMSD -1
REMARK  0 active torsions:
REMARK  status: ('A' for Active; 'I' for Inactive)
ROOT
ATOM      1  C   UNL d   1      -0.141   1.549   3.865  0.00  0.00    -0.002 A 
ATOM      2  C1  UNL d   1      -1.077   1.948   2.921  0.00  0.00     0.010 A 
ATOM      3  C2  UNL d   1      -1.013   1.471   1.611  0.00  0.00     0.041 A 
ATOM      4  C3  UNL d   1       0.017   0.576   1.261  0.00  0.00    -0.075 A 
ATOM      5  S   UNL d   1       0.293  -0.138  -0.284  0.00  0.00     0.015 SA
ATOM      6  C4  UNL d   1       1.660  -0.992   0.272  0.00  0.00     0.022 A 
ATOM      7  C5  UNL d   1       1.914  -0.749   1.601  0.00  0.00     0.026 A 
ATOM      8  C6  UNL d   1       0.971   0.159   2.193  0.00  0.00    -0.082 A 
ATOM      9  C7  UNL d   1       0.879   0.660   3.514  0.00  0.00     0.045 A 
ENDROOT
TORSDOF 0
ENDMDL
