MODEL 1
REMARK minimizedAffinity -1.88365233
REMARK minimizedRMSD -1
REMARK  0 active torsions:
REMARK  status: ('A' for Active; 'I' for Inactive)
ROOT
ATOM      1  C   UNL d   1       0.096   1.589   3.552  0.00  0.00    -0.002 A 
ATOM      2  C1  UNL d   1      -1.072   1.662   2.806  0.00  0.00     0.010 A 
ATOM      3  C2  UNL d   1      -1.158   1.040   1.558  0.00  0.00     0.041 A 
ATOM      4  C3  UNL d   1      -0.040   0.336   1.069  0.00  0.00    -0.075 A 
ATOM      5  S   UNL d   1       0.084  -0.504  -0.431  0.00  0.00     0.015 SA
ATOM      6  C4  UNL d   1       1.690  -0.981  -0.117  0.00  0.00     0.022 A 
ATOM      7  C5  UNL d   1       2.136  -0.519   1.098  0.00  0.00     0.026 A 
ATOM      8  C6  UNL d   1       1.147   0.247   1.802  0.00  0.00    -0.082 A 
ATOM      9  C7  UNL d   1       1.203   0.889   3.063  0.00  0.00     0.045 A 
ENDROOT
TORSDOF 0
ENDMDL
