MODEL 1
REMARK minimizedAffinity 2.79088521
REMARK minimizedRMSD -1
REMARK  0 active torsions:
REMARK  status: ('A' for Active; 'I' for Inactive)
ROOT
ATOM      1  C   UNL d   1       2.920  -0.297   2.495  0.00  0.00    -0.002 A 
ATOM      2  C1  UNL d   1       3.238  -1.120   1.423  0.00  0.00     0.010 A 
ATOM      3  C2  UNL d   1       2.413  -1.173   0.299  0.00  0.00     0.041 A 
ATOM      4  C3  UNL d   1       1.251  -0.376   0.268  0.00  0.00    -0.075 A 
ATOM      5  S   UNL d   1       0.092  -0.277  -1.005  0.00  0.00     0.015 SA
ATOM      6  C4  UNL d   1      -0.853   0.859  -0.157  0.00  0.00     0.022 A 
ATOM      7  C5  UNL d   1      -0.312   1.167   1.069  0.00  0.00     0.026 A 
ATOM      8  C6  UNL d   1       0.910   0.461   1.334  0.00  0.00    -0.082 A 
ATOM      9  C7  UNL d   1       1.767   0.491   2.460  0.00  0.00     0.045 A 
ENDROOT
TORSDOF 0
ENDMDL
