MODEL 1
REMARK minimizedAffinity -1.71922636
REMARK minimizedRMSD -1
REMARK  0 active torsions:
REMARK  status: ('A' for Active; 'I' for Inactive)
ROOT
ATOM      1  C   UNL d   1       2.238   0.974  -2.552  0.00  0.00    -0.002 A 
ATOM      2  C1  UNL d   1       2.411   1.610  -3.773  0.00  0.00     0.010 A 
ATOM      3  C2  UNL d   1       1.544   1.352  -4.837  0.00  0.00     0.041 A 
ATOM      4  C3  UNL d   1       0.489   0.438  -4.650  0.00  0.00    -0.075 A 
ATOM      5  S   UNL d   1      -0.697  -0.033  -5.810  0.00  0.00     0.015 SA
ATOM      6  C4  UNL d   1      -1.461  -1.087  -4.712  0.00  0.00     0.022 A 
ATOM      7  C5  UNL d   1      -0.841  -1.093  -3.485  0.00  0.00     0.026 A 
ATOM      8  C6  UNL d   1       0.293  -0.214  -3.429  0.00  0.00    -0.082 A 
ATOM      9  C7  UNL d   1       1.190   0.068  -2.370  0.00  0.00     0.045 A 
ENDROOT
TORSDOF 0
ENDMDL
