MODEL 1
REMARK minimizedAffinity 11.6328878
REMARK minimizedRMSD -1
REMARK  0 active torsions:
REMARK  status: ('A' for Active; 'I' for Inactive)
ROOT
ATOM      1  C   UNL d   1       1.354  -1.643   2.268  0.00  0.00     0.078 C 
ATOM      2  C1  UNL d   1      -0.050  -1.491   1.763  0.00  0.00    -0.077 A 
ATOM      3  C2  UNL d   1      -0.787  -0.328   2.019  0.00  0.00    -0.001 A 
ATOM      4  C3  UNL d   1      -2.096  -0.205   1.552  0.00  0.00     0.003 A 
ATOM      5  C4  UNL d   1      -2.680  -1.241   0.825  0.00  0.00    -0.005 A 
ATOM      6  C5  UNL d   1      -1.955  -2.402   0.567  0.00  0.00     0.003 A 
ATOM      7  C6  UNL d   1      -0.646  -2.528   1.034  0.00  0.00    -0.001 A 
ENDROOT
TORSDOF 0
ENDMDL
