MODEL 1
REMARK minimizedAffinity 11.3226709
REMARK minimizedRMSD -1
REMARK  0 active torsions:
REMARK  status: ('A' for Active; 'I' for Inactive)
ROOT
ATOM      1  C   UNL d   1       0.262   4.035  -4.146  0.00  0.00     0.078 C 
ATOM      2  C1  UNL d   1       1.368   3.314  -3.435  0.00  0.00    -0.077 A 
ATOM      3  C2  UNL d   1       2.701   3.463  -3.838  0.00  0.00    -0.001 A 
ATOM      4  C3  UNL d   1       3.720   2.778  -3.173  0.00  0.00     0.003 A 
ATOM      5  C4  UNL d   1       3.417   1.939  -2.103  0.00  0.00    -0.005 A 
ATOM      6  C5  UNL d   1       2.093   1.783  -1.696  0.00  0.00     0.003 A 
ATOM      7  C6  UNL d   1       1.073   2.467  -2.360  0.00  0.00    -0.001 A 
ENDROOT
TORSDOF 0
ENDMDL
