MODEL 1
REMARK minimizedAffinity 4.39024639
REMARK minimizedRMSD -1
REMARK  0 active torsions:
REMARK  status: ('A' for Active; 'I' for Inactive)
ROOT
ATOM      1  C   UNL d   1      -1.170  -3.397  -2.637  0.00  0.00     0.078 C 
ATOM      2  C1  UNL d   1      -1.561  -4.302  -3.767  0.00  0.00    -0.077 A 
ATOM      3  C2  UNL d   1      -2.672  -5.148  -3.662  0.00  0.00    -0.001 A 
ATOM      4  C3  UNL d   1      -3.019  -5.991  -4.719  0.00  0.00     0.003 A 
ATOM      5  C4  UNL d   1      -2.260  -5.998  -5.887  0.00  0.00    -0.005 A 
ATOM      6  C5  UNL d   1      -1.151  -5.162  -6.000  0.00  0.00     0.003 A 
ATOM      7  C6  UNL d   1      -0.803  -4.318  -4.944  0.00  0.00    -0.001 A 
ENDROOT
TORSDOF 0
ENDMDL
