MODEL 1
REMARK minimizedAffinity 1.73574758
REMARK minimizedRMSD -1
REMARK  0 active torsions:
REMARK  status: ('A' for Active; 'I' for Inactive)
ROOT
ATOM      1  C   UNL d   1      -4.159   0.371   0.251  0.00  0.00     0.078 C 
ATOM      2  C1  UNL d   1      -2.934  -0.220   0.881  0.00  0.00    -0.077 A 
ATOM      3  C2  UNL d   1      -1.794   0.560   1.112  0.00  0.00    -0.001 A 
ATOM      4  C3  UNL d   1      -0.657  -0.005   1.691  0.00  0.00     0.003 A 
ATOM      5  C4  UNL d   1      -0.648  -1.353   2.043  0.00  0.00    -0.005 A 
ATOM      6  C5  UNL d   1      -1.776  -2.138   1.815  0.00  0.00     0.003 A 
ATOM      7  C6  UNL d   1      -2.914  -1.574   1.236  0.00  0.00    -0.001 A 
ENDROOT
TORSDOF 0
ENDMDL
