MODEL 1
REMARK minimizedAffinity 11.2088461
REMARK minimizedRMSD -1
REMARK  0 active torsions:
REMARK  status: ('A' for Active; 'I' for Inactive)
ROOT
ATOM      1  C   UNL d   1       0.041   4.801  -3.847  0.00  0.00     0.078 C 
ATOM      2  C1  UNL d   1       1.094   3.908  -3.260  0.00  0.00    -0.077 A 
ATOM      3  C2  UNL d   1       0.745   2.798  -2.482  0.00  0.00    -0.001 A 
ATOM      4  C3  UNL d   1       1.735   1.981  -1.934  0.00  0.00     0.003 A 
ATOM      5  C4  UNL d   1       3.081   2.267  -2.157  0.00  0.00    -0.005 A 
ATOM      6  C5  UNL d   1       3.437   3.371  -2.928  0.00  0.00     0.003 A 
ATOM      7  C6  UNL d   1       2.448   4.189  -3.477  0.00  0.00    -0.001 A 
ENDROOT
TORSDOF 0
ENDMDL
