MODEL 1
REMARK minimizedAffinity 5.90688801
REMARK minimizedRMSD -1
REMARK  0 active torsions:
REMARK  status: ('A' for Active; 'I' for Inactive)
ROOT
ATOM      1  C   UNL d   1       0.963  -2.958   2.138  0.00  0.00     0.078 C 
ATOM      2  C1  UNL d   1      -0.246  -2.075   2.045  0.00  0.00    -0.077 A 
ATOM      3  C2  UNL d   1      -1.486  -2.590   1.646  0.00  0.00    -0.001 A 
ATOM      4  C3  UNL d   1      -2.600  -1.755   1.555  0.00  0.00     0.003 A 
ATOM      5  C4  UNL d   1      -2.486  -0.400   1.860  0.00  0.00    -0.005 A 
ATOM      6  C5  UNL d   1      -1.257   0.122   2.256  0.00  0.00     0.003 A 
ATOM      7  C6  UNL d   1      -0.141  -0.712   2.348  0.00  0.00    -0.001 A 
ENDROOT
TORSDOF 0
ENDMDL
