MODEL 1
REMARK minimizedAffinity 7.47591972
REMARK minimizedRMSD -1
REMARK  0 active torsions:
REMARK  status: ('A' for Active; 'I' for Inactive)
ROOT
ATOM      1  C   UNL d   1      -3.027   5.261  -4.217  0.00  0.00     0.078 C 
ATOM      2  C1  UNL d   1      -4.059   5.122  -3.138  0.00  0.00    -0.077 A 
ATOM      3  C2  UNL d   1      -4.053   5.967  -2.021  0.00  0.00    -0.001 A 
ATOM      4  C3  UNL d   1      -5.013   5.820  -1.019  0.00  0.00     0.003 A 
ATOM      5  C4  UNL d   1      -5.986   4.828  -1.123  0.00  0.00    -0.005 A 
ATOM      6  C5  UNL d   1      -5.999   3.981  -2.229  0.00  0.00     0.003 A 
ATOM      7  C6  UNL d   1      -5.040   4.127  -3.232  0.00  0.00    -0.001 A 
ENDROOT
TORSDOF 0
ENDMDL
