MODEL 1
REMARK minimizedAffinity 7.2477808
REMARK minimizedRMSD -1
REMARK  0 active torsions:
REMARK  status: ('A' for Active; 'I' for Inactive)
ROOT
ATOM      1  C   UNL d   1      -0.384   3.927  -3.966  0.00  0.00     0.078 C 
ATOM      2  C1  UNL d   1       0.793   3.363  -3.228  0.00  0.00    -0.077 A 
ATOM      3  C2  UNL d   1       0.641   2.784  -1.963  0.00  0.00    -0.001 A 
ATOM      4  C3  UNL d   1       1.748   2.271  -1.283  0.00  0.00     0.003 A 
ATOM      5  C4  UNL d   1       3.014   2.334  -1.861  0.00  0.00    -0.005 A 
ATOM      6  C5  UNL d   1       3.175   2.911  -3.119  0.00  0.00     0.003 A 
ATOM      7  C6  UNL d   1       2.070   3.424  -3.800  0.00  0.00    -0.001 A 
ENDROOT
TORSDOF 0
ENDMDL
