MODEL 1
REMARK minimizedAffinity 7.60305452
REMARK minimizedRMSD -1
REMARK  0 active torsions:
REMARK  status: ('A' for Active; 'I' for Inactive)
ROOT
ATOM      1  C   UNL d   1       1.980   3.614  -2.622  0.00  0.00     0.078 C 
ATOM      2  C1  UNL d   1       3.381   4.013  -2.979  0.00  0.00    -0.077 A 
ATOM      3  C2  UNL d   1       4.157   4.783  -2.104  0.00  0.00    -0.001 A 
ATOM      4  C3  UNL d   1       5.456   5.156  -2.454  0.00  0.00     0.003 A 
ATOM      5  C4  UNL d   1       5.990   4.763  -3.679  0.00  0.00    -0.005 A 
ATOM      6  C5  UNL d   1       5.225   3.998  -4.557  0.00  0.00     0.003 A 
ATOM      7  C6  UNL d   1       3.926   3.625  -4.210  0.00  0.00    -0.001 A 
ENDROOT
TORSDOF 0
ENDMDL
