MODEL 1
REMARK minimizedAffinity 4.48402405
REMARK minimizedRMSD -1
REMARK  0 active torsions:
REMARK  status: ('A' for Active; 'I' for Inactive)
ROOT
ATOM      1  C   UNL d   1      -5.989  -0.441  -3.889  0.00  0.00     0.078 C 
ATOM      2  C1  UNL d   1      -5.986   0.304  -2.588  0.00  0.00    -0.077 A 
ATOM      3  C2  UNL d   1      -5.990  -0.379  -1.366  0.00  0.00    -0.001 A 
ATOM      4  C3  UNL d   1      -5.996   0.327  -0.162  0.00  0.00     0.003 A 
ATOM      5  C4  UNL d   1      -6.000   1.721  -0.168  0.00  0.00    -0.005 A 
ATOM      6  C5  UNL d   1      -5.998   2.410  -1.380  0.00  0.00     0.003 A 
ATOM      7  C6  UNL d   1      -5.991   1.705  -2.584  0.00  0.00    -0.001 A 
ENDROOT
TORSDOF 0
ENDMDL
