MODEL 1
REMARK minimizedAffinity 7.12434864
REMARK minimizedRMSD -1
REMARK  0 active torsions:
REMARK  status: ('A' for Active; 'I' for Inactive)
ROOT
ATOM      1  C   UNL d   1      -1.505  -3.470  -2.536  0.00  0.00     0.078 C 
ATOM      2  C1  UNL d   1      -1.637  -4.346  -3.746  0.00  0.00    -0.077 A 
ATOM      3  C2  UNL d   1      -2.882  -4.854  -4.136  0.00  0.00    -0.001 A 
ATOM      4  C3  UNL d   1      -2.988  -5.677  -5.258  0.00  0.00     0.003 A 
ATOM      5  C4  UNL d   1      -1.853  -6.000  -5.999  0.00  0.00    -0.005 A 
ATOM      6  C5  UNL d   1      -0.609  -5.501  -5.617  0.00  0.00     0.003 A 
ATOM      7  C6  UNL d   1      -0.501  -4.678  -4.495  0.00  0.00    -0.001 A 
ENDROOT
TORSDOF 0
ENDMDL
