MODEL 1
REMARK minimizedAffinity 11.2716885
REMARK minimizedRMSD -1
REMARK  0 active torsions:
REMARK  status: ('A' for Active; 'I' for Inactive)
ROOT
ATOM      1  C   UNL d   1      -2.145   0.726   3.247  0.00  0.00     0.078 C 
ATOM      2  C1  UNL d   1      -1.821  -0.531   2.496  0.00  0.00    -0.077 A 
ATOM      3  C2  UNL d   1      -2.833  -1.299   1.905  0.00  0.00    -0.001 A 
ATOM      4  C3  UNL d   1      -2.518  -2.472   1.217  0.00  0.00     0.003 A 
ATOM      5  C4  UNL d   1      -1.193  -2.888   1.114  0.00  0.00    -0.005 A 
ATOM      6  C5  UNL d   1      -0.180  -2.132   1.700  0.00  0.00     0.003 A 
ATOM      7  C6  UNL d   1      -0.492  -0.959   2.389  0.00  0.00    -0.001 A 
ENDROOT
TORSDOF 0
ENDMDL
