MODEL 1
REMARK minimizedAffinity 0.832430124
REMARK minimizedRMSD -1
REMARK  0 active torsions:
REMARK  status: ('A' for Active; 'I' for Inactive)
ROOT
ATOM      1  C   UNL d   1      -1.808  -0.801   1.698  0.00  0.00     0.078 C 
ATOM      2  C1  UNL d   1      -2.932   0.028   2.244  0.00  0.00    -0.077 A 
ATOM      3  C2  UNL d   1      -2.886   0.535   3.549  0.00  0.00    -0.001 A 
ATOM      4  C3  UNL d   1      -3.943   1.297   4.048  0.00  0.00     0.003 A 
ATOM      5  C4  UNL d   1      -5.055   1.558   3.250  0.00  0.00    -0.005 A 
ATOM      6  C5  UNL d   1      -5.111   1.056   1.951  0.00  0.00     0.003 A 
ATOM      7  C6  UNL d   1      -4.055   0.293   1.450  0.00  0.00    -0.001 A 
ENDROOT
TORSDOF 0
ENDMDL
