MODEL 1
REMARK minimizedAffinity 8.25849342
REMARK minimizedRMSD -1
REMARK  0 active torsions:
REMARK  status: ('A' for Active; 'I' for Inactive)
ROOT
ATOM      1  C   UNL d   1       0.756   6.000  -1.505  0.00  0.00     0.078 C 
ATOM      2  C1  UNL d   1       1.565   4.789  -1.862  0.00  0.00    -0.077 A 
ATOM      3  C2  UNL d   1       0.944   3.595  -2.249  0.00  0.00    -0.001 A 
ATOM      4  C3  UNL d   1       1.710   2.473  -2.569  0.00  0.00     0.003 A 
ATOM      5  C4  UNL d   1       3.101   2.533  -2.504  0.00  0.00    -0.005 A 
ATOM      6  C5  UNL d   1       3.727   3.716  -2.118  0.00  0.00     0.003 A 
ATOM      7  C6  UNL d   1       2.963   4.839  -1.798  0.00  0.00    -0.001 A 
ENDROOT
TORSDOF 0
ENDMDL
