MODEL 1
REMARK minimizedAffinity 1.02804482
REMARK minimizedRMSD -1
REMARK  0 active torsions:
REMARK  status: ('A' for Active; 'I' for Inactive)
ROOT
ATOM      1  C   UNL d   1       1.970   0.747  -2.827  0.00  0.00     0.078 C 
ATOM      2  C1  UNL d   1       3.374   1.106  -3.212  0.00  0.00    -0.077 A 
ATOM      3  C2  UNL d   1       3.785   2.443  -3.273  0.00  0.00    -0.001 A 
ATOM      4  C3  UNL d   1       5.093   2.763  -3.643  0.00  0.00     0.003 A 
ATOM      5  C4  UNL d   1       5.999   1.752  -3.954  0.00  0.00    -0.005 A 
ATOM      6  C5  UNL d   1       5.598   0.418  -3.898  0.00  0.00     0.003 A 
ATOM      7  C6  UNL d   1       4.291   0.096  -3.529  0.00  0.00    -0.001 A 
ENDROOT
TORSDOF 0
ENDMDL
