MODEL 1
REMARK minimizedAffinity 6.42114305
REMARK minimizedRMSD -1
REMARK  0 active torsions:
REMARK  status: ('A' for Active; 'I' for Inactive)
ROOT
ATOM      1  C   UNL d   1      -5.015  -3.842  -5.971  0.00  0.00     0.078 C 
ATOM      2  C1  UNL d   1      -3.666  -4.331  -5.534  0.00  0.00    -0.077 A 
ATOM      3  C2  UNL d   1      -3.158  -5.552  -5.995  0.00  0.00    -0.001 A 
ATOM      4  C3  UNL d   1      -1.905  -5.999  -5.573  0.00  0.00     0.003 A 
ATOM      5  C4  UNL d   1      -1.151  -5.233  -4.686  0.00  0.00    -0.005 A 
ATOM      6  C5  UNL d   1      -1.649  -4.018  -4.221  0.00  0.00     0.003 A 
ATOM      7  C6  UNL d   1      -2.902  -3.569  -4.642  0.00  0.00    -0.001 A 
ENDROOT
TORSDOF 0
ENDMDL
