MODEL 1
REMARK minimizedAffinity 0.74116981
REMARK minimizedRMSD -1
REMARK  0 active torsions:
REMARK  status: ('A' for Active; 'I' for Inactive)
ROOT
ATOM      1  C   UNL d   1       1.067  -3.309   0.009  0.00  0.00     0.078 C 
ATOM      2  C1  UNL d   1       0.272  -2.390   0.888  0.00  0.00    -0.077 A 
ATOM      3  C2  UNL d   1      -1.070  -2.105   0.607  0.00  0.00    -0.001 A 
ATOM      4  C3  UNL d   1      -1.795  -1.241   1.428  0.00  0.00     0.003 A 
ATOM      5  C4  UNL d   1      -1.187  -0.653   2.536  0.00  0.00    -0.005 A 
ATOM      6  C5  UNL d   1       0.149  -0.929   2.823  0.00  0.00     0.003 A 
ATOM      7  C6  UNL d   1       0.876  -1.793   2.002  0.00  0.00    -0.001 A 
ENDROOT
TORSDOF 0
ENDMDL
