MODEL 1
REMARK minimizedAffinity -3.04386711
REMARK minimizedRMSD -1
REMARK  0 active torsions:
REMARK  status: ('A' for Active; 'I' for Inactive)
ROOT
ATOM      1  C   UNL d   1      -1.977  -0.022  -0.735  0.00  0.00     0.078 C 
ATOM      2  C1  UNL d   1      -0.588  -0.258  -0.222  0.00  0.00    -0.077 A 
ATOM      3  C2  UNL d   1      -0.343  -1.188   0.796  0.00  0.00    -0.001 A 
ATOM      4  C3  UNL d   1       0.953  -1.389   1.271  0.00  0.00     0.003 A 
ATOM      5  C4  UNL d   1       2.015  -0.664   0.736  0.00  0.00    -0.005 A 
ATOM      6  C5  UNL d   1       1.781   0.266  -0.276  0.00  0.00     0.003 A 
ATOM      7  C6  UNL d   1       0.485   0.469  -0.752  0.00  0.00    -0.001 A 
ENDROOT
TORSDOF 0
ENDMDL
