MODEL 1
REMARK minimizedAffinity 15.5440073
REMARK minimizedRMSD -1
REMARK  0 active torsions:
REMARK  status: ('A' for Active; 'I' for Inactive)
ROOT
ATOM      1  C4' PXY d   1      -5.999   1.578  -4.224  0.00  0.00     0.077 C 
ATOM      2  C1' PXY d   1      -2.600   2.712   0.311  0.00  0.00     0.077 C 
ATOM      3  C1  PXY d   1      -3.502   2.415  -0.871  0.00  0.00    -0.082 A 
ATOM      4  C2  PXY d   1      -3.006   1.806  -1.935  0.00  0.00     0.003 A 
ATOM      5  C3  PXY d   1      -3.800   1.558  -3.025  0.00  0.00     0.003 A 
ATOM      6  C4  PXY d   1      -5.128   1.890  -3.005  0.00  0.00    -0.082 A 
ATOM      7  C5  PXY d   1      -5.644   2.502  -1.918  0.00  0.00     0.003 A 
ATOM      8  C6  PXY d   1      -4.812   2.782  -0.838  0.00  0.00     0.003 A 
ENDROOT
TORSDOF 0
ENDMDL
