MODEL 1
REMARK minimizedAffinity -2.48917842
REMARK minimizedRMSD -1
REMARK  0 active torsions:
REMARK  status: ('A' for Active; 'I' for Inactive)
ROOT
ATOM      1  C4' PXY d   1       2.925   4.322  -1.371  0.00  0.00     0.077 C 
ATOM      2  C1' PXY d   1       5.962   5.997  -5.995  0.00  0.00     0.077 C 
ATOM      3  C1  PXY d   1       5.176   5.560  -4.775  0.00  0.00    -0.082 A 
ATOM      4  C2  PXY d   1       4.135   4.757  -4.921  0.00  0.00     0.003 A 
ATOM      5  C3  PXY d   1       3.393   4.378  -3.832  0.00  0.00     0.003 A 
ATOM      6  C4  PXY d   1       3.753   4.782  -2.574  0.00  0.00    -0.082 A 
ATOM      7  C5  PXY d   1       4.821   5.592  -2.416  0.00  0.00     0.003 A 
ATOM      8  C6  PXY d   1       5.536   5.999  -3.538  0.00  0.00     0.003 A 
ENDROOT
TORSDOF 0
ENDMDL
