MODEL 1
REMARK minimizedAffinity 4.33312416
REMARK minimizedRMSD -1
REMARK  0 active torsions:
REMARK  status: ('A' for Active; 'I' for Inactive)
ROOT
ATOM      1  C4' PXY d   1       3.716   0.454  -0.066  0.00  0.00     0.077 C 
ATOM      2  C1' PXY d   1       0.809  -2.839   3.692  0.00  0.00     0.077 C 
ATOM      3  C1  PXY d   1       1.560  -1.971   2.702  0.00  0.00    -0.082 A 
ATOM      4  C2  PXY d   1       2.787  -2.306   2.337  0.00  0.00     0.003 A 
ATOM      5  C3  PXY d   1       3.492  -1.515   1.467  0.00  0.00     0.003 A 
ATOM      6  C4  PXY d   1       2.916  -0.398   0.924  0.00  0.00    -0.082 A 
ATOM      7  C5  PXY d   1       1.661  -0.055   1.283  0.00  0.00     0.003 A 
ATOM      8  C6  PXY d   1       0.977  -0.849   2.199  0.00  0.00     0.003 A 
ENDROOT
TORSDOF 0
ENDMDL
