MODEL 1
REMARK minimizedAffinity 1.63287413
REMARK minimizedRMSD -1
REMARK  0 active torsions:
REMARK  status: ('A' for Active; 'I' for Inactive)
ROOT
ATOM      1  C4' PXY d   1       0.736  -3.543   4.887  0.00  0.00     0.077 C 
ATOM      2  C1' PXY d   1       1.489   0.059   0.430  0.00  0.00     0.077 C 
ATOM      3  C1  PXY d   1       1.293  -0.876   1.607  0.00  0.00    -0.082 A 
ATOM      4  C2  PXY d   1       1.531  -2.169   1.462  0.00  0.00     0.003 A 
ATOM      5  C3  PXY d   1       1.328  -3.033   2.507  0.00  0.00     0.003 A 
ATOM      6  C4  PXY d   1       0.929  -2.561   3.729  0.00  0.00    -0.082 A 
ATOM      7  C5  PXY d   1       0.695  -1.241   3.888  0.00  0.00     0.003 A 
ATOM      8  C6  PXY d   1       0.867  -0.386   2.803  0.00  0.00     0.003 A 
ENDROOT
TORSDOF 0
ENDMDL
