MODEL 1
REMARK minimizedAffinity 9.63484573
REMARK minimizedRMSD -1
REMARK  0 active torsions:
REMARK  status: ('A' for Active; 'I' for Inactive)
ROOT
ATOM      1  C4' PXY d   1      -3.404  -0.399  -2.717  0.00  0.00     0.077 C 
ATOM      2  C1' PXY d   1      -2.186   3.355   1.508  0.00  0.00     0.077 C 
ATOM      3  C1  PXY d   1      -2.514   2.379   0.394  0.00  0.00    -0.082 A 
ATOM      4  C2  PXY d   1      -2.389   1.079   0.606  0.00  0.00     0.003 A 
ATOM      5  C3  PXY d   1      -2.650   0.184  -0.400  0.00  0.00     0.003 A 
ATOM      6  C4  PXY d   1      -3.094   0.622  -1.619  0.00  0.00    -0.082 A 
ATOM      7  C5  PXY d   1      -3.235   1.947  -1.839  0.00  0.00     0.003 A 
ATOM      8  C6  PXY d   1      -2.925   2.840  -0.818  0.00  0.00     0.003 A 
ENDROOT
TORSDOF 0
ENDMDL
