MODEL 1
REMARK minimizedAffinity 7.34865189
REMARK minimizedRMSD -1
REMARK  0 active torsions:
REMARK  status: ('A' for Active; 'I' for Inactive)
ROOT
ATOM      1  C4' PXY d   1       1.121  -1.549   5.823  0.00  0.00     0.077 C 
ATOM      2  C1' PXY d   1       1.919  -1.175   0.110  0.00  0.00     0.077 C 
ATOM      3  C1  PXY d   1       1.709  -1.260   1.609  0.00  0.00    -0.082 A 
ATOM      4  C2  PXY d   1       2.128  -2.328   2.268  0.00  0.00     0.003 A 
ATOM      5  C3  PXY d   1       1.917  -2.435   3.619  0.00  0.00     0.003 A 
ATOM      6  C4  PXY d   1       1.320  -1.416   4.310  0.00  0.00    -0.082 A 
ATOM      7  C5  PXY d   1       0.900  -0.318   3.646  0.00  0.00     0.003 A 
ATOM      8  C6  PXY d   1       1.086  -0.246   2.269  0.00  0.00     0.003 A 
ENDROOT
TORSDOF 0
ENDMDL
