MODEL 1
REMARK minimizedAffinity 9.30841541
REMARK minimizedRMSD -1
REMARK  0 active torsions:
REMARK  status: ('A' for Active; 'I' for Inactive)
ROOT
ATOM      1  C4' PXY d   1      -4.338  -5.998  -5.998  0.00  0.00     0.077 C 
ATOM      2  C1' PXY d   1      -5.419  -1.362  -2.718  0.00  0.00     0.077 C 
ATOM      3  C1  PXY d   1      -5.146  -2.576  -3.585  0.00  0.00    -0.082 A 
ATOM      4  C2  PXY d   1      -4.365  -3.543  -3.130  0.00  0.00     0.003 A 
ATOM      5  C3  PXY d   1      -4.083  -4.632  -3.914  0.00  0.00     0.003 A 
ATOM      6  C4  PXY d   1      -4.648  -4.759  -5.154  0.00  0.00    -0.082 A 
ATOM      7  C5  PXY d   1      -5.454  -3.782  -5.621  0.00  0.00     0.003 A 
ATOM      8  C6  PXY d   1      -5.696  -2.665  -4.827  0.00  0.00     0.003 A 
ENDROOT
TORSDOF 0
ENDMDL
