MODEL 1
REMARK minimizedAffinity -0.451270908
REMARK minimizedRMSD -1
REMARK  0 active torsions:
REMARK  status: ('A' for Active; 'I' for Inactive)
ROOT
ATOM      1  C4' PXY d   1       1.506  -1.108   2.790  0.00  0.00     0.077 C 
ATOM      2  C1' PXY d   1       6.000  -3.285  -0.123  0.00  0.00     0.077 C 
ATOM      3  C1  PXY d   1       4.814  -2.714   0.630  0.00  0.00    -0.082 A 
ATOM      4  C2  PXY d   1       5.013  -2.051   1.758  0.00  0.00     0.003 A 
ATOM      5  C3  PXY d   1       3.950  -1.555   2.468  0.00  0.00     0.003 A 
ATOM      6  C4  PXY d   1       2.674  -1.694   1.992  0.00  0.00    -0.082 A 
ATOM      7  C5  PXY d   1       2.464  -2.359   0.836  0.00  0.00     0.003 A 
ATOM      8  C6  PXY d   1       3.553  -2.890   0.152  0.00  0.00     0.003 A 
ENDROOT
TORSDOF 0
ENDMDL
