MODEL 1
REMARK minimizedAffinity 4.12812376
REMARK minimizedRMSD -1
REMARK  0 active torsions:
REMARK  status: ('A' for Active; 'I' for Inactive)
ROOT
ATOM      1  C4' PXY d   1       3.516  -1.810   1.120  0.00  0.00     0.077 C 
ATOM      2  C1' PXY d   1       0.447  -2.275   5.996  0.00  0.00     0.077 C 
ATOM      3  C1  PXY d   1       1.261  -2.161   4.723  0.00  0.00    -0.082 A 
ATOM      4  C2  PXY d   1       1.087  -1.119   3.926  0.00  0.00     0.003 A 
ATOM      5  C3  PXY d   1       1.792  -1.016   2.755  0.00  0.00     0.003 A 
ATOM      6  C4  PXY d   1       2.723  -1.962   2.421  0.00  0.00    -0.082 A 
ATOM      7  C5  PXY d   1       2.914  -3.023   3.233  0.00  0.00     0.003 A 
ATOM      8  C6  PXY d   1       2.159  -3.130   4.398  0.00  0.00     0.003 A 
ENDROOT
TORSDOF 0
ENDMDL
