MODEL 1
REMARK minimizedAffinity 0.181528866
REMARK minimizedRMSD -1
REMARK  0 active torsions:
REMARK  status: ('A' for Active; 'I' for Inactive)
ROOT
ATOM      1  C4' PXY d   1       2.000  -3.500   1.873  0.00  0.00     0.077 C 
ATOM      2  C1' PXY d   1       1.398   1.432   4.827  0.00  0.00     0.077 C 
ATOM      3  C1  PXY d   1       1.552   0.144   4.041  0.00  0.00    -0.082 A 
ATOM      4  C2  PXY d   1       1.521  -1.016   4.676  0.00  0.00     0.003 A 
ATOM      5  C3  PXY d   1       1.691  -2.189   3.985  0.00  0.00     0.003 A 
ATOM      6  C4  PXY d   1       1.839  -2.176   2.624  0.00  0.00    -0.082 A 
ATOM      7  C5  PXY d   1       1.861  -0.996   1.968  0.00  0.00     0.003 A 
ATOM      8  C6  PXY d   1       1.729   0.185   2.693  0.00  0.00     0.003 A 
ENDROOT
TORSDOF 0
ENDMDL
