MODEL 1
REMARK minimizedAffinity -0.717563808
REMARK minimizedRMSD -1
REMARK  1 active torsions:
REMARK  status: ('A' for Active; 'I' for Inactive)
REMARK    1  A    between atoms: N_2  and  C1_3 
ROOT
ATOM      1  C1  UNL d   1       0.779  -1.134  -0.803  0.00  0.00     0.143 A 
ATOM      2  C2  UNL d   1       1.013   0.227  -1.023  0.00  0.00    -0.057 A 
ATOM      3  C3  UNL d   1       0.222   1.208  -0.412  0.00  0.00     0.033 A 
ATOM      4  C4  UNL d   1      -0.839   0.842   0.409  0.00  0.00    -0.042 A 
ATOM      5  C5  UNL d   1      -1.106  -0.506   0.623  0.00  0.00     0.033 A 
ATOM      6  C6  UNL d   1      -0.308  -1.480   0.015  0.00  0.00    -0.057 A 
ENDROOT
BRANCH   1   7
ATOM      7  N   UNL d   1       1.467  -2.158  -1.459  0.00  0.00    -0.732 N 
ATOM      8  C   UNL d   1       0.768  -3.076  -2.332  0.00  0.00     0.284 C 
ATOM      9  H3  UNL d   1       2.371  -1.852  -1.814  0.00  0.00     0.395 HD
ENDBRANCH   1   7
TORSDOF 1
ENDMDL
