MODEL 1
REMARK minimizedAffinity -1.01193035
REMARK minimizedRMSD -1
REMARK  1 active torsions:
REMARK  status: ('A' for Active; 'I' for Inactive)
REMARK    1  A    between atoms: N_2  and  C1_3 
ROOT
ATOM      1  C1  UNL d   1      -0.167   0.299   0.981  0.00  0.00     0.143 A 
ATOM      2  C2  UNL d   1      -0.720   0.679  -0.246  0.00  0.00    -0.057 A 
ATOM      3  C3  UNL d   1      -1.487   1.844  -0.367  0.00  0.00     0.033 A 
ATOM      4  C4  UNL d   1      -1.739   2.637   0.747  0.00  0.00    -0.042 A 
ATOM      5  C5  UNL d   1      -1.220   2.266   1.983  0.00  0.00     0.033 A 
ATOM      6  C6  UNL d   1      -0.449   1.105   2.096  0.00  0.00    -0.057 A 
ENDROOT
BRANCH   1   7
ATOM      7  N   UNL d   1       0.522  -0.899   1.187  0.00  0.00    -0.732 N 
ATOM      8  C   UNL d   1       0.696  -1.430   2.522  0.00  0.00     0.284 C 
ATOM      9  H3  UNL d   1       0.296  -1.602   0.486  0.00  0.00     0.395 HD
ENDBRANCH   1   7
TORSDOF 1
ENDMDL
