MODEL 1
REMARK minimizedAffinity -3.75189948
REMARK minimizedRMSD -1
REMARK  1 active torsions:
REMARK  status: ('A' for Active; 'I' for Inactive)
REMARK    1  A    between atoms: N_2  and  C1_3 
ROOT
ATOM      1  C1  UNL d   1       0.249   0.051   0.099  0.00  0.00     0.143 A 
ATOM      2  C2  UNL d   1      -0.277  -0.000   1.395  0.00  0.00    -0.057 A 
ATOM      3  C3  UNL d   1      -1.098   1.021   1.887  0.00  0.00     0.033 A 
ATOM      4  C4  UNL d   1      -1.386   2.131   1.099  0.00  0.00    -0.042 A 
ATOM      5  C5  UNL d   1      -0.854   2.216  -0.183  0.00  0.00     0.033 A 
ATOM      6  C6  UNL d   1      -0.040   1.189  -0.671  0.00  0.00    -0.057 A 
ENDROOT
BRANCH   1   7
ATOM      7  N   UNL d   1       1.151  -0.884  -0.413  0.00  0.00    -0.732 N 
ATOM      8  C   UNL d   1       0.679  -2.032  -1.158  0.00  0.00     0.284 C 
ATOM      9  H3  UNL d   1       1.983  -0.449  -0.803  0.00  0.00     0.395 HD
ENDBRANCH   1   7
TORSDOF 1
ENDMDL
