MODEL 1
REMARK minimizedAffinity -1.35055566
REMARK minimizedRMSD -1
REMARK  1 active torsions:
REMARK  status: ('A' for Active; 'I' for Inactive)
REMARK    1  A    between atoms: N_2  and  C1_3 
ROOT
ATOM      1  C1  UNL d   1       0.556  -0.671  -0.621  0.00  0.00     0.143 A 
ATOM      2  C2  UNL d   1       0.097   0.534  -1.161  0.00  0.00    -0.057 A 
ATOM      3  C3  UNL d   1      -0.684   1.418  -0.407  0.00  0.00     0.033 A 
ATOM      4  C4  UNL d   1      -1.045   1.096   0.898  0.00  0.00    -0.042 A 
ATOM      5  C5  UNL d   1      -0.621  -0.109   1.447  0.00  0.00     0.033 A 
ATOM      6  C6  UNL d   1       0.164  -0.983   0.690  0.00  0.00    -0.057 A 
ENDROOT
BRANCH   1   7
ATOM      7  N   UNL d   1       1.253  -1.636  -1.352  0.00  0.00    -0.732 N 
ATOM      8  C   UNL d   1       0.542  -2.653  -2.097  0.00  0.00     0.284 C 
ATOM      9  H3  UNL d   1       2.056  -1.248  -1.842  0.00  0.00     0.395 HD
ENDBRANCH   1   7
TORSDOF 1
ENDMDL
