MODEL 1
REMARK minimizedAffinity -2.42703247
REMARK minimizedRMSD -1
REMARK  1 active torsions:
REMARK  status: ('A' for Active; 'I' for Inactive)
REMARK    1  A    between atoms: N_2  and  C1_3 
ROOT
ATOM      1  C1  UNL d   1       0.488  -1.063  -1.130  0.00  0.00     0.143 A 
ATOM      2  C2  UNL d   1       0.951  -2.307  -0.687  0.00  0.00    -0.057 A 
ATOM      3  C3  UNL d   1       1.074  -3.391  -1.566  0.00  0.00     0.033 A 
ATOM      4  C4  UNL d   1       0.707  -3.257  -2.901  0.00  0.00    -0.042 A 
ATOM      5  C5  UNL d   1       0.220  -2.037  -3.357  0.00  0.00     0.033 A 
ATOM      6  C6  UNL d   1       0.106  -0.957  -2.477  0.00  0.00    -0.057 A 
ENDROOT
BRANCH   1   7
ATOM      7  N   UNL d   1       0.250   0.024  -0.285  0.00  0.00    -0.732 N 
ATOM      8  C   UNL d   1      -0.538  -0.137   0.918  0.00  0.00     0.284 C 
ATOM      9  H3  UNL d   1       1.072   0.612  -0.169  0.00  0.00     0.395 HD
ENDBRANCH   1   7
TORSDOF 1
ENDMDL
