MODEL 1
REMARK minimizedAffinity -1.65833902
REMARK minimizedRMSD -1
REMARK  1 active torsions:
REMARK  status: ('A' for Active; 'I' for Inactive)
REMARK    1  A    between atoms: N_2  and  C1_3 
ROOT
ATOM      1  C1  UNL d   1       0.586  -0.484  -0.884  0.00  0.00     0.143 A 
ATOM      2  C2  UNL d   1       1.188   0.492  -1.685  0.00  0.00    -0.057 A 
ATOM      3  C3  UNL d   1       0.792   1.833  -1.617  0.00  0.00     0.033 A 
ATOM      4  C4  UNL d   1      -0.237   2.218  -0.765  0.00  0.00    -0.042 A 
ATOM      5  C5  UNL d   1      -0.868   1.261   0.022  0.00  0.00     0.033 A 
ATOM      6  C6  UNL d   1      -0.463  -0.076  -0.045  0.00  0.00    -0.057 A 
ENDROOT
BRANCH   1   7
ATOM      7  N   UNL d   1       0.867  -1.849  -0.977  0.00  0.00    -0.732 N 
ATOM      8  C   UNL d   1       0.297  -2.649  -2.040  0.00  0.00     0.284 C 
ATOM      9  H3  UNL d   1       1.842  -2.059  -0.776  0.00  0.00     0.395 HD
ENDBRANCH   1   7
TORSDOF 1
ENDMDL
