MODEL 1
REMARK minimizedAffinity -2.03255892
REMARK minimizedRMSD -1
REMARK  1 active torsions:
REMARK  status: ('A' for Active; 'I' for Inactive)
REMARK    1  A    between atoms: N_2  and  C1_3 
ROOT
ATOM      1  C1  UNL d   1      -0.267   0.313   0.450  0.00  0.00     0.143 A 
ATOM      2  C2  UNL d   1       0.237   1.482  -0.131  0.00  0.00    -0.057 A 
ATOM      3  C3  UNL d   1       1.131   1.431  -1.207  0.00  0.00     0.033 A 
ATOM      4  C4  UNL d   1       1.561   0.205  -1.705  0.00  0.00    -0.042 A 
ATOM      5  C5  UNL d   1       1.092  -0.970  -1.127  0.00  0.00     0.033 A 
ATOM      6  C6  UNL d   1       0.195  -0.912  -0.057  0.00  0.00    -0.057 A 
ENDROOT
BRANCH   1   7
ATOM      7  N   UNL d   1      -1.081   0.297   1.585  0.00  0.00    -0.732 N 
ATOM      8  C   UNL d   1      -1.536   1.533   2.183  0.00  0.00     0.284 C 
ATOM      9  H3  UNL d   1      -1.792  -0.431   1.543  0.00  0.00     0.395 HD
ENDBRANCH   1   7
TORSDOF 1
ENDMDL
