MODEL 1
REMARK minimizedAffinity -4.83492374
REMARK minimizedRMSD -1
REMARK  1 active torsions:
REMARK  status: ('A' for Active; 'I' for Inactive)
REMARK    1  A    between atoms: N_2  and  C1_3 
ROOT
ATOM      1  C1  UNL d   1      -0.107  -0.027  -0.081  0.00  0.00     0.143 A 
ATOM      2  C2  UNL d   1      -0.698  -0.413   1.127  0.00  0.00    -0.057 A 
ATOM      3  C3  UNL d   1      -1.609   0.419   1.789  0.00  0.00     0.033 A 
ATOM      4  C4  UNL d   1      -1.924   1.670   1.267  0.00  0.00    -0.042 A 
ATOM      5  C5  UNL d   1      -1.330   2.085   0.080  0.00  0.00     0.033 A 
ATOM      6  C6  UNL d   1      -0.426   1.246  -0.579  0.00  0.00    -0.057 A 
ENDROOT
BRANCH   1   7
ATOM      7  N   UNL d   1       0.880  -0.767  -0.736  0.00  0.00    -0.732 N 
ATOM      8  C   UNL d   1       0.548  -2.003  -1.412  0.00  0.00     0.284 C 
ATOM      9  H3  UNL d   1       1.534  -0.177  -1.245  0.00  0.00     0.395 HD
ENDBRANCH   1   7
TORSDOF 1
ENDMDL
