MODEL 1
REMARK minimizedAffinity -3.43571734
REMARK minimizedRMSD -1
REMARK  1 active torsions:
REMARK  status: ('A' for Active; 'I' for Inactive)
REMARK    1  A    between atoms: N_2  and  C1_3 
ROOT
ATOM      1  C1  UNL d   1      -0.451   1.098   0.838  0.00  0.00     0.143 A 
ATOM      2  C2  UNL d   1      -0.128   1.875  -0.279  0.00  0.00    -0.057 A 
ATOM      3  C3  UNL d   1      -0.756   3.104  -0.514  0.00  0.00     0.033 A 
ATOM      4  C4  UNL d   1      -1.741   3.566   0.352  0.00  0.00    -0.042 A 
ATOM      5  C5  UNL d   1      -2.096   2.798   1.455  0.00  0.00     0.033 A 
ATOM      6  C6  UNL d   1      -1.461   1.575   1.688  0.00  0.00    -0.057 A 
ENDROOT
BRANCH   1   7
ATOM      7  N   UNL d   1       0.066  -0.179   1.074  0.00  0.00    -0.732 N 
ATOM      8  C   UNL d   1      -0.686  -1.359   0.704  0.00  0.00     0.284 C 
ATOM      9  H3  UNL d   1       1.061  -0.238   0.869  0.00  0.00     0.395 HD
ENDBRANCH   1   7
TORSDOF 1
ENDMDL
