MODEL 1
REMARK minimizedAffinity -2.57989144
REMARK minimizedRMSD -1
REMARK  1 active torsions:
REMARK  status: ('A' for Active; 'I' for Inactive)
REMARK    1  A    between atoms: N_2  and  C1_3 
ROOT
ATOM      1  C1  UNL d   1      -0.488  -0.564  -0.065  0.00  0.00     0.143 A 
ATOM      2  C2  UNL d   1       0.632   0.169  -0.473  0.00  0.00    -0.057 A 
ATOM      3  C3  UNL d   1       1.598  -0.392  -1.317  0.00  0.00     0.033 A 
ATOM      4  C4  UNL d   1       1.475  -1.709  -1.746  0.00  0.00    -0.042 A 
ATOM      5  C5  UNL d   1       0.383  -2.464  -1.334  0.00  0.00     0.033 A 
ATOM      6  C6  UNL d   1      -0.582  -1.896  -0.496  0.00  0.00    -0.057 A 
ENDROOT
BRANCH   1   7
ATOM      7  N   UNL d   1      -1.432  -0.095   0.852  0.00  0.00    -0.732 N 
ATOM      8  C   UNL d   1      -1.070   0.899   1.840  0.00  0.00     0.284 C 
ATOM      9  H3  UNL d   1      -2.345   0.053   0.428  0.00  0.00     0.395 HD
ENDBRANCH   1   7
TORSDOF 1
ENDMDL
