MODEL 1
REMARK minimizedAffinity -2.10355759
REMARK minimizedRMSD -1
REMARK  1 active torsions:
REMARK  status: ('A' for Active; 'I' for Inactive)
REMARK    1  A    between atoms: C1_2  and  C2_3 
ROOT
ATOM      1  C2  UNL d   1       0.370   0.426   0.985  0.00  0.00    -0.076 A 
ATOM      2  C3  UNL d   1      -0.557   0.394  -0.072  0.00  0.00     0.004 A 
ATOM      3  C4  UNL d   1      -0.262  -0.262  -1.266  0.00  0.00    -0.003 A 
ATOM      4  C5  UNL d   1       0.965  -0.898  -1.422  0.00  0.00     0.000 A 
ATOM      5  C6  UNL d   1       1.889  -0.892  -0.377  0.00  0.00     0.000 A 
ATOM      6  C7  UNL d   1       1.601  -0.249   0.838  0.00  0.00    -0.073 A 
ATOM      7  C8  UNL d   1       2.636  -0.268   1.929  0.00  0.00     0.078 C 
ENDROOT
BRANCH   1   8
ATOM      8  C1  UNL d   1       0.005   1.177   2.246  0.00  0.00     0.053 C 
ATOM      9  C   UNL d   1      -1.122   0.507   3.017  0.00  0.00     0.018 C 
ENDBRANCH   1   8
TORSDOF 1
ENDMDL
