MODEL 1
REMARK minimizedAffinity -3.25417209
REMARK minimizedRMSD -1
REMARK  1 active torsions:
REMARK  status: ('A' for Active; 'I' for Inactive)
REMARK    1  A    between atoms: C1_2  and  C2_3 
ROOT
ATOM      1  C2  UNL d   1      -0.124  -0.305  -0.250  0.00  0.00    -0.076 A 
ATOM      2  C3  UNL d   1      -1.508  -0.256  -0.491  0.00  0.00     0.004 A 
ATOM      3  C4  UNL d   1      -2.366   0.409   0.384  0.00  0.00    -0.003 A 
ATOM      4  C5  UNL d   1      -1.853   1.038   1.513  0.00  0.00     0.000 A 
ATOM      5  C6  UNL d   1      -0.480   1.014   1.759  0.00  0.00     0.000 A 
ATOM      6  C7  UNL d   1       0.400   0.361   0.878  0.00  0.00    -0.073 A 
ATOM      7  C8  UNL d   1       1.870   0.362   1.195  0.00  0.00     0.078 C 
ENDROOT
BRANCH   1   8
ATOM      8  C1  UNL d   1       0.753  -1.065  -1.219  0.00  0.00     0.053 C 
ATOM      9  C   UNL d   1       1.125  -0.239  -2.440  0.00  0.00     0.018 C 
ENDBRANCH   1   8
TORSDOF 1
ENDMDL
