MODEL 1
REMARK minimizedAffinity -1.99423301
REMARK minimizedRMSD -1
REMARK  1 active torsions:
REMARK  status: ('A' for Active; 'I' for Inactive)
REMARK    1  A    between atoms: C1_2  and  C2_3 
ROOT
ATOM      1  C2  UNL d   1      -1.047  -0.040   2.404  0.00  0.00    -0.076 A 
ATOM      2  C3  UNL d   1      -0.482   1.039   3.107  0.00  0.00     0.004 A 
ATOM      3  C4  UNL d   1       0.296   1.992   2.453  0.00  0.00    -0.003 A 
ATOM      4  C5  UNL d   1       0.523   1.883   1.085  0.00  0.00     0.000 A 
ATOM      5  C6  UNL d   1      -0.044   0.829   0.369  0.00  0.00     0.000 A 
ATOM      6  C7  UNL d   1      -0.845  -0.132   1.010  0.00  0.00    -0.073 A 
ATOM      7  C8  UNL d   1      -1.426  -1.251   0.189  0.00  0.00     0.078 C 
ENDROOT
BRANCH   1   8
ATOM      8  C1  UNL d   1      -1.860  -1.059   3.171  0.00  0.00     0.053 C 
ATOM      9  C   UNL d   1      -3.357  -0.854   3.003  0.00  0.00     0.018 C 
ENDBRANCH   1   8
TORSDOF 1
ENDMDL
