MODEL 1
REMARK minimizedAffinity 7.56782007
REMARK minimizedRMSD -1
REMARK  0 active torsions:
REMARK  status: ('A' for Active; 'I' for Inactive)
ROOT
ATOM      1  C   UNL d   1       1.040   1.062   3.210  0.00  0.00     0.077 C 
ATOM      2  C1  UNL d   1       2.105   0.975   2.159  0.00  0.00    -0.074 A 
ATOM      3  C2  UNL d   1       1.885   0.275   0.968  0.00  0.00    -0.005 A 
ATOM      4  C3  UNL d   1       2.882   0.211  -0.005  0.00  0.00     0.006 A 
ATOM      5  C4  UNL d   1       4.108   0.845   0.202  0.00  0.00    -0.005 A 
ATOM      6  C5  UNL d   1       4.346   1.550   1.386  0.00  0.00    -0.074 A 
ATOM      7  C6  UNL d   1       5.654   2.246   1.620  0.00  0.00     0.077 C 
ATOM      8  C7  UNL d   1       3.336   1.616   2.356  0.00  0.00    -0.001 A 
ENDROOT
TORSDOF 0
ENDMDL
