MODEL 1
REMARK minimizedAffinity 7.69269085
REMARK minimizedRMSD -1
REMARK  0 active torsions:
REMARK  status: ('A' for Active; 'I' for Inactive)
ROOT
ATOM      1  C   UNL d   1       4.734   4.983   5.356  0.00  0.00     0.077 C 
ATOM      2  C1  UNL d   1       3.982   3.934   4.592  0.00  0.00    -0.074 A 
ATOM      3  C2  UNL d   1       4.424   3.505   3.336  0.00  0.00    -0.005 A 
ATOM      4  C3  UNL d   1       3.719   2.522   2.641  0.00  0.00     0.006 A 
ATOM      5  C4  UNL d   1       2.568   1.959   3.194  0.00  0.00    -0.005 A 
ATOM      6  C5  UNL d   1       2.112   2.375   4.449  0.00  0.00    -0.074 A 
ATOM      7  C6  UNL d   1       0.883   1.773   5.062  0.00  0.00     0.077 C 
ATOM      8  C7  UNL d   1       2.830   3.358   5.144  0.00  0.00    -0.001 A 
ENDROOT
TORSDOF 0
ENDMDL
