MODEL 1
REMARK minimizedAffinity 3.21930957
REMARK minimizedRMSD -1
REMARK  0 active torsions:
REMARK  status: ('A' for Active; 'I' for Inactive)
ROOT
ATOM      1  C   UNL d   1      -5.998   4.996   5.994  0.00  0.00     0.077 C 
ATOM      2  C1  UNL d   1      -4.983   5.148   4.901  0.00  0.00    -0.074 A 
ATOM      3  C2  UNL d   1      -3.733   5.722   5.154  0.00  0.00    -0.005 A 
ATOM      4  C3  UNL d   1      -2.796   5.848   4.129  0.00  0.00     0.006 A 
ATOM      5  C4  UNL d   1      -3.099   5.402   2.842  0.00  0.00    -0.005 A 
ATOM      6  C5  UNL d   1      -4.343   4.825   2.569  0.00  0.00    -0.074 A 
ATOM      7  C6  UNL d   1      -4.680   4.332   1.194  0.00  0.00     0.077 C 
ATOM      8  C7  UNL d   1      -5.277   4.695   3.606  0.00  0.00    -0.001 A 
ENDROOT
TORSDOF 0
ENDMDL
