MODEL 1
REMARK minimizedAffinity 6.60029316
REMARK minimizedRMSD -1
REMARK  0 active torsions:
REMARK  status: ('A' for Active; 'I' for Inactive)
ROOT
ATOM      1  C   UNL d   1       5.997  -0.598   1.908  0.00  0.00     0.077 C 
ATOM      2  C1  UNL d   1       5.125   0.333   1.119  0.00  0.00    -0.074 A 
ATOM      3  C2  UNL d   1       5.610   1.566   0.671  0.00  0.00    -0.005 A 
ATOM      4  C3  UNL d   1       4.790   2.417  -0.070  0.00  0.00     0.006 A 
ATOM      5  C4  UNL d   1       3.480   2.044  -0.371  0.00  0.00    -0.005 A 
ATOM      6  C5  UNL d   1       2.978   0.814   0.067  0.00  0.00    -0.074 A 
ATOM      7  C6  UNL d   1       1.575   0.394  -0.256  0.00  0.00     0.077 C 
ATOM      8  C7  UNL d   1       3.810  -0.038   0.805  0.00  0.00    -0.001 A 
ENDROOT
TORSDOF 0
ENDMDL
