MODEL 1
REMARK minimizedAffinity 1.78281665
REMARK minimizedRMSD -1
REMARK  0 active torsions:
REMARK  status: ('A' for Active; 'I' for Inactive)
ROOT
ATOM      1  C   UNL d   1       1.480   0.531   0.121  0.00  0.00     0.077 C 
ATOM      2  C1  UNL d   1       2.759   1.308   0.021  0.00  0.00    -0.074 A 
ATOM      3  C2  UNL d   1       3.450   1.401  -1.191  0.00  0.00    -0.005 A 
ATOM      4  C3  UNL d   1       4.633   2.135  -1.271  0.00  0.00     0.006 A 
ATOM      5  C4  UNL d   1       5.137   2.782  -0.142  0.00  0.00    -0.005 A 
ATOM      6  C5  UNL d   1       4.459   2.701   1.078  0.00  0.00    -0.074 A 
ATOM      7  C6  UNL d   1       4.981   3.399   2.299  0.00  0.00     0.077 C 
ATOM      8  C7  UNL d   1       3.267   1.967   1.149  0.00  0.00    -0.001 A 
ENDROOT
TORSDOF 0
ENDMDL
