MODEL 1
REMARK minimizedAffinity 0.488760173
REMARK minimizedRMSD -1
REMARK  0 active torsions:
REMARK  status: ('A' for Active; 'I' for Inactive)
ROOT
ATOM      1  C   UNL d   1      -1.898  -5.999   2.513  0.00  0.00     0.077 C 
ATOM      2  C1  UNL d   1      -1.259  -5.326   3.692  0.00  0.00    -0.074 A 
ATOM      3  C2  UNL d   1      -1.130  -5.990   4.916  0.00  0.00    -0.005 A 
ATOM      4  C3  UNL d   1      -0.525  -5.355   6.000  0.00  0.00     0.006 A 
ATOM      5  C4  UNL d   1      -0.044  -4.051   5.872  0.00  0.00    -0.005 A 
ATOM      6  C5  UNL d   1      -0.164  -3.372   4.655  0.00  0.00    -0.074 A 
ATOM      7  C6  UNL d   1       0.356  -1.974   4.497  0.00  0.00     0.077 C 
ATOM      8  C7  UNL d   1      -0.767  -4.019   3.568  0.00  0.00    -0.001 A 
ENDROOT
TORSDOF 0
ENDMDL
