MODEL 1
REMARK minimizedAffinity 11.9620552
REMARK minimizedRMSD -1
REMARK  0 active torsions:
REMARK  status: ('A' for Active; 'I' for Inactive)
ROOT
ATOM      1  C   UNL d   1       2.216   0.741  -0.011  0.00  0.00     0.077 C 
ATOM      2  C1  UNL d   1       3.486   1.484  -0.302  0.00  0.00    -0.074 A 
ATOM      3  C2  UNL d   1       4.030   1.500  -1.591  0.00  0.00    -0.005 A 
ATOM      4  C3  UNL d   1       5.206   2.203  -1.849  0.00  0.00     0.006 A 
ATOM      5  C4  UNL d   1       5.849   2.898  -0.823  0.00  0.00    -0.005 A 
ATOM      6  C5  UNL d   1       5.319   2.895   0.471  0.00  0.00    -0.074 A 
ATOM      7  C6  UNL d   1       5.992   3.644   1.583  0.00  0.00     0.077 C 
ATOM      8  C7  UNL d   1       4.133   2.191   0.721  0.00  0.00    -0.001 A 
ENDROOT
TORSDOF 0
ENDMDL
