MODEL 1
REMARK minimizedAffinity 8.26196289
REMARK minimizedRMSD -1
REMARK  0 active torsions:
REMARK  status: ('A' for Active; 'I' for Inactive)
ROOT
ATOM      1  C   UNL d   1       3.729   1.124  -2.624  0.00  0.00     0.077 C 
ATOM      2  C1  UNL d   1       3.402   1.069  -1.162  0.00  0.00    -0.074 A 
ATOM      3  C2  UNL d   1       2.358   0.268  -0.689  0.00  0.00    -0.005 A 
ATOM      4  C3  UNL d   1       2.071   0.219   0.675  0.00  0.00     0.006 A 
ATOM      5  C4  UNL d   1       2.824   0.971   1.579  0.00  0.00    -0.005 A 
ATOM      6  C5  UNL d   1       3.872   1.777   1.124  0.00  0.00    -0.074 A 
ATOM      7  C6  UNL d   1       4.697   2.583   2.083  0.00  0.00     0.077 C 
ATOM      8  C7  UNL d   1       4.159   1.815  -0.247  0.00  0.00    -0.001 A 
ENDROOT
TORSDOF 0
ENDMDL
