MODEL 1
REMARK minimizedAffinity -4.72320175
REMARK minimizedRMSD -1
REMARK  2 active torsions:
REMARK  status: ('A' for Active; 'I' for Inactive)
REMARK    1  A    between atoms: C1_2  and  C2_3 
REMARK    2  A    between atoms: C2_3  and  C3_4 
ROOT
ATOM      1  C3  UNL d   1      -0.357   0.169  -0.242  0.00  0.00    -0.075 A 
ATOM      2  C4  UNL d   1      -0.264  -1.228  -0.157  0.00  0.00     0.002 A 
ATOM      3  C5  UNL d   1       0.861  -1.894  -0.645  0.00  0.00     0.002 A 
ATOM      4  C6  UNL d   1       1.899  -1.175  -1.232  0.00  0.00    -0.004 A 
ATOM      5  C7  UNL d   1       1.810   0.211  -1.337  0.00  0.00     0.002 A 
ATOM      6  C8  UNL d   1       0.688   0.880  -0.846  0.00  0.00     0.002 A 
ENDROOT
BRANCH   1   7
ATOM      7  C2  UNL d   1      -1.559   0.898   0.310  0.00  0.00     0.056 C 
BRANCH   7   8
ATOM      8  C1  UNL d   1      -1.833   0.615   1.791  0.00  0.00     0.007 C 
ATOM      9  C   UNL d   1      -1.881   1.876   2.644  0.00  0.00     0.009 C 
ENDBRANCH   7   8
ENDBRANCH   1   7
TORSDOF 2
ENDMDL
