MODEL 1
REMARK minimizedAffinity -5.78800821
REMARK minimizedRMSD -1
REMARK  2 active torsions:
REMARK  status: ('A' for Active; 'I' for Inactive)
REMARK    1  A    between atoms: C1_2  and  C2_3 
REMARK    2  A    between atoms: C2_3  and  C3_4 
ROOT
ATOM      1  C3  UNL d   1       0.442   0.097   0.251  0.00  0.00    -0.075 A 
ATOM      2  C4  UNL d   1       1.617   0.861   0.258  0.00  0.00     0.002 A 
ATOM      3  C5  UNL d   1       2.717   0.477  -0.510  0.00  0.00     0.002 A 
ATOM      4  C6  UNL d   1       2.659  -0.680  -1.285  0.00  0.00    -0.004 A 
ATOM      5  C7  UNL d   1       1.502  -1.456  -1.286  0.00  0.00     0.002 A 
ATOM      6  C8  UNL d   1       0.399  -1.071  -0.522  0.00  0.00     0.002 A 
ENDROOT
BRANCH   1   7
ATOM      7  C2  UNL d   1      -0.762   0.523   1.057  0.00  0.00     0.056 C 
BRANCH   7   8
ATOM      8  C1  UNL d   1      -0.414   1.220   2.377  0.00  0.00     0.007 C 
ATOM      9  C   UNL d   1      -1.528   1.137   3.412  0.00  0.00     0.009 C 
ENDBRANCH   7   8
ENDBRANCH   1   7
TORSDOF 2
ENDMDL
