MODEL 1
REMARK minimizedAffinity -4.75105858
REMARK minimizedRMSD -1
REMARK  2 active torsions:
REMARK  status: ('A' for Active; 'I' for Inactive)
REMARK    1  A    between atoms: C1_2  and  C2_3 
REMARK    2  A    between atoms: C2_3  and  C3_4 
ROOT
ATOM      1  C3  UNL d   1      -0.074   0.258  -0.160  0.00  0.00    -0.075 A 
ATOM      2  C4  UNL d   1       1.035   0.980  -0.623  0.00  0.00     0.002 A 
ATOM      3  C5  UNL d   1       2.166   0.315  -1.099  0.00  0.00     0.002 A 
ATOM      4  C6  UNL d   1       2.206  -1.078  -1.108  0.00  0.00    -0.004 A 
ATOM      5  C7  UNL d   1       1.116  -1.805  -0.635  0.00  0.00     0.002 A 
ATOM      6  C8  UNL d   1      -0.018  -1.143  -0.163  0.00  0.00     0.002 A 
ENDROOT
BRANCH   1   7
ATOM      7  C2  UNL d   1      -1.312   0.971   0.329  0.00  0.00     0.056 C 
BRANCH   7   8
ATOM      8  C1  UNL d   1      -2.020   0.267   1.490  0.00  0.00     0.007 C 
ATOM      9  C   UNL d   1      -1.956   1.049   2.796  0.00  0.00     0.009 C 
ENDBRANCH   7   8
ENDBRANCH   1   7
TORSDOF 2
ENDMDL
