MODEL 1
REMARK minimizedAffinity -5.2343092
REMARK minimizedRMSD -1
REMARK  2 active torsions:
REMARK  status: ('A' for Active; 'I' for Inactive)
REMARK    1  A    between atoms: C1_2  and  C2_3 
REMARK    2  A    between atoms: C2_3  and  C3_4 
ROOT
ATOM      1  C3  UNL d   1      -0.640   0.220   0.089  0.00  0.00    -0.075 A 
ATOM      2  C4  UNL d   1      -0.445  -1.168   0.024  0.00  0.00     0.002 A 
ATOM      3  C5  UNL d   1       0.714  -1.694  -0.549  0.00  0.00     0.002 A 
ATOM      4  C6  UNL d   1       1.684  -0.842  -1.071  0.00  0.00    -0.004 A 
ATOM      5  C7  UNL d   1       1.493   0.537  -1.027  0.00  0.00     0.002 A 
ATOM      6  C8  UNL d   1       0.337   1.066  -0.451  0.00  0.00     0.002 A 
ENDROOT
BRANCH   1   7
ATOM      7  C2  UNL d   1      -1.878   0.796   0.734  0.00  0.00     0.056 C 
BRANCH   7   8
ATOM      8  C1  UNL d   1      -1.908   0.657   2.260  0.00  0.00     0.007 C 
ATOM      9  C   UNL d   1      -1.466   1.920   2.987  0.00  0.00     0.009 C 
ENDBRANCH   7   8
ENDBRANCH   1   7
TORSDOF 2
ENDMDL
