MODEL 1
REMARK minimizedAffinity -5.20367908
REMARK minimizedRMSD -1
REMARK  2 active torsions:
REMARK  status: ('A' for Active; 'I' for Inactive)
REMARK    1  A    between atoms: C1_2  and  C2_3 
REMARK    2  A    between atoms: C2_3  and  C3_4 
ROOT
ATOM      1  C3  UNL d   1      -0.024   0.301  -0.128  0.00  0.00    -0.075 A 
ATOM      2  C4  UNL d   1       0.167  -1.082  -0.260  0.00  0.00     0.002 A 
ATOM      3  C5  UNL d   1       1.364  -1.586  -0.772  0.00  0.00     0.002 A 
ATOM      4  C6  UNL d   1       2.377  -0.715  -1.167  0.00  0.00    -0.004 A 
ATOM      5  C7  UNL d   1       2.190   0.661  -1.057  0.00  0.00     0.002 A 
ATOM      6  C8  UNL d   1       0.996   1.168  -0.541  0.00  0.00     0.002 A 
ENDROOT
BRANCH   1   7
ATOM      7  C2  UNL d   1      -1.305   0.852   0.453  0.00  0.00     0.056 C 
BRANCH   7   8
ATOM      8  C1  UNL d   1      -1.102   1.715   1.703  0.00  0.00     0.007 C 
ATOM      9  C   UNL d   1      -2.061   1.367   2.834  0.00  0.00     0.009 C 
ENDBRANCH   7   8
ENDBRANCH   1   7
TORSDOF 2
ENDMDL
