MODEL 1
REMARK minimizedAffinity -2.98346162
REMARK minimizedRMSD -1
REMARK  2 active torsions:
REMARK  status: ('A' for Active; 'I' for Inactive)
REMARK    1  A    between atoms: C1_2  and  C2_3 
REMARK    2  A    between atoms: C2_3  and  C3_4 
ROOT
ATOM      1  C3  UNL d   1      -0.659   0.114   0.200  0.00  0.00    -0.075 A 
ATOM      2  C4  UNL d   1      -0.061  -1.133  -0.029  0.00  0.00     0.002 A 
ATOM      3  C5  UNL d   1       1.092  -1.234  -0.807  0.00  0.00     0.002 A 
ATOM      4  C6  UNL d   1       1.655  -0.093  -1.374  0.00  0.00    -0.004 A 
ATOM      5  C7  UNL d   1       1.060   1.150  -1.166  0.00  0.00     0.002 A 
ATOM      6  C8  UNL d   1      -0.091   1.254  -0.384  0.00  0.00     0.002 A 
ENDROOT
BRANCH   1   7
ATOM      7  C2  UNL d   1      -1.891   0.234   1.066  0.00  0.00     0.056 C 
BRANCH   7   8
ATOM      8  C1  UNL d   1      -1.629   0.861   2.439  0.00  0.00     0.007 C 
ATOM      9  C   UNL d   1      -2.765   0.636   3.428  0.00  0.00     0.009 C 
ENDBRANCH   7   8
ENDBRANCH   1   7
TORSDOF 2
ENDMDL
