MODEL 1
REMARK minimizedAffinity -4.97920895
REMARK minimizedRMSD -1
REMARK  2 active torsions:
REMARK  status: ('A' for Active; 'I' for Inactive)
REMARK    1  A    between atoms: C1_2  and  C2_3 
REMARK    2  A    between atoms: C2_3  and  C3_4 
ROOT
ATOM      1  C3  UNL d   1       1.176   0.421  -0.469  0.00  0.00    -0.075 A 
ATOM      2  C4  UNL d   1       0.204  -0.204   0.326  0.00  0.00     0.002 A 
ATOM      3  C5  UNL d   1      -1.132   0.191   0.253  0.00  0.00     0.002 A 
ATOM      4  C6  UNL d   1      -1.511   1.220  -0.607  0.00  0.00    -0.004 A 
ATOM      5  C7  UNL d   1      -0.552   1.858  -1.390  0.00  0.00     0.002 A 
ATOM      6  C8  UNL d   1       0.785   1.462  -1.322  0.00  0.00     0.002 A 
ENDROOT
BRANCH   1   7
ATOM      7  C2  UNL d   1       2.619  -0.022  -0.416  0.00  0.00     0.056 C 
BRANCH   7   8
ATOM      8  C1  UNL d   1       3.073  -0.816  -1.646  0.00  0.00     0.007 C 
ATOM      9  C   UNL d   1       1.982  -1.708  -2.221  0.00  0.00     0.009 C 
ENDBRANCH   7   8
ENDBRANCH   1   7
TORSDOF 2
ENDMDL
