MODEL 1
REMARK minimizedAffinity -5.20060587
REMARK minimizedRMSD -1
REMARK  2 active torsions:
REMARK  status: ('A' for Active; 'I' for Inactive)
REMARK    1  A    between atoms: C1_2  and  C2_3 
REMARK    2  A    between atoms: C2_3  and  C3_4 
ROOT
ATOM      1  C3  UNL d   1       0.509  -0.420  -0.093  0.00  0.00    -0.075 A 
ATOM      2  C4  UNL d   1       1.423   0.457   0.510  0.00  0.00     0.002 A 
ATOM      3  C5  UNL d   1       2.724   0.571   0.020  0.00  0.00     0.002 A 
ATOM      4  C6  UNL d   1       3.131  -0.195  -1.070  0.00  0.00    -0.004 A 
ATOM      5  C7  UNL d   1       2.237  -1.082  -1.666  0.00  0.00     0.002 A 
ATOM      6  C8  UNL d   1       0.933  -1.195  -1.181  0.00  0.00     0.002 A 
ENDROOT
BRANCH   1   7
ATOM      7  C2  UNL d   1      -0.909  -0.527   0.414  0.00  0.00     0.056 C 
BRANCH   7   8
ATOM      8  C1  UNL d   1      -1.436   0.754   1.069  0.00  0.00     0.007 C 
ATOM      9  C   UNL d   1      -2.513   0.496   2.114  0.00  0.00     0.009 C 
ENDBRANCH   7   8
ENDBRANCH   1   7
TORSDOF 2
ENDMDL
