MODEL 1
REMARK minimizedAffinity -2.24441695
REMARK minimizedRMSD -1
REMARK  2 active torsions:
REMARK  status: ('A' for Active; 'I' for Inactive)
REMARK    1  A    between atoms: C1_2  and  C2_3 
REMARK    2  A    between atoms: C2_3  and  C3_4 
ROOT
ATOM      1  C3  UNL d   1       1.092   0.229  -0.568  0.00  0.00    -0.075 A 
ATOM      2  C4  UNL d   1       0.076  -0.638  -0.140  0.00  0.00     0.002 A 
ATOM      3  C5  UNL d   1      -1.262  -0.349  -0.409  0.00  0.00     0.002 A 
ATOM      4  C6  UNL d   1      -1.601   0.813  -1.099  0.00  0.00    -0.004 A 
ATOM      5  C7  UNL d   1      -0.601   1.689  -1.515  0.00  0.00     0.002 A 
ATOM      6  C8  UNL d   1       0.739   1.400  -1.251  0.00  0.00     0.002 A 
ENDROOT
BRANCH   1   7
ATOM      7  C2  UNL d   1       2.544  -0.093  -0.306  0.00  0.00     0.056 C 
BRANCH   7   8
ATOM      8  C1  UNL d   1       3.220  -0.885  -1.430  0.00  0.00     0.007 C 
ATOM      9  C   UNL d   1       2.243  -1.714  -2.253  0.00  0.00     0.009 C 
ENDBRANCH   7   8
ENDBRANCH   1   7
TORSDOF 2
ENDMDL
