MODEL 1
REMARK minimizedAffinity -4.15328074
REMARK minimizedRMSD -1
REMARK  2 active torsions:
REMARK  status: ('A' for Active; 'I' for Inactive)
REMARK    1  A    between atoms: C1_2  and  C2_3 
REMARK    2  A    between atoms: C2_3  and  C3_4 
ROOT
ATOM      1  C3  UNL d   1      -0.072   0.056   0.268  0.00  0.00    -0.075 A 
ATOM      2  C4  UNL d   1       0.160  -1.318   0.103  0.00  0.00     0.002 A 
ATOM      3  C5  UNL d   1       1.299  -1.769  -0.563  0.00  0.00     0.002 A 
ATOM      4  C6  UNL d   1       2.215  -0.855  -1.081  0.00  0.00    -0.004 A 
ATOM      5  C7  UNL d   1       1.987   0.512  -0.936  0.00  0.00     0.002 A 
ATOM      6  C8  UNL d   1       0.850   0.966  -0.267  0.00  0.00     0.002 A 
ENDROOT
BRANCH   1   7
ATOM      7  C2  UNL d   1      -1.288   0.550   1.014  0.00  0.00     0.056 C 
BRANCH   7   8
ATOM      8  C1  UNL d   1      -0.964   1.464   2.200  0.00  0.00     0.007 C 
ATOM      9  C   UNL d   1      -1.734   1.103   3.464  0.00  0.00     0.009 C 
ENDBRANCH   7   8
ENDBRANCH   1   7
TORSDOF 2
ENDMDL
