MODEL 1
REMARK minimizedAffinity -4.53187561
REMARK minimizedRMSD -1
REMARK  2 active torsions:
REMARK  status: ('A' for Active; 'I' for Inactive)
REMARK    1  A    between atoms: C1_2  and  C2_3 
REMARK    2  A    between atoms: C2_3  and  C3_4 
ROOT
ATOM      1  C3  UNL d   1      -0.309   0.071   0.042  0.00  0.00    -0.075 A 
ATOM      2  C4  UNL d   1       0.003  -1.194   0.561  0.00  0.00     0.002 A 
ATOM      3  C5  UNL d   1       1.093  -1.912   0.068  0.00  0.00     0.002 A 
ATOM      4  C6  UNL d   1       1.876  -1.381  -0.955  0.00  0.00    -0.004 A 
ATOM      5  C7  UNL d   1       1.565  -0.133  -1.489  0.00  0.00     0.002 A 
ATOM      6  C8  UNL d   1       0.478   0.590  -0.995  0.00  0.00     0.002 A 
ENDROOT
BRANCH   1   7
ATOM      7  C2  UNL d   1      -1.470   0.866   0.591  0.00  0.00     0.056 C 
BRANCH   7   8
ATOM      8  C1  UNL d   1      -1.969   0.379   1.955  0.00  0.00     0.007 C 
ATOM      9  C   UNL d   1      -1.620   1.327   3.095  0.00  0.00     0.009 C 
ENDBRANCH   7   8
ENDBRANCH   1   7
TORSDOF 2
ENDMDL
