MODEL 1
REMARK minimizedAffinity -4.54638577
REMARK minimizedRMSD -1
REMARK  2 active torsions:
REMARK  status: ('A' for Active; 'I' for Inactive)
REMARK    1  A    between atoms: C1_2  and  C2_3 
REMARK    2  A    between atoms: C2_3  and  C3_4 
ROOT
ATOM      1  C3  UNL d   1      -0.425   0.214   0.409  0.00  0.00    -0.075 A 
ATOM      2  C4  UNL d   1      -1.777  -0.150   0.480  0.00  0.00     0.002 A 
ATOM      3  C5  UNL d   1      -2.542   0.177   1.600  0.00  0.00     0.002 A 
ATOM      4  C6  UNL d   1      -1.963   0.863   2.666  0.00  0.00    -0.004 A 
ATOM      5  C7  UNL d   1      -0.616   1.216   2.613  0.00  0.00     0.002 A 
ATOM      6  C8  UNL d   1       0.150   0.893   1.492  0.00  0.00     0.002 A 
ENDROOT
BRANCH   1   7
ATOM      7  C2  UNL d   1       0.400  -0.111  -0.813  0.00  0.00     0.056 C 
BRANCH   7   8
ATOM      8  C1  UNL d   1       1.748   0.616  -0.867  0.00  0.00     0.007 C 
ATOM      9  C   UNL d   1       2.858  -0.224  -1.484  0.00  0.00     0.009 C 
ENDBRANCH   7   8
ENDBRANCH   1   7
TORSDOF 2
ENDMDL
