MODEL 1
REMARK minimizedAffinity -5.79790258
REMARK minimizedRMSD -1
REMARK  2 active torsions:
REMARK  status: ('A' for Active; 'I' for Inactive)
REMARK    1  A    between atoms: C1_2  and  C2_3 
REMARK    2  A    between atoms: C2_3  and  C3_4 
ROOT
ATOM      1  C3  UNL d   1      -0.083   0.024  -0.024  0.00  0.00    -0.075 A 
ATOM      2  C4  UNL d   1       0.396  -1.294   0.018  0.00  0.00     0.002 A 
ATOM      3  C5  UNL d   1       1.581  -1.637  -0.633  0.00  0.00     0.002 A 
ATOM      4  C6  UNL d   1       2.295  -0.673  -1.342  0.00  0.00    -0.004 A 
ATOM      5  C7  UNL d   1       1.819   0.635  -1.405  0.00  0.00     0.002 A 
ATOM      6  C8  UNL d   1       0.636   0.982  -0.750  0.00  0.00     0.002 A 
ENDROOT
BRANCH   1   7
ATOM      7  C2  UNL d   1      -1.349   0.408   0.703  0.00  0.00     0.056 C 
BRANCH   7   8
ATOM      8  C1  UNL d   1      -1.129   0.825   2.161  0.00  0.00     0.007 C 
ATOM      9  C   UNL d   1      -2.428   1.055   2.923  0.00  0.00     0.009 C 
ENDBRANCH   7   8
ENDBRANCH   1   7
TORSDOF 2
ENDMDL
