MODEL 1
REMARK minimizedAffinity -3.02576303
REMARK minimizedRMSD -1
REMARK  0 active torsions:
REMARK  status: ('A' for Active; 'I' for Inactive)
ROOT
ATOM      1  C2' OXE d   1       5.163   4.885  -5.994  0.00  0.00     0.078 C 
ATOM      2  C1' OXE d   1       4.030   2.574  -4.874  0.00  0.00     0.078 C 
ATOM      3  C1  OXE d   1       3.115   3.738  -5.161  0.00  0.00    -0.078 A 
ATOM      4  C2  OXE d   1       3.686   4.881  -5.666  0.00  0.00    -0.078 A 
ATOM      5  C3  OXE d   1       2.879   5.965  -6.000  0.00  0.00     0.003 A 
ATOM      6  C4  OXE d   1       1.515   5.957  -5.684  0.00  0.00    -0.002 A 
ATOM      7  C5  OXE d   1       0.920   4.817  -5.133  0.00  0.00    -0.002 A 
ATOM      8  C6  OXE d   1       1.697   3.686  -4.905  0.00  0.00     0.003 A 
ENDROOT
TORSDOF 0
ENDMDL
