MODEL 1
REMARK minimizedAffinity -2.05097508
REMARK minimizedRMSD -1
REMARK  0 active torsions:
REMARK  status: ('A' for Active; 'I' for Inactive)
ROOT
ATOM      1  C2' OXE d   1       3.748   1.443  -5.233  0.00  0.00     0.078 C 
ATOM      2  C1' OXE d   1       5.797   3.203  -6.000  0.00  0.00     0.078 C 
ATOM      3  C1  OXE d   1       4.413   3.773  -5.815  0.00  0.00    -0.078 A 
ATOM      4  C2  OXE d   1       3.407   2.896  -5.486  0.00  0.00    -0.078 A 
ATOM      5  C3  OXE d   1       2.123   3.378  -5.250  0.00  0.00     0.003 A 
ATOM      6  C4  OXE d   1       1.813   4.721  -5.495  0.00  0.00    -0.002 A 
ATOM      7  C5  OXE d   1       2.815   5.623  -5.870  0.00  0.00    -0.002 A 
ATOM      8  C6  OXE d   1       4.125   5.174  -5.993  0.00  0.00     0.003 A 
ENDROOT
TORSDOF 0
ENDMDL
