MODEL 1
REMARK minimizedAffinity -2.00188851
REMARK minimizedRMSD -1
REMARK  0 active torsions:
REMARK  status: ('A' for Active; 'I' for Inactive)
ROOT
ATOM      1  C2' OXE d   1       1.673   3.885  -5.523  0.00  0.00     0.078 C 
ATOM      2  C1' OXE d   1       3.063   1.518  -4.934  0.00  0.00     0.078 C 
ATOM      3  C1  OXE d   1       3.873   2.740  -5.287  0.00  0.00    -0.078 A 
ATOM      4  C2  OXE d   1       3.184   3.881  -5.619  0.00  0.00    -0.078 A 
ATOM      5  C3  OXE d   1       3.883   5.052  -5.899  0.00  0.00     0.003 A 
ATOM      6  C4  OXE d   1       5.279   5.038  -5.996  0.00  0.00    -0.002 A 
ATOM      7  C5  OXE d   1       6.000   3.875  -5.700  0.00  0.00    -0.002 A 
ATOM      8  C6  OXE d   1       5.315   2.732  -5.303  0.00  0.00     0.003 A 
ENDROOT
TORSDOF 0
ENDMDL
