MODEL 1
REMARK minimizedAffinity -2.86308765
REMARK minimizedRMSD -1
REMARK  0 active torsions:
REMARK  status: ('A' for Active; 'I' for Inactive)
ROOT
ATOM      1  C2' OXE d   1       5.434   4.430  -5.994  0.00  0.00     0.078 C 
ATOM      2  C1' OXE d   1       3.826   2.130  -5.927  0.00  0.00     0.078 C 
ATOM      3  C1  OXE d   1       3.135   3.470  -5.943  0.00  0.00    -0.078 A 
ATOM      4  C2  OXE d   1       3.930   4.591  -5.929  0.00  0.00    -0.078 A 
ATOM      5  C3  OXE d   1       3.345   5.852  -5.998  0.00  0.00     0.003 A 
ATOM      6  C4  OXE d   1       1.954   5.993  -5.927  0.00  0.00    -0.002 A 
ATOM      7  C5  OXE d   1       1.127   4.865  -5.901  0.00  0.00    -0.002 A 
ATOM      8  C6  OXE d   1       1.699   3.599  -5.952  0.00  0.00     0.003 A 
ENDROOT
TORSDOF 0
ENDMDL
