MODEL 1
REMARK minimizedAffinity -2.31152153
REMARK minimizedRMSD -1
REMARK  0 active torsions:
REMARK  status: ('A' for Active; 'I' for Inactive)
ROOT
ATOM      1  C2' OXE d   1       5.425  -0.602   2.368  0.00  0.00     0.078 C 
ATOM      2  C1' OXE d   1       2.798  -0.029   1.562  0.00  0.00     0.078 C 
ATOM      3  C1  OXE d   1       3.755   1.127   1.715  0.00  0.00    -0.078 A 
ATOM      4  C2  OXE d   1       5.025   0.842   2.155  0.00  0.00    -0.078 A 
ATOM      5  C3  OXE d   1       5.964   1.864   2.260  0.00  0.00     0.003 A 
ATOM      6  C4  OXE d   1       5.584   3.198   2.070  0.00  0.00    -0.002 A 
ATOM      7  C5  OXE d   1       4.284   3.514   1.660  0.00  0.00    -0.002 A 
ATOM      8  C6  OXE d   1       3.371   2.489   1.437  0.00  0.00     0.003 A 
ENDROOT
TORSDOF 0
ENDMDL
