MODEL 1
REMARK minimizedAffinity 3.14897847
REMARK minimizedRMSD -1
REMARK  0 active torsions:
REMARK  status: ('A' for Active; 'I' for Inactive)
ROOT
ATOM      1  C2' OXE d   1       5.447   5.516  -5.999  0.00  0.00     0.078 C 
ATOM      2  C1' OXE d   1       5.999   2.763  -5.999  0.00  0.00     0.078 C 
ATOM      3  C1  OXE d   1       4.557   3.191  -5.888  0.00  0.00    -0.078 A 
ATOM      4  C2  OXE d   1       4.300   4.540  -5.841  0.00  0.00    -0.078 A 
ATOM      5  C3  OXE d   1       2.984   4.990  -5.794  0.00  0.00     0.003 A 
ATOM      6  C4  OXE d   1       1.930   4.081  -5.639  0.00  0.00    -0.002 A 
ATOM      7  C5  OXE d   1       2.173   2.704  -5.644  0.00  0.00    -0.002 A 
ATOM      8  C6  OXE d   1       3.474   2.243  -5.810  0.00  0.00     0.003 A 
ENDROOT
TORSDOF 0
ENDMDL
