MODEL 1
REMARK minimizedAffinity -1.3908217
REMARK minimizedRMSD -1
REMARK  0 active torsions:
REMARK  status: ('A' for Active; 'I' for Inactive)
ROOT
ATOM      1  C2' OXE d   1       4.017   2.085  -5.150  0.00  0.00     0.078 C 
ATOM      2  C1' OXE d   1       5.684   4.180  -5.992  0.00  0.00     0.078 C 
ATOM      3  C1  OXE d   1       4.219   4.482  -5.796  0.00  0.00    -0.078 A 
ATOM      4  C2  OXE d   1       3.403   3.439  -5.429  0.00  0.00    -0.078 A 
ATOM      5  C3  OXE d   1       2.054   3.675  -5.181  0.00  0.00     0.003 A 
ATOM      6  C4  OXE d   1       1.491   4.928  -5.451  0.00  0.00    -0.002 A 
ATOM      7  C5  OXE d   1       2.298   5.994  -5.864  0.00  0.00    -0.002 A 
ATOM      8  C6  OXE d   1       3.668   5.799  -6.000  0.00  0.00     0.003 A 
ENDROOT
TORSDOF 0
ENDMDL
