MODEL 1
REMARK minimizedAffinity 1.28410316
REMARK minimizedRMSD -1
REMARK  0 active torsions:
REMARK  status: ('A' for Active; 'I' for Inactive)
ROOT
ATOM      1  C2' OXE d   1       3.125   1.658  -5.250  0.00  0.00     0.078 C 
ATOM      2  C1' OXE d   1       1.760   4.111  -5.235  0.00  0.00     0.078 C 
ATOM      3  C1  OXE d   1       3.241   4.132  -5.521  0.00  0.00    -0.078 A 
ATOM      4  C2  OXE d   1       3.909   2.932  -5.481  0.00  0.00    -0.078 A 
ATOM      5  C3  OXE d   1       5.265   2.888  -5.792  0.00  0.00     0.003 A 
ATOM      6  C4  OXE d   1       5.985   4.072  -5.994  0.00  0.00    -0.002 A 
ATOM      7  C5  OXE d   1       5.331   5.308  -6.000  0.00  0.00    -0.002 A 
ATOM      8  C6  OXE d   1       3.954   5.352  -5.808  0.00  0.00     0.003 A 
ENDROOT
TORSDOF 0
ENDMDL
