MODEL 1
REMARK minimizedAffinity -0.659869075
REMARK minimizedRMSD -1
REMARK  0 active torsions:
REMARK  status: ('A' for Active; 'I' for Inactive)
ROOT
ATOM      1  C2' OXE d   1       4.410   1.868  -5.950  0.00  0.00     0.078 C 
ATOM      2  C1' OXE d   1       5.597   4.412  -6.000  0.00  0.00     0.078 C 
ATOM      3  C1  OXE d   1       4.090   4.339  -5.977  0.00  0.00    -0.078 A 
ATOM      4  C2  OXE d   1       3.518   3.090  -6.000  0.00  0.00    -0.078 A 
ATOM      5  C3  OXE d   1       2.133   2.964  -5.925  0.00  0.00     0.003 A 
ATOM      6  C4  OXE d   1       1.315   4.099  -5.982  0.00  0.00    -0.002 A 
ATOM      7  C5  OXE d   1       1.877   5.380  -5.999  0.00  0.00    -0.002 A 
ATOM      8  C6  OXE d   1       3.260   5.518  -5.954  0.00  0.00     0.003 A 
ENDROOT
TORSDOF 0
ENDMDL
