MODEL 1
REMARK minimizedAffinity -2.84185624
REMARK minimizedRMSD -1
REMARK  0 active torsions:
REMARK  status: ('A' for Active; 'I' for Inactive)
ROOT
ATOM      1  C2' OXE d   1       4.007   2.081  -5.223  0.00  0.00     0.078 C 
ATOM      2  C1' OXE d   1       5.679   4.199  -5.997  0.00  0.00     0.078 C 
ATOM      3  C1  OXE d   1       4.210   4.492  -5.816  0.00  0.00    -0.078 A 
ATOM      4  C2  OXE d   1       3.392   3.440  -5.482  0.00  0.00    -0.078 A 
ATOM      5  C3  OXE d   1       2.039   3.666  -5.249  0.00  0.00     0.003 A 
ATOM      6  C4  OXE d   1       1.476   4.923  -5.501  0.00  0.00    -0.002 A 
ATOM      7  C5  OXE d   1       2.285   5.999  -5.880  0.00  0.00    -0.002 A 
ATOM      8  C6  OXE d   1       3.658   5.811  -6.000  0.00  0.00     0.003 A 
ENDROOT
TORSDOF 0
ENDMDL
