MODEL 1
REMARK minimizedAffinity 6.47614861
REMARK minimizedRMSD -1
REMARK  0 active torsions:
REMARK  status: ('A' for Active; 'I' for Inactive)
ROOT
ATOM      1  C2' OXE d   1      -0.902   4.458  -1.313  0.00  0.00     0.078 C 
ATOM      2  C1' OXE d   1      -3.480   5.039  -0.367  0.00  0.00     0.078 C 
ATOM      3  C1  OXE d   1      -2.523   4.352   0.576  0.00  0.00    -0.078 A 
ATOM      4  C2  OXE d   1      -1.279   4.030   0.089  0.00  0.00    -0.078 A 
ATOM      5  C3  OXE d   1      -0.339   3.445   0.933  0.00  0.00     0.003 A 
ATOM      6  C4  OXE d   1      -0.699   3.044   2.225  0.00  0.00    -0.002 A 
ATOM      7  C5  OXE d   1      -1.974   3.327   2.727  0.00  0.00    -0.002 A 
ATOM      8  C6  OXE d   1      -2.882   4.017   1.932  0.00  0.00     0.003 A 
ENDROOT
TORSDOF 0
ENDMDL
