MODEL 1
REMARK minimizedAffinity 0.0746099129
REMARK minimizedRMSD -1
REMARK  0 active torsions:
REMARK  status: ('A' for Active; 'I' for Inactive)
ROOT
ATOM      1  C2' OXE d   1       1.730   6.000  -5.095  0.00  0.00     0.078 C 
ATOM      2  C1' OXE d   1       4.483   5.716  -5.569  0.00  0.00     0.078 C 
ATOM      3  C1  OXE d   1       3.623   4.481  -5.658  0.00  0.00    -0.078 A 
ATOM      4  C2  OXE d   1       2.284   4.620  -5.378  0.00  0.00    -0.078 A 
ATOM      5  C3  OXE d   1       1.437   3.523  -5.499  0.00  0.00     0.003 A 
ATOM      6  C4  OXE d   1       1.959   2.248  -5.752  0.00  0.00    -0.002 A 
ATOM      7  C5  OXE d   1       3.325   2.077  -6.000  0.00  0.00    -0.002 A 
ATOM      8  C6  OXE d   1       4.162   3.187  -5.999  0.00  0.00     0.003 A 
ENDROOT
TORSDOF 0
ENDMDL
