MODEL 1
REMARK minimizedAffinity 2.89177251
REMARK minimizedRMSD -1
REMARK  0 active torsions:
REMARK  status: ('A' for Active; 'I' for Inactive)
ROOT
ATOM      1  C2' OXE d   1       3.937  -0.590   4.619  0.00  0.00     0.078 C 
ATOM      2  C1' OXE d   1       5.997  -0.407   2.721  0.00  0.00     0.078 C 
ATOM      3  C1  OXE d   1       4.618   0.042   2.307  0.00  0.00    -0.078 A 
ATOM      4  C2  OXE d   1       3.607  -0.095   3.227  0.00  0.00    -0.078 A 
ATOM      5  C3  OXE d   1       2.326   0.355   2.916  0.00  0.00     0.003 A 
ATOM      6  C4  OXE d   1       2.027   0.802   1.624  0.00  0.00    -0.002 A 
ATOM      7  C5  OXE d   1       3.034   0.911   0.659  0.00  0.00    -0.002 A 
ATOM      8  C6  OXE d   1       4.340   0.576   0.997  0.00  0.00     0.003 A 
ENDROOT
TORSDOF 0
ENDMDL
