MODEL 1
REMARK minimizedAffinity 15.4690256
REMARK minimizedRMSD -1
REMARK  0 active torsions:
REMARK  status: ('A' for Active; 'I' for Inactive)
ROOT
ATOM      1  C2' OXE d   1       0.248  -2.990   0.027  0.00  0.00     0.078 C 
ATOM      2  C1' OXE d   1      -0.385  -4.906  -1.925  0.00  0.00     0.078 C 
ATOM      3  C1  OXE d   1      -1.003  -3.537  -2.057  0.00  0.00    -0.078 A 
ATOM      4  C2  OXE d   1      -0.724  -2.620  -1.072  0.00  0.00    -0.078 A 
ATOM      5  C3  OXE d   1      -1.225  -1.325  -1.174  0.00  0.00     0.003 A 
ATOM      6  C4  OXE d   1      -2.132  -0.993  -2.188  0.00  0.00    -0.002 A 
ATOM      7  C5  OXE d   1      -2.460  -1.924  -3.179  0.00  0.00    -0.002 A 
ATOM      8  C6  OXE d   1      -1.872  -3.184  -3.152  0.00  0.00     0.003 A 
ENDROOT
TORSDOF 0
ENDMDL
