MODEL 1
REMARK minimizedAffinity 2.74761033
REMARK minimizedRMSD -1
REMARK  0 active torsions:
REMARK  status: ('A' for Active; 'I' for Inactive)
ROOT
ATOM      1  C2' OXE d   1      -0.622   2.028   3.010  0.00  0.00     0.078 C 
ATOM      2  C1' OXE d   1       0.636   3.903   1.342  0.00  0.00     0.078 C 
ATOM      3  C1  OXE d   1       1.345   2.595   1.590  0.00  0.00    -0.078 A 
ATOM      4  C2  OXE d   1       0.744   1.702   2.445  0.00  0.00    -0.078 A 
ATOM      5  C3  OXE d   1       1.328   0.458   2.666  0.00  0.00     0.003 A 
ATOM      6  C4  OXE d   1       2.596   0.169   2.148  0.00  0.00    -0.002 A 
ATOM      7  C5  OXE d   1       3.244   1.080   1.306  0.00  0.00    -0.002 A 
ATOM      8  C6  OXE d   1       2.614   2.277   0.984  0.00  0.00     0.003 A 
ENDROOT
TORSDOF 0
ENDMDL
