MODEL 1
REMARK minimizedAffinity 6.32776928
REMARK minimizedRMSD -1
REMARK  0 active torsions:
REMARK  status: ('A' for Active; 'I' for Inactive)
ROOT
ATOM      1  C2' OXE d   1       4.036  -0.572   1.951  0.00  0.00     0.078 C 
ATOM      2  C1' OXE d   1       1.585  -1.280   0.779  0.00  0.00     0.078 C 
ATOM      3  C1  OXE d   1       2.051   0.147   0.629  0.00  0.00    -0.078 A 
ATOM      4  C2  OXE d   1       3.229   0.496   1.245  0.00  0.00    -0.078 A 
ATOM      5  C3  OXE d   1       3.732   1.785   1.093  0.00  0.00     0.003 A 
ATOM      6  C4  OXE d   1       2.974   2.769   0.446  0.00  0.00    -0.002 A 
ATOM      7  C5  OXE d   1       1.753   2.445  -0.154  0.00  0.00    -0.002 A 
ATOM      8  C6  OXE d   1       1.299   1.131  -0.109  0.00  0.00     0.003 A 
ENDROOT
TORSDOF 0
ENDMDL
