MODEL 1
REMARK minimizedAffinity 1.43621194
REMARK minimizedRMSD -1
REMARK  0 active torsions:
REMARK  status: ('A' for Active; 'I' for Inactive)
ROOT
ATOM      1  C2' OXE d   1       3.250  -0.024   1.467  0.00  0.00     0.078 C 
ATOM      2  C1' OXE d   1       1.092   1.566   2.300  0.00  0.00     0.078 C 
ATOM      3  C1  OXE d   1       0.780   0.233   1.667  0.00  0.00    -0.078 A 
ATOM      4  C2  OXE d   1       1.841  -0.517   1.220  0.00  0.00    -0.078 A 
ATOM      5  C3  OXE d   1       1.612  -1.779   0.677  0.00  0.00     0.003 A 
ATOM      6  C4  OXE d   1       0.306  -2.224   0.443  0.00  0.00    -0.002 A 
ATOM      7  C5  OXE d   1      -0.790  -1.458   0.855  0.00  0.00    -0.002 A 
ATOM      8  C6  OXE d   1      -0.570  -0.249   1.506  0.00  0.00     0.003 A 
ENDROOT
TORSDOF 0
ENDMDL
