MODEL 1
REMARK minimizedAffinity -0.754991889
REMARK minimizedRMSD -1
REMARK  0 active torsions:
REMARK  status: ('A' for Active; 'I' for Inactive)
ROOT
ATOM      1  C2' OXE d   1       3.193   1.703  -5.965  0.00  0.00     0.078 C 
ATOM      2  C1' OXE d   1       6.000   1.719  -5.944  0.00  0.00     0.078 C 
ATOM      3  C1  OXE d   1       5.289   3.049  -5.942  0.00  0.00    -0.078 A 
ATOM      4  C2  OXE d   1       3.916   3.032  -6.000  0.00  0.00    -0.078 A 
ATOM      5  C3  OXE d   1       3.209   4.230  -5.945  0.00  0.00     0.003 A 
ATOM      6  C4  OXE d   1       3.886   5.455  -5.987  0.00  0.00    -0.002 A 
ATOM      7  C5  OXE d   1       5.284   5.495  -5.968  0.00  0.00    -0.002 A 
ATOM      8  C6  OXE d   1       5.999   4.304  -5.903  0.00  0.00     0.003 A 
ENDROOT
TORSDOF 0
ENDMDL
