MODEL 1
REMARK minimizedAffinity 3.18978715
REMARK minimizedRMSD -1
REMARK  0 active torsions:
REMARK  status: ('A' for Active; 'I' for Inactive)
ROOT
ATOM      1  C1  BNZ d   1       5.986   5.961  -2.862  0.00  0.00     0.000 A 
ATOM      2  C2  BNZ d   1       4.879   5.501  -2.200  0.00  0.00     0.000 A 
ATOM      3  C3  BNZ d   1       3.782   5.065  -2.889  0.00  0.00     0.000 A 
ATOM      4  C4  BNZ d   1       3.777   5.128  -4.236  0.00  0.00     0.000 A 
ATOM      5  C5  BNZ d   1       4.881   5.598  -4.918  0.00  0.00     0.000 A 
ATOM      6  C6  BNZ d   1       5.999   5.999  -4.223  0.00  0.00     0.000 A 
ENDROOT
TORSDOF 0
ENDMDL
