MODEL 1
REMARK minimizedAffinity 1.56249905
REMARK minimizedRMSD -1
REMARK  0 active torsions:
REMARK  status: ('A' for Active; 'I' for Inactive)
ROOT
ATOM      1  C1  BNZ d   1      -3.676  -4.817  -4.565  0.00  0.00     0.000 A 
ATOM      2  C2  BNZ d   1      -4.124  -5.979  -5.135  0.00  0.00     0.000 A 
ATOM      3  C3  BNZ d   1      -5.277  -6.000  -5.869  0.00  0.00     0.000 A 
ATOM      4  C4  BNZ d   1      -6.000  -4.869  -6.000  0.00  0.00     0.000 A 
ATOM      5  C5  BNZ d   1      -5.566  -3.691  -5.424  0.00  0.00     0.000 A 
ATOM      6  C6  BNZ d   1      -4.386  -3.666  -4.718  0.00  0.00     0.000 A 
ENDROOT
TORSDOF 0
ENDMDL
