MODEL 1
REMARK minimizedAffinity 0.228168651
REMARK minimizedRMSD -1
REMARK  0 active torsions:
REMARK  status: ('A' for Active; 'I' for Inactive)
ROOT
ATOM      1  C1  BNZ d   1      -3.754  -4.677  -4.160  0.00  0.00     0.000 A 
ATOM      2  C2  BNZ d   1      -4.165  -5.618  -5.066  0.00  0.00     0.000 A 
ATOM      3  C3  BNZ d   1      -5.119  -5.322  -5.999  0.00  0.00     0.000 A 
ATOM      4  C4  BNZ d   1      -5.689  -4.100  -6.000  0.00  0.00     0.000 A 
ATOM      5  C5  BNZ d   1      -5.292  -3.143  -5.087  0.00  0.00     0.000 A 
ATOM      6  C6  BNZ d   1      -4.304  -3.432  -4.174  0.00  0.00     0.000 A 
ENDROOT
TORSDOF 0
ENDMDL
