MODEL 1
REMARK minimizedAffinity 4.91531372
REMARK minimizedRMSD -1
REMARK  0 active torsions:
REMARK  status: ('A' for Active; 'I' for Inactive)
ROOT
ATOM      1  C1  BNZ d   1      -5.969  -5.192  -5.994  0.00  0.00     0.000 A 
ATOM      2  C2  BNZ d   1      -5.969  -3.822  -5.998  0.00  0.00     0.000 A 
ATOM      3  C3  BNZ d   1      -4.796  -3.122  -5.961  0.00  0.00     0.000 A 
ATOM      4  C4  BNZ d   1      -3.627  -3.791  -5.878  0.00  0.00     0.000 A 
ATOM      5  C5  BNZ d   1      -3.611  -5.171  -5.863  0.00  0.00     0.000 A 
ATOM      6  C6  BNZ d   1      -4.792  -5.873  -5.940  0.00  0.00     0.000 A 
ENDROOT
TORSDOF 0
ENDMDL
