MODEL 1
REMARK minimizedAffinity 4.68491793
REMARK minimizedRMSD -1
REMARK  0 active torsions:
REMARK  status: ('A' for Active; 'I' for Inactive)
ROOT
ATOM      1  C1  BNZ d   1      -5.131  -5.988  -5.215  0.00  0.00     0.000 A 
ATOM      2  C2  BNZ d   1      -5.995  -5.269  -5.998  0.00  0.00     0.000 A 
ATOM      3  C3  BNZ d   1      -5.969  -3.902  -5.996  0.00  0.00     0.000 A 
ATOM      4  C4  BNZ d   1      -5.109  -3.257  -5.182  0.00  0.00     0.000 A 
ATOM      5  C5  BNZ d   1      -4.239  -3.967  -4.379  0.00  0.00     0.000 A 
ATOM      6  C6  BNZ d   1      -4.241  -5.343  -4.413  0.00  0.00     0.000 A 
ENDROOT
TORSDOF 0
ENDMDL
