MODEL 1
REMARK minimizedAffinity 5.11388302
REMARK minimizedRMSD -1
REMARK  0 active torsions:
REMARK  status: ('A' for Active; 'I' for Inactive)
ROOT
ATOM      1  C1  BNZ d   1      -5.080  -3.717  -4.067  0.00  0.00     0.000 A 
ATOM      2  C2  BNZ d   1      -5.758  -3.718  -5.256  0.00  0.00     0.000 A 
ATOM      3  C3  BNZ d   1      -5.865  -4.860  -6.000  0.00  0.00     0.000 A 
ATOM      4  C4  BNZ d   1      -5.261  -5.987  -5.574  0.00  0.00     0.000 A 
ATOM      5  C5  BNZ d   1      -4.565  -6.000  -4.382  0.00  0.00     0.000 A 
ATOM      6  C6  BNZ d   1      -4.492  -4.859  -3.617  0.00  0.00     0.000 A 
ENDROOT
TORSDOF 0
ENDMDL
