MODEL 1
REMARK minimizedAffinity -2.076473
REMARK minimizedRMSD -1
REMARK  0 active torsions:
REMARK  status: ('A' for Active; 'I' for Inactive)
ROOT
ATOM      1  C1  BNZ d   1      -4.285  -5.238  -3.718  0.00  0.00     0.000 A 
ATOM      2  C2  BNZ d   1      -4.526  -3.890  -3.750  0.00  0.00     0.000 A 
ATOM      3  C3  BNZ d   1      -4.990  -3.289  -4.887  0.00  0.00     0.000 A 
ATOM      4  C4  BNZ d   1      -5.174  -4.028  -6.000  0.00  0.00     0.000 A 
ATOM      5  C5  BNZ d   1      -4.927  -5.387  -5.986  0.00  0.00     0.000 A 
ATOM      6  C6  BNZ d   1      -4.497  -5.995  -4.829  0.00  0.00     0.000 A 
ENDROOT
TORSDOF 0
ENDMDL
