MODEL 1
REMARK minimizedAffinity 5.05212831
REMARK minimizedRMSD -1
REMARK  0 active torsions:
REMARK  status: ('A' for Active; 'I' for Inactive)
ROOT
ATOM      1  C1  BNZ d   1       1.749  -1.753   1.421  0.00  0.00     0.000 A 
ATOM      2  C2  BNZ d   1       0.983  -0.620   1.344  0.00  0.00     0.000 A 
ATOM      3  C3  BNZ d   1      -0.302  -0.611   1.810  0.00  0.00     0.000 A 
ATOM      4  C4  BNZ d   1      -0.832  -1.744   2.315  0.00  0.00     0.000 A 
ATOM      5  C5  BNZ d   1      -0.076  -2.896   2.391  0.00  0.00     0.000 A 
ATOM      6  C6  BNZ d   1       1.230  -2.891   1.956  0.00  0.00     0.000 A 
ENDROOT
TORSDOF 0
ENDMDL
