MODEL 1
REMARK minimizedAffinity -0.0989927351
REMARK minimizedRMSD -1
REMARK  0 active torsions:
REMARK  status: ('A' for Active; 'I' for Inactive)
ROOT
ATOM      1  C1  BNZ d   1       5.999  -2.683   3.975  0.00  0.00     0.000 A 
ATOM      2  C2  BNZ d   1       4.819  -2.700   3.280  0.00  0.00     0.000 A 
ATOM      3  C3  BNZ d   1       3.620  -2.698   3.937  0.00  0.00     0.000 A 
ATOM      4  C4  BNZ d   1       3.603  -2.718   5.286  0.00  0.00     0.000 A 
ATOM      5  C5  BNZ d   1       4.784  -2.710   6.000  0.00  0.00     0.000 A 
ATOM      6  C6  BNZ d   1       5.989  -2.673   5.335  0.00  0.00     0.000 A 
ENDROOT
TORSDOF 0
ENDMDL
