MODEL 1
REMARK minimizedAffinity 0.597438991
REMARK minimizedRMSD -1
REMARK  1 active torsions:
REMARK  status: ('A' for Active; 'I' for Inactive)
REMARK    1  A    between atoms: C1_2  and  C2_3 
ROOT
ATOM      1  C2  UNL d   1      -3.740   4.958   0.793  0.00  0.00    -0.081 A 
ATOM      2  C3  UNL d   1      -3.358   3.765   1.418  0.00  0.00     0.006 A 
ATOM      3  C4  UNL d   1      -2.246   3.052   0.964  0.00  0.00     0.002 A 
ATOM      4  C5  UNL d   1      -1.493   3.523  -0.117  0.00  0.00    -0.080 A 
ATOM      5  C6  UNL d   1      -0.280   2.783  -0.595  0.00  0.00     0.076 C 
ATOM      6  C7  UNL d   1      -1.885   4.706  -0.753  0.00  0.00     0.002 A 
ATOM      7  C8  UNL d   1      -2.997   5.419  -0.300  0.00  0.00     0.006 A 
ENDROOT
BRANCH   1   8
ATOM      8  C1  UNL d   1      -4.900   5.763   1.321  0.00  0.00     0.054 C 
ATOM      9  C   UNL d   1      -5.999   4.860   1.861  0.00  0.00     0.018 C 
ENDBRANCH   1   8
TORSDOF 1
ENDMDL
