MODEL 1
REMARK minimizedAffinity 7.82940912
REMARK minimizedRMSD -1
REMARK  1 active torsions:
REMARK  status: ('A' for Active; 'I' for Inactive)
REMARK    1  A    between atoms: C1_2  and  C2_3 
ROOT
ATOM      1  C2  UNL d   1      -1.153   3.609  -1.844  0.00  0.00    -0.081 A 
ATOM      2  C3  UNL d   1      -1.173   4.992  -2.063  0.00  0.00     0.006 A 
ATOM      3  C4  UNL d   1      -0.037   5.765  -1.813  0.00  0.00     0.002 A 
ATOM      4  C5  UNL d   1       1.140   5.168  -1.348  0.00  0.00    -0.080 A 
ATOM      5  C6  UNL d   1       2.376   5.983  -1.104  0.00  0.00     0.076 C 
ATOM      6  C7  UNL d   1       1.155   3.789  -1.112  0.00  0.00     0.002 A 
ATOM      7  C8  UNL d   1       0.019   3.016  -1.361  0.00  0.00     0.006 A 
ENDROOT
BRANCH   1   8
ATOM      8  C1  UNL d   1      -2.356   2.763  -2.174  0.00  0.00     0.054 C 
ATOM      9  C   UNL d   1      -2.106   1.901  -3.404  0.00  0.00     0.018 C 
ENDBRANCH   1   8
TORSDOF 1
ENDMDL
