MODEL 1
REMARK minimizedAffinity 16.5250015
REMARK minimizedRMSD -1
REMARK  1 active torsions:
REMARK  status: ('A' for Active; 'I' for Inactive)
REMARK    1  A    between atoms: C1_2  and  C2_3 
ROOT
ATOM      1  C2  UNL d   1      -2.777   1.223  -3.899  0.00  0.00    -0.081 A 
ATOM      2  C3  UNL d   1      -2.808   2.257  -2.956  0.00  0.00     0.006 A 
ATOM      3  C4  UNL d   1      -3.856   2.346  -2.037  0.00  0.00     0.002 A 
ATOM      4  C5  UNL d   1      -4.885   1.398  -2.040  0.00  0.00    -0.080 A 
ATOM      5  C6  UNL d   1      -6.000   1.464  -1.039  0.00  0.00     0.076 C 
ATOM      6  C7  UNL d   1      -4.863   0.375  -2.993  0.00  0.00     0.002 A 
ATOM      7  C8  UNL d   1      -3.816   0.286  -3.913  0.00  0.00     0.006 A 
ENDROOT
BRANCH   1   8
ATOM      8  C1  UNL d   1      -1.615   1.087  -4.850  0.00  0.00     0.054 C 
ATOM      9  C   UNL d   1      -0.446   0.365  -4.195  0.00  0.00     0.018 C 
ENDBRANCH   1   8
TORSDOF 1
ENDMDL
