MODEL 1
REMARK minimizedAffinity 7.45754337
REMARK minimizedRMSD -1
REMARK  1 active torsions:
REMARK  status: ('A' for Active; 'I' for Inactive)
REMARK    1  A    between atoms: C1_2  and  C2_3 
ROOT
ATOM      1  C2  UNL d   1       0.198   4.017  -1.549  0.00  0.00    -0.081 A 
ATOM      2  C3  UNL d   1       0.364   2.648  -1.791  0.00  0.00     0.006 A 
ATOM      3  C4  UNL d   1      -0.706   1.874  -2.245  0.00  0.00     0.002 A 
ATOM      4  C5  UNL d   1      -1.958   2.457  -2.472  0.00  0.00    -0.080 A 
ATOM      5  C6  UNL d   1      -3.107   1.644  -2.988  0.00  0.00     0.076 C 
ATOM      6  C7  UNL d   1      -2.128   3.821  -2.214  0.00  0.00     0.002 A 
ATOM      7  C8  UNL d   1      -1.058   4.595  -1.759  0.00  0.00     0.006 A 
ENDROOT
BRANCH   1   8
ATOM      8  C1  UNL d   1       1.367   4.867  -1.122  0.00  0.00     0.054 C 
ATOM      9  C   UNL d   1       1.620   5.997  -2.109  0.00  0.00     0.018 C 
ENDBRANCH   1   8
TORSDOF 1
ENDMDL
