MODEL 1
REMARK minimizedAffinity -1.14539659
REMARK minimizedRMSD -1
REMARK  1 active torsions:
REMARK  status: ('A' for Active; 'I' for Inactive)
REMARK    1  A    between atoms: C1_2  and  C2_3 
ROOT
ATOM      1  C2  UNL d   1      -3.650   5.083   1.475  0.00  0.00    -0.081 A 
ATOM      2  C3  UNL d   1      -3.365   3.886   2.143  0.00  0.00     0.006 A 
ATOM      3  C4  UNL d   1      -2.318   3.067   1.715  0.00  0.00     0.002 A 
ATOM      4  C5  UNL d   1      -1.533   3.434   0.617  0.00  0.00    -0.080 A 
ATOM      5  C6  UNL d   1      -0.386   2.579   0.166  0.00  0.00     0.076 C 
ATOM      6  C7  UNL d   1      -1.828   4.621  -0.062  0.00  0.00     0.002 A 
ATOM      7  C8  UNL d   1      -2.875   5.440   0.365  0.00  0.00     0.006 A 
ENDROOT
BRANCH   1   8
ATOM      8  C1  UNL d   1      -4.737   6.000   1.973  0.00  0.00     0.054 C 
ATOM      9  C   UNL d   1      -5.907   5.211   2.544  0.00  0.00     0.018 C 
ENDBRANCH   1   8
TORSDOF 1
ENDMDL
