MODEL 1
REMARK minimizedAffinity -3.35277224
REMARK minimizedRMSD -1
REMARK  1 active torsions:
REMARK  status: ('A' for Active; 'I' for Inactive)
REMARK    1  A    between atoms: C1_2  and  C2_3 
ROOT
ATOM      1  C2  UNL d   1      -3.648   4.966   1.220  0.00  0.00    -0.081 A 
ATOM      2  C3  UNL d   1      -3.408   3.684   1.729  0.00  0.00     0.006 A 
ATOM      3  C4  UNL d   1      -2.353   2.913   1.238  0.00  0.00     0.002 A 
ATOM      4  C5  UNL d   1      -1.515   3.413   0.235  0.00  0.00    -0.080 A 
ATOM      5  C6  UNL d   1      -0.359   2.608  -0.280  0.00  0.00     0.076 C 
ATOM      6  C7  UNL d   1      -1.765   4.687  -0.286  0.00  0.00     0.002 A 
ATOM      7  C8  UNL d   1      -2.821   5.459   0.205  0.00  0.00     0.006 A 
ENDROOT
BRANCH   1   8
ATOM      8  C1  UNL d   1      -4.746   5.826   1.793  0.00  0.00     0.054 C 
ATOM      9  C   UNL d   1      -5.997   5.007   2.079  0.00  0.00     0.018 C 
ENDBRANCH   1   8
TORSDOF 1
ENDMDL
