MODEL 1
REMARK minimizedAffinity 10.7927475
REMARK minimizedRMSD -1
REMARK  1 active torsions:
REMARK  status: ('A' for Active; 'I' for Inactive)
REMARK    1  A    between atoms: C1_2  and  C2_3 
ROOT
ATOM      1  C2  UNL d   1       3.032  -1.324   1.908  0.00  0.00    -0.081 A 
ATOM      2  C3  UNL d   1       4.021  -1.920   1.116  0.00  0.00     0.006 A 
ATOM      3  C4  UNL d   1       4.840  -2.923   1.640  0.00  0.00     0.002 A 
ATOM      4  C5  UNL d   1       4.679  -3.351   2.962  0.00  0.00    -0.080 A 
ATOM      5  C6  UNL d   1       5.531  -4.448   3.529  0.00  0.00     0.076 C 
ATOM      6  C7  UNL d   1       3.702  -2.744   3.759  0.00  0.00     0.002 A 
ATOM      7  C8  UNL d   1       2.884  -1.741   3.235  0.00  0.00     0.006 A 
ENDROOT
BRANCH   1   8
ATOM      8  C1  UNL d   1       2.105  -0.288   1.326  0.00  0.00     0.054 C 
ATOM      9  C   UNL d   1       2.184   1.021   2.097  0.00  0.00     0.018 C 
ENDBRANCH   1   8
TORSDOF 1
ENDMDL
