MODEL 1
REMARK minimizedAffinity -1.96726179
REMARK minimizedRMSD -1
REMARK  0 active torsions:
REMARK  status: ('A' for Active; 'I' for Inactive)
ROOT
ATOM      1  C   UNL d   1      -5.035   1.557  -6.000  0.00  0.00    -0.002 A 
ATOM      2  C1  UNL d   1      -3.698   1.185  -5.999  0.00  0.00     0.010 A 
ATOM      3  C2  UNL d   1      -2.693   2.150  -5.909  0.00  0.00     0.041 A 
ATOM      4  C3  UNL d   1      -3.057   3.507  -5.816  0.00  0.00    -0.075 A 
ATOM      5  S   UNL d   1      -1.998   4.862  -5.695  0.00  0.00     0.015 SA
ATOM      6  C4  UNL d   1      -3.295   5.966  -5.640  0.00  0.00     0.022 A 
ATOM      7  C5  UNL d   1      -4.513   5.334  -5.712  0.00  0.00     0.026 A 
ATOM      8  C6  UNL d   1      -4.397   3.906  -5.814  0.00  0.00    -0.082 A 
ATOM      9  C7  UNL d   1      -5.393   2.905  -5.908  0.00  0.00     0.045 A 
ENDROOT
TORSDOF 0
ENDMDL
