MODEL 1
REMARK minimizedAffinity 4.09529305
REMARK minimizedRMSD -1
REMARK  0 active torsions:
REMARK  status: ('A' for Active; 'I' for Inactive)
ROOT
ATOM      1  C   UNL d   1      -0.578  -1.375  -2.078  0.00  0.00    -0.002 A 
ATOM      2  C1  UNL d   1       0.427  -1.147  -3.007  0.00  0.00     0.010 A 
ATOM      3  C2  UNL d   1       1.442  -0.225  -2.743  0.00  0.00     0.041 A 
ATOM      4  C3  UNL d   1       1.430   0.470  -1.518  0.00  0.00    -0.075 A 
ATOM      5  S   UNL d   1       2.570   1.645  -0.978  0.00  0.00     0.015 SA
ATOM      6  C4  UNL d   1       1.750   1.872   0.498  0.00  0.00     0.022 A 
ATOM      7  C5  UNL d   1       0.632   1.079   0.594  0.00  0.00     0.026 A 
ATOM      8  C6  UNL d   1       0.429   0.257  -0.566  0.00  0.00    -0.082 A 
ATOM      9  C7  UNL d   1      -0.586  -0.684  -0.863  0.00  0.00     0.045 A 
ENDROOT
TORSDOF 0
ENDMDL
