MODEL 1
REMARK minimizedAffinity -3.19139719
REMARK minimizedRMSD -1
REMARK  0 active torsions:
REMARK  status: ('A' for Active; 'I' for Inactive)
ROOT
ATOM      1  C   UNL d   1      -4.533   1.477  -5.981  0.00  0.00    -0.002 A 
ATOM      2  C1  UNL d   1      -3.186   1.145  -5.984  0.00  0.00     0.010 A 
ATOM      3  C2  UNL d   1      -2.209   2.143  -5.991  0.00  0.00     0.041 A 
ATOM      4  C3  UNL d   1      -2.613   3.493  -5.992  0.00  0.00    -0.075 A 
ATOM      5  S   UNL d   1      -1.593   4.883  -5.999  0.00  0.00     0.015 SA
ATOM      6  C4  UNL d   1      -2.922   5.950  -5.996  0.00  0.00     0.022 A 
ATOM      7  C5  UNL d   1      -4.122   5.279  -5.991  0.00  0.00     0.026 A 
ATOM      8  C6  UNL d   1      -3.963   3.851  -5.988  0.00  0.00    -0.082 A 
ATOM      9  C7  UNL d   1      -4.930   2.817  -5.983  0.00  0.00     0.045 A 
ENDROOT
TORSDOF 0
ENDMDL
