MODEL 1
REMARK minimizedAffinity 1.25397325
REMARK minimizedRMSD -1
REMARK  0 active torsions:
REMARK  status: ('A' for Active; 'I' for Inactive)
ROOT
ATOM      1  C   UNL d   1       2.033   0.306  -2.794  0.00  0.00    -0.002 A 
ATOM      2  C1  UNL d   1       2.489   1.136  -1.780  0.00  0.00     0.010 A 
ATOM      3  C2  UNL d   1       1.967   1.033  -0.489  0.00  0.00     0.041 A 
ATOM      4  C3  UNL d   1       0.970   0.071  -0.232  0.00  0.00    -0.075 A 
ATOM      5  S   UNL d   1       0.185  -0.236   1.272  0.00  0.00     0.015 SA
ATOM      6  C4  UNL d   1      -0.774  -1.476   0.604  0.00  0.00     0.022 A 
ATOM      7  C5  UNL d   1      -0.514  -1.665  -0.733  0.00  0.00     0.026 A 
ATOM      8  C6  UNL d   1       0.495  -0.776  -1.237  0.00  0.00    -0.082 A 
ATOM      9  C7  UNL d   1       1.044  -0.647  -2.535  0.00  0.00     0.045 A 
ENDROOT
TORSDOF 0
ENDMDL
