MODEL 1
REMARK minimizedAffinity 4.89456844
REMARK minimizedRMSD -1
REMARK  0 active torsions:
REMARK  status: ('A' for Active; 'I' for Inactive)
ROOT
ATOM      1  C   UNL d   1       2.475   0.996  -2.825  0.00  0.00    -0.002 A 
ATOM      2  C1  UNL d   1       2.824   1.592  -1.621  0.00  0.00     0.010 A 
ATOM      3  C2  UNL d   1       2.179   1.232  -0.437  0.00  0.00     0.041 A 
ATOM      4  C3  UNL d   1       1.167   0.252  -0.482  0.00  0.00    -0.075 A 
ATOM      5  S   UNL d   1       0.241  -0.347   0.842  0.00  0.00     0.015 SA
ATOM      6  C4  UNL d   1      -0.640  -1.409  -0.158  0.00  0.00     0.022 A 
ATOM      7  C5  UNL d   1      -0.250  -1.322  -1.473  0.00  0.00     0.026 A 
ATOM      8  C6  UNL d   1       0.799  -0.363  -1.682  0.00  0.00    -0.082 A 
ATOM      9  C7  UNL d   1       1.471   0.024  -2.866  0.00  0.00     0.045 A 
ENDROOT
TORSDOF 0
ENDMDL
