MODEL 1
REMARK minimizedAffinity 4.59403896
REMARK minimizedRMSD -1
REMARK  0 active torsions:
REMARK  status: ('A' for Active; 'I' for Inactive)
ROOT
ATOM      1  C   UNL d   1      -2.603  -0.660  -5.996  0.00  0.00    -0.002 A 
ATOM      2  C1  UNL d   1      -3.989  -0.732  -5.992  0.00  0.00     0.010 A 
ATOM      3  C2  UNL d   1      -4.761   0.432  -5.989  0.00  0.00     0.041 A 
ATOM      4  C3  UNL d   1      -4.110   1.682  -5.993  0.00  0.00    -0.075 A 
ATOM      5  S   UNL d   1      -4.849   3.239  -5.991  0.00  0.00     0.015 SA
ATOM      6  C4  UNL d   1      -3.343   4.036  -5.997  0.00  0.00     0.022 A 
ATOM      7  C5  UNL d   1      -2.291   3.151  -5.999  0.00  0.00     0.026 A 
ATOM      8  C6  UNL d   1      -2.716   1.780  -5.998  0.00  0.00    -0.082 A 
ATOM      9  C7  UNL d   1      -1.961   0.582  -5.999  0.00  0.00     0.045 A 
ENDROOT
TORSDOF 0
ENDMDL
