MODEL 1
REMARK minimizedAffinity 5.50704288
REMARK minimizedRMSD -1
REMARK  0 active torsions:
REMARK  status: ('A' for Active; 'I' for Inactive)
ROOT
ATOM      1  C   UNL d   1      -3.664  -1.259  -5.549  0.00  0.00    -0.002 A 
ATOM      2  C1  UNL d   1      -5.008  -1.598  -5.602  0.00  0.00     0.010 A 
ATOM      3  C2  UNL d   1      -5.399  -2.932  -5.739  0.00  0.00     0.041 A 
ATOM      4  C3  UNL d   1      -4.407  -3.928  -5.822  0.00  0.00    -0.075 A 
ATOM      5  S   UNL d   1      -4.650  -5.626  -5.992  0.00  0.00     0.015 SA
ATOM      6  C4  UNL d   1      -2.975  -5.941  -5.997  0.00  0.00     0.022 A 
ATOM      7  C5  UNL d   1      -2.234  -4.790  -5.874  0.00  0.00     0.026 A 
ATOM      8  C6  UNL d   1      -3.046  -3.611  -5.770  0.00  0.00    -0.082 A 
ATOM      9  C7  UNL d   1      -2.682  -2.250  -5.631  0.00  0.00     0.045 A 
ENDROOT
TORSDOF 0
ENDMDL
