MODEL 1
REMARK minimizedAffinity 0.0790646076
REMARK minimizedRMSD -1
REMARK  0 active torsions:
REMARK  status: ('A' for Active; 'I' for Inactive)
ROOT
ATOM      1  C   UNL d   1      -4.012  -1.039  -5.985  0.00  0.00    -0.002 A 
ATOM      2  C1  UNL d   1      -2.642  -0.819  -5.992  0.00  0.00     0.010 A 
ATOM      3  C2  UNL d   1      -2.131   0.481  -5.998  0.00  0.00     0.041 A 
ATOM      4  C3  UNL d   1      -3.030   1.566  -5.994  0.00  0.00    -0.075 A 
ATOM      5  S   UNL d   1      -2.633   3.244  -6.000  0.00  0.00     0.015 SA
ATOM      6  C4  UNL d   1      -4.273   3.708  -5.990  0.00  0.00     0.022 A 
ATOM      7  C5  UNL d   1      -5.116   2.622  -5.984  0.00  0.00     0.026 A 
ATOM      8  C6  UNL d   1      -4.413   1.370  -5.986  0.00  0.00    -0.082 A 
ATOM      9  C7  UNL d   1      -4.900   0.040  -5.981  0.00  0.00     0.045 A 
ENDROOT
TORSDOF 0
ENDMDL
