MODEL 1
REMARK minimizedAffinity -1.79232049
REMARK minimizedRMSD -1
REMARK  0 active torsions:
REMARK  status: ('A' for Active; 'I' for Inactive)
ROOT
ATOM      1  C   UNL d   1      -4.379   0.202  -5.999  0.00  0.00    -0.002 A 
ATOM      2  C1  UNL d   1      -3.035   0.547  -5.998  0.00  0.00     0.010 A 
ATOM      3  C2  UNL d   1      -2.646   1.888  -5.999  0.00  0.00     0.041 A 
ATOM      4  C3  UNL d   1      -3.640   2.886  -5.998  0.00  0.00    -0.075 A 
ATOM      5  S   UNL d   1      -3.399   4.593  -5.998  0.00  0.00     0.015 SA
ATOM      6  C4  UNL d   1      -5.075   4.904  -5.998  0.00  0.00     0.022 A 
ATOM      7  C5  UNL d   1      -5.815   3.746  -5.998  0.00  0.00     0.026 A 
ATOM      8  C6  UNL d   1      -5.000   2.563  -5.998  0.00  0.00    -0.082 A 
ATOM      9  C7  UNL d   1      -5.363   1.195  -5.999  0.00  0.00     0.045 A 
ENDROOT
TORSDOF 0
ENDMDL
