MODEL 1
REMARK minimizedAffinity 2.57705808
REMARK minimizedRMSD -1
REMARK  0 active torsions:
REMARK  status: ('A' for Active; 'I' for Inactive)
ROOT
ATOM      1  C   UNL d   1       0.001  -1.450  -1.530  0.00  0.00    -0.002 A 
ATOM      2  C1  UNL d   1       1.053  -1.188  -2.396  0.00  0.00     0.010 A 
ATOM      3  C2  UNL d   1       1.945  -0.145  -2.136  0.00  0.00     0.041 A 
ATOM      4  C3  UNL d   1       1.760   0.636  -0.978  0.00  0.00    -0.075 A 
ATOM      5  S   UNL d   1       2.728   1.963  -0.454  0.00  0.00     0.015 SA
ATOM      6  C4  UNL d   1       1.768   2.213   0.932  0.00  0.00     0.022 A 
ATOM      7  C5  UNL d   1       0.730   1.314   1.009  0.00  0.00     0.026 A 
ATOM      8  C6  UNL d   1       0.709   0.390  -0.090  0.00  0.00    -0.082 A 
ATOM      9  C7  UNL d   1      -0.179  -0.673  -0.382  0.00  0.00     0.045 A 
ENDROOT
TORSDOF 0
ENDMDL
