MODEL 1
REMARK minimizedAffinity 3.9220469
REMARK minimizedRMSD -1
REMARK  0 active torsions:
REMARK  status: ('A' for Active; 'I' for Inactive)
ROOT
ATOM      1  C   UNL d   1      -3.611   0.363  -5.932  0.00  0.00    -0.002 A 
ATOM      2  C1  UNL d   1      -2.392   1.026  -5.913  0.00  0.00     0.010 A 
ATOM      3  C2  UNL d   1      -2.343   2.421  -5.923  0.00  0.00     0.041 A 
ATOM      4  C3  UNL d   1      -3.550   3.146  -5.952  0.00  0.00    -0.075 A 
ATOM      5  S   UNL d   1      -3.734   4.860  -5.968  0.00  0.00     0.015 SA
ATOM      6  C4  UNL d   1      -5.435   4.752  -6.000  0.00  0.00     0.022 A 
ATOM      7  C5  UNL d   1      -5.869   3.448  -5.999  0.00  0.00     0.026 A 
ATOM      8  C6  UNL d   1      -4.790   2.500  -5.970  0.00  0.00    -0.082 A 
ATOM      9  C7  UNL d   1      -4.807   1.085  -5.960  0.00  0.00     0.045 A 
ENDROOT
TORSDOF 0
ENDMDL
