MODEL 1
REMARK minimizedAffinity 11.7310438
REMARK minimizedRMSD -1
REMARK  0 active torsions:
REMARK  status: ('A' for Active; 'I' for Inactive)
ROOT
ATOM      1  C   UNL d   1      -5.995  -2.153   1.081  0.00  0.00    -0.002 A 
ATOM      2  C1  UNL d   1      -4.994  -2.697   1.873  0.00  0.00     0.010 A 
ATOM      3  C2  UNL d   1      -3.908  -1.919   2.279  0.00  0.00     0.041 A 
ATOM      4  C3  UNL d   1      -3.847  -0.571   1.875  0.00  0.00    -0.075 A 
ATOM      5  S   UNL d   1      -2.613   0.573   2.253  0.00  0.00     0.015 SA
ATOM      6  C4  UNL d   1      -3.387   1.811   1.373  0.00  0.00     0.022 A 
ATOM      7  C5  UNL d   1      -4.559   1.379   0.798  0.00  0.00     0.026 A 
ATOM      8  C6  UNL d   1      -4.844  -0.000   1.078  0.00  0.00    -0.082 A 
ATOM      9  C7  UNL d   1      -5.931  -0.816   0.681  0.00  0.00     0.045 A 
ENDROOT
TORSDOF 0
ENDMDL
