MODEL 1
REMARK minimizedAffinity 3.33771157
REMARK minimizedRMSD -1
REMARK  0 active torsions:
REMARK  status: ('A' for Active; 'I' for Inactive)
ROOT
ATOM      1  C   UNL d   1      -1.672  -5.073  -4.510  0.00  0.00    -0.002 A 
ATOM      2  C1  UNL d   1      -2.287  -5.995  -5.345  0.00  0.00     0.010 A 
ATOM      3  C2  UNL d   1      -3.566  -5.754  -5.850  0.00  0.00     0.041 A 
ATOM      4  C3  UNL d   1      -4.223  -4.558  -5.500  0.00  0.00    -0.075 A 
ATOM      5  S   UNL d   1      -5.792  -4.049  -5.999  0.00  0.00     0.015 SA
ATOM      6  C4  UNL d   1      -5.683  -2.595  -5.117  0.00  0.00     0.022 A 
ATOM      7  C5  UNL d   1      -4.486  -2.484  -4.452  0.00  0.00     0.026 A 
ATOM      8  C6  UNL d   1      -3.624  -3.613  -4.661  0.00  0.00    -0.082 A 
ATOM      9  C7  UNL d   1      -2.327  -3.887  -4.165  0.00  0.00     0.045 A 
ENDROOT
TORSDOF 0
ENDMDL
