MODEL 1
REMARK minimizedAffinity -4.35770941
REMARK minimizedRMSD -1
REMARK  1 active torsions:
REMARK  status: ('A' for Active; 'I' for Inactive)
REMARK    1  A    between atoms: C1_2  and  C2_3 
ROOT
ATOM      1  C2  UNL d   1       0.176  -0.105  -0.141  0.00  0.00    -0.073 A 
ATOM      2  C3  UNL d   1      -0.423  -1.365  -0.027  0.00  0.00    -0.002 A 
ATOM      3  C4  UNL d   1      -0.943  -1.790   1.196  0.00  0.00     0.004 A 
ATOM      4  C5  UNL d   1      -0.876  -0.959   2.314  0.00  0.00    -0.004 A 
ATOM      5  C6  UNL d   1      -0.293   0.308   2.217  0.00  0.00    -0.075 A 
ATOM      6  C7  UNL d   1      -0.211   1.214   3.411  0.00  0.00     0.076 C 
ATOM      7  C8  UNL d   1       0.230   0.727   0.986  0.00  0.00     0.001 A 
ENDROOT
BRANCH   1   8
ATOM      8  C1  UNL d   1       0.733   0.361  -1.462  0.00  0.00     0.053 C 
ATOM      9  C   UNL d   1       0.417  -0.610  -2.588  0.00  0.00     0.018 C 
ENDBRANCH   1   8
TORSDOF 1
ENDMDL
