MODEL 1
REMARK minimizedAffinity -4.5269165
REMARK minimizedRMSD -1
REMARK  1 active torsions:
REMARK  status: ('A' for Active; 'I' for Inactive)
REMARK    1  A    between atoms: C1_2  and  C2_3 
ROOT
ATOM      1  C2  UNL d   1       0.111   0.107   1.355  0.00  0.00    -0.073 A 
ATOM      2  C3  UNL d   1       1.367   0.335   0.779  0.00  0.00    -0.002 A 
ATOM      3  C4  UNL d   1       1.488   0.519  -0.599  0.00  0.00     0.004 A 
ATOM      4  C5  UNL d   1       0.356   0.485  -1.413  0.00  0.00    -0.004 A 
ATOM      5  C6  UNL d   1      -0.909   0.271  -0.856  0.00  0.00    -0.075 A 
ATOM      6  C7  UNL d   1      -2.135   0.229  -1.719  0.00  0.00     0.076 C 
ATOM      7  C8  UNL d   1      -1.022   0.084   0.528  0.00  0.00     0.001 A 
ENDROOT
BRANCH   1   8
ATOM      8  C1  UNL d   1      -0.025  -0.086   2.843  0.00  0.00     0.053 C 
ATOM      9  C   UNL d   1      -0.977  -1.221   3.186  0.00  0.00     0.018 C 
ENDBRANCH   1   8
TORSDOF 1
ENDMDL
