MODEL 1
REMARK minimizedAffinity -4.10106325
REMARK minimizedRMSD -1
REMARK  1 active torsions:
REMARK  status: ('A' for Active; 'I' for Inactive)
REMARK    1  A    between atoms: C1_2  and  C2_3 
ROOT
ATOM      1  C2  UNL d   1       0.128   0.234  -0.188  0.00  0.00    -0.073 A 
ATOM      2  C3  UNL d   1       1.277   0.925   0.214  0.00  0.00    -0.002 A 
ATOM      3  C4  UNL d   1       1.641   0.964   1.560  0.00  0.00     0.004 A 
ATOM      4  C5  UNL d   1       0.867   0.308   2.517  0.00  0.00    -0.004 A 
ATOM      5  C6  UNL d   1      -0.278  -0.399   2.134  0.00  0.00    -0.075 A 
ATOM      6  C7  UNL d   1      -1.123  -1.108   3.150  0.00  0.00     0.076 C 
ATOM      7  C8  UNL d   1      -0.639  -0.431   0.780  0.00  0.00     0.001 A 
ENDROOT
BRANCH   1   8
ATOM      8  C1  UNL d   1      -0.266   0.183  -1.641  0.00  0.00     0.053 C 
ATOM      9  C   UNL d   1       0.898  -0.217  -2.534  0.00  0.00     0.018 C 
ENDBRANCH   1   8
TORSDOF 1
ENDMDL
