MODEL 1
REMARK minimizedAffinity -3.43239713
REMARK minimizedRMSD -1
REMARK  1 active torsions:
REMARK  status: ('A' for Active; 'I' for Inactive)
REMARK    1  A    between atoms: C1_2  and  C2_3 
ROOT
ATOM      1  C2  UNL d   1       0.206  -0.266  -0.978  0.00  0.00    -0.073 A 
ATOM      2  C3  UNL d   1      -1.131  -0.620  -0.763  0.00  0.00    -0.002 A 
ATOM      3  C4  UNL d   1      -1.637  -0.707   0.534  0.00  0.00     0.004 A 
ATOM      4  C5  UNL d   1      -0.816  -0.436   1.628  0.00  0.00    -0.004 A 
ATOM      5  C6  UNL d   1       0.519  -0.070   1.434  0.00  0.00    -0.075 A 
ATOM      6  C7  UNL d   1       1.416   0.223   2.601  0.00  0.00     0.076 C 
ATOM      7  C8  UNL d   1       1.022   0.014   0.129  0.00  0.00     0.001 A 
ENDROOT
BRANCH   1   8
ATOM      8  C1  UNL d   1       0.756  -0.164  -2.377  0.00  0.00     0.053 C 
ATOM      9  C   UNL d   1       0.774  -1.511  -3.082  0.00  0.00     0.018 C 
ENDBRANCH   1   8
TORSDOF 1
ENDMDL
