MODEL 1
REMARK minimizedAffinity -3.22188425
REMARK minimizedRMSD -1
REMARK  1 active torsions:
REMARK  status: ('A' for Active; 'I' for Inactive)
REMARK    1  A    between atoms: C1_2  and  C2_3 
ROOT
ATOM      1  C2  UNL d   1       0.448   0.271  -1.301  0.00  0.00    -0.073 A 
ATOM      2  C3  UNL d   1       1.358   0.492  -0.261  0.00  0.00    -0.002 A 
ATOM      3  C4  UNL d   1       0.955   0.360   1.069  0.00  0.00     0.004 A 
ATOM      4  C5  UNL d   1      -0.358  -0.001   1.372  0.00  0.00    -0.004 A 
ATOM      5  C6  UNL d   1      -1.279  -0.237   0.346  0.00  0.00    -0.075 A 
ATOM      6  C7  UNL d   1      -2.695  -0.624   0.655  0.00  0.00     0.076 C 
ATOM      7  C8  UNL d   1      -0.867  -0.100  -0.986  0.00  0.00     0.001 A 
ENDROOT
BRANCH   1   8
ATOM      8  C1  UNL d   1       0.880   0.406  -2.738  0.00  0.00     0.053 C 
ATOM      9  C   UNL d   1       1.177  -0.943  -3.373  0.00  0.00     0.018 C 
ENDBRANCH   1   8
TORSDOF 1
ENDMDL
