MODEL 1
REMARK minimizedAffinity -5.9845109
REMARK minimizedRMSD -1
REMARK  1 active torsions:
REMARK  status: ('A' for Active; 'I' for Inactive)
REMARK    1  A    between atoms: C1_2  and  C2_3 
ROOT
ATOM      1  C2  UNL d   1       0.177   0.019  -0.359  0.00  0.00    -0.073 A 
ATOM      2  C3  UNL d   1       1.544   0.106  -0.071  0.00  0.00    -0.002 A 
ATOM      3  C4  UNL d   1       2.002  -0.081   1.234  0.00  0.00     0.004 A 
ATOM      4  C5  UNL d   1       1.101  -0.363   2.261  0.00  0.00    -0.004 A 
ATOM      5  C6  UNL d   1      -0.267  -0.465   1.991  0.00  0.00    -0.075 A 
ATOM      6  C7  UNL d   1      -1.249  -0.765   3.085  0.00  0.00     0.076 C 
ATOM      7  C8  UNL d   1      -0.720  -0.273   0.679  0.00  0.00     0.001 A 
ENDROOT
BRANCH   1   8
ATOM      8  C1  UNL d   1      -0.322   0.214  -1.767  0.00  0.00     0.053 C 
ATOM      9  C   UNL d   1       0.368  -0.719  -2.750  0.00  0.00     0.018 C 
ENDBRANCH   1   8
TORSDOF 1
ENDMDL
