MODEL 1
REMARK minimizedAffinity -2.3704474
REMARK minimizedRMSD -1
REMARK  1 active torsions:
REMARK  status: ('A' for Active; 'I' for Inactive)
REMARK    1  A    between atoms: C1_2  and  C2_3 
ROOT
ATOM      1  C2  UNL d   1      -0.874   0.018   1.526  0.00  0.00    -0.073 A 
ATOM      2  C3  UNL d   1      -2.172   0.147   1.019  0.00  0.00    -0.002 A 
ATOM      3  C4  UNL d   1      -2.379   0.329  -0.349  0.00  0.00     0.004 A 
ATOM      4  C5  UNL d   1      -1.293   0.376  -1.223  0.00  0.00    -0.004 A 
ATOM      5  C6  UNL d   1       0.011   0.237  -0.737  0.00  0.00    -0.075 A 
ATOM      6  C7  UNL d   1       1.190   0.288  -1.663  0.00  0.00     0.076 C 
ATOM      7  C8  UNL d   1       0.211   0.058   0.639  0.00  0.00     0.001 A 
ENDROOT
BRANCH   1   8
ATOM      8  C1  UNL d   1      -0.646  -0.185   3.002  0.00  0.00     0.053 C 
ATOM      9  C   UNL d   1      -0.229   1.102   3.697  0.00  0.00     0.018 C 
ENDBRANCH   1   8
TORSDOF 1
ENDMDL
