MODEL 1
REMARK minimizedAffinity -5.71113777
REMARK minimizedRMSD -1
REMARK  1 active torsions:
REMARK  status: ('A' for Active; 'I' for Inactive)
REMARK    1  A    between atoms: C1_2  and  C2_3 
ROOT
ATOM      1  C2  UNL d   1       0.491  -0.157   0.948  0.00  0.00    -0.073 A 
ATOM      2  C3  UNL d   1       1.082   0.426   2.074  0.00  0.00    -0.002 A 
ATOM      3  C4  UNL d   1       0.299   0.796   3.169  0.00  0.00     0.004 A 
ATOM      4  C5  UNL d   1      -1.079   0.580   3.151  0.00  0.00    -0.004 A 
ATOM      5  C6  UNL d   1      -1.686  -0.013   2.039  0.00  0.00    -0.075 A 
ATOM      6  C7  UNL d   1      -3.167  -0.251   2.004  0.00  0.00     0.076 C 
ATOM      7  C8  UNL d   1      -0.893  -0.379   0.943  0.00  0.00     0.001 A 
ENDROOT
BRANCH   1   8
ATOM      8  C1  UNL d   1       1.334  -0.564  -0.234  0.00  0.00     0.053 C 
ATOM      9  C   UNL d   1       0.522  -0.624  -1.519  0.00  0.00     0.018 C 
ENDBRANCH   1   8
TORSDOF 1
ENDMDL
