MODEL 1
REMARK minimizedAffinity -5.11653233
REMARK minimizedRMSD -1
REMARK  1 active torsions:
REMARK  status: ('A' for Active; 'I' for Inactive)
REMARK    1  A    between atoms: C1_2  and  C2_3 
ROOT
ATOM      1  C2  UNL d   1       0.319  -0.202  -0.828  0.00  0.00    -0.073 A 
ATOM      2  C3  UNL d   1       1.070  -0.392   0.338  0.00  0.00    -0.002 A 
ATOM      3  C4  UNL d   1       0.432  -0.600   1.561  0.00  0.00     0.004 A 
ATOM      4  C5  UNL d   1      -0.961  -0.627   1.631  0.00  0.00    -0.004 A 
ATOM      5  C6  UNL d   1      -1.729  -0.452   0.475  0.00  0.00    -0.075 A 
ATOM      6  C7  UNL d   1      -3.228  -0.476   0.534  0.00  0.00     0.076 C 
ATOM      7  C8  UNL d   1      -1.081  -0.241  -0.749  0.00  0.00     0.001 A 
ENDROOT
BRANCH   1   8
ATOM      8  C1  UNL d   1       1.003   0.016  -2.153  0.00  0.00     0.053 C 
ATOM      9  C   UNL d   1       0.828  -1.171  -3.087  0.00  0.00     0.018 C 
ENDBRANCH   1   8
TORSDOF 1
ENDMDL
