MODEL 1
REMARK minimizedAffinity 1.60172594
REMARK minimizedRMSD -1
REMARK  0 active torsions:
REMARK  status: ('A' for Active; 'I' for Inactive)
ROOT
ATOM      1  C   UNL d   1       2.588   2.021   1.608  0.00  0.00     0.124 A 
ATOM      2  C1  UNL d   1       2.028   3.025   0.830  0.00  0.00     0.062 A 
ATOM      3  C2  UNL d   1       1.020   2.725  -0.081  0.00  0.00     0.162 A 
ATOM      4  C3  UNL d   1       0.565   1.414  -0.220  0.00  0.00    -0.034 A 
ATOM      5  C4  UNL d   1       1.133   0.409   0.564  0.00  0.00     0.162 A 
ATOM      6  C5  UNL d   1       2.140   0.714   1.474  0.00  0.00     0.062 A 
ATOM      7  F   UNL d   1       2.680  -0.257   2.224  0.00  0.00    -0.097 F 
ATOM      8  F1  UNL d   1       0.719  -0.862   0.456  0.00  0.00    -0.096 F 
ATOM      9  I   UNL d   1      -0.942   0.961  -1.583  0.00  0.00    -0.060 I 
ATOM     10  F2  UNL d   1       0.498   3.716  -0.820  0.00  0.00    -0.096 F 
ATOM     11  F3  UNL d   1       2.460   4.288   0.957  0.00  0.00    -0.097 F 
ATOM     12  F4  UNL d   1       3.558   2.312   2.484  0.00  0.00    -0.092 F 
ENDROOT
TORSDOF 0
ENDMDL
