MODEL 1
REMARK minimizedAffinity -2.85952711
REMARK minimizedRMSD -1
REMARK  0 active torsions:
REMARK  status: ('A' for Active; 'I' for Inactive)
ROOT
ATOM      1  C   UNL d   1      -2.312  -1.921   0.252  0.00  0.00     0.124 A 
ATOM      2  C1  UNL d   1      -2.228  -0.694  -0.391  0.00  0.00     0.062 A 
ATOM      3  C2  UNL d   1      -1.037   0.026  -0.373  0.00  0.00     0.162 A 
ATOM      4  C3  UNL d   1       0.081  -0.480   0.289  0.00  0.00    -0.034 A 
ATOM      5  C4  UNL d   1      -0.011  -1.715   0.934  0.00  0.00     0.162 A 
ATOM      6  C5  UNL d   1      -1.204  -2.431   0.914  0.00  0.00     0.062 A 
ATOM      7  F   UNL d   1      -1.283  -3.616   1.535  0.00  0.00    -0.097 F 
ATOM      8  F1  UNL d   1       1.045  -2.231   1.581  0.00  0.00    -0.096 F 
ATOM      9  I   UNL d   1       1.864   0.593   0.318  0.00  0.00    -0.060 I 
ATOM     10  F2  UNL d   1      -0.985   1.209  -1.003  0.00  0.00    -0.096 F 
ATOM     11  F3  UNL d   1      -3.298  -0.199  -1.030  0.00  0.00    -0.097 F 
ATOM     12  F4  UNL d   1      -3.460  -2.611   0.234  0.00  0.00    -0.092 F 
ENDROOT
TORSDOF 0
ENDMDL
