MODEL 1
REMARK minimizedAffinity -4.71468163
REMARK minimizedRMSD -1
REMARK  0 active torsions:
REMARK  status: ('A' for Active; 'I' for Inactive)
ROOT
ATOM      1  C   UNL d   1      -1.854  -1.784   0.011  0.00  0.00     0.124 A 
ATOM      2  C1  UNL d   1      -1.765  -0.629  -0.754  0.00  0.00     0.062 A 
ATOM      3  C2  UNL d   1      -0.595   0.124  -0.751  0.00  0.00     0.162 A 
ATOM      4  C3  UNL d   1       0.497  -0.276   0.020  0.00  0.00    -0.034 A 
ATOM      5  C4  UNL d   1       0.400  -1.438   0.787  0.00  0.00     0.162 A 
ATOM      6  C5  UNL d   1      -0.772  -2.187   0.780  0.00  0.00     0.062 A 
ATOM      7  F   UNL d   1      -0.856  -3.303   1.520  0.00  0.00    -0.097 F 
ATOM      8  F1  UNL d   1       1.431  -1.851   1.539  0.00  0.00    -0.096 F 
ATOM      9  I   UNL d   1       2.249   0.848   0.028  0.00  0.00    -0.060 I 
ATOM     10  F2  UNL d   1      -0.536   1.236  -1.499  0.00  0.00    -0.096 F 
ATOM     11  F3  UNL d   1      -2.809  -0.237  -1.498  0.00  0.00    -0.097 F 
ATOM     12  F4  UNL d   1      -2.982  -2.506   0.006  0.00  0.00    -0.092 F 
ENDROOT
TORSDOF 0
ENDMDL
