MODEL 1
REMARK minimizedAffinity -1.65904391
REMARK minimizedRMSD -1
REMARK  0 active torsions:
REMARK  status: ('A' for Active; 'I' for Inactive)
ROOT
ATOM      1  C   UNL d   1      -1.680  -1.545  -0.202  0.00  0.00     0.124 A 
ATOM      2  C1  UNL d   1      -1.653  -0.328  -0.870  0.00  0.00     0.062 A 
ATOM      3  C2  UNL d   1      -0.574   0.536  -0.706  0.00  0.00     0.162 A 
ATOM      4  C3  UNL d   1       0.487   0.187   0.128  0.00  0.00    -0.034 A 
ATOM      5  C4  UNL d   1       0.452  -1.038   0.798  0.00  0.00     0.162 A 
ATOM      6  C5  UNL d   1      -0.628  -1.898   0.631  0.00  0.00     0.062 A 
ATOM      7  F   UNL d   1      -0.653  -3.073   1.278  0.00  0.00    -0.097 F 
ATOM      8  F1  UNL d   1       1.456  -1.405   1.608  0.00  0.00    -0.096 F 
ATOM      9  I   UNL d   1       2.102   1.476   0.375  0.00  0.00    -0.060 I 
ATOM     10  F2  UNL d   1      -0.575   1.705  -1.364  0.00  0.00    -0.096 F 
ATOM     11  F3  UNL d   1      -2.669   0.016  -1.674  0.00  0.00    -0.097 F 
ATOM     12  F4  UNL d   1      -2.720  -2.374  -0.360  0.00  0.00    -0.092 F 
ENDROOT
TORSDOF 0
ENDMDL
