MODEL 1
REMARK minimizedAffinity 2.2353797
REMARK minimizedRMSD -1
REMARK  0 active torsions:
REMARK  status: ('A' for Active; 'I' for Inactive)
ROOT
ATOM      1  C   UNL d   1       0.782   0.309  -0.568  0.00  0.00     0.124 A 
ATOM      2  C1  UNL d   1      -0.193   0.124  -1.539  0.00  0.00     0.062 A 
ATOM      3  C2  UNL d   1      -1.221  -0.791  -1.334  0.00  0.00     0.162 A 
ATOM      4  C3  UNL d   1      -1.281  -1.529  -0.152  0.00  0.00    -0.034 A 
ATOM      5  C4  UNL d   1      -0.297  -1.338   0.820  0.00  0.00     0.162 A 
ATOM      6  C5  UNL d   1       0.729  -0.422   0.610  0.00  0.00     0.062 A 
ATOM      7  F   UNL d   1       1.669  -0.245   1.550  0.00  0.00    -0.097 F 
ATOM      8  F1  UNL d   1      -0.324  -2.031   1.969  0.00  0.00    -0.096 F 
ATOM      9  I   UNL d   1      -2.817  -2.899   0.159  0.00  0.00    -0.060 I 
ATOM     10  F2  UNL d   1      -2.149  -0.949  -2.290  0.00  0.00    -0.096 F 
ATOM     11  F3  UNL d   1      -0.143   0.828  -2.679  0.00  0.00    -0.097 F 
ATOM     12  F4  UNL d   1       1.771   1.189  -0.769  0.00  0.00    -0.092 F 
ENDROOT
TORSDOF 0
ENDMDL
