MODEL 1
REMARK minimizedAffinity 4.13514614
REMARK minimizedRMSD -1
REMARK  0 active torsions:
REMARK  status: ('A' for Active; 'I' for Inactive)
ROOT
ATOM      1  C   UNL d   1      -1.483  -1.728  -0.028  0.00  0.00     0.124 A 
ATOM      2  C1  UNL d   1      -1.504  -0.695  -0.955  0.00  0.00     0.062 A 
ATOM      3  C2  UNL d   1      -0.514   0.284  -0.935  0.00  0.00     0.162 A 
ATOM      4  C3  UNL d   1       0.506   0.234   0.016  0.00  0.00    -0.034 A 
ATOM      5  C4  UNL d   1       0.519  -0.807   0.946  0.00  0.00     0.162 A 
ATOM      6  C5  UNL d   1      -0.472  -1.783   0.921  0.00  0.00     0.062 A 
ATOM      7  F   UNL d   1      -0.451  -2.780   1.818  0.00  0.00    -0.097 F 
ATOM      8  F1  UNL d   1       1.485  -0.886   1.873  0.00  0.00    -0.096 F 
ATOM      9  I   UNL d   1       1.987   1.695   0.049  0.00  0.00    -0.060 I 
ATOM     10  F2  UNL d   1      -0.559   1.270  -1.843  0.00  0.00    -0.096 F 
ATOM     11  F3  UNL d   1      -2.480  -0.639  -1.872  0.00  0.00    -0.097 F 
ATOM     12  F4  UNL d   1      -2.437  -2.667  -0.049  0.00  0.00    -0.092 F 
ENDROOT
TORSDOF 0
ENDMDL
