MODEL 1
REMARK minimizedAffinity 2.71230865
REMARK minimizedRMSD -1
REMARK  0 active torsions:
REMARK  status: ('A' for Active; 'I' for Inactive)
ROOT
ATOM      1  C   UNL d   1       2.523   3.076   1.198  0.00  0.00     0.124 A 
ATOM      2  C1  UNL d   1       1.386   2.860   1.964  0.00  0.00     0.062 A 
ATOM      3  C2  UNL d   1       0.486   1.858   1.616  0.00  0.00     0.162 A 
ATOM      4  C3  UNL d   1       0.720   1.061   0.495  0.00  0.00    -0.034 A 
ATOM      5  C4  UNL d   1       1.865   1.284  -0.272  0.00  0.00     0.162 A 
ATOM      6  C5  UNL d   1       2.761   2.288   0.081  0.00  0.00     0.062 A 
ATOM      7  F   UNL d   1       3.859   2.494  -0.661  0.00  0.00    -0.097 F 
ATOM      8  F1  UNL d   1       2.120   0.537  -1.356  0.00  0.00    -0.096 F 
ATOM      9  I   UNL d   1      -0.623  -0.440  -0.030  0.00  0.00    -0.060 I 
ATOM     10  F2  UNL d   1      -0.604   1.672   2.375  0.00  0.00    -0.096 F 
ATOM     11  F3  UNL d   1       1.153   3.621   3.044  0.00  0.00    -0.097 F 
ATOM     12  F4  UNL d   1       3.386   4.042   1.535  0.00  0.00    -0.092 F 
ENDROOT
TORSDOF 0
ENDMDL
