MODEL 1
REMARK minimizedAffinity -1.64205205
REMARK minimizedRMSD -1
REMARK  0 active torsions:
REMARK  status: ('A' for Active; 'I' for Inactive)
ROOT
ATOM      1  C   UNL d   1       2.069   2.596   1.244  0.00  0.00     0.124 A 
ATOM      2  C1  UNL d   1       0.748   3.022   1.282  0.00  0.00     0.062 A 
ATOM      3  C2  UNL d   1      -0.245   2.279   0.652  0.00  0.00     0.162 A 
ATOM      4  C3  UNL d   1       0.078   1.101  -0.022  0.00  0.00    -0.034 A 
ATOM      5  C4  UNL d   1       1.408   0.680  -0.057  0.00  0.00     0.162 A 
ATOM      6  C5  UNL d   1       2.397   1.426   0.575  0.00  0.00     0.062 A 
ATOM      7  F   UNL d   1       3.673   1.013   0.537  0.00  0.00    -0.097 F 
ATOM      8  F1  UNL d   1       1.753  -0.448  -0.696  0.00  0.00    -0.096 F 
ATOM      9  I   UNL d   1      -1.405  -0.013  -0.967  0.00  0.00    -0.060 I 
ATOM     10  F2  UNL d   1      -1.513   2.714   0.705  0.00  0.00    -0.096 F 
ATOM     11  F3  UNL d   1       0.429   4.153   1.928  0.00  0.00    -0.097 F 
ATOM     12  F4  UNL d   1       3.023   3.314   1.851  0.00  0.00    -0.092 F 
ENDROOT
TORSDOF 0
ENDMDL
