MODEL 1
REMARK minimizedAffinity 2.54794812
REMARK minimizedRMSD -1
REMARK  0 active torsions:
REMARK  status: ('A' for Active; 'I' for Inactive)
ROOT
ATOM      1  C   UNL d   1      -1.654  -1.000  -0.532  0.00  0.00     0.124 A 
ATOM      2  C1  UNL d   1      -0.632  -1.295   0.360  0.00  0.00     0.062 A 
ATOM      3  C2  UNL d   1       0.462  -0.443   0.478  0.00  0.00     0.162 A 
ATOM      4  C3  UNL d   1       0.541   0.713  -0.299  0.00  0.00    -0.034 A 
ATOM      5  C4  UNL d   1      -0.489   1.002  -1.195  0.00  0.00     0.162 A 
ATOM      6  C5  UNL d   1      -1.581   0.148  -1.309  0.00  0.00     0.062 A 
ATOM      7  F   UNL d   1      -2.567   0.434  -2.172  0.00  0.00    -0.097 F 
ATOM      8  F1  UNL d   1      -0.446   2.105  -1.958  0.00  0.00    -0.096 F 
ATOM      9  I   UNL d   1       2.176   1.989  -0.127  0.00  0.00    -0.060 I 
ATOM     10  F2  UNL d   1       1.435  -0.753   1.348  0.00  0.00    -0.096 F 
ATOM     11  F3  UNL d   1      -0.699  -2.403   1.111  0.00  0.00    -0.097 F 
ATOM     12  F4  UNL d   1      -2.705  -1.822  -0.644  0.00  0.00    -0.092 F 
ENDROOT
TORSDOF 0
ENDMDL
