MODEL 1
REMARK minimizedAffinity -0.611080229
REMARK minimizedRMSD -1
REMARK  0 active torsions:
REMARK  status: ('A' for Active; 'I' for Inactive)
ROOT
ATOM      1  C   UNL d   1       2.369   1.968   1.018  0.00  0.00     0.124 A 
ATOM      2  C1  UNL d   1       2.428   1.460  -0.273  0.00  0.00     0.062 A 
ATOM      3  C2  UNL d   1       1.364   0.722  -0.783  0.00  0.00     0.162 A 
ATOM      4  C3  UNL d   1       0.231   0.488  -0.004  0.00  0.00    -0.034 A 
ATOM      5  C4  UNL d   1       0.180   1.002   1.293  0.00  0.00     0.162 A 
ATOM      6  C5  UNL d   1       1.246   1.738   1.799  0.00  0.00     0.062 A 
ATOM      7  F   UNL d   1       1.187   2.228   3.046  0.00  0.00    -0.097 F 
ATOM      8  F1  UNL d   1      -0.894   0.796   2.070  0.00  0.00    -0.096 F 
ATOM      9  I   UNL d   1      -1.362  -0.615  -0.764  0.00  0.00    -0.060 I 
ATOM     10  F2  UNL d   1       1.448   0.243  -2.033  0.00  0.00    -0.096 F 
ATOM     11  F3  UNL d   1       3.513   1.679  -1.030  0.00  0.00    -0.097 F 
ATOM     12  F4  UNL d   1       3.395   2.677   1.507  0.00  0.00    -0.092 F 
ENDROOT
TORSDOF 0
ENDMDL
