MODEL 1
REMARK minimizedAffinity -0.933964729
REMARK minimizedRMSD -1
REMARK  0 active torsions:
REMARK  status: ('A' for Active; 'I' for Inactive)
ROOT
ATOM      1  C   UNL d   1      -1.973  -1.986   0.214  0.00  0.00     0.124 A 
ATOM      2  C1  UNL d   1      -1.853  -0.843  -0.565  0.00  0.00     0.062 A 
ATOM      3  C2  UNL d   1      -0.752  -0.005  -0.412  0.00  0.00     0.162 A 
ATOM      4  C3  UNL d   1       0.238  -0.307   0.522  0.00  0.00    -0.034 A 
ATOM      5  C4  UNL d   1       0.110  -1.457   1.303  0.00  0.00     0.162 A 
ATOM      6  C5  UNL d   1      -0.992  -2.292   1.146  0.00  0.00     0.062 A 
ATOM      7  F   UNL d   1      -1.106  -3.396   1.900  0.00  0.00    -0.097 F 
ATOM      8  F1  UNL d   1       1.044  -1.777   2.211  0.00  0.00    -0.096 F 
ATOM      9  I   UNL d   1       1.885   0.945   0.754  0.00  0.00    -0.060 I 
ATOM     10  F2  UNL d   1      -0.662   1.093  -1.178  0.00  0.00    -0.096 F 
ATOM     11  F3  UNL d   1      -2.800  -0.545  -1.466  0.00  0.00    -0.097 F 
ATOM     12  F4  UNL d   1      -3.033  -2.791   0.066  0.00  0.00    -0.092 F 
ENDROOT
TORSDOF 0
ENDMDL
