MODEL 1
REMARK minimizedAffinity 1.89885545
REMARK minimizedRMSD -1
REMARK  0 active torsions:
REMARK  status: ('A' for Active; 'I' for Inactive)
ROOT
ATOM      1  C   UNL d   1       3.084   1.662   1.305  0.00  0.00     0.124 A 
ATOM      2  C1  UNL d   1       2.581   0.369   1.328  0.00  0.00     0.062 A 
ATOM      3  C2  UNL d   1       1.482   0.031   0.542  0.00  0.00     0.162 A 
ATOM      4  C3  UNL d   1       0.880   0.989  -0.274  0.00  0.00    -0.034 A 
ATOM      5  C4  UNL d   1       1.391   2.288  -0.290  0.00  0.00     0.162 A 
ATOM      6  C5  UNL d   1       2.489   2.620   0.496  0.00  0.00     0.062 A 
ATOM      7  F   UNL d   1       2.974   3.870   0.473  0.00  0.00    -0.097 F 
ATOM      8  F1  UNL d   1       0.836   3.233  -1.063  0.00  0.00    -0.096 F 
ATOM      9  I   UNL d   1      -0.763   0.488  -1.450  0.00  0.00    -0.060 I 
ATOM     10  F2  UNL d   1       1.017  -1.226   0.584  0.00  0.00    -0.096 F 
ATOM     11  F3  UNL d   1       3.153  -0.559   2.109  0.00  0.00    -0.097 F 
ATOM     12  F4  UNL d   1       4.141   1.984   2.063  0.00  0.00    -0.092 F 
ENDROOT
TORSDOF 0
ENDMDL
