MODEL 1
REMARK minimizedAffinity -1.36175907
REMARK minimizedRMSD -1
REMARK  0 active torsions:
REMARK  status: ('A' for Active; 'I' for Inactive)
ROOT
ATOM      1  C   UNL d   1      -1.991  -1.870   0.139  0.00  0.00     0.124 A 
ATOM      2  C1  UNL d   1      -0.886  -2.223   0.901  0.00  0.00     0.062 A 
ATOM      3  C2  UNL d   1       0.197  -1.355   1.005  0.00  0.00     0.162 A 
ATOM      4  C3  UNL d   1       0.180  -0.125   0.347  0.00  0.00    -0.034 A 
ATOM      5  C4  UNL d   1      -0.935   0.222  -0.418  0.00  0.00     0.162 A 
ATOM      6  C5  UNL d   1      -2.015  -0.649  -0.520  0.00  0.00     0.062 A 
ATOM      7  F   UNL d   1      -3.082  -0.307  -1.256  0.00  0.00    -0.097 F 
ATOM      8  F1  UNL d   1      -0.984   1.396  -1.064  0.00  0.00    -0.096 F 
ATOM      9  I   UNL d   1       1.798   1.175   0.501  0.00  0.00    -0.060 I 
ATOM     10  F2  UNL d   1       1.252  -1.721   1.749  0.00  0.00    -0.096 F 
ATOM     11  F3  UNL d   1      -0.861  -3.402   1.537  0.00  0.00    -0.097 F 
ATOM     12  F4  UNL d   1      -3.032  -2.708   0.039  0.00  0.00    -0.092 F 
ENDROOT
TORSDOF 0
ENDMDL
