MODEL 1
REMARK minimizedAffinity -2.650846
REMARK minimizedRMSD -1
REMARK  3 active torsions:
REMARK  status: ('A' for Active; 'I' for Inactive)
REMARK    1  A    between atoms: C3'_2  and  C2'_3 
REMARK    2  A    between atoms: C2'_3  and  C1'_4 
REMARK    3  A    between atoms: C1'_4  and  C1_5 
ROOT
ATOM      1  C1  N4B d   1      -0.543   0.101  -0.740  0.00  0.00    -0.075 A 
ATOM      2  C2  N4B d   1      -1.582   0.307   0.194  0.00  0.00     0.002 A 
ATOM      3  C3  N4B d   1      -1.387  -0.002   1.518  0.00  0.00     0.002 A 
ATOM      4  C4  N4B d   1      -0.172  -0.533   1.926  0.00  0.00    -0.004 A 
ATOM      5  C5  N4B d   1       0.835  -0.704   1.023  0.00  0.00     0.002 A 
ATOM      6  C6  N4B d   1       0.654  -0.395  -0.310  0.00  0.00     0.002 A 
ENDROOT
BRANCH   1   7
ATOM      7  C1' N4B d   1      -0.739   0.343  -2.211  0.00  0.00     0.057 C 
BRANCH   7   8
ATOM      8  C2' N4B d   1      -1.745   1.473  -2.404  0.00  0.00     0.009 C 
BRANCH   8   9
ATOM      9  C3' N4B d   1      -1.097   2.840  -2.273  0.00  0.00     0.004 C 
ATOM     10  C4' N4B d   1       0.273   2.894  -2.882  0.00  0.00     0.003 C 
ENDBRANCH   8   9
ENDBRANCH   7   8
ENDBRANCH   1   7
TORSDOF 3
ENDMDL
