MODEL 1
REMARK minimizedAffinity -5.63349152
REMARK minimizedRMSD -1
REMARK  3 active torsions:
REMARK  status: ('A' for Active; 'I' for Inactive)
REMARK    1  A    between atoms: C3'_2  and  C2'_3 
REMARK    2  A    between atoms: C2'_3  and  C1'_4 
REMARK    3  A    between atoms: C1'_4  and  C1_5 
ROOT
ATOM      1  C1  N4B d   1       0.276  -0.185   0.428  0.00  0.00    -0.075 A 
ATOM      2  C2  N4B d   1      -0.639  -0.526   1.448  0.00  0.00     0.002 A 
ATOM      3  C3  N4B d   1      -0.178  -0.901   2.686  0.00  0.00     0.002 A 
ATOM      4  C4  N4B d   1       1.188  -0.960   2.921  0.00  0.00    -0.004 A 
ATOM      5  C5  N4B d   1       2.064  -0.605   1.938  0.00  0.00     0.002 A 
ATOM      6  C6  N4B d   1       1.615  -0.223   0.690  0.00  0.00     0.002 A 
ENDROOT
BRANCH   1   7
ATOM      7  C1' N4B d   1      -0.177   0.148  -0.967  0.00  0.00     0.057 C 
BRANCH   7   8
ATOM      8  C2' N4B d   1      -0.886   1.499  -0.954  0.00  0.00     0.009 C 
BRANCH   8   9
ATOM      9  C3' N4B d   1      -0.219   2.499  -1.882  0.00  0.00     0.004 C 
ATOM     10  C4' N4B d   1      -1.076   3.699  -2.155  0.00  0.00     0.003 C 
ENDBRANCH   8   9
ENDBRANCH   7   8
ENDBRANCH   1   7
TORSDOF 3
ENDMDL
