MODEL 1
REMARK minimizedAffinity -5.8811245
REMARK minimizedRMSD -1
REMARK  3 active torsions:
REMARK  status: ('A' for Active; 'I' for Inactive)
REMARK    1  A    between atoms: C3'_2  and  C2'_3 
REMARK    2  A    between atoms: C2'_3  and  C1'_4 
REMARK    3  A    between atoms: C1'_4  and  C1_5 
ROOT
ATOM      1  C1  N4B d   1       0.236   0.208   0.497  0.00  0.00    -0.075 A 
ATOM      2  C2  N4B d   1      -0.726  -0.334   1.379  0.00  0.00     0.002 A 
ATOM      3  C3  N4B d   1      -0.341  -0.800   2.612  0.00  0.00     0.002 A 
ATOM      4  C4  N4B d   1       0.997  -0.753   2.976  0.00  0.00    -0.004 A 
ATOM      5  C5  N4B d   1       1.915  -0.205   2.129  0.00  0.00     0.002 A 
ATOM      6  C6  N4B d   1       1.542   0.271   0.888  0.00  0.00     0.002 A 
ENDROOT
BRANCH   1   7
ATOM      7  C1' N4B d   1      -0.124   0.651  -0.895  0.00  0.00     0.057 C 
BRANCH   7   8
ATOM      8  C2' N4B d   1      -0.103   2.175  -0.956  0.00  0.00     0.009 C 
BRANCH   8   9
ATOM      9  C3' N4B d   1       0.244   2.684  -2.344  0.00  0.00     0.004 C 
ATOM     10  C4' N4B d   1      -0.767   3.655  -2.877  0.00  0.00     0.003 C 
ENDBRANCH   8   9
ENDBRANCH   7   8
ENDBRANCH   1   7
TORSDOF 3
ENDMDL
