MODEL 1
REMARK minimizedAffinity -5.17523575
REMARK minimizedRMSD -1
REMARK  3 active torsions:
REMARK  status: ('A' for Active; 'I' for Inactive)
REMARK    1  A    between atoms: C3'_2  and  C2'_3 
REMARK    2  A    between atoms: C2'_3  and  C1'_4 
REMARK    3  A    between atoms: C1'_4  and  C1_5 
ROOT
ATOM      1  C1  N4B d   1      -0.041   0.001   0.234  0.00  0.00    -0.075 A 
ATOM      2  C2  N4B d   1      -0.900  -0.035   1.354  0.00  0.00     0.002 A 
ATOM      3  C3  N4B d   1      -0.410  -0.403   2.583  0.00  0.00     0.002 A 
ATOM      4  C4  N4B d   1       0.925  -0.754   2.712  0.00  0.00    -0.004 A 
ATOM      5  C5  N4B d   1       1.754  -0.691   1.631  0.00  0.00     0.002 A 
ATOM      6  C6  N4B d   1       1.277  -0.320   0.390  0.00  0.00     0.002 A 
ENDROOT
BRANCH   1   7
ATOM      7  C1' N4B d   1      -0.549   0.314  -1.147  0.00  0.00     0.057 C 
BRANCH   7   8
ATOM      8  C2' N4B d   1       0.031   1.649  -1.604  0.00  0.00     0.009 C 
BRANCH   8   9
ATOM      9  C3' N4B d   1      -0.869   2.344  -2.612  0.00  0.00     0.004 C 
ATOM     10  C4' N4B d   1      -1.231   3.740  -2.201  0.00  0.00     0.003 C 
ENDBRANCH   8   9
ENDBRANCH   7   8
ENDBRANCH   1   7
TORSDOF 3
ENDMDL
