MODEL 1
REMARK minimizedAffinity -1.88974929
REMARK minimizedRMSD -1
REMARK  3 active torsions:
REMARK  status: ('A' for Active; 'I' for Inactive)
REMARK    1  A    between atoms: C3'_2  and  C2'_3 
REMARK    2  A    between atoms: C2'_3  and  C1'_4 
REMARK    3  A    between atoms: C1'_4  and  C1_5 
ROOT
ATOM      1  C1  N4B d   1      -0.392   0.037   0.352  0.00  0.00    -0.075 A 
ATOM      2  C2  N4B d   1      -0.713  -0.255   1.696  0.00  0.00     0.002 A 
ATOM      3  C3  N4B d   1       0.256  -0.727   2.546  0.00  0.00     0.002 A 
ATOM      4  C4  N4B d   1       1.543  -0.932   2.073  0.00  0.00    -0.004 A 
ATOM      5  C5  N4B d   1       1.851  -0.623   0.780  0.00  0.00     0.002 A 
ATOM      6  C6  N4B d   1       0.888  -0.144  -0.085  0.00  0.00     0.002 A 
ENDROOT
BRANCH   1   7
ATOM      7  C1' N4B d   1      -1.438   0.474  -0.637  0.00  0.00     0.057 C 
BRANCH   7   8
ATOM      8  C2' N4B d   1      -0.805   1.426  -1.648  0.00  0.00     0.009 C 
BRANCH   8   9
ATOM      9  C3' N4B d   1      -1.839   2.315  -2.317  0.00  0.00     0.004 C 
ATOM     10  C4' N4B d   1      -1.381   3.736  -2.455  0.00  0.00     0.003 C 
ENDBRANCH   8   9
ENDBRANCH   7   8
ENDBRANCH   1   7
TORSDOF 3
ENDMDL
