MODEL 1
REMARK minimizedAffinity 5.15372372
REMARK minimizedRMSD -1
REMARK  0 active torsions:
REMARK  status: ('A' for Active; 'I' for Inactive)
ROOT
ATOM      1  N1  IND d   1      -0.760   1.151   3.294  0.00  0.00    -0.196 N 
ATOM      2  C2  IND d   1       0.250   0.229   3.292  0.00  0.00     0.054 A 
ATOM      3  C3  IND d   1       1.072   0.434   2.239  0.00  0.00    -0.031 A 
ATOM      4  C4  IND d   1       1.009   2.286   0.452  0.00  0.00     0.051 A 
ATOM      5  C5  IND d   1       0.253   3.337   0.016  0.00  0.00    -0.031 A 
ATOM      6  C6  IND d   1      -0.902   3.723   0.666  0.00  0.00     0.015 A 
ATOM      7  C7  IND d   1      -1.339   3.076   1.787  0.00  0.00    -0.016 A 
ATOM      8  C8  IND d   1      -0.577   2.003   2.228  0.00  0.00    -0.047 A 
ATOM      9  C9  IND d   1       0.572   1.580   1.548  0.00  0.00    -0.096 A 
ATOM     10  HN1 IND d   1      -1.401   1.191   3.865  0.00  0.00     0.298 HD
ENDROOT
TORSDOF 0
ENDMDL
