MODEL 1
REMARK minimizedAffinity 5.37066555
REMARK minimizedRMSD -1
REMARK  0 active torsions:
REMARK  status: ('A' for Active; 'I' for Inactive)
ROOT
ATOM      1  N1  IND d   1      -0.841  -3.366  -1.642  0.00  0.00    -0.196 N 
ATOM      2  C2  IND d   1      -0.856  -4.607  -1.070  0.00  0.00     0.054 A 
ATOM      3  C3  IND d   1       0.269  -4.804  -0.347  0.00  0.00    -0.031 A 
ATOM      4  C4  IND d   1       2.220  -3.190   0.118  0.00  0.00     0.051 A 
ATOM      5  C5  IND d   1       2.700  -1.955  -0.219  0.00  0.00    -0.031 A 
ATOM      6  C6  IND d   1       2.008  -1.109  -1.062  0.00  0.00     0.015 A 
ATOM      7  C7  IND d   1       0.800  -1.464  -1.593  0.00  0.00    -0.016 A 
ATOM      8  C8  IND d   1       0.314  -2.720  -1.259  0.00  0.00    -0.047 A 
ATOM      9  C9  IND d   1       1.031  -3.599  -0.438  0.00  0.00    -0.096 A 
ATOM     10  HN1 IND d   1      -1.451  -3.043  -2.156  0.00  0.00     0.298 HD
ENDROOT
TORSDOF 0
ENDMDL
