MODEL 1
REMARK minimizedAffinity 11.2390223
REMARK minimizedRMSD -1
REMARK  0 active torsions:
REMARK  status: ('A' for Active; 'I' for Inactive)
ROOT
ATOM      1  N1  IND d   1      -1.669   1.863   2.494  0.00  0.00    -0.196 N 
ATOM      2  C2  IND d   1      -2.556   2.482   1.658  0.00  0.00     0.054 A 
ATOM      3  C3  IND d   1      -1.898   3.141   0.678  0.00  0.00    -0.031 A 
ATOM      4  C4  IND d   1       0.627   3.255   0.194  0.00  0.00     0.051 A 
ATOM      5  C5  IND d   1       1.839   2.879   0.701  0.00  0.00    -0.031 A 
ATOM      6  C6  IND d   1       1.946   2.128   1.854  0.00  0.00     0.015 A 
ATOM      7  C7  IND d   1       0.839   1.714   2.539  0.00  0.00    -0.016 A 
ATOM      8  C8  IND d   1      -0.393   2.099   2.030  0.00  0.00    -0.047 A 
ATOM      9  C9  IND d   1      -0.506   2.897   0.884  0.00  0.00    -0.096 A 
ATOM     10  HN1 IND d   1      -1.873   1.404   3.191  0.00  0.00     0.298 HD
ENDROOT
TORSDOF 0
ENDMDL
