MODEL 1
REMARK minimizedAffinity 4.20494175
REMARK minimizedRMSD -1
REMARK  0 active torsions:
REMARK  status: ('A' for Active; 'I' for Inactive)
ROOT
ATOM      1  N1  IND d   1       0.010   2.209  -0.300  0.00  0.00    -0.196 N 
ATOM      2  C2  IND d   1       1.302   1.762  -0.278  0.00  0.00     0.054 A 
ATOM      3  C3  IND d   1       1.602   1.250   0.936  0.00  0.00    -0.031 A 
ATOM      4  C4  IND d   1       0.096   0.951   3.003  0.00  0.00     0.051 A 
ATOM      5  C5  IND d   1      -1.153   1.240   3.477  0.00  0.00    -0.031 A 
ATOM      6  C6  IND d   1      -2.098   1.878   2.699  0.00  0.00     0.015 A 
ATOM      7  C7  IND d   1      -1.832   2.241   1.409  0.00  0.00    -0.016 A 
ATOM      8  C8  IND d   1      -0.562   1.955   0.927  0.00  0.00    -0.047 A 
ATOM      9  C9  IND d   1       0.415   1.347   1.725  0.00  0.00    -0.096 A 
ATOM     10  HN1 IND d   1      -0.380   2.586  -0.968  0.00  0.00     0.298 HD
ENDROOT
TORSDOF 0
ENDMDL
