MODEL 1
REMARK minimizedAffinity 5.53265905
REMARK minimizedRMSD -1
REMARK  0 active torsions:
REMARK  status: ('A' for Active; 'I' for Inactive)
ROOT
ATOM      1  N1  IND d   1      -3.755   1.710   2.126  0.00  0.00    -0.196 N 
ATOM      2  C2  IND d   1      -4.451   1.762   0.950  0.00  0.00     0.054 A 
ATOM      3  C3  IND d   1      -3.641   2.151  -0.059  0.00  0.00    -0.031 A 
ATOM      4  C4  IND d   1      -1.117   2.656  -0.029  0.00  0.00     0.051 A 
ATOM      5  C5  IND d   1      -0.053   2.779   0.820  0.00  0.00    -0.031 A 
ATOM      6  C6  IND d   1      -0.171   2.544   2.175  0.00  0.00     0.015 A 
ATOM      7  C7  IND d   1      -1.359   2.165   2.732  0.00  0.00    -0.016 A 
ATOM      8  C8  IND d   1      -2.443   2.046   1.874  0.00  0.00    -0.047 A 
ATOM      9  C9  IND d   1      -2.340   2.325   0.504  0.00  0.00    -0.096 A 
ATOM     10  HN1 IND d   1      -4.082   1.502   2.893  0.00  0.00     0.298 HD
ENDROOT
TORSDOF 0
ENDMDL
