MODEL 1
REMARK minimizedAffinity 5.1767087
REMARK minimizedRMSD -1
REMARK  0 active torsions:
REMARK  status: ('A' for Active; 'I' for Inactive)
ROOT
ATOM      1  N1  IND d   1      -3.630   2.957   2.119  0.00  0.00    -0.196 N 
ATOM      2  C2  IND d   1      -4.403   2.538   1.072  0.00  0.00     0.054 A 
ATOM      3  C3  IND d   1      -3.623   2.117   0.050  0.00  0.00    -0.031 A 
ATOM      4  C4  IND d   1      -1.059   1.931  -0.081  0.00  0.00     0.051 A 
ATOM      5  C5  IND d   1       0.080   2.228   0.615  0.00  0.00    -0.031 A 
ATOM      6  C6  IND d   1       0.039   2.791   1.874  0.00  0.00     0.015 A 
ATOM      7  C7  IND d   1      -1.147   3.070   2.491  0.00  0.00    -0.016 A 
ATOM      8  C8  IND d   1      -2.305   2.777   1.785  0.00  0.00    -0.047 A 
ATOM      9  C9  IND d   1      -2.270   2.244   0.490  0.00  0.00    -0.096 A 
ATOM     10  HN1 IND d   1      -3.922   3.278   2.861  0.00  0.00     0.298 HD
ENDROOT
TORSDOF 0
ENDMDL
