MODEL 1
REMARK minimizedAffinity 5.61501741
REMARK minimizedRMSD -1
REMARK  0 active torsions:
REMARK  status: ('A' for Active; 'I' for Inactive)
ROOT
ATOM      1  N1  IND d   1       1.370   0.900  -1.031  0.00  0.00    -0.196 N 
ATOM      2  C2  IND d   1       2.343  -0.044  -0.853  0.00  0.00     0.054 A 
ATOM      3  C3  IND d   1       2.392  -0.430   0.442  0.00  0.00    -0.031 A 
ATOM      4  C4  IND d   1       0.903   0.280   2.419  0.00  0.00     0.051 A 
ATOM      5  C5  IND d   1      -0.099   1.147   2.756  0.00  0.00    -0.031 A 
ATOM      6  C6  IND d   1      -0.676   1.990   1.828  0.00  0.00     0.015 A 
ATOM      7  C7  IND d   1      -0.278   1.991   0.521  0.00  0.00    -0.016 A 
ATOM      8  C8  IND d   1       0.744   1.117   0.177  0.00  0.00    -0.047 A 
ATOM      9  C9  IND d   1       1.362   0.289   1.123  0.00  0.00    -0.096 A 
ATOM     10  HN1 IND d   1       1.181   1.292  -1.772  0.00  0.00     0.298 HD
ENDROOT
TORSDOF 0
ENDMDL
