MODEL 1
REMARK minimizedAffinity -1.0549016
REMARK minimizedRMSD -1
REMARK  0 active torsions:
REMARK  status: ('A' for Active; 'I' for Inactive)
ROOT
ATOM      1  N1  IND d   1      -0.158   0.812  -1.260  0.00  0.00    -0.196 N 
ATOM      2  C2  IND d   1       0.150   1.944  -0.557  0.00  0.00     0.054 A 
ATOM      3  C3  IND d   1       0.104   1.699   0.772  0.00  0.00    -0.031 A 
ATOM      4  C4  IND d   1      -0.355  -0.509   2.013  0.00  0.00     0.051 A 
ATOM      5  C5  IND d   1      -0.723  -1.808   1.801  0.00  0.00    -0.031 A 
ATOM      6  C6  IND d   1      -0.923  -2.311   0.531  0.00  0.00     0.015 A 
ATOM      7  C7  IND d   1      -0.750  -1.533  -0.578  0.00  0.00    -0.016 A 
ATOM      8  C8  IND d   1      -0.383  -0.212  -0.366  0.00  0.00    -0.047 A 
ATOM      9  C9  IND d   1      -0.221   0.316   0.922  0.00  0.00    -0.096 A 
ATOM     10  HN1 IND d   1      -0.203   0.750  -2.116  0.00  0.00     0.298 HD
ENDROOT
TORSDOF 0
ENDMDL
