MODEL 1
REMARK minimizedAffinity 4.18664932
REMARK minimizedRMSD -1
REMARK  0 active torsions:
REMARK  status: ('A' for Active; 'I' for Inactive)
ROOT
ATOM      1  N1  IND d   1      -3.235  -4.824  -2.014  0.00  0.00    -0.196 N 
ATOM      2  C2  IND d   1      -4.099  -3.858  -1.579  0.00  0.00     0.054 A 
ATOM      3  C3  IND d   1      -3.690  -3.363  -0.389  0.00  0.00    -0.031 A 
ATOM      4  C4  IND d   1      -1.579  -3.917   0.975  0.00  0.00     0.051 A 
ATOM      5  C5  IND d   1      -0.504  -4.762   1.002  0.00  0.00    -0.031 A 
ATOM      6  C6  IND d   1      -0.279  -5.687   0.003  0.00  0.00     0.015 A 
ATOM      7  C7  IND d   1      -1.118  -5.795  -1.070  0.00  0.00    -0.016 A 
ATOM      8  C8  IND d   1      -2.213  -4.944  -1.097  0.00  0.00    -0.047 A 
ATOM      9  C9  IND d   1      -2.470  -4.032  -0.065  0.00  0.00    -0.096 A 
ATOM     10  HN1 IND d   1      -3.315  -5.280  -2.739  0.00  0.00     0.298 HD
ENDROOT
TORSDOF 0
ENDMDL
