MODEL 1
REMARK minimizedAffinity -1.8105185
REMARK minimizedRMSD -1
REMARK  0 active torsions:
REMARK  status: ('A' for Active; 'I' for Inactive)
ROOT
ATOM      1  N1  IND d   1      -1.103  -0.975   0.260  0.00  0.00    -0.196 N 
ATOM      2  C2  IND d   1      -0.432  -1.585   1.283  0.00  0.00     0.054 A 
ATOM      3  C3  IND d   1       0.459  -0.732   1.837  0.00  0.00    -0.031 A 
ATOM      4  C4  IND d   1       0.911   1.742   1.289  0.00  0.00     0.051 A 
ATOM      5  C5  IND d   1       0.571   2.730   0.407  0.00  0.00    -0.031 A 
ATOM      6  C6  IND d   1      -0.365   2.530  -0.587  0.00  0.00     0.015 A 
ATOM      7  C7  IND d   1      -1.007   1.333  -0.730  0.00  0.00    -0.016 A 
ATOM      8  C8  IND d   1      -0.659   0.325   0.159  0.00  0.00    -0.047 A 
ATOM      9  C9  IND d   1       0.321   0.509   1.143  0.00  0.00    -0.096 A 
ATOM     10  HN1 IND d   1      -1.701  -1.342  -0.237  0.00  0.00     0.298 HD
ENDROOT
TORSDOF 0
ENDMDL
