MODEL 1
REMARK minimizedAffinity -4.71862984
REMARK minimizedRMSD -1
REMARK  0 active torsions:
REMARK  status: ('A' for Active; 'I' for Inactive)
ROOT
ATOM      1  N1  IND d   1       0.422  -3.023   0.673  0.00  0.00    -0.196 N 
ATOM      2  C2  IND d   1       0.237  -3.902  -0.358  0.00  0.00     0.054 A 
ATOM      3  C3  IND d   1      -0.029  -3.235  -1.503  0.00  0.00    -0.031 A 
ATOM      4  C4  IND d   1      -0.111  -0.699  -1.938  0.00  0.00     0.051 A 
ATOM      5  C5  IND d   1      -0.043   0.506  -1.297  0.00  0.00    -0.031 A 
ATOM      6  C6  IND d   1       0.190   0.599   0.059  0.00  0.00     0.015 A 
ATOM      7  C7  IND d   1       0.377  -0.515   0.828  0.00  0.00    -0.016 A 
ATOM      8  C8  IND d   1       0.302  -1.741   0.182  0.00  0.00    -0.047 A 
ATOM      9  C9  IND d   1       0.023  -1.843  -1.187  0.00  0.00    -0.096 A 
ATOM     10  HN1 IND d   1       0.585  -3.235   1.490  0.00  0.00     0.298 HD
ENDROOT
TORSDOF 0
ENDMDL
