MODEL 1
REMARK minimizedAffinity 0.680485725
REMARK minimizedRMSD -1
REMARK  0 active torsions:
REMARK  status: ('A' for Active; 'I' for Inactive)
ROOT
ATOM      1  N1  IND d   1       0.443  -0.003  -2.030  0.00  0.00    -0.196 N 
ATOM      2  C2  IND d   1       0.302  -1.045  -2.903  0.00  0.00     0.054 A 
ATOM      3  C3  IND d   1      -0.363  -2.065  -2.314  0.00  0.00    -0.031 A 
ATOM      4  C4  IND d   1      -1.399  -2.200   0.038  0.00  0.00     0.051 A 
ATOM      5  C5  IND d   1      -1.498  -1.509   1.213  0.00  0.00    -0.031 A 
ATOM      6  C6  IND d   1      -0.946  -0.254   1.370  0.00  0.00     0.015 A 
ATOM      7  C7  IND d   1      -0.281   0.364   0.349  0.00  0.00    -0.016 A 
ATOM      8  C8  IND d   1      -0.173  -0.338  -0.844  0.00  0.00    -0.047 A 
ATOM      9  C9  IND d   1      -0.695  -1.629  -0.995  0.00  0.00    -0.096 A 
ATOM     10  HN1 IND d   1       0.849   0.737  -2.193  0.00  0.00     0.298 HD
ENDROOT
TORSDOF 0
ENDMDL
