MODEL 1
REMARK minimizedAffinity -1.78869271
REMARK minimizedRMSD -1
REMARK  0 active torsions:
REMARK  status: ('A' for Active; 'I' for Inactive)
ROOT
ATOM      1  N1  IND d   1       1.445   2.581   2.104  0.00  0.00    -0.196 N 
ATOM      2  C2  IND d   1       1.534   3.522   1.115  0.00  0.00     0.054 A 
ATOM      3  C3  IND d   1       1.007   3.046  -0.035  0.00  0.00    -0.031 A 
ATOM      4  C4  IND d   1      -0.148   0.792  -0.496  0.00  0.00     0.051 A 
ATOM      5  C5  IND d   1      -0.436  -0.410   0.087  0.00  0.00    -0.031 A 
ATOM      6  C6  IND d   1      -0.107  -0.681   1.400  0.00  0.00     0.015 A 
ATOM      7  C7  IND d   1       0.514   0.249   2.185  0.00  0.00    -0.016 A 
ATOM      8  C8  IND d   1       0.814   1.468   1.594  0.00  0.00    -0.047 A 
ATOM      9  C9  IND d   1       0.522   1.733   0.250  0.00  0.00    -0.096 A 
ATOM     10  HN1 IND d   1       1.734   2.671   2.909  0.00  0.00     0.298 HD
ENDROOT
TORSDOF 0
ENDMDL
