MODEL 1
REMARK minimizedAffinity -2.68605852
REMARK minimizedRMSD -1
REMARK  0 active torsions:
REMARK  status: ('A' for Active; 'I' for Inactive)
ROOT
ATOM      1  N1  IND d   1       1.949   2.170   1.498  0.00  0.00    -0.196 N 
ATOM      2  C2  IND d   1       1.653   3.192   0.640  0.00  0.00     0.054 A 
ATOM      3  C3  IND d   1       0.599   2.860  -0.141  0.00  0.00    -0.031 A 
ATOM      4  C4  IND d   1      -0.854   0.735  -0.110  0.00  0.00     0.051 A 
ATOM      5  C5  IND d   1      -0.949  -0.496   0.476  0.00  0.00    -0.031 A 
ATOM      6  C6  IND d   1      -0.068  -0.909   1.453  0.00  0.00     0.015 A 
ATOM      7  C7  IND d   1       0.940  -0.098   1.892  0.00  0.00    -0.016 A 
ATOM      8  C8  IND d   1       1.045   1.150   1.295  0.00  0.00    -0.047 A 
ATOM      9  C9  IND d   1       0.179   1.559   0.272  0.00  0.00    -0.096 A 
ATOM     10  HN1 IND d   1       2.592   2.165   2.069  0.00  0.00     0.298 HD
ENDROOT
TORSDOF 0
ENDMDL
