MODEL 1
REMARK minimizedAffinity -1.74771571
REMARK minimizedRMSD -1
REMARK  0 active torsions:
REMARK  status: ('A' for Active; 'I' for Inactive)
ROOT
ATOM      1  N1  IND d   1      -0.166  -0.970  -2.641  0.00  0.00    -0.196 N 
ATOM      2  C2  IND d   1      -0.293  -2.311  -2.873  0.00  0.00     0.054 A 
ATOM      3  C3  IND d   1      -0.546  -2.966  -1.717  0.00  0.00    -0.031 A 
ATOM      4  C4  IND d   1      -0.895  -2.025   0.653  0.00  0.00     0.051 A 
ATOM      5  C5  IND d   1      -0.841  -0.863   1.370  0.00  0.00    -0.031 A 
ATOM      6  C6  IND d   1      -0.556   0.349   0.773  0.00  0.00     0.015 A 
ATOM      7  C7  IND d   1      -0.325   0.444  -0.570  0.00  0.00    -0.016 A 
ATOM      8  C8  IND d   1      -0.372  -0.735  -1.299  0.00  0.00    -0.047 A 
ATOM      9  C9  IND d   1      -0.619  -1.974  -0.692  0.00  0.00    -0.096 A 
ATOM     10  HN1 IND d   1       0.012  -0.373  -3.234  0.00  0.00     0.298 HD
ENDROOT
TORSDOF 0
ENDMDL
