MODEL 1
REMARK minimizedAffinity -3.71075487
REMARK minimizedRMSD -1
REMARK  0 active torsions:
REMARK  status: ('A' for Active; 'I' for Inactive)
ROOT
ATOM      1  N1  IND d   1       0.179   0.640  -2.076  0.00  0.00    -0.196 N 
ATOM      2  C2  IND d   1       0.556   1.820  -1.497  0.00  0.00     0.054 A 
ATOM      3  C3  IND d   1       0.510   1.719  -0.150  0.00  0.00    -0.031 A 
ATOM      4  C4  IND d   1      -0.054  -0.319   1.319  0.00  0.00     0.051 A 
ATOM      5  C5  IND d   1      -0.495  -1.610   1.246  0.00  0.00    -0.031 A 
ATOM      6  C6  IND d   1      -0.735  -2.231   0.037  0.00  0.00     0.015 A 
ATOM      7  C7  IND d   1      -0.532  -1.584  -1.149  0.00  0.00    -0.016 A 
ATOM      8  C8  IND d   1      -0.092  -0.270  -1.079  0.00  0.00    -0.047 A 
ATOM      9  C9  IND d   1       0.113   0.379   0.146  0.00  0.00    -0.096 A 
ATOM     10  HN1 IND d   1       0.122   0.492  -2.921  0.00  0.00     0.298 HD
ENDROOT
TORSDOF 0
ENDMDL
