MODEL 1
REMARK minimizedAffinity -3.30248451
REMARK minimizedRMSD -1
REMARK  0 active torsions:
REMARK  status: ('A' for Active; 'I' for Inactive)
ROOT
ATOM      1  N1  IND d   1       1.567   3.163  -0.860  0.00  0.00    -0.196 N 
ATOM      2  C2  IND d   1       2.350   3.617   0.164  0.00  0.00     0.054 A 
ATOM      3  C3  IND d   1       2.244   2.799   1.235  0.00  0.00    -0.031 A 
ATOM      4  C4  IND d   1       0.923   0.604   1.493  0.00  0.00     0.051 A 
ATOM      5  C5  IND d   1       0.029  -0.198   0.841  0.00  0.00    -0.031 A 
ATOM      6  C6  IND d   1      -0.405   0.084  -0.438  0.00  0.00     0.015 A 
ATOM      7  C7  IND d   1       0.049   1.177  -1.121  0.00  0.00    -0.016 A 
ATOM      8  C8  IND d   1       0.952   1.997  -0.459  0.00  0.00    -0.047 A 
ATOM      9  C9  IND d   1       1.364   1.739   0.855  0.00  0.00    -0.096 A 
ATOM     10  HN1 IND d   1       1.473   3.542  -1.627  0.00  0.00     0.298 HD
ENDROOT
TORSDOF 0
ENDMDL
