MODEL 1
REMARK minimizedAffinity -3.13292265
REMARK minimizedRMSD -1
REMARK  0 active torsions:
REMARK  status: ('A' for Active; 'I' for Inactive)
ROOT
ATOM      1  N1  IND d   1       1.434   2.183   2.175  0.00  0.00    -0.196 N 
ATOM      2  C2  IND d   1       1.474   3.377   1.509  0.00  0.00     0.054 A 
ATOM      3  C3  IND d   1       1.016   3.226   0.246  0.00  0.00    -0.031 A 
ATOM      4  C4  IND d   1       0.054   1.135  -0.907  0.00  0.00     0.051 A 
ATOM      5  C5  IND d   1      -0.153  -0.202  -0.714  0.00  0.00    -0.031 A 
ATOM      6  C6  IND d   1       0.162  -0.824   0.477  0.00  0.00     0.015 A 
ATOM      7  C7  IND d   1       0.688  -0.127   1.528  0.00  0.00    -0.016 A 
ATOM      8  C8  IND d   1       0.906   1.229   1.333  0.00  0.00    -0.047 A 
ATOM      9  C9  IND d   1       0.628   1.858   0.112  0.00  0.00    -0.096 A 
ATOM     10  HN1 IND d   1       1.695   2.051   2.983  0.00  0.00     0.298 HD
ENDROOT
TORSDOF 0
ENDMDL
