MODEL 1
REMARK minimizedAffinity -2.60271525
REMARK minimizedRMSD -1
REMARK  0 active torsions:
REMARK  status: ('A' for Active; 'I' for Inactive)
ROOT
ATOM      1  N1  IND d   1       0.196   0.767  -1.438  0.00  0.00    -0.196 N 
ATOM      2  C2  IND d   1       0.118   1.689  -0.432  0.00  0.00     0.054 A 
ATOM      3  C3  IND d   1      -0.249   1.093   0.725  0.00  0.00    -0.031 A 
ATOM      4  C4  IND d   1      -0.675  -1.397   1.219  0.00  0.00     0.051 A 
ATOM      5  C5  IND d   1      -0.762  -2.617   0.608  0.00  0.00    -0.031 A 
ATOM      6  C6  IND d   1      -0.527  -2.775  -0.742  0.00  0.00     0.015 A 
ATOM      7  C7  IND d   1      -0.183  -1.715  -1.534  0.00  0.00    -0.016 A 
ATOM      8  C8  IND d   1      -0.101  -0.474  -0.919  0.00  0.00    -0.047 A 
ATOM      9  C9  IND d   1      -0.380  -0.301   0.443  0.00  0.00    -0.096 A 
ATOM     10  HN1 IND d   1       0.396   0.934  -2.257  0.00  0.00     0.298 HD
ENDROOT
TORSDOF 0
ENDMDL
