MODEL 1
REMARK minimizedAffinity -1.67294621
REMARK minimizedRMSD -1
REMARK  0 active torsions:
REMARK  status: ('A' for Active; 'I' for Inactive)
ROOT
ATOM      1  N1  IND d   1      -0.153   0.751  -1.002  0.00  0.00    -0.196 N 
ATOM      2  C2  IND d   1       0.643   1.644  -0.339  0.00  0.00     0.054 A 
ATOM      3  C3  IND d   1       0.782   1.279   0.955  0.00  0.00    -0.031 A 
ATOM      4  C4  IND d   1      -0.123  -0.800   2.175  0.00  0.00     0.051 A 
ATOM      5  C5  IND d   1      -0.932  -1.887   1.996  0.00  0.00    -0.031 A 
ATOM      6  C6  IND d   1      -1.533  -2.156   0.784  0.00  0.00     0.015 A 
ATOM      7  C7  IND d   1      -1.337  -1.352  -0.303  0.00  0.00    -0.016 A 
ATOM      8  C8  IND d   1      -0.521  -0.244  -0.123  0.00  0.00    -0.047 A 
ATOM      9  C9  IND d   1       0.057   0.058   1.116  0.00  0.00    -0.096 A 
ATOM     10  HN1 IND d   1      -0.384   0.803  -1.828  0.00  0.00     0.298 HD
ENDROOT
TORSDOF 0
ENDMDL
