MODEL 1
REMARK minimizedAffinity -2.66038942
REMARK minimizedRMSD -1
REMARK  0 active torsions:
REMARK  status: ('A' for Active; 'I' for Inactive)
ROOT
ATOM      1  N1  IND d   1       5.805  -3.882   5.987  0.00  0.00    -0.196 N 
ATOM      2  C2  IND d   1       5.861  -2.516   5.977  0.00  0.00     0.054 A 
ATOM      3  C3  IND d   1       5.976  -2.058   4.710  0.00  0.00    -0.031 A 
ATOM      4  C4  IND d   1       5.990  -3.367   2.494  0.00  0.00     0.051 A 
ATOM      5  C5  IND d   1       5.999  -4.639   1.994  0.00  0.00    -0.031 A 
ATOM      6  C6  IND d   1       5.940  -5.746   2.816  0.00  0.00     0.015 A 
ATOM      7  C7  IND d   1       5.858  -5.621   4.174  0.00  0.00    -0.016 A 
ATOM      8  C8  IND d   1       5.856  -4.331   4.685  0.00  0.00    -0.047 A 
ATOM      9  C9  IND d   1       5.958  -3.205   3.859  0.00  0.00    -0.096 A 
ATOM     10  HN1 IND d   1       5.749  -4.377   6.687  0.00  0.00     0.298 HD
ENDROOT
TORSDOF 0
ENDMDL
