MODEL 1
REMARK minimizedAffinity -1.98541439
REMARK minimizedRMSD -1
REMARK  0 active torsions:
REMARK  status: ('A' for Active; 'I' for Inactive)
ROOT
ATOM      1  N1  IND d   1       5.922  -5.229   2.560  0.00  0.00    -0.196 N 
ATOM      2  C2  IND d   1       5.999  -4.272   1.587  0.00  0.00     0.054 A 
ATOM      3  C3  IND d   1       5.688  -3.059   2.096  0.00  0.00    -0.031 A 
ATOM      4  C4  IND d   1       5.122  -2.397   4.518  0.00  0.00     0.051 A 
ATOM      5  C5  IND d   1       4.894  -2.930   5.755  0.00  0.00    -0.031 A 
ATOM      6  C6  IND d   1       5.001  -4.285   5.996  0.00  0.00     0.015 A 
ATOM      7  C7  IND d   1       5.354  -5.159   5.007  0.00  0.00    -0.016 A 
ATOM      8  C8  IND d   1       5.580  -4.621   3.748  0.00  0.00    -0.047 A 
ATOM      9  C9  IND d   1       5.431  -3.253   3.487  0.00  0.00    -0.096 A 
ATOM     10  HN1 IND d   1       6.064  -6.070   2.449  0.00  0.00     0.298 HD
ENDROOT
TORSDOF 0
ENDMDL
