MODEL 1
REMARK minimizedAffinity -3.94683886
REMARK minimizedRMSD -1
REMARK  0 active torsions:
REMARK  status: ('A' for Active; 'I' for Inactive)
ROOT
ATOM      1  N1  IND d   1       5.912  -5.904   4.391  0.00  0.00    -0.196 N 
ATOM      2  C2  IND d   1       5.939  -5.683   5.740  0.00  0.00     0.054 A 
ATOM      3  C3  IND d   1       5.988  -4.357   5.998  0.00  0.00    -0.031 A 
ATOM      4  C4  IND d   1       5.929  -2.369   4.363  0.00  0.00     0.051 A 
ATOM      5  C5  IND d   1       5.942  -2.070   3.030  0.00  0.00    -0.031 A 
ATOM      6  C6  IND d   1       5.943  -3.054   2.062  0.00  0.00     0.015 A 
ATOM      7  C7  IND d   1       5.920  -4.379   2.394  0.00  0.00    -0.016 A 
ATOM      8  C8  IND d   1       5.914  -4.686   3.747  0.00  0.00    -0.047 A 
ATOM      9  C9  IND d   1       5.955  -3.693   4.733  0.00  0.00    -0.096 A 
ATOM     10  HN1 IND d   1       5.897  -6.675   4.009  0.00  0.00     0.298 HD
ENDROOT
TORSDOF 0
ENDMDL
