MODEL 1
REMARK minimizedAffinity -3.41449809
REMARK minimizedRMSD -1
REMARK  0 active torsions:
REMARK  status: ('A' for Active; 'I' for Inactive)
ROOT
ATOM      1  N1  IND d   1       5.885  -6.000   4.311  0.00  0.00    -0.196 N 
ATOM      2  C2  IND d   1       5.770  -5.832   5.663  0.00  0.00     0.054 A 
ATOM      3  C3  IND d   1       5.720  -4.516   5.970  0.00  0.00    -0.031 A 
ATOM      4  C4  IND d   1       5.708  -2.470   4.408  0.00  0.00     0.051 A 
ATOM      5  C5  IND d   1       5.833  -2.118   3.093  0.00  0.00    -0.031 A 
ATOM      6  C6  IND d   1       5.982  -3.061   2.097  0.00  0.00     0.015 A 
ATOM      7  C7  IND d   1       6.000  -4.398   2.378  0.00  0.00    -0.016 A 
ATOM      8  C8  IND d   1       5.881  -4.759   3.713  0.00  0.00    -0.047 A 
ATOM      9  C9  IND d   1       5.772  -3.805   4.733  0.00  0.00    -0.096 A 
ATOM     10  HN1 IND d   1       5.950  -6.754   3.903  0.00  0.00     0.298 HD
ENDROOT
TORSDOF 0
ENDMDL
