MODEL 1
REMARK minimizedAffinity -3.99821949
REMARK minimizedRMSD -1
REMARK  0 active torsions:
REMARK  status: ('A' for Active; 'I' for Inactive)
ROOT
ATOM      1  N1  IND d   1       5.454  -5.428   4.562  0.00  0.00    -0.196 N 
ATOM      2  C2  IND d   1       5.539  -5.070   5.879  0.00  0.00     0.054 A 
ATOM      3  C3  IND d   1       5.779  -3.744   5.991  0.00  0.00    -0.031 A 
ATOM      4  C4  IND d   1       5.970  -1.955   4.150  0.00  0.00     0.051 A 
ATOM      5  C5  IND d   1       5.999  -1.805   2.792  0.00  0.00    -0.031 A 
ATOM      6  C6  IND d   1       5.842  -2.877   1.937  0.00  0.00     0.015 A 
ATOM      7  C7  IND d   1       5.638  -4.142   2.411  0.00  0.00    -0.016 A 
ATOM      8  C8  IND d   1       5.615  -4.299   3.790  0.00  0.00    -0.047 A 
ATOM      9  C9  IND d   1       5.816  -3.222   4.662  0.00  0.00    -0.096 A 
ATOM     10  HN1 IND d   1       5.323  -6.225   4.266  0.00  0.00     0.298 HD
ENDROOT
TORSDOF 0
ENDMDL
