MODEL 1
REMARK minimizedAffinity 1.54145038
REMARK minimizedRMSD -1
REMARK  0 active torsions:
REMARK  status: ('A' for Active; 'I' for Inactive)
ROOT
ATOM      1  N1  IND d   1       2.830  -5.662   4.714  0.00  0.00    -0.196 N 
ATOM      2  C2  IND d   1       3.381  -5.999   5.919  0.00  0.00     0.054 A 
ATOM      3  C3  IND d   1       4.654  -5.548   5.996  0.00  0.00    -0.031 A 
ATOM      4  C4  IND d   1       5.999  -4.149   4.305  0.00  0.00     0.051 A 
ATOM      5  C5  IND d   1       5.933  -3.627   3.044  0.00  0.00    -0.031 A 
ATOM      6  C6  IND d   1       4.805  -3.758   2.259  0.00  0.00     0.015 A 
ATOM      7  C7  IND d   1       3.692  -4.408   2.714  0.00  0.00    -0.016 A 
ATOM      8  C8  IND d   1       3.759  -4.945   3.992  0.00  0.00    -0.047 A 
ATOM      9  C9  IND d   1       4.916  -4.852   4.776  0.00  0.00    -0.096 A 
ATOM     10  HN1 IND d   1       2.037  -5.865   4.451  0.00  0.00     0.298 HD
ENDROOT
TORSDOF 0
ENDMDL
