MODEL 1
REMARK minimizedAffinity -4.24015999
REMARK minimizedRMSD -1
REMARK  0 active torsions:
REMARK  status: ('A' for Active; 'I' for Inactive)
ROOT
ATOM      1  N1  IND d   1       5.733  -5.999   4.292  0.00  0.00    -0.196 N 
ATOM      2  C2  IND d   1       5.445  -5.910   5.625  0.00  0.00     0.054 A 
ATOM      3  C3  IND d   1       5.290  -4.617   5.988  0.00  0.00    -0.031 A 
ATOM      4  C4  IND d   1       5.363  -2.492   4.538  0.00  0.00     0.051 A 
ATOM      5  C5  IND d   1       5.628  -2.063   3.267  0.00  0.00    -0.031 A 
ATOM      6  C6  IND d   1       5.947  -2.942   2.253  0.00  0.00     0.015 A 
ATOM      7  C7  IND d   1       6.000  -4.290   2.469  0.00  0.00    -0.016 A 
ATOM      8  C8  IND d   1       5.737  -4.728   3.759  0.00  0.00    -0.047 A 
ATOM      9  C9  IND d   1       5.456  -3.837   4.803  0.00  0.00    -0.096 A 
ATOM     10  HN1 IND d   1       5.886  -6.726   3.859  0.00  0.00     0.298 HD
ENDROOT
TORSDOF 0
ENDMDL
