MODEL 1
REMARK minimizedAffinity -2.62432837
REMARK minimizedRMSD -1
REMARK  0 active torsions:
REMARK  status: ('A' for Active; 'I' for Inactive)
ROOT
ATOM      1  N1  IND d   1       5.452  -2.084   4.369  0.00  0.00    -0.196 N 
ATOM      2  C2  IND d   1       5.997  -2.149   3.117  0.00  0.00     0.054 A 
ATOM      3  C3  IND d   1       6.000  -3.426   2.671  0.00  0.00    -0.031 A 
ATOM      4  C4  IND d   1       5.067  -5.550   3.788  0.00  0.00     0.051 A 
ATOM      5  C5  IND d   1       4.507  -5.998   4.951  0.00  0.00    -0.031 A 
ATOM      6  C6  IND d   1       4.225  -5.147   6.000  0.00  0.00     0.015 A 
ATOM      7  C7  IND d   1       4.483  -3.808   5.920  0.00  0.00    -0.016 A 
ATOM      8  C8  IND d   1       5.058  -3.350   4.742  0.00  0.00    -0.047 A 
ATOM      9  C9  IND d   1       5.386  -4.216   3.691  0.00  0.00    -0.096 A 
ATOM     10  HN1 IND d   1       5.368  -1.371   4.843  0.00  0.00     0.298 HD
ENDROOT
TORSDOF 0
ENDMDL
