MODEL 1
REMARK minimizedAffinity -3.75336194
REMARK minimizedRMSD -1
REMARK  0 active torsions:
REMARK  status: ('A' for Active; 'I' for Inactive)
ROOT
ATOM      1  N1  IND d   1       5.168  -5.268   4.719  0.00  0.00    -0.196 N 
ATOM      2  C2  IND d   1       5.316  -4.814   6.000  0.00  0.00     0.054 A 
ATOM      3  C3  IND d   1       5.679  -3.511   5.998  0.00  0.00    -0.031 A 
ATOM      4  C4  IND d   1       5.988  -1.902   4.012  0.00  0.00     0.051 A 
ATOM      5  C5  IND d   1       5.998  -1.867   2.646  0.00  0.00    -0.031 A 
ATOM      6  C6  IND d   1       5.723  -2.985   1.886  0.00  0.00     0.015 A 
ATOM      7  C7  IND d   1       5.416  -4.183   2.466  0.00  0.00    -0.016 A 
ATOM      8  C8  IND d   1       5.412  -4.225   3.853  0.00  0.00    -0.047 A 
ATOM      9  C9  IND d   1       5.732  -3.104   4.630  0.00  0.00    -0.096 A 
ATOM     10  HN1 IND d   1       4.957  -6.070   4.493  0.00  0.00     0.298 HD
ENDROOT
TORSDOF 0
ENDMDL
