MODEL 1
REMARK minimizedAffinity -3.62184477
REMARK minimizedRMSD -1
REMARK  0 active torsions:
REMARK  status: ('A' for Active; 'I' for Inactive)
ROOT
ATOM      1  N1  IND d   1       5.862  -1.854   4.457  0.00  0.00    -0.196 N 
ATOM      2  C2  IND d   1       5.782  -2.127   5.794  0.00  0.00     0.054 A 
ATOM      3  C3  IND d   1       5.754  -3.463   6.000  0.00  0.00    -0.031 A 
ATOM      4  C4  IND d   1       5.930  -5.385   4.295  0.00  0.00     0.051 A 
ATOM      5  C5  IND d   1       5.982  -5.632   2.952  0.00  0.00    -0.031 A 
ATOM      6  C6  IND d   1       5.999  -4.612   2.023  0.00  0.00     0.015 A 
ATOM      7  C7  IND d   1       5.977  -3.300   2.405  0.00  0.00    -0.016 A 
ATOM      8  C8  IND d   1       5.917  -3.045   3.768  0.00  0.00    -0.047 A 
ATOM      9  C9  IND d   1       5.856  -4.077   4.714  0.00  0.00    -0.096 A 
ATOM     10  HN1 IND d   1       5.875  -1.069   4.105  0.00  0.00     0.298 HD
ENDROOT
TORSDOF 0
ENDMDL
