MODEL 1
REMARK minimizedAffinity -3.90151501
REMARK minimizedRMSD -1
REMARK  0 active torsions:
REMARK  status: ('A' for Active; 'I' for Inactive)
ROOT
ATOM      1  N1  IND d   1       4.912  -4.386   5.884  0.00  0.00    -0.196 N 
ATOM      2  C2  IND d   1       4.713  -3.034   5.920  0.00  0.00     0.054 A 
ATOM      3  C3  IND d   1       4.979  -2.487   4.713  0.00  0.00    -0.031 A 
ATOM      4  C4  IND d   1       5.659  -3.635   2.511  0.00  0.00     0.051 A 
ATOM      5  C5  IND d   1       6.000  -4.852   1.992  0.00  0.00    -0.031 A 
ATOM      6  C6  IND d   1       5.993  -6.000   2.758  0.00  0.00     0.015 A 
ATOM      7  C7  IND d   1       5.633  -5.974   4.075  0.00  0.00    -0.016 A 
ATOM      8  C8  IND d   1       5.292  -4.739   4.608  0.00  0.00    -0.047 A 
ATOM      9  C9  IND d   1       5.338  -3.564   3.846  0.00  0.00    -0.096 A 
ATOM     10  HN1 IND d   1       4.817  -4.925   6.547  0.00  0.00     0.298 HD
ENDROOT
TORSDOF 0
ENDMDL
