MODEL 1
REMARK minimizedAffinity -3.0942347
REMARK minimizedRMSD -1
REMARK  0 active torsions:
REMARK  status: ('A' for Active; 'I' for Inactive)
ROOT
ATOM      1  N1  IND d   1       5.473  -6.000   4.766  0.00  0.00    -0.196 N 
ATOM      2  C2  IND d   1       5.306  -5.435   5.999  0.00  0.00     0.054 A 
ATOM      3  C3  IND d   1       5.381  -4.088   5.914  0.00  0.00    -0.031 A 
ATOM      4  C4  IND d   1       5.671  -2.594   3.837  0.00  0.00     0.051 A 
ATOM      5  C5  IND d   1       5.902  -2.654   2.491  0.00  0.00    -0.031 A 
ATOM      6  C6  IND d   1       6.000  -3.856   1.821  0.00  0.00     0.015 A 
ATOM      7  C7  IND d   1       5.860  -5.049   2.472  0.00  0.00    -0.016 A 
ATOM      8  C8  IND d   1       5.633  -4.992   3.840  0.00  0.00    -0.047 A 
ATOM      9  C9  IND d   1       5.575  -3.776   4.533  0.00  0.00    -0.096 A 
ATOM     10  HN1 IND d   1       5.477  -6.843   4.596  0.00  0.00     0.298 HD
ENDROOT
TORSDOF 0
ENDMDL
