MODEL 1
REMARK minimizedAffinity -4.22013569
REMARK minimizedRMSD -1
REMARK  0 active torsions:
REMARK  status: ('A' for Active; 'I' for Inactive)
ROOT
ATOM      1  N1  IND d   1       4.124  -4.001   6.000  0.00  0.00    -0.196 N 
ATOM      2  C2  IND d   1       4.069  -5.367   5.983  0.00  0.00     0.054 A 
ATOM      3  C3  IND d   1       4.607  -5.845   4.838  0.00  0.00    -0.031 A 
ATOM      4  C4  IND d   1       5.729  -4.572   2.902  0.00  0.00     0.051 A 
ATOM      5  C5  IND d   1       5.985  -3.309   2.449  0.00  0.00    -0.031 A 
ATOM      6  C6  IND d   1       5.629  -2.189   3.172  0.00  0.00     0.015 A 
ATOM      7  C7  IND d   1       5.011  -2.291   4.386  0.00  0.00    -0.016 A 
ATOM      8  C8  IND d   1       4.743  -3.573   4.846  0.00  0.00    -0.047 A 
ATOM      9  C9  IND d   1       5.064  -4.712   4.097  0.00  0.00    -0.096 A 
ATOM     10  HN1 IND d   1       3.823  -3.495   6.626  0.00  0.00     0.298 HD
ENDROOT
TORSDOF 0
ENDMDL
