MODEL 1
REMARK minimizedAffinity -2.43202615
REMARK minimizedRMSD -1
REMARK  0 active torsions:
REMARK  status: ('A' for Active; 'I' for Inactive)
ROOT
ATOM      1  N1  IND d   1       5.866  -5.980   2.745  0.00  0.00    -0.196 N 
ATOM      2  C2  IND d   1       5.999  -5.252   1.596  0.00  0.00     0.054 A 
ATOM      3  C3  IND d   1       5.993  -3.929   1.874  0.00  0.00    -0.031 A 
ATOM      4  C4  IND d   1       5.877  -2.737   4.152  0.00  0.00     0.051 A 
ATOM      5  C5  IND d   1       5.710  -2.979   5.487  0.00  0.00    -0.031 A 
ATOM      6  C6  IND d   1       5.586  -4.260   5.986  0.00  0.00     0.015 A 
ATOM      7  C7  IND d   1       5.637  -5.352   5.167  0.00  0.00    -0.016 A 
ATOM      8  C8  IND d   1       5.800  -5.110   3.810  0.00  0.00    -0.047 A 
ATOM      9  C9  IND d   1       5.883  -3.811   3.293  0.00  0.00    -0.096 A 
ATOM     10  HN1 IND d   1       5.829  -6.838   2.794  0.00  0.00     0.298 HD
ENDROOT
TORSDOF 0
ENDMDL
