MODEL 1
REMARK minimizedAffinity -1.72322321
REMARK minimizedRMSD -1
REMARK  0 active torsions:
REMARK  status: ('A' for Active; 'I' for Inactive)
ROOT
ATOM      1  N1  IND d   1       5.514  -1.969   4.522  0.00  0.00    -0.196 N 
ATOM      2  C2  IND d   1       5.989  -1.933   3.241  0.00  0.00     0.054 A 
ATOM      3  C3  IND d   1       5.996  -3.176   2.708  0.00  0.00    -0.031 A 
ATOM      4  C4  IND d   1       5.178  -5.396   3.722  0.00  0.00     0.051 A 
ATOM      5  C5  IND d   1       4.695  -5.938   4.880  0.00  0.00    -0.031 A 
ATOM      6  C6  IND d   1       4.453  -5.169   6.000  0.00  0.00     0.015 A 
ATOM      7  C7  IND d   1       4.675  -3.820   5.999  0.00  0.00    -0.016 A 
ATOM      8  C8  IND d   1       5.172  -3.268   4.828  0.00  0.00    -0.047 A 
ATOM      9  C9  IND d   1       5.460  -4.050   3.702  0.00  0.00    -0.096 A 
ATOM     10  HN1 IND d   1       5.440  -1.293   5.049  0.00  0.00     0.298 HD
ENDROOT
TORSDOF 0
ENDMDL
