MODEL 1
REMARK minimizedAffinity 0.198218241
REMARK minimizedRMSD -1
REMARK  0 active torsions:
REMARK  status: ('A' for Active; 'I' for Inactive)
ROOT
ATOM      1  N1  IND d   1       5.312  -5.228   2.731  0.00  0.00    -0.196 N 
ATOM      2  C2  IND d   1       5.990  -4.291   2.003  0.00  0.00     0.054 A 
ATOM      3  C3  IND d   1       6.000  -3.106   2.653  0.00  0.00    -0.031 A 
ATOM      4  C4  IND d   1       5.053  -2.505   4.971  0.00  0.00     0.051 A 
ATOM      5  C5  IND d   1       4.316  -3.019   6.000  0.00  0.00    -0.031 A 
ATOM      6  C6  IND d   1       3.866  -4.324   5.993  0.00  0.00     0.015 A 
ATOM      7  C7  IND d   1       4.148  -5.169   4.958  0.00  0.00    -0.016 A 
ATOM      8  C8  IND d   1       4.890  -4.648   3.908  0.00  0.00    -0.047 A 
ATOM      9  C9  IND d   1       5.313  -3.313   3.889  0.00  0.00    -0.096 A 
ATOM     10  HN1 IND d   1       5.173  -6.043   2.495  0.00  0.00     0.298 HD
ENDROOT
TORSDOF 0
ENDMDL
