MODEL 1
REMARK minimizedAffinity -4.31235647
REMARK minimizedRMSD -1
REMARK  0 active torsions:
REMARK  status: ('A' for Active; 'I' for Inactive)
ROOT
ATOM      1  N1  IND d   1       5.742  -5.531   2.898  0.00  0.00    -0.196 N 
ATOM      2  C2  IND d   1       6.000  -5.198   1.598  0.00  0.00     0.054 A 
ATOM      3  C3  IND d   1       5.935  -3.857   1.434  0.00  0.00    -0.031 A 
ATOM      4  C4  IND d   1       5.522  -2.014   3.182  0.00  0.00     0.051 A 
ATOM      5  C5  IND d   1       5.199  -1.829   4.497  0.00  0.00    -0.031 A 
ATOM      6  C6  IND d   1       5.040  -2.890   5.365  0.00  0.00     0.015 A 
ATOM      7  C7  IND d   1       5.210  -4.181   4.950  0.00  0.00    -0.016 A 
ATOM      8  C8  IND d   1       5.531  -4.372   3.614  0.00  0.00    -0.047 A 
ATOM      9  C9  IND d   1       5.652  -3.302   2.719  0.00  0.00    -0.096 A 
ATOM     10  HN1 IND d   1       5.715  -6.329   3.216  0.00  0.00     0.298 HD
ENDROOT
TORSDOF 0
ENDMDL
