MODEL 1
REMARK minimizedAffinity 9.03542709
REMARK minimizedRMSD -1
REMARK  0 active torsions:
REMARK  status: ('A' for Active; 'I' for Inactive)
ROOT
ATOM      1  C1  DEN d   1      -0.385   1.543   0.155  0.00  0.00     0.130 A 
ATOM      2  C2  DEN d   1      -1.649   0.835   0.336  0.00  0.00    -0.031 A 
ATOM      3  C3  DEN d   1      -2.285   1.345   1.567  0.00  0.00     0.027 A 
ATOM      4  C4  DEN d   1      -1.444   3.158   3.197  0.00  0.00     0.027 A 
ATOM      5  C5  DEN d   1      -0.417   4.036   3.467  0.00  0.00    -0.003 A 
ATOM      6  C6  DEN d   1       0.699   4.119   2.678  0.00  0.00     0.001 A 
ATOM      7  C7  DEN d   1       0.794   3.343   1.553  0.00  0.00     0.017 A 
ATOM      8  C8  DEN d   1      -0.234   2.450   1.278  0.00  0.00    -0.094 A 
ATOM      9  C9  DEN d   1      -1.359   2.389   2.082  0.00  0.00    -0.072 A 
ENDROOT
TORSDOF 0
ENDMDL
