MODEL 1
REMARK minimizedAffinity 6.65222263
REMARK minimizedRMSD -1
REMARK  0 active torsions:
REMARK  status: ('A' for Active; 'I' for Inactive)
ROOT
ATOM      1  C1  DEN d   1      -1.958   2.843   0.856  0.00  0.00     0.130 A 
ATOM      2  C2  DEN d   1      -1.886   2.735  -0.599  0.00  0.00    -0.031 A 
ATOM      3  C3  DEN d   1      -0.486   2.444  -0.966  0.00  0.00     0.027 A 
ATOM      4  C4  DEN d   1       1.566   2.148   0.568  0.00  0.00     0.027 A 
ATOM      5  C5  DEN d   1       2.002   2.161   1.874  0.00  0.00    -0.003 A 
ATOM      6  C6  DEN d   1       1.163   2.433   2.922  0.00  0.00     0.001 A 
ATOM      7  C7  DEN d   1      -0.167   2.660   2.684  0.00  0.00     0.017 A 
ATOM      8  C8  DEN d   1      -0.613   2.656   1.369  0.00  0.00    -0.094 A 
ATOM      9  C9  DEN d   1       0.249   2.366   0.325  0.00  0.00    -0.072 A 
ENDROOT
TORSDOF 0
ENDMDL
