MODEL 1
REMARK minimizedAffinity 1.95815814
REMARK minimizedRMSD -1
REMARK  0 active torsions:
REMARK  status: ('A' for Active; 'I' for Inactive)
ROOT
ATOM      1  C1  DEN d   1       1.663   1.889  -5.558  0.00  0.00     0.130 A 
ATOM      2  C2  DEN d   1       1.459   0.515  -5.109  0.00  0.00    -0.031 A 
ATOM      3  C3  DEN d   1       0.009   0.306  -4.924  0.00  0.00     0.027 A 
ATOM      4  C4  DEN d   1      -1.930   1.967  -5.292  0.00  0.00     0.027 A 
ATOM      5  C5  DEN d   1      -2.250   3.255  -5.659  0.00  0.00    -0.003 A 
ATOM      6  C6  DEN d   1      -1.294   4.181  -5.983  0.00  0.00     0.001 A 
ATOM      7  C7  DEN d   1       0.027   3.818  -5.989  0.00  0.00     0.017 A 
ATOM      8  C8  DEN d   1       0.358   2.523  -5.613  0.00  0.00    -0.094 A 
ATOM      9  C9  DEN d   1      -0.624   1.598  -5.301  0.00  0.00    -0.072 A 
ENDROOT
TORSDOF 0
ENDMDL
