MODEL 1
REMARK minimizedAffinity 8.84085941
REMARK minimizedRMSD -1
REMARK  0 active torsions:
REMARK  status: ('A' for Active; 'I' for Inactive)
ROOT
ATOM      1  C1  DEN d   1      -0.516  -0.644  -0.164  0.00  0.00     0.130 A 
ATOM      2  C2  DEN d   1      -1.975  -0.693  -0.201  0.00  0.00    -0.031 A 
ATOM      3  C3  DEN d   1      -2.488   0.606   0.280  0.00  0.00     0.027 A 
ATOM      4  C4  DEN d   1      -1.170   2.678   1.069  0.00  0.00     0.027 A 
ATOM      5  C5  DEN d   1       0.090   3.191   1.289  0.00  0.00    -0.003 A 
ATOM      6  C6  DEN d   1       1.225   2.456   1.074  0.00  0.00     0.001 A 
ATOM      7  C7  DEN d   1       1.125   1.181   0.583  0.00  0.00     0.017 A 
ATOM      8  C8  DEN d   1      -0.141   0.655   0.366  0.00  0.00    -0.094 A 
ATOM      9  C9  DEN d   1      -1.277   1.418   0.577  0.00  0.00    -0.072 A 
ENDROOT
TORSDOF 0
ENDMDL
