MODEL 1
REMARK minimizedAffinity 1.77392197
REMARK minimizedRMSD -1
REMARK  0 active torsions:
REMARK  status: ('A' for Active; 'I' for Inactive)
ROOT
ATOM      1  C1  DEN d   1       3.909  -3.684  -3.124  0.00  0.00     0.130 A 
ATOM      2  C2  DEN d   1       3.707  -2.260  -3.376  0.00  0.00    -0.031 A 
ATOM      3  C3  DEN d   1       2.257  -2.021  -3.513  0.00  0.00     0.027 A 
ATOM      4  C4  DEN d   1       0.312  -3.709  -3.357  0.00  0.00     0.027 A 
ATOM      5  C5  DEN d   1      -0.011  -5.034  -3.168  0.00  0.00    -0.003 A 
ATOM      6  C6  DEN d   1       0.943  -6.000  -2.987  0.00  0.00     0.001 A 
ATOM      7  C7  DEN d   1       2.266  -5.647  -2.945  0.00  0.00     0.017 A 
ATOM      8  C8  DEN d   1       2.601  -4.314  -3.142  0.00  0.00    -0.094 A 
ATOM      9  C9  DEN d   1       1.621  -3.351  -3.312  0.00  0.00    -0.072 A 
ENDROOT
TORSDOF 0
ENDMDL
