MODEL 1
REMARK minimizedAffinity -1.14868057
REMARK minimizedRMSD -1
REMARK  0 active torsions:
REMARK  status: ('A' for Active; 'I' for Inactive)
ROOT
ATOM      1  C1  DEN d   1      -0.267   3.324  -5.774  0.00  0.00     0.130 A 
ATOM      2  C2  DEN d   1      -0.680   1.941  -6.000  0.00  0.00    -0.031 A 
ATOM      3  C3  DEN d   1      -2.156   1.900  -6.000  0.00  0.00     0.027 A 
ATOM      4  C4  DEN d   1      -3.833   3.834  -5.680  0.00  0.00     0.027 A 
ATOM      5  C5  DEN d   1      -3.957   5.185  -5.446  0.00  0.00    -0.003 A 
ATOM      6  C6  DEN d   1      -2.869   5.999  -5.273  0.00  0.00     0.001 A 
ATOM      7  C7  DEN d   1      -1.607   5.476  -5.376  0.00  0.00     0.017 A 
ATOM      8  C8  DEN d   1      -1.474   4.112  -5.604  0.00  0.00    -0.094 A 
ATOM      9  C9  DEN d   1      -2.587   3.309  -5.788  0.00  0.00    -0.072 A 
ENDROOT
TORSDOF 0
ENDMDL
