MODEL 1
REMARK minimizedAffinity 0.336450607
REMARK minimizedRMSD -1
REMARK  0 active torsions:
REMARK  status: ('A' for Active; 'I' for Inactive)
ROOT
ATOM      1  C1  DEN d   1       1.467   2.659   1.813  0.00  0.00     0.130 A 
ATOM      2  C2  DEN d   1       2.602   1.765   1.600  0.00  0.00    -0.031 A 
ATOM      3  C3  DEN d   1       2.099   0.535   0.954  0.00  0.00     0.027 A 
ATOM      4  C4  DEN d   1      -0.312  -0.065   0.263  0.00  0.00     0.027 A 
ATOM      5  C5  DEN d   1      -1.618   0.373   0.250  0.00  0.00    -0.003 A 
ATOM      6  C6  DEN d   1      -1.989   1.578   0.784  0.00  0.00     0.001 A 
ATOM      7  C7  DEN d   1      -1.037   2.409   1.313  0.00  0.00     0.017 A 
ATOM      8  C8  DEN d   1       0.281   1.971   1.336  0.00  0.00    -0.094 A 
ATOM      9  C9  DEN d   1       0.638   0.755   0.780  0.00  0.00    -0.072 A 
ENDROOT
TORSDOF 0
ENDMDL
