MODEL 1
REMARK minimizedAffinity 1.97561121
REMARK minimizedRMSD -1
REMARK  0 active torsions:
REMARK  status: ('A' for Active; 'I' for Inactive)
ROOT
ATOM      1  C1  DEN d   1       0.597  -0.909   0.303  0.00  0.00     0.130 A 
ATOM      2  C2  DEN d   1       1.845  -0.192   0.547  0.00  0.00    -0.031 A 
ATOM      3  C3  DEN d   1       1.509   1.198   0.916  0.00  0.00     0.027 A 
ATOM      4  C4  DEN d   1      -0.811   2.302   1.137  0.00  0.00     0.027 A 
ATOM      5  C5  DEN d   1      -2.168   2.097   1.018  0.00  0.00    -0.003 A 
ATOM      6  C6  DEN d   1      -2.692   0.895   0.623  0.00  0.00     0.001 A 
ATOM      7  C7  DEN d   1      -1.857  -0.162   0.376  0.00  0.00     0.017 A 
ATOM      8  C8  DEN d   1      -0.487   0.040   0.486  0.00  0.00    -0.094 A 
ATOM      9  C9  DEN d   1       0.023   1.259   0.899  0.00  0.00    -0.072 A 
ENDROOT
TORSDOF 0
ENDMDL
