MODEL 1
REMARK minimizedAffinity 4.33111858
REMARK minimizedRMSD -1
REMARK  0 active torsions:
REMARK  status: ('A' for Active; 'I' for Inactive)
ROOT
ATOM      1  C1  DEN d   1      -1.537   2.696   1.837  0.00  0.00     0.130 A 
ATOM      2  C2  DEN d   1      -2.272   1.794   0.955  0.00  0.00    -0.031 A 
ATOM      3  C3  DEN d   1      -1.320   0.796   0.427  0.00  0.00     0.027 A 
ATOM      4  C4  DEN d   1       1.206   0.558   0.891  0.00  0.00     0.027 A 
ATOM      5  C5  DEN d   1       2.279   1.098   1.565  0.00  0.00    -0.003 A 
ATOM      6  C6  DEN d   1       2.163   2.219   2.344  0.00  0.00     0.001 A 
ATOM      7  C7  DEN d   1       0.938   2.811   2.504  0.00  0.00     0.017 A 
ATOM      8  C8  DEN d   1      -0.147   2.277   1.821  0.00  0.00    -0.094 A 
ATOM      9  C9  DEN d   1      -0.012   1.136   1.048  0.00  0.00    -0.072 A 
ENDROOT
TORSDOF 0
ENDMDL
