MODEL 1
REMARK minimizedAffinity 3.61563301
REMARK minimizedRMSD -1
REMARK  0 active torsions:
REMARK  status: ('A' for Active; 'I' for Inactive)
ROOT
ATOM      1  C1  DEN d   1       1.582   0.813   0.621  0.00  0.00     0.130 A 
ATOM      2  C2  DEN d   1       1.634  -0.641   0.507  0.00  0.00    -0.031 A 
ATOM      3  C3  DEN d   1       0.280  -1.169   0.767  0.00  0.00     0.027 A 
ATOM      4  C4  DEN d   1      -1.883   0.120   1.328  0.00  0.00     0.027 A 
ATOM      5  C5  DEN d   1      -2.421   1.369   1.546  0.00  0.00    -0.003 A 
ATOM      6  C6  DEN d   1      -1.662   2.508   1.505  0.00  0.00     0.001 A 
ATOM      7  C7  DEN d   1      -0.330   2.426   1.195  0.00  0.00     0.017 A 
ATOM      8  C8  DEN d   1       0.221   1.169   0.981  0.00  0.00    -0.094 A 
ATOM      9  C9  DEN d   1      -0.565   0.030   1.015  0.00  0.00    -0.072 A 
ENDROOT
TORSDOF 0
ENDMDL
