MODEL 1
REMARK minimizedAffinity 4.47802448
REMARK minimizedRMSD -1
REMARK  0 active torsions:
REMARK  status: ('A' for Active; 'I' for Inactive)
ROOT
ATOM      1  C1  DEN d   1      -0.651  -3.076  -2.292  0.00  0.00     0.130 A 
ATOM      2  C2  DEN d   1      -1.830  -3.432  -1.508  0.00  0.00    -0.031 A 
ATOM      3  C3  DEN d   1      -1.848  -2.584  -0.299  0.00  0.00     0.027 A 
ATOM      4  C4  DEN d   1      -0.176  -0.759   0.428  0.00  0.00     0.027 A 
ATOM      5  C5  DEN d   1       0.990  -0.108   0.093  0.00  0.00    -0.003 A 
ATOM      6  C6  DEN d   1       1.704  -0.421  -1.033  0.00  0.00     0.001 A 
ATOM      7  C7  DEN d   1       1.234  -1.381  -1.889  0.00  0.00     0.017 A 
ATOM      8  C8  DEN d   1       0.062  -2.048  -1.555  0.00  0.00    -0.094 A 
ATOM      9  C9  DEN d   1      -0.652  -1.708  -0.418  0.00  0.00    -0.072 A 
ENDROOT
TORSDOF 0
ENDMDL
