MODEL 1
REMARK minimizedAffinity 0.40721333
REMARK minimizedRMSD -1
REMARK  0 active torsions:
REMARK  status: ('A' for Active; 'I' for Inactive)
ROOT
ATOM      1  C1  DEN d   1       0.998   3.463   2.419  0.00  0.00     0.130 A 
ATOM      2  C2  DEN d   1       2.375   3.019   2.615  0.00  0.00    -0.031 A 
ATOM      3  C3  DEN d   1       2.515   1.683   2.000  0.00  0.00     0.027 A 
ATOM      4  C4  DEN d   1       0.744   0.270   0.766  0.00  0.00     0.027 A 
ATOM      5  C5  DEN d   1      -0.571   0.224   0.360  0.00  0.00    -0.003 A 
ATOM      6  C6  DEN d   1      -1.457   1.231   0.639  0.00  0.00     0.001 A 
ATOM      7  C7  DEN d   1      -1.027   2.348   1.305  0.00  0.00     0.017 A 
ATOM      8  C8  DEN d   1       0.296   2.399   1.724  0.00  0.00    -0.094 A 
ATOM      9  C9  DEN d   1       1.179   1.376   1.422  0.00  0.00    -0.072 A 
ENDROOT
TORSDOF 0
ENDMDL
