MODEL 1
REMARK minimizedAffinity 4.88378048
REMARK minimizedRMSD -1
REMARK  0 active torsions:
REMARK  status: ('A' for Active; 'I' for Inactive)
ROOT
ATOM      1  C1  DEN d   1      -1.329   2.656   1.055  0.00  0.00     0.130 A 
ATOM      2  C2  DEN d   1      -2.315   1.699   0.561  0.00  0.00    -0.031 A 
ATOM      3  C3  DEN d   1      -1.599   0.468   0.169  0.00  0.00     0.027 A 
ATOM      4  C4  DEN d   1       0.925  -0.048   0.283  0.00  0.00     0.027 A 
ATOM      5  C5  DEN d   1       2.160   0.459   0.620  0.00  0.00    -0.003 A 
ATOM      6  C6  DEN d   1       2.322   1.736   1.090  0.00  0.00     0.001 A 
ATOM      7  C7  DEN d   1       1.224   2.533   1.279  0.00  0.00     0.017 A 
ATOM      8  C8  DEN d   1      -0.024   2.031   0.934  0.00  0.00    -0.094 A 
ATOM      9  C9  DEN d   1      -0.167   0.734   0.472  0.00  0.00    -0.072 A 
ENDROOT
TORSDOF 0
ENDMDL
