MODEL 1
REMARK minimizedAffinity 2.33051848
REMARK minimizedRMSD -1
REMARK  0 active torsions:
REMARK  status: ('A' for Active; 'I' for Inactive)
ROOT
ATOM      1  C1  DEN d   1      -3.702   2.011  -5.996  0.00  0.00     0.130 A 
ATOM      2  C2  DEN d   1      -2.255   2.207  -5.999  0.00  0.00    -0.031 A 
ATOM      3  C3  DEN d   1      -1.991   3.660  -5.970  0.00  0.00     0.027 A 
ATOM      4  C4  DEN d   1      -3.674   5.614  -5.914  0.00  0.00     0.027 A 
ATOM      5  C5  DEN d   1      -5.012   5.943  -5.911  0.00  0.00    -0.003 A 
ATOM      6  C6  DEN d   1      -5.998   4.995  -5.970  0.00  0.00     0.001 A 
ATOM      7  C7  DEN d   1      -5.662   3.667  -5.988  0.00  0.00     0.017 A 
ATOM      8  C8  DEN d   1      -4.316   3.327  -5.999  0.00  0.00    -0.094 A 
ATOM      9  C9  DEN d   1      -3.334   4.300  -5.927  0.00  0.00    -0.072 A 
ENDROOT
TORSDOF 0
ENDMDL
