MODEL 1
REMARK minimizedAffinity -4.74356079
REMARK minimizedRMSD -1
REMARK  1 active torsions:
REMARK  status: ('A' for Active; 'I' for Inactive)
REMARK    1  A    between atoms: N_2  and  C1_3 
ROOT
ATOM      1  C1  UNL d   1      -0.009  -0.058   0.498  0.00  0.00     0.143 A 
ATOM      2  C2  UNL d   1      -0.730  -0.569   1.583  0.00  0.00    -0.057 A 
ATOM      3  C3  UNL d   1      -0.079  -1.053   2.724  0.00  0.00     0.033 A 
ATOM      4  C4  UNL d   1       1.311  -1.060   2.789  0.00  0.00    -0.042 A 
ATOM      5  C5  UNL d   1       2.048  -0.580   1.712  0.00  0.00     0.033 A 
ATOM      6  C6  UNL d   1       1.392  -0.093   0.578  0.00  0.00    -0.057 A 
ENDROOT
BRANCH   1   7
ATOM      7  N   UNL d   1      -0.595   0.345  -0.704  0.00  0.00    -0.732 N 
ATOM      8  C   UNL d   1      -0.405   1.691  -1.202  0.00  0.00     0.284 C 
ATOM      9  H3  UNL d   1      -0.544  -0.374  -1.422  0.00  0.00     0.395 HD
ENDBRANCH   1   7
TORSDOF 1
ENDMDL
