MODEL 1
REMARK minimizedAffinity -2.45076489
REMARK minimizedRMSD -1
REMARK  1 active torsions:
REMARK  status: ('A' for Active; 'I' for Inactive)
REMARK    1  A    between atoms: N_2  and  C1_3 
ROOT
ATOM      1  C1  UNL d   1      -0.261  -0.048   0.833  0.00  0.00     0.143 A 
ATOM      2  C2  UNL d   1      -0.949  -0.402   1.998  0.00  0.00    -0.057 A 
ATOM      3  C3  UNL d   1      -0.270  -0.885   3.123  0.00  0.00     0.033 A 
ATOM      4  C4  UNL d   1       1.110  -1.051   3.092  0.00  0.00    -0.042 A 
ATOM      5  C5  UNL d   1       1.812  -0.729   1.936  0.00  0.00     0.033 A 
ATOM      6  C6  UNL d   1       1.129  -0.241   0.818  0.00  0.00    -0.057 A 
ENDROOT
BRANCH   1   7
ATOM      7  N   UNL d   1      -0.889   0.345  -0.352  0.00  0.00    -0.732 N 
ATOM      8  C   UNL d   1      -0.192   0.263  -1.618  0.00  0.00     0.284 C 
ATOM      9  H3  UNL d   1      -1.862   0.050  -0.393  0.00  0.00     0.395 HD
ENDBRANCH   1   7
TORSDOF 1
ENDMDL
