MODEL 1
REMARK minimizedAffinity -4.73099041
REMARK minimizedRMSD -1
REMARK  1 active torsions:
REMARK  status: ('A' for Active; 'I' for Inactive)
REMARK    1  A    between atoms: N_2  and  C1_3 
ROOT
ATOM      1  C1  UNL d   1      -0.026  -0.027   0.221  0.00  0.00     0.143 A 
ATOM      2  C2  UNL d   1      -0.869  -0.078   1.337  0.00  0.00    -0.057 A 
ATOM      3  C3  UNL d   1      -0.378  -0.424   2.602  0.00  0.00     0.033 A 
ATOM      4  C4  UNL d   1       0.963  -0.753   2.768  0.00  0.00    -0.042 A 
ATOM      5  C5  UNL d   1       1.814  -0.732   1.669  0.00  0.00     0.033 A 
ATOM      6  C6  UNL d   1       1.319  -0.380   0.409  0.00  0.00    -0.057 A 
ENDROOT
BRANCH   1   7
ATOM      7  N   UNL d   1      -0.473   0.213  -1.081  0.00  0.00    -0.732 N 
ATOM      8  C   UNL d   1      -0.176   1.465  -1.743  0.00  0.00     0.284 C 
ATOM      9  H3  UNL d   1      -0.383  -0.605  -1.679  0.00  0.00     0.395 HD
ENDBRANCH   1   7
TORSDOF 1
ENDMDL
