MODEL 1
REMARK minimizedAffinity -5.93452263
REMARK minimizedRMSD -1
REMARK  3 active torsions:
REMARK  status: ('A' for Active; 'I' for Inactive)
REMARK    1  A    between atoms: C3'_2  and  C2'_3 
REMARK    2  A    between atoms: C2'_3  and  C1'_4 
REMARK    3  A    between atoms: C1'_4  and  C1_5 
ROOT
ATOM      1  C1  N4B d   1       0.145   0.228  -0.102  0.00  0.00    -0.075 A 
ATOM      2  C2  N4B d   1       1.549   0.324   0.020  0.00  0.00     0.002 A 
ATOM      3  C3  N4B d   1       2.286  -0.783   0.361  0.00  0.00     0.002 A 
ATOM      4  C4  N4B d   1       1.642  -1.988   0.603  0.00  0.00    -0.004 A 
ATOM      5  C5  N4B d   1       0.289  -2.079   0.458  0.00  0.00     0.002 A 
ATOM      6  C6  N4B d   1      -0.464  -0.975   0.111  0.00  0.00     0.002 A 
ENDROOT
BRANCH   1   7
ATOM      7  C1' N4B d   1      -0.712   1.431  -0.389  0.00  0.00     0.057 C 
BRANCH   7   8
ATOM      8  C2' N4B d   1      -2.151   0.977  -0.619  0.00  0.00     0.009 C 
BRANCH   8   9
ATOM      9  C3' N4B d   1      -2.699   1.477  -1.944  0.00  0.00     0.004 C 
ATOM     10  C4' N4B d   1      -1.809   1.145  -3.104  0.00  0.00     0.003 C 
ENDBRANCH   8   9
ENDBRANCH   7   8
ENDBRANCH   1   7
TORSDOF 3
ENDMDL
