MODEL 1
REMARK minimizedAffinity -4.48586845
REMARK minimizedRMSD -1
REMARK  3 active torsions:
REMARK  status: ('A' for Active; 'I' for Inactive)
REMARK    1  A    between atoms: C3'_2  and  C2'_3 
REMARK    2  A    between atoms: C2'_3  and  C1'_4 
REMARK    3  A    between atoms: C1'_4  and  C1_5 
ROOT
ATOM      1  C1  N4B d   1      -0.089  -0.325  -0.164  0.00  0.00    -0.075 A 
ATOM      2  C2  N4B d   1      -0.741  -1.409   0.463  0.00  0.00     0.002 A 
ATOM      3  C3  N4B d   1      -0.007  -2.463   0.951  0.00  0.00     0.002 A 
ATOM      4  C4  N4B d   1       1.372  -2.462   0.807  0.00  0.00    -0.004 A 
ATOM      5  C5  N4B d   1       1.996  -1.399   0.223  0.00  0.00     0.002 A 
ATOM      6  C6  N4B d   1       1.272  -0.332  -0.268  0.00  0.00     0.002 A 
ENDROOT
BRANCH   1   7
ATOM      7  C1' N4B d   1      -0.856   0.808  -0.789  0.00  0.00     0.057 C 
BRANCH   7   8
ATOM      8  C2' N4B d   1      -2.157   0.269  -1.377  0.00  0.00     0.009 C 
BRANCH   8   9
ATOM      9  C3' N4B d   1      -2.505   0.937  -2.696  0.00  0.00     0.004 C 
ATOM     10  C4' N4B d   1      -1.337   1.649  -3.312  0.00  0.00     0.003 C 
ENDBRANCH   8   9
ENDBRANCH   7   8
ENDBRANCH   1   7
TORSDOF 3
ENDMDL
