MODEL 1
REMARK minimizedAffinity -5.38138294
REMARK minimizedRMSD -1
REMARK  3 active torsions:
REMARK  status: ('A' for Active; 'I' for Inactive)
REMARK    1  A    between atoms: C3'_2  and  C2'_3 
REMARK    2  A    between atoms: C2'_3  and  C1'_4 
REMARK    3  A    between atoms: C1'_4  and  C1_5 
ROOT
ATOM      1  C1  N4B d   1       0.268  -0.272  -0.322  0.00  0.00    -0.075 A 
ATOM      2  C2  N4B d   1       0.231  -1.366   0.570  0.00  0.00     0.002 A 
ATOM      3  C3  N4B d   1       1.395  -1.839   1.125  0.00  0.00     0.002 A 
ATOM      4  C4  N4B d   1       2.604  -1.248   0.790  0.00  0.00    -0.004 A 
ATOM      5  C5  N4B d   1       2.628  -0.175  -0.052  0.00  0.00     0.002 A 
ATOM      6  C6  N4B d   1       1.466   0.313  -0.614  0.00  0.00     0.002 A 
ENDROOT
BRANCH   1   7
ATOM      7  C1' N4B d   1      -0.968   0.225  -1.021  0.00  0.00     0.057 C 
BRANCH   7   8
ATOM      8  C2' N4B d   1      -1.045   1.743  -0.883  0.00  0.00     0.009 C 
BRANCH   8   9
ATOM      9  C3' N4B d   1      -1.788   2.382  -2.044  0.00  0.00     0.004 C 
ATOM     10  C4' N4B d   1      -2.205   1.386  -3.085  0.00  0.00     0.003 C 
ENDBRANCH   8   9
ENDBRANCH   7   8
ENDBRANCH   1   7
TORSDOF 3
ENDMDL
