MODEL 1
REMARK minimizedAffinity -1.0868088
REMARK minimizedRMSD -1
REMARK  3 active torsions:
REMARK  status: ('A' for Active; 'I' for Inactive)
REMARK    1  A    between atoms: C3'_2  and  C2'_3 
REMARK    2  A    between atoms: C2'_3  and  C1'_4 
REMARK    3  A    between atoms: C1'_4  and  C1_5 
ROOT
ATOM      1  C1  N4B d   1       0.315  -0.173  -0.070  0.00  0.00    -0.075 A 
ATOM      2  C2  N4B d   1       0.625  -1.231   0.812  0.00  0.00     0.002 A 
ATOM      3  C3  N4B d   1       1.932  -1.480   1.153  0.00  0.00     0.002 A 
ATOM      4  C4  N4B d   1       2.943  -0.699   0.611  0.00  0.00    -0.004 A 
ATOM      5  C5  N4B d   1       2.632   0.337  -0.220  0.00  0.00     0.002 A 
ATOM      6  C6  N4B d   1       1.323   0.601  -0.568  0.00  0.00     0.002 A 
ENDROOT
BRANCH   1   7
ATOM      7  C1' N4B d   1      -1.091   0.083  -0.539  0.00  0.00     0.057 C 
BRANCH   7   8
ATOM      8  C2' N4B d   1      -1.048   0.853  -1.856  0.00  0.00     0.009 C 
BRANCH   8   9
ATOM      9  C3' N4B d   1      -2.440   1.161  -2.381  0.00  0.00     0.004 C 
ATOM     10  C4' N4B d   1      -2.458   1.425  -3.857  0.00  0.00     0.003 C 
ENDBRANCH   8   9
ENDBRANCH   7   8
ENDBRANCH   1   7
TORSDOF 3
ENDMDL
