MODEL 1
REMARK minimizedAffinity -5.61108971
REMARK minimizedRMSD -1
REMARK  3 active torsions:
REMARK  status: ('A' for Active; 'I' for Inactive)
REMARK    1  A    between atoms: C3'_2  and  C2'_3 
REMARK    2  A    between atoms: C2'_3  and  C1'_4 
REMARK    3  A    between atoms: C1'_4  and  C1_5 
ROOT
ATOM      1  C1  N4B d   1       0.093  -0.016   0.294  0.00  0.00    -0.075 A 
ATOM      2  C2  N4B d   1       1.494   0.028   0.463  0.00  0.00     0.002 A 
ATOM      3  C3  N4B d   1       2.159  -1.064   0.965  0.00  0.00     0.002 A 
ATOM      4  C4  N4B d   1       1.445  -2.198   1.321  0.00  0.00    -0.004 A 
ATOM      5  C5  N4B d   1       0.095  -2.241   1.131  0.00  0.00     0.002 A 
ATOM      6  C6  N4B d   1      -0.586  -1.153   0.624  0.00  0.00     0.002 A 
ENDROOT
BRANCH   1   7
ATOM      7  C1' N4B d   1      -0.689   1.183  -0.170  0.00  0.00     0.057 C 
BRANCH   7   8
ATOM      8  C2' N4B d   1      -1.705   0.742  -1.220  0.00  0.00     0.009 C 
BRANCH   8   9
ATOM      9  C3' N4B d   1      -2.174   1.904  -2.079  0.00  0.00     0.004 C 
ATOM     10  C4' N4B d   1      -2.111   1.603  -3.547  0.00  0.00     0.003 C 
ENDBRANCH   8   9
ENDBRANCH   7   8
ENDBRANCH   1   7
TORSDOF 3
ENDMDL
