MODEL 1
REMARK minimizedAffinity -4.35418177
REMARK minimizedRMSD -1
REMARK  3 active torsions:
REMARK  status: ('A' for Active; 'I' for Inactive)
REMARK    1  A    between atoms: C3'_2  and  C2'_3 
REMARK    2  A    between atoms: C2'_3  and  C1'_4 
REMARK    3  A    between atoms: C1'_4  and  C1_5 
ROOT
ATOM      1  C1  N4B d   1       0.522  -0.288   0.036  0.00  0.00    -0.075 A 
ATOM      2  C2  N4B d   1       1.904  -0.167   0.303  0.00  0.00     0.002 A 
ATOM      3  C3  N4B d   1       2.638  -1.279   0.637  0.00  0.00     0.002 A 
ATOM      4  C4  N4B d   1       2.011  -2.513   0.729  0.00  0.00    -0.004 A 
ATOM      5  C5  N4B d   1       0.682  -2.625   0.445  0.00  0.00     0.002 A 
ATOM      6  C6  N4B d   1      -0.068  -1.517   0.104  0.00  0.00     0.002 A 
ENDROOT
BRANCH   1   7
ATOM      7  C1' N4B d   1      -0.339   0.912  -0.249  0.00  0.00     0.057 C 
BRANCH   7   8
ATOM      8  C2' N4B d   1      -1.439   0.517  -1.230  0.00  0.00     0.009 C 
BRANCH   8   9
ATOM      9  C3' N4B d   1      -1.423   1.381  -2.479  0.00  0.00     0.004 C 
ATOM     10  C4' N4B d   1      -2.498   1.008  -3.457  0.00  0.00     0.003 C 
ENDBRANCH   8   9
ENDBRANCH   7   8
ENDBRANCH   1   7
TORSDOF 3
ENDMDL
