MODEL 1
REMARK minimizedAffinity -4.91506624
REMARK minimizedRMSD -1
REMARK  3 active torsions:
REMARK  status: ('A' for Active; 'I' for Inactive)
REMARK    1  A    between atoms: C3'_2  and  C2'_3 
REMARK    2  A    between atoms: C2'_3  and  C1'_4 
REMARK    3  A    between atoms: C1'_4  and  C1_5 
ROOT
ATOM      1  C1  N4B d   1       0.883  -0.300  -0.003  0.00  0.00    -0.075 A 
ATOM      2  C2  N4B d   1       2.138  -0.435   0.630  0.00  0.00     0.002 A 
ATOM      3  C3  N4B d   1       2.517  -1.648   1.151  0.00  0.00     0.002 A 
ATOM      4  C4  N4B d   1       1.653  -2.730   1.068  0.00  0.00    -0.004 A 
ATOM      5  C5  N4B d   1       0.454  -2.597   0.432  0.00  0.00     0.002 A 
ATOM      6  C6  N4B d   1       0.062  -1.385  -0.100  0.00  0.00     0.002 A 
ENDROOT
BRANCH   1   7
ATOM      7  C1' N4B d   1       0.389   1.027  -0.512  0.00  0.00     0.057 C 
BRANCH   7   8
ATOM      8  C2' N4B d   1      -1.119   1.116  -0.298  0.00  0.00     0.009 C 
BRANCH   8   9
ATOM      9  C3' N4B d   1      -1.804   1.901  -1.403  0.00  0.00     0.004 C 
ATOM     10  C4' N4B d   1      -3.151   1.347  -1.759  0.00  0.00     0.003 C 
ENDBRANCH   8   9
ENDBRANCH   7   8
ENDBRANCH   1   7
TORSDOF 3
ENDMDL
