MODEL 1
REMARK minimizedAffinity -5.99228144
REMARK minimizedRMSD -1
REMARK  3 active torsions:
REMARK  status: ('A' for Active; 'I' for Inactive)
REMARK    1  A    between atoms: C3'_2  and  C2'_3 
REMARK    2  A    between atoms: C2'_3  and  C1'_4 
REMARK    3  A    between atoms: C1'_4  and  C1_5 
ROOT
ATOM      1  C1  N4B d   1      -0.391  -0.062   0.189  0.00  0.00    -0.075 A 
ATOM      2  C2  N4B d   1      -0.633  -1.272   0.875  0.00  0.00     0.002 A 
ATOM      3  C3  N4B d   1       0.395  -2.157   1.090  0.00  0.00     0.002 A 
ATOM      4  C4  N4B d   1       1.664  -1.863   0.614  0.00  0.00    -0.004 A 
ATOM      5  C5  N4B d   1       1.895  -0.680  -0.025  0.00  0.00     0.002 A 
ATOM      6  C6  N4B d   1       0.872   0.220  -0.244  0.00  0.00     0.002 A 
ENDROOT
BRANCH   1   7
ATOM      7  C1' N4B d   1      -1.500   0.897  -0.145  0.00  0.00     0.057 C 
BRANCH   7   8
ATOM      8  C2' N4B d   1      -1.111   1.703  -1.381  0.00  0.00     0.009 C 
BRANCH   8   9
ATOM      9  C3' N4B d   1      -2.162   1.609  -2.474  0.00  0.00     0.004 C 
ATOM     10  C4' N4B d   1      -3.374   0.836  -2.050  0.00  0.00     0.003 C 
ENDBRANCH   8   9
ENDBRANCH   7   8
ENDBRANCH   1   7
TORSDOF 3
ENDMDL
