MODEL 1
REMARK minimizedAffinity -4.56070471
REMARK minimizedRMSD -1
REMARK  3 active torsions:
REMARK  status: ('A' for Active; 'I' for Inactive)
REMARK    1  A    between atoms: C3'_2  and  C2'_3 
REMARK    2  A    between atoms: C2'_3  and  C1'_4 
REMARK    3  A    between atoms: C1'_4  and  C1_5 
ROOT
ATOM      1  C1  N4B d   1      -1.662   1.472  -1.564  0.00  0.00    -0.075 A 
ATOM      2  C2  N4B d   1      -0.675   2.411  -1.933  0.00  0.00     0.002 A 
ATOM      3  C3  N4B d   1      -0.671   2.942  -3.200  0.00  0.00     0.002 A 
ATOM      4  C4  N4B d   1      -1.630   2.535  -4.116  0.00  0.00    -0.004 A 
ATOM      5  C5  N4B d   1      -2.595   1.647  -3.744  0.00  0.00     0.002 A 
ATOM      6  C6  N4B d   1      -2.613   1.109  -2.473  0.00  0.00     0.002 A 
ENDROOT
BRANCH   1   7
ATOM      7  C1' N4B d   1      -1.656   0.800  -0.218  0.00  0.00     0.057 C 
BRANCH   7   8
ATOM      8  C2' N4B d   1      -0.231   0.372   0.121  0.00  0.00     0.009 C 
BRANCH   8   9
ATOM      9  C3' N4B d   1      -0.173  -1.058   0.629  0.00  0.00     0.004 C 
ATOM     10  C4' N4B d   1       1.212  -1.631   0.595  0.00  0.00     0.003 C 
ENDBRANCH   8   9
ENDBRANCH   7   8
ENDBRANCH   1   7
TORSDOF 3
ENDMDL
