MODEL 1
REMARK minimizedAffinity 6.36804295
REMARK minimizedRMSD -1
REMARK  0 active torsions:
REMARK  status: ('A' for Active; 'I' for Inactive)
ROOT
ATOM      1  C1  DEN d   1       1.580  -2.310  -2.582  0.00  0.00     0.130 A 
ATOM      2  C2  DEN d   1       2.056  -1.440  -1.510  0.00  0.00    -0.031 A 
ATOM      3  C3  DEN d   1       2.804  -2.271  -0.546  0.00  0.00     0.027 A 
ATOM      4  C4  DEN d   1       3.274  -4.807  -0.611  0.00  0.00     0.027 A 
ATOM      5  C5  DEN d   1       3.063  -5.969  -1.318  0.00  0.00    -0.003 A 
ATOM      6  C6  DEN d   1       2.321  -6.000  -2.469  0.00  0.00     0.001 A 
ATOM      7  C7  DEN d   1       1.799  -4.836  -2.971  0.00  0.00     0.017 A 
ATOM      8  C8  DEN d   1       2.001  -3.661  -2.260  0.00  0.00    -0.094 A 
ATOM      9  C9  DEN d   1       2.765  -3.649  -1.105  0.00  0.00    -0.072 A 
ENDROOT
TORSDOF 0
ENDMDL
