MODEL 1
REMARK minimizedAffinity 14.7030964
REMARK minimizedRMSD -1
REMARK  0 active torsions:
REMARK  status: ('A' for Active; 'I' for Inactive)
ROOT
ATOM      1  C1  DEN d   1       1.391  -2.776  -2.848  0.00  0.00     0.130 A 
ATOM      2  C2  DEN d   1       1.801  -1.489  -2.293  0.00  0.00    -0.031 A 
ATOM      3  C3  DEN d   1       2.630  -1.751  -1.098  0.00  0.00     0.027 A 
ATOM      4  C4  DEN d   1       3.316  -4.011  -0.064  0.00  0.00     0.027 A 
ATOM      5  C5  DEN d   1       3.199  -5.379  -0.176  0.00  0.00    -0.003 A 
ATOM      6  C6  DEN d   1       2.450  -5.969  -1.159  0.00  0.00     0.001 A 
ATOM      7  C7  DEN d   1       1.824  -5.190  -2.096  0.00  0.00     0.017 A 
ATOM      8  C8  DEN d   1       1.931  -3.810  -1.985  0.00  0.00    -0.094 A 
ATOM      9  C9  DEN d   1       2.704  -3.233  -0.991  0.00  0.00    -0.072 A 
ENDROOT
TORSDOF 0
ENDMDL
