MODEL 1
REMARK minimizedAffinity 13.5034933
REMARK minimizedRMSD -1
REMARK  0 active torsions:
REMARK  status: ('A' for Active; 'I' for Inactive)
ROOT
ATOM      1  C1  DEN d   1       2.014  -1.653  -1.648  0.00  0.00     0.130 A 
ATOM      2  C2  DEN d   1       2.421  -3.035  -1.413  0.00  0.00    -0.031 A 
ATOM      3  C3  DEN d   1       3.555  -3.023  -0.467  0.00  0.00     0.027 A 
ATOM      4  C4  DEN d   1       4.711  -1.007   0.654  0.00  0.00     0.027 A 
ATOM      5  C5  DEN d   1       4.724   0.366   0.754  0.00  0.00    -0.003 A 
ATOM      6  C6  DEN d   1       3.865   1.159   0.040  0.00  0.00     0.001 A 
ATOM      7  C7  DEN d   1       2.925   0.581  -0.772  0.00  0.00     0.017 A 
ATOM      8  C8  DEN d   1       2.910  -0.804  -0.884  0.00  0.00    -0.094 A 
ATOM      9  C9  DEN d   1       3.779  -1.588  -0.144  0.00  0.00    -0.072 A 
ENDROOT
TORSDOF 0
ENDMDL
