MODEL 1
REMARK minimizedAffinity 8.06726837
REMARK minimizedRMSD -1
REMARK  0 active torsions:
REMARK  status: ('A' for Active; 'I' for Inactive)
ROOT
ATOM      1  C1  DEN d   1      -5.866  -3.434  -5.897  0.00  0.00     0.130 A 
ATOM      2  C2  DEN d   1      -5.534  -2.016  -5.792  0.00  0.00    -0.031 A 
ATOM      3  C3  DEN d   1      -4.063  -1.891  -5.767  0.00  0.00     0.027 A 
ATOM      4  C4  DEN d   1      -2.275  -3.747  -5.885  0.00  0.00     0.027 A 
ATOM      5  C5  DEN d   1      -2.073  -5.107  -5.968  0.00  0.00    -0.003 A 
ATOM      6  C6  DEN d   1      -3.111  -5.999  -6.000  0.00  0.00     0.001 A 
ATOM      7  C7  DEN d   1      -4.402  -5.539  -5.992  0.00  0.00     0.017 A 
ATOM      8  C8  DEN d   1      -4.614  -4.170  -5.901  0.00  0.00    -0.094 A 
ATOM      9  C9  DEN d   1      -3.551  -3.283  -5.882  0.00  0.00    -0.072 A 
ENDROOT
TORSDOF 0
ENDMDL
