MODEL 1
REMARK minimizedAffinity 18.4582367
REMARK minimizedRMSD -1
REMARK  0 active torsions:
REMARK  status: ('A' for Active; 'I' for Inactive)
ROOT
ATOM      1  C1  DEN d   1       0.756  -3.021  -3.089  0.00  0.00     0.130 A 
ATOM      2  C2  DEN d   1       0.714  -4.480  -3.123  0.00  0.00    -0.031 A 
ATOM      3  C3  DEN d   1       1.512  -4.986  -1.988  0.00  0.00     0.027 A 
ATOM      4  C4  DEN d   1       2.798  -3.658  -0.189  0.00  0.00     0.027 A 
ATOM      5  C5  DEN d   1       3.136  -2.396   0.247  0.00  0.00    -0.003 A 
ATOM      6  C6  DEN d   1       2.737  -1.264  -0.412  0.00  0.00     0.001 A 
ATOM      7  C7  DEN d   1       1.937  -1.370  -1.519  0.00  0.00     0.017 A 
ATOM      8  C8  DEN d   1       1.598  -2.640  -1.969  0.00  0.00    -0.094 A 
ATOM      9  C9  DEN d   1       2.001  -3.771  -1.282  0.00  0.00    -0.072 A 
ENDROOT
TORSDOF 0
ENDMDL
