MODEL 1
REMARK minimizedAffinity 0.188612655
REMARK minimizedRMSD -1
REMARK  0 active torsions:
REMARK  status: ('A' for Active; 'I' for Inactive)
ROOT
ATOM      1  C1  DEN d   1       1.884  -2.297  -2.266  0.00  0.00     0.130 A 
ATOM      2  C2  DEN d   1       1.149  -2.674  -3.471  0.00  0.00    -0.031 A 
ATOM      3  C3  DEN d   1       1.266  -4.136  -3.638  0.00  0.00     0.027 A 
ATOM      4  C4  DEN d   1       2.502  -5.846  -2.154  0.00  0.00     0.027 A 
ATOM      5  C5  DEN d   1       3.281  -5.999  -1.028  0.00  0.00    -0.003 A 
ATOM      6  C6  DEN d   1       3.673  -4.934  -0.261  0.00  0.00     0.001 A 
ATOM      7  C7  DEN d   1       3.251  -3.672  -0.585  0.00  0.00     0.017 A 
ATOM      8  C8  DEN d   1       2.472  -3.509  -1.723  0.00  0.00    -0.094 A 
ATOM      9  C9  DEN d   1       2.075  -4.599  -2.479  0.00  0.00    -0.072 A 
ENDROOT
TORSDOF 0
ENDMDL
