MODEL 1
REMARK minimizedAffinity 18.2389412
REMARK minimizedRMSD -1
REMARK  0 active torsions:
REMARK  status: ('A' for Active; 'I' for Inactive)
ROOT
ATOM      1  C1  DEN d   1       1.393  -0.789  -0.794  0.00  0.00     0.130 A 
ATOM      2  C2  DEN d   1       2.570   0.070  -0.698  0.00  0.00    -0.031 A 
ATOM      3  C3  DEN d   1       3.717  -0.770  -0.300  0.00  0.00     0.027 A 
ATOM      4  C4  DEN d   1       3.786  -3.305   0.171  0.00  0.00     0.027 A 
ATOM      5  C5  DEN d   1       3.033  -4.457   0.231  0.00  0.00    -0.003 A 
ATOM      6  C6  DEN d   1       1.684  -4.461  -0.012  0.00  0.00     0.001 A 
ATOM      7  C7  DEN d   1       1.056  -3.297  -0.370  0.00  0.00     0.017 A 
ATOM      8  C8  DEN d   1       1.808  -2.131  -0.425  0.00  0.00    -0.094 A 
ATOM      9  C9  DEN d   1       3.172  -2.150  -0.188  0.00  0.00    -0.072 A 
ENDROOT
TORSDOF 0
ENDMDL
