MODEL 1
REMARK minimizedAffinity 7.75857782
REMARK minimizedRMSD -1
REMARK  0 active torsions:
REMARK  status: ('A' for Active; 'I' for Inactive)
ROOT
ATOM      1  C1  DEN d   1      -5.082   3.526  -5.507  0.00  0.00     0.130 A 
ATOM      2  C2  DEN d   1      -5.800   4.699  -6.000  0.00  0.00    -0.031 A 
ATOM      3  C3  DEN d   1      -4.923   5.875  -5.830  0.00  0.00     0.027 A 
ATOM      4  C4  DEN d   1      -2.535   5.992  -4.862  0.00  0.00     0.027 A 
ATOM      5  C5  DEN d   1      -1.513   5.257  -4.303  0.00  0.00    -0.003 A 
ATOM      6  C6  DEN d   1      -1.621   3.911  -4.076  0.00  0.00     0.001 A 
ATOM      7  C7  DEN d   1      -2.760   3.248  -4.453  0.00  0.00     0.017 A 
ATOM      8  C8  DEN d   1      -3.797   3.984  -5.010  0.00  0.00    -0.094 A 
ATOM      9  C9  DEN d   1      -3.664   5.342  -5.242  0.00  0.00    -0.072 A 
ENDROOT
TORSDOF 0
ENDMDL
