MODEL 1
REMARK minimizedAffinity 19.0598869
REMARK minimizedRMSD -1
REMARK  0 active torsions:
REMARK  status: ('A' for Active; 'I' for Inactive)
ROOT
ATOM      1  C1  DEN d   1      -4.519   3.221   3.768  0.00  0.00     0.130 A 
ATOM      2  C2  DEN d   1      -5.920   2.812   3.821  0.00  0.00    -0.031 A 
ATOM      3  C3  DEN d   1      -5.999   1.397   3.406  0.00  0.00     0.027 A 
ATOM      4  C4  DEN d   1      -4.097  -0.193   2.694  0.00  0.00     0.027 A 
ATOM      5  C5  DEN d   1      -2.740  -0.295   2.481  0.00  0.00    -0.003 A 
ATOM      6  C6  DEN d   1      -1.892   0.768   2.648  0.00  0.00     0.001 A 
ATOM      7  C7  DEN d   1      -2.387   1.969   3.083  0.00  0.00     0.017 A 
ATOM      8  C8  DEN d   1      -3.755   2.082   3.292  0.00  0.00    -0.094 A 
ATOM      9  C9  DEN d   1      -4.594   0.992   3.130  0.00  0.00    -0.072 A 
ENDROOT
TORSDOF 0
ENDMDL
