MODEL 1
REMARK minimizedAffinity 9.82237244
REMARK minimizedRMSD -1
REMARK  0 active torsions:
REMARK  status: ('A' for Active; 'I' for Inactive)
ROOT
ATOM      1  C1  DEN d   1       4.753  -2.622  -0.029  0.00  0.00     0.130 A 
ATOM      2  C2  DEN d   1       5.996  -1.875   0.147  0.00  0.00    -0.031 A 
ATOM      3  C3  DEN d   1       5.728  -0.460  -0.177  0.00  0.00     0.027 A 
ATOM      4  C4  DEN d   1       3.520   0.644  -0.925  0.00  0.00     0.027 A 
ATOM      5  C5  DEN d   1       2.195   0.414  -1.226  0.00  0.00    -0.003 A 
ATOM      6  C6  DEN d   1       1.644  -0.839  -1.183  0.00  0.00     0.001 A 
ATOM      7  C7  DEN d   1       2.409  -1.904  -0.786  0.00  0.00     0.017 A 
ATOM      8  C8  DEN d   1       3.746  -1.681  -0.488  0.00  0.00    -0.094 A 
ATOM      9  C9  DEN d   1       4.282  -0.405  -0.526  0.00  0.00    -0.072 A 
ENDROOT
TORSDOF 0
ENDMDL
