MODEL 1
REMARK minimizedAffinity 16.2677536
REMARK minimizedRMSD -1
REMARK  0 active torsions:
REMARK  status: ('A' for Active; 'I' for Inactive)
ROOT
ATOM      1  C1  DEN d   1       4.440   0.297   1.100  0.00  0.00     0.130 A 
ATOM      2  C2  DEN d   1       4.043   1.529   0.424  0.00  0.00    -0.031 A 
ATOM      3  C3  DEN d   1       3.115   1.173  -0.668  0.00  0.00     0.027 A 
ATOM      4  C4  DEN d   1       2.255  -1.155  -1.371  0.00  0.00     0.027 A 
ATOM      5  C5  DEN d   1       2.322  -2.505  -1.103  0.00  0.00    -0.003 A 
ATOM      6  C6  DEN d   1       3.119  -3.014  -0.111  0.00  0.00     0.001 A 
ATOM      7  C7  DEN d   1       3.847  -2.163   0.678  0.00  0.00     0.017 A 
ATOM      8  C8  DEN d   1       3.791  -0.802   0.409  0.00  0.00    -0.094 A 
ATOM      9  C9  DEN d   1       2.970  -0.306  -0.590  0.00  0.00    -0.072 A 
ENDROOT
TORSDOF 0
ENDMDL
