MODEL 1
REMARK minimizedAffinity 25.7626572
REMARK minimizedRMSD -1
REMARK  0 active torsions:
REMARK  status: ('A' for Active; 'I' for Inactive)
ROOT
ATOM      1  C1  DEN d   1       5.878  -1.844   0.588  0.00  0.00     0.130 A 
ATOM      2  C2  DEN d   1       5.298  -3.162   0.342  0.00  0.00    -0.031 A 
ATOM      3  C3  DEN d   1       3.871  -2.977   0.008  0.00  0.00     0.027 A 
ATOM      4  C4  DEN d   1       2.514  -0.790  -0.158  0.00  0.00     0.027 A 
ATOM      5  C5  DEN d   1       2.571   0.580  -0.024  0.00  0.00    -0.003 A 
ATOM      6  C6  DEN d   1       3.717   1.229   0.353  0.00  0.00     0.001 A 
ATOM      7  C7  DEN d   1       4.865   0.513   0.566  0.00  0.00     0.017 A 
ATOM      8  C8  DEN d   1       4.813  -0.870   0.440  0.00  0.00    -0.094 A 
ATOM      9  C9  DEN d   1       3.648  -1.506   0.047  0.00  0.00    -0.072 A 
ENDROOT
TORSDOF 0
ENDMDL
