MODEL 1
REMARK minimizedAffinity 8.11592388
REMARK minimizedRMSD -1
REMARK  0 active torsions:
REMARK  status: ('A' for Active; 'I' for Inactive)
ROOT
ATOM      1  C1  DEN d   1       4.235  -0.169   1.427  0.00  0.00     0.130 A 
ATOM      2  C2  DEN d   1       2.866   0.292   1.210  0.00  0.00    -0.031 A 
ATOM      3  C3  DEN d   1       2.072  -0.852   0.719  0.00  0.00     0.027 A 
ATOM      4  C4  DEN d   1       2.824  -3.280   0.279  0.00  0.00     0.027 A 
ATOM      5  C5  DEN d   1       3.894  -4.146   0.305  0.00  0.00    -0.003 A 
ATOM      6  C6  DEN d   1       5.151  -3.742   0.672  0.00  0.00     0.001 A 
ATOM      7  C7  DEN d   1       5.359  -2.448   1.071  0.00  0.00     0.017 A 
ATOM      8  C8  DEN d   1       4.286  -1.568   1.039  0.00  0.00    -0.094 A 
ATOM      9  C9  DEN d   1       3.020  -1.998   0.677  0.00  0.00    -0.072 A 
ENDROOT
TORSDOF 0
ENDMDL
