MODEL 1
REMARK minimizedAffinity 18.3076572
REMARK minimizedRMSD -1
REMARK  0 active torsions:
REMARK  status: ('A' for Active; 'I' for Inactive)
ROOT
ATOM      1  C1  DEN d   1       3.005  -2.579  -0.017  0.00  0.00     0.130 A 
ATOM      2  C2  DEN d   1       2.572  -1.385  -0.738  0.00  0.00    -0.031 A 
ATOM      3  C3  DEN d   1       1.783  -1.820  -1.908  0.00  0.00     0.027 A 
ATOM      4  C4  DEN d   1       1.189  -4.213  -2.666  0.00  0.00     0.027 A 
ATOM      5  C5  DEN d   1       1.342  -5.551  -2.380  0.00  0.00    -0.003 A 
ATOM      6  C6  DEN d   1       2.083  -5.990  -1.315  0.00  0.00     0.001 A 
ATOM      7  C7  DEN d   1       2.661  -5.081  -0.469  0.00  0.00     0.017 A 
ATOM      8  C8  DEN d   1       2.517  -3.729  -0.755  0.00  0.00    -0.094 A 
ATOM      9  C9  DEN d   1       1.754  -3.305  -1.830  0.00  0.00    -0.072 A 
ENDROOT
TORSDOF 0
ENDMDL
