MODEL 1
REMARK minimizedAffinity 14.4688768
REMARK minimizedRMSD -1
REMARK  0 active torsions:
REMARK  status: ('A' for Active; 'I' for Inactive)
ROOT
ATOM      1  C1  DEN d   1      -0.496  -4.630  -1.544  0.00  0.00     0.130 A 
ATOM      2  C2  DEN d   1      -1.122  -4.576  -2.863  0.00  0.00    -0.031 A 
ATOM      3  C3  DEN d   1      -0.549  -3.427  -3.593  0.00  0.00     0.027 A 
ATOM      4  C4  DEN d   1       1.240  -1.739  -2.817  0.00  0.00     0.027 A 
ATOM      5  C5  DEN d   1       2.058  -1.372  -1.771  0.00  0.00    -0.003 A 
ATOM      6  C6  DEN d   1       2.058  -2.039  -0.575  0.00  0.00     0.001 A 
ATOM      7  C7  DEN d   1       1.255  -3.136  -0.410  0.00  0.00     0.017 A 
ATOM      8  C8  DEN d   1       0.422  -3.508  -1.457  0.00  0.00    -0.094 A 
ATOM      9  C9  DEN d   1       0.446  -2.829  -2.663  0.00  0.00    -0.072 A 
ENDROOT
TORSDOF 0
ENDMDL
