MODEL 1
REMARK minimizedAffinity 24.3912239
REMARK minimizedRMSD -1
REMARK  0 active torsions:
REMARK  status: ('A' for Active; 'I' for Inactive)
ROOT
ATOM      1  C1  DEN d   1      -0.212   0.713   4.293  0.00  0.00     0.130 A 
ATOM      2  C2  DEN d   1       0.609   0.885   3.097  0.00  0.00    -0.031 A 
ATOM      3  C3  DEN d   1      -0.294   1.136   1.956  0.00  0.00     0.027 A 
ATOM      4  C4  DEN d   1      -2.869   1.278   1.925  0.00  0.00     0.027 A 
ATOM      5  C5  DEN d   1      -4.008   1.187   2.694  0.00  0.00    -0.003 A 
ATOM      6  C6  DEN d   1      -3.963   0.900   4.033  0.00  0.00     0.001 A 
ATOM      7  C7  DEN d   1      -2.752   0.739   4.653  0.00  0.00     0.017 A 
ATOM      8  C8  DEN d   1      -1.600   0.822   3.882  0.00  0.00    -0.094 A 
ATOM      9  C9  DEN d   1      -1.666   1.124   2.532  0.00  0.00    -0.072 A 
ENDROOT
TORSDOF 0
ENDMDL
