MODEL 1
REMARK minimizedAffinity 8.56412888
REMARK minimizedRMSD -1
REMARK  0 active torsions:
REMARK  status: ('A' for Active; 'I' for Inactive)
ROOT
ATOM      1  C1  DEN d   1       2.088  -1.163  -0.207  0.00  0.00     0.130 A 
ATOM      2  C2  DEN d   1       1.416  -2.280  -0.864  0.00  0.00    -0.031 A 
ATOM      3  C3  DEN d   1       1.095  -1.871  -2.247  0.00  0.00     0.027 A 
ATOM      4  C4  DEN d   1       1.575   0.371  -3.428  0.00  0.00     0.027 A 
ATOM      5  C5  DEN d   1       2.115   1.628  -3.273  0.00  0.00    -0.003 A 
ATOM      6  C6  DEN d   1       2.649   2.052  -2.084  0.00  0.00     0.001 A 
ATOM      7  C7  DEN d   1       2.695   1.195  -1.017  0.00  0.00     0.017 A 
ATOM      8  C8  DEN d   1       2.146  -0.072  -1.164  0.00  0.00    -0.094 A 
ATOM      9  C9  DEN d   1       1.622  -0.486  -2.377  0.00  0.00    -0.072 A 
ENDROOT
TORSDOF 0
ENDMDL
