MODEL 1
REMARK minimizedAffinity 16.3186359
REMARK minimizedRMSD -1
REMARK  0 active torsions:
REMARK  status: ('A' for Active; 'I' for Inactive)
ROOT
ATOM      1  C1  DEN d   1      -5.747   2.866   3.693  0.00  0.00     0.130 A 
ATOM      2  C2  DEN d   1      -5.962   3.656   4.902  0.00  0.00    -0.031 A 
ATOM      3  C3  DEN d   1      -5.197   3.028   5.999  0.00  0.00     0.027 A 
ATOM      4  C4  DEN d   1      -3.707   0.924   5.940  0.00  0.00     0.027 A 
ATOM      5  C5  DEN d   1      -3.227  -0.090   5.141  0.00  0.00    -0.003 A 
ATOM      6  C6  DEN d   1      -3.579  -0.209   3.823  0.00  0.00     0.001 A 
ATOM      7  C7  DEN d   1      -4.398   0.729   3.252  0.00  0.00     0.017 A 
ATOM      8  C8  DEN d   1      -4.891   1.750   4.053  0.00  0.00    -0.094 A 
ATOM      9  C9  DEN d   1      -4.515   1.860   5.381  0.00  0.00    -0.072 A 
ENDROOT
TORSDOF 0
ENDMDL
