MODEL 1
REMARK minimizedAffinity 30.139864
REMARK minimizedRMSD -1
REMARK  0 active torsions:
REMARK  status: ('A' for Active; 'I' for Inactive)
ROOT
ATOM      1  C1  DEN d   1      -2.828   0.370   4.260  0.00  0.00     0.130 A 
ATOM      2  C2  DEN d   1      -3.997   1.109   3.790  0.00  0.00    -0.031 A 
ATOM      3  C3  DEN d   1      -3.542   2.097   2.792  0.00  0.00     0.027 A 
ATOM      4  C4  DEN d   1      -1.154   2.551   1.930  0.00  0.00     0.027 A 
ATOM      5  C5  DEN d   1       0.169   2.184   2.043  0.00  0.00    -0.003 A 
ATOM      6  C6  DEN d   1       0.586   1.218   2.920  0.00  0.00     0.001 A 
ATOM      7  C7  DEN d   1      -0.334   0.554   3.687  0.00  0.00     0.017 A 
ATOM      8  C8  DEN d   1      -1.669   0.924   3.584  0.00  0.00    -0.094 A 
ATOM      9  C9  DEN d   1      -2.072   1.894   2.682  0.00  0.00    -0.072 A 
ENDROOT
TORSDOF 0
ENDMDL
