MODEL 1
REMARK minimizedAffinity 5.81106424
REMARK minimizedRMSD -1
REMARK  1 active torsions:
REMARK  status: ('A' for Active; 'I' for Inactive)
REMARK    1  A    between atoms: N_2  and  C1_3 
ROOT
ATOM      1  C1  UNL d   1       1.659  -1.928   0.205  0.00  0.00     0.143 A 
ATOM      2  C2  UNL d   1       2.407  -0.851  -0.282  0.00  0.00    -0.057 A 
ATOM      3  C3  UNL d   1       1.978  -0.110  -1.390  0.00  0.00     0.033 A 
ATOM      4  C4  UNL d   1       0.802  -0.452  -2.049  0.00  0.00    -0.042 A 
ATOM      5  C5  UNL d   1       0.054  -1.534  -1.598  0.00  0.00     0.033 A 
ATOM      6  C6  UNL d   1       0.485  -2.266  -0.487  0.00  0.00    -0.057 A 
ENDROOT
BRANCH   1   7
ATOM      7  N   UNL d   1       2.082  -2.764   1.241  0.00  0.00    -0.732 N 
ATOM      8  C   UNL d   1       1.588  -4.120   1.342  0.00  0.00     0.284 C 
ATOM      9  H3  UNL d   1       3.076  -2.668   1.436  0.00  0.00     0.395 HD
ENDBRANCH   1   7
TORSDOF 1
ENDMDL
