MODEL 1
REMARK minimizedAffinity 0.117754646
REMARK minimizedRMSD -1
REMARK  1 active torsions:
REMARK  status: ('A' for Active; 'I' for Inactive)
REMARK    1  A    between atoms: N_2  and  C1_3 
ROOT
ATOM      1  C1  UNL d   1       1.381  -3.077   0.457  0.00  0.00     0.143 A 
ATOM      2  C2  UNL d   1       2.119  -2.203  -0.348  0.00  0.00    -0.057 A 
ATOM      3  C3  UNL d   1       1.530  -1.066  -0.915  0.00  0.00     0.033 A 
ATOM      4  C4  UNL d   1       0.181  -0.798  -0.709  0.00  0.00    -0.042 A 
ATOM      5  C5  UNL d   1      -0.578  -1.666   0.067  0.00  0.00     0.033 A 
ATOM      6  C6  UNL d   1       0.017  -2.796   0.636  0.00  0.00    -0.057 A 
ENDROOT
BRANCH   1   7
ATOM      7  N   UNL d   1       1.884  -4.276   0.968  0.00  0.00    -0.732 N 
ATOM      8  C   UNL d   1       0.987  -5.310   1.439  0.00  0.00     0.284 C 
ATOM      9  H3  UNL d   1       2.675  -4.624   0.433  0.00  0.00     0.395 HD
ENDBRANCH   1   7
TORSDOF 1
ENDMDL
