MODEL 1
REMARK minimizedAffinity -1.61929584
REMARK minimizedRMSD -1
REMARK  1 active torsions:
REMARK  status: ('A' for Active; 'I' for Inactive)
REMARK    1  A    between atoms: N_2  and  C1_3 
ROOT
ATOM      1  C1  UNL d   1       0.022  -2.697   0.205  0.00  0.00     0.143 A 
ATOM      2  C2  UNL d   1       1.394  -2.427   0.237  0.00  0.00    -0.057 A 
ATOM      3  C3  UNL d   1       1.958  -1.438  -0.579  0.00  0.00     0.033 A 
ATOM      4  C4  UNL d   1       1.161  -0.720  -1.464  0.00  0.00    -0.042 A 
ATOM      5  C5  UNL d   1      -0.202  -0.989  -1.530  0.00  0.00     0.033 A 
ATOM      6  C6  UNL d   1      -0.760  -1.973  -0.708  0.00  0.00    -0.057 A 
ENDROOT
BRANCH   1   7
ATOM      7  N   UNL d   1      -0.583  -3.734   0.919  0.00  0.00    -0.732 N 
ATOM      8  C   UNL d   1       0.194  -4.867   1.375  0.00  0.00     0.284 C 
ATOM      9  H3  UNL d   1      -1.261  -3.395   1.599  0.00  0.00     0.395 HD
ENDBRANCH   1   7
TORSDOF 1
ENDMDL
