MODEL 1
REMARK minimizedAffinity 2.65733624
REMARK minimizedRMSD -1
REMARK  1 active torsions:
REMARK  status: ('A' for Active; 'I' for Inactive)
REMARK    1  A    between atoms: N_2  and  C1_3 
ROOT
ATOM      1  C1  UNL d   1       1.374  -1.789  -0.031  0.00  0.00     0.143 A 
ATOM      2  C2  UNL d   1       1.676  -0.521  -0.538  0.00  0.00    -0.057 A 
ATOM      3  C3  UNL d   1       0.710   0.243  -1.204  0.00  0.00     0.033 A 
ATOM      4  C4  UNL d   1      -0.571  -0.262  -1.401  0.00  0.00    -0.042 A 
ATOM      5  C5  UNL d   1      -0.886  -1.531  -0.927  0.00  0.00     0.033 A 
ATOM      6  C6  UNL d   1       0.081  -2.286  -0.257  0.00  0.00    -0.057 A 
ENDROOT
BRANCH   1   7
ATOM      7  N   UNL d   1       2.318  -2.638   0.554  0.00  0.00    -0.732 N 
ATOM      8  C   UNL d   1       1.993  -4.020   0.833  0.00  0.00     0.284 C 
ATOM      9  H3  UNL d   1       3.252  -2.499   0.176  0.00  0.00     0.395 HD
ENDBRANCH   1   7
TORSDOF 1
ENDMDL
