MODEL 1
REMARK minimizedAffinity 3.74941826
REMARK minimizedRMSD -1
REMARK  1 active torsions:
REMARK  status: ('A' for Active; 'I' for Inactive)
REMARK    1  A    between atoms: N_2  and  C1_3 
ROOT
ATOM      1  C1  UNL d   1       1.642  -1.681  -1.628  0.00  0.00     0.143 A 
ATOM      2  C2  UNL d   1       0.600  -1.778  -0.699  0.00  0.00    -0.057 A 
ATOM      3  C3  UNL d   1       0.734  -1.267   0.598  0.00  0.00     0.033 A 
ATOM      4  C4  UNL d   1       1.926  -0.673   0.998  0.00  0.00    -0.042 A 
ATOM      5  C5  UNL d   1       2.984  -0.588   0.100  0.00  0.00     0.033 A 
ATOM      6  C6  UNL d   1       2.842  -1.094  -1.196  0.00  0.00    -0.057 A 
ENDROOT
BRANCH   1   7
ATOM      7  N   UNL d   1       1.606  -2.257  -2.900  0.00  0.00    -0.732 N 
ATOM      8  C   UNL d   1       0.845  -1.642  -3.967  0.00  0.00     0.284 C 
ATOM      9  H3  UNL d   1       2.513  -2.616  -3.190  0.00  0.00     0.395 HD
ENDBRANCH   1   7
TORSDOF 1
ENDMDL
