MODEL 1
REMARK minimizedAffinity -0.627995849
REMARK minimizedRMSD -1
REMARK  1 active torsions:
REMARK  status: ('A' for Active; 'I' for Inactive)
REMARK    1  A    between atoms: N_2  and  C1_3 
ROOT
ATOM      1  C1  UNL d   1       0.985  -3.783   0.733  0.00  0.00     0.143 A 
ATOM      2  C2  UNL d   1      -0.211  -3.494   0.068  0.00  0.00    -0.057 A 
ATOM      3  C3  UNL d   1      -0.509  -2.194  -0.359  0.00  0.00     0.033 A 
ATOM      4  C4  UNL d   1       0.374  -1.151  -0.100  0.00  0.00    -0.042 A 
ATOM      5  C5  UNL d   1       1.558  -1.410   0.582  0.00  0.00     0.033 A 
ATOM      6  C6  UNL d   1       1.853  -2.712   0.999  0.00  0.00    -0.057 A 
ENDROOT
BRANCH   1   7
ATOM      7  N   UNL d   1       1.294  -5.035   1.269  0.00  0.00    -0.732 N 
ATOM      8  C   UNL d   1       0.249  -6.000   1.539  0.00  0.00     0.284 C 
ATOM      9  H3  UNL d   1       2.134  -5.437   0.858  0.00  0.00     0.395 HD
ENDBRANCH   1   7
TORSDOF 1
ENDMDL
