MODEL 1
REMARK minimizedAffinity 1.00688756
REMARK minimizedRMSD -1
REMARK  1 active torsions:
REMARK  status: ('A' for Active; 'I' for Inactive)
REMARK    1  A    between atoms: N_2  and  C1_3 
ROOT
ATOM      1  C1  UNL d   1       0.897   0.234  -2.832  0.00  0.00     0.143 A 
ATOM      2  C2  UNL d   1       0.868  -1.130  -3.141  0.00  0.00    -0.057 A 
ATOM      3  C3  UNL d   1       0.809  -2.102  -2.135  0.00  0.00     0.033 A 
ATOM      4  C4  UNL d   1       0.807  -1.725  -0.796  0.00  0.00    -0.042 A 
ATOM      5  C5  UNL d   1       0.860  -0.376  -0.465  0.00  0.00     0.033 A 
ATOM      6  C6  UNL d   1       0.912   0.590  -1.475  0.00  0.00    -0.057 A 
ENDROOT
BRANCH   1   7
ATOM      7  N   UNL d   1       1.055   1.244  -3.784  0.00  0.00    -0.732 N 
ATOM      8  C   UNL d   1       2.117   1.172  -4.765  0.00  0.00     0.284 C 
ATOM      9  H3  UNL d   1       0.166   1.569  -4.157  0.00  0.00     0.395 HD
ENDBRANCH   1   7
TORSDOF 1
ENDMDL
