MODEL 1
REMARK minimizedAffinity 0.396277964
REMARK minimizedRMSD -1
REMARK  1 active torsions:
REMARK  status: ('A' for Active; 'I' for Inactive)
REMARK    1  A    between atoms: N_2  and  C1_3 
ROOT
ATOM      1  C1  UNL d   1       0.870  -1.129  -1.195  0.00  0.00     0.143 A 
ATOM      2  C2  UNL d   1       1.164  -2.285  -1.925  0.00  0.00    -0.057 A 
ATOM      3  C3  UNL d   1       1.384  -2.235  -3.307  0.00  0.00     0.033 A 
ATOM      4  C4  UNL d   1       1.283  -1.027  -3.990  0.00  0.00    -0.042 A 
ATOM      5  C5  UNL d   1       0.967   0.131  -3.289  0.00  0.00     0.033 A 
ATOM      6  C6  UNL d   1       0.755   0.075  -1.908  0.00  0.00    -0.057 A 
ENDROOT
BRANCH   1   7
ATOM      7  N   UNL d   1       0.544  -1.129   0.163  0.00  0.00    -0.732 N 
ATOM      8  C   UNL d   1      -0.524  -1.967   0.666  0.00  0.00     0.284 C 
ATOM      9  H3  UNL d   1       1.368  -1.102   0.760  0.00  0.00     0.395 HD
ENDBRANCH   1   7
TORSDOF 1
ENDMDL
