MODEL 1
REMARK minimizedAffinity -3.40425992
REMARK minimizedRMSD -1
REMARK  1 active torsions:
REMARK  status: ('A' for Active; 'I' for Inactive)
REMARK    1  A    between atoms: N_2  and  C1_3 
ROOT
ATOM      1  C1  UNL d   1      -4.062   3.329   5.259  0.00  0.00     0.143 A 
ATOM      2  C2  UNL d   1      -4.953   4.112   5.999  0.00  0.00    -0.057 A 
ATOM      3  C3  UNL d   1      -5.243   5.431   5.627  0.00  0.00     0.033 A 
ATOM      4  C4  UNL d   1      -4.621   6.000   4.521  0.00  0.00    -0.042 A 
ATOM      5  C5  UNL d   1      -3.712   5.248   3.785  0.00  0.00     0.033 A 
ATOM      6  C6  UNL d   1      -3.433   3.930   4.157  0.00  0.00    -0.057 A 
ENDROOT
BRANCH   1   7
ATOM      7  N   UNL d   1      -3.658   2.045   5.634  0.00  0.00    -0.732 N 
ATOM      8  C   UNL d   1      -4.598   0.945   5.628  0.00  0.00     0.284 C 
ATOM      9  H3  UNL d   1      -2.737   1.806   5.272  0.00  0.00     0.395 HD
ENDBRANCH   1   7
TORSDOF 1
ENDMDL
