MODEL 1
REMARK minimizedAffinity 5.03611326
REMARK minimizedRMSD -1
REMARK  1 active torsions:
REMARK  status: ('A' for Active; 'I' for Inactive)
REMARK    1  A    between atoms: N_2  and  C1_3 
ROOT
ATOM      1  C1  UNL d   1       0.864   0.462  -2.022  0.00  0.00     0.143 A 
ATOM      2  C2  UNL d   1       1.568   0.974  -3.117  0.00  0.00    -0.057 A 
ATOM      3  C3  UNL d   1       1.957   0.150  -4.180  0.00  0.00     0.033 A 
ATOM      4  C4  UNL d   1       1.674  -1.211  -4.153  0.00  0.00    -0.042 A 
ATOM      5  C5  UNL d   1       0.997  -1.747  -3.063  0.00  0.00     0.033 A 
ATOM      6  C6  UNL d   1       0.605  -0.918  -2.007  0.00  0.00    -0.057 A 
ENDROOT
BRANCH   1   7
ATOM      7  N   UNL d   1       0.535   1.210  -0.889  0.00  0.00    -0.732 N 
ATOM      8  C   UNL d   1       1.504   2.101  -0.288  0.00  0.00     0.284 C 
ATOM      9  H3  UNL d   1      -0.407   1.590  -0.935  0.00  0.00     0.395 HD
ENDBRANCH   1   7
TORSDOF 1
ENDMDL
