MODEL 1
REMARK minimizedAffinity 5.20873213
REMARK minimizedRMSD -1
REMARK  2 active torsions:
REMARK  status: ('A' for Active; 'I' for Inactive)
REMARK    1  A    between atoms: C1_2  and  C2_3 
REMARK    2  A    between atoms: C2_3  and  C3_4 
ROOT
ATOM      1  C3  UNL d   1       5.195   3.779   4.303  0.00  0.00    -0.075 A 
ATOM      2  C4  UNL d   1       4.090   3.720   5.165  0.00  0.00     0.002 A 
ATOM      3  C5  UNL d   1       3.785   4.796   6.000  0.00  0.00     0.002 A 
ATOM      4  C6  UNL d   1       4.584   5.937   5.992  0.00  0.00    -0.004 A 
ATOM      5  C7  UNL d   1       5.694   5.999   5.152  0.00  0.00     0.002 A 
ATOM      6  C8  UNL d   1       5.999   4.927   4.312  0.00  0.00     0.002 A 
ENDROOT
BRANCH   1   7
ATOM      7  C2  UNL d   1       5.514   2.631   3.376  0.00  0.00     0.056 C 
BRANCH   7   8
ATOM      8  C1  UNL d   1       5.792   3.055   1.930  0.00  0.00     0.007 C 
ATOM      9  C   UNL d   1       4.565   2.966   1.032  0.00  0.00     0.009 C 
ENDBRANCH   7   8
ENDBRANCH   1   7
TORSDOF 2
ENDMDL
