MODEL 1
REMARK minimizedAffinity 7.3703475
REMARK minimizedRMSD -1
REMARK  2 active torsions:
REMARK  status: ('A' for Active; 'I' for Inactive)
REMARK    1  A    between atoms: C1_2  and  C2_3 
REMARK    2  A    between atoms: C2_3  and  C3_4 
ROOT
ATOM      1  C3  UNL d   1       5.246   3.700   4.793  0.00  0.00    -0.075 A 
ATOM      2  C4  UNL d   1       3.931   3.522   5.246  0.00  0.00     0.002 A 
ATOM      3  C5  UNL d   1       3.238   4.576   5.841  0.00  0.00     0.002 A 
ATOM      4  C6  UNL d   1       3.853   5.816   6.000  0.00  0.00    -0.004 A 
ATOM      5  C7  UNL d   1       5.165   6.000   5.569  0.00  0.00     0.002 A 
ATOM      6  C8  UNL d   1       5.859   4.948   4.969  0.00  0.00     0.002 A 
ENDROOT
BRANCH   1   7
ATOM      7  C2  UNL d   1       5.991   2.571   4.121  0.00  0.00     0.056 C 
BRANCH   7   8
ATOM      8  C1  UNL d   1       5.236   1.936   2.949  0.00  0.00     0.007 C 
ATOM      9  C   UNL d   1       5.114   2.857   1.743  0.00  0.00     0.009 C 
ENDBRANCH   7   8
ENDBRANCH   1   7
TORSDOF 2
ENDMDL
