MODEL 1
REMARK minimizedAffinity 7.7514534
REMARK minimizedRMSD -1
REMARK  2 active torsions:
REMARK  status: ('A' for Active; 'I' for Inactive)
REMARK    1  A    between atoms: C1_2  and  C2_3 
REMARK    2  A    between atoms: C2_3  and  C3_4 
ROOT
ATOM      1  C3  UNL d   1       5.264   4.023   4.546  0.00  0.00    -0.075 A 
ATOM      2  C4  UNL d   1       5.972   5.013   5.244  0.00  0.00     0.002 A 
ATOM      3  C5  UNL d   1       5.291   5.991   5.970  0.00  0.00     0.002 A 
ATOM      4  C6  UNL d   1       3.898   5.999   5.999  0.00  0.00    -0.004 A 
ATOM      5  C7  UNL d   1       3.185   5.031   5.295  0.00  0.00     0.002 A 
ATOM      6  C8  UNL d   1       3.863   4.048   4.572  0.00  0.00     0.002 A 
ENDROOT
BRANCH   1   7
ATOM      7  C2  UNL d   1       5.995   2.945   3.783  0.00  0.00     0.056 C 
BRANCH   7   8
ATOM      8  C1  UNL d   1       5.107   2.155   2.815  0.00  0.00     0.007 C 
ATOM      9  C   UNL d   1       5.040   2.771   1.424  0.00  0.00     0.009 C 
ENDBRANCH   7   8
ENDBRANCH   1   7
TORSDOF 2
ENDMDL
