MODEL 1
REMARK minimizedAffinity 12.8309965
REMARK minimizedRMSD -1
REMARK  2 active torsions:
REMARK  status: ('A' for Active; 'I' for Inactive)
REMARK    1  A    between atoms: C1_2  and  C2_3 
REMARK    2  A    between atoms: C2_3  and  C3_4 
ROOT
ATOM      1  C3  UNL d   1       5.232   4.019   3.868  0.00  0.00    -0.075 A 
ATOM      2  C4  UNL d   1       6.000   5.160   4.142  0.00  0.00     0.002 A 
ATOM      3  C5  UNL d   1       5.667   6.000   5.205  0.00  0.00     0.002 A 
ATOM      4  C6  UNL d   1       4.559   5.716   6.000  0.00  0.00    -0.004 A 
ATOM      5  C7  UNL d   1       3.779   4.595   5.727  0.00  0.00     0.002 A 
ATOM      6  C8  UNL d   1       4.112   3.750   4.667  0.00  0.00     0.002 A 
ENDROOT
BRANCH   1   7
ATOM      7  C2  UNL d   1       5.604   3.090   2.737  0.00  0.00     0.056 C 
BRANCH   7   8
ATOM      8  C1  UNL d   1       4.525   2.958   1.657  0.00  0.00     0.007 C 
ATOM      9  C   UNL d   1       4.966   3.489   0.300  0.00  0.00     0.009 C 
ENDBRANCH   7   8
ENDBRANCH   1   7
TORSDOF 2
ENDMDL
