MODEL 1
REMARK minimizedAffinity 4.86739731
REMARK minimizedRMSD -1
REMARK  2 active torsions:
REMARK  status: ('A' for Active; 'I' for Inactive)
REMARK    1  A    between atoms: C1_2  and  C2_3 
REMARK    2  A    between atoms: C2_3  and  C3_4 
ROOT
ATOM      1  C3  UNL d   1      -1.485   0.717  -2.445  0.00  0.00    -0.075 A 
ATOM      2  C4  UNL d   1      -2.820   0.735  -2.015  0.00  0.00     0.002 A 
ATOM      3  C5  UNL d   1      -3.331  -0.313  -1.248  0.00  0.00     0.002 A 
ATOM      4  C6  UNL d   1      -2.520  -1.394  -0.910  0.00  0.00    -0.004 A 
ATOM      5  C7  UNL d   1      -1.197  -1.430  -1.346  0.00  0.00     0.002 A 
ATOM      6  C8  UNL d   1      -0.682  -0.381  -2.110  0.00  0.00     0.002 A 
ENDROOT
BRANCH   1   7
ATOM      7  C2  UNL d   1      -0.918   1.862  -3.250  0.00  0.00     0.056 C 
BRANCH   7   8
ATOM      8  C1  UNL d   1      -1.928   2.520  -4.195  0.00  0.00     0.007 C 
ATOM      9  C   UNL d   1      -2.268   3.953  -3.807  0.00  0.00     0.009 C 
ENDBRANCH   7   8
ENDBRANCH   1   7
TORSDOF 2
ENDMDL
