MODEL 1
REMARK minimizedAffinity 1.66806185
REMARK minimizedRMSD -1
REMARK  2 active torsions:
REMARK  status: ('A' for Active; 'I' for Inactive)
REMARK    1  A    between atoms: C1_2  and  C2_3 
REMARK    2  A    between atoms: C2_3  and  C3_4 
ROOT
ATOM      1  C3  UNL d   1       4.772   3.798   5.064  0.00  0.00    -0.075 A 
ATOM      2  C4  UNL d   1       4.761   5.146   4.675  0.00  0.00     0.002 A 
ATOM      3  C5  UNL d   1       3.660   5.956   4.958  0.00  0.00     0.002 A 
ATOM      4  C6  UNL d   1       2.556   5.428   5.623  0.00  0.00    -0.004 A 
ATOM      5  C7  UNL d   1       2.549   4.087   5.999  0.00  0.00     0.002 A 
ATOM      6  C8  UNL d   1       3.650   3.275   5.721  0.00  0.00     0.002 A 
ENDROOT
BRANCH   1   7
ATOM      7  C2  UNL d   1       5.971   2.924   4.786  0.00  0.00     0.056 C 
BRANCH   7   8
ATOM      8  C1  UNL d   1       5.944   2.246   3.413  0.00  0.00     0.007 C 
ATOM      9  C   UNL d   1       5.998   0.726   3.493  0.00  0.00     0.009 C 
ENDBRANCH   7   8
ENDBRANCH   1   7
TORSDOF 2
ENDMDL
