MODEL 1
REMARK minimizedAffinity -4.01438284
REMARK minimizedRMSD -1
REMARK  2 active torsions:
REMARK  status: ('A' for Active; 'I' for Inactive)
REMARK    1  A    between atoms: C1_2  and  C2_3 
REMARK    2  A    between atoms: C2_3  and  C3_4 
ROOT
ATOM      1  C3  UNL d   1      -1.473  -0.262   0.596  0.00  0.00    -0.075 A 
ATOM      2  C4  UNL d   1      -0.622   0.528  -0.190  0.00  0.00     0.002 A 
ATOM      3  C5  UNL d   1       0.753   0.293  -0.202  0.00  0.00     0.002 A 
ATOM      4  C6  UNL d   1       1.295  -0.727   0.578  0.00  0.00    -0.004 A 
ATOM      5  C7  UNL d   1       0.460  -1.508   1.375  0.00  0.00     0.002 A 
ATOM      6  C8  UNL d   1      -0.916  -1.277   1.386  0.00  0.00     0.002 A 
ENDROOT
BRANCH   1   7
ATOM      7  C2  UNL d   1      -2.966  -0.032   0.590  0.00  0.00     0.056 C 
BRANCH   7   8
ATOM      8  C1  UNL d   1      -3.722  -0.864  -0.450  0.00  0.00     0.007 C 
ATOM      9  C   UNL d   1      -2.845  -1.314  -1.611  0.00  0.00     0.009 C 
ENDBRANCH   7   8
ENDBRANCH   1   7
TORSDOF 2
ENDMDL
