MODEL 1
REMARK minimizedAffinity -1.85684574
REMARK minimizedRMSD -1
REMARK  2 active torsions:
REMARK  status: ('A' for Active; 'I' for Inactive)
REMARK    1  A    between atoms: C1_2  and  C2_3 
REMARK    2  A    between atoms: C2_3  and  C3_4 
ROOT
ATOM      1  C3  UNL d   1      -0.324  -0.383  -0.482  0.00  0.00    -0.075 A 
ATOM      2  C4  UNL d   1       0.907  -0.062  -1.072  0.00  0.00     0.002 A 
ATOM      3  C5  UNL d   1       2.104  -0.407  -0.446  0.00  0.00     0.002 A 
ATOM      4  C6  UNL d   1       2.088  -1.067   0.781  0.00  0.00    -0.004 A 
ATOM      5  C7  UNL d   1       0.871  -1.377   1.385  0.00  0.00     0.002 A 
ATOM      6  C8  UNL d   1      -0.329  -1.036   0.758  0.00  0.00     0.002 A 
ENDROOT
BRANCH   1   7
ATOM      7  C2  UNL d   1      -1.624  -0.039  -1.169  0.00  0.00     0.056 C 
BRANCH   7   8
ATOM      8  C1  UNL d   1      -2.569  -1.231  -1.349  0.00  0.00     0.007 C 
ATOM      9  C   UNL d   1      -3.594  -1.360  -0.230  0.00  0.00     0.009 C 
ENDBRANCH   7   8
ENDBRANCH   1   7
TORSDOF 2
ENDMDL
