MODEL 1
REMARK minimizedAffinity 3.58496189
REMARK minimizedRMSD -1
REMARK  2 active torsions:
REMARK  status: ('A' for Active; 'I' for Inactive)
REMARK    1  A    between atoms: C1_2  and  C2_3 
REMARK    2  A    between atoms: C2_3  and  C3_4 
ROOT
ATOM      1  C3  UNL d   1       5.598   1.099  -0.915  0.00  0.00    -0.075 A 
ATOM      2  C4  UNL d   1       5.998   1.075  -2.259  0.00  0.00     0.002 A 
ATOM      3  C5  UNL d   1       5.738  -0.039  -3.056  0.00  0.00     0.002 A 
ATOM      4  C6  UNL d   1       5.085  -1.147  -2.518  0.00  0.00    -0.004 A 
ATOM      5  C7  UNL d   1       4.698  -1.141  -1.180  0.00  0.00     0.002 A 
ATOM      6  C8  UNL d   1       4.954  -0.025  -0.381  0.00  0.00     0.002 A 
ENDROOT
BRANCH   1   7
ATOM      7  C2  UNL d   1       5.851   2.314  -0.054  0.00  0.00     0.056 C 
BRANCH   7   8
ATOM      8  C1  UNL d   1       4.637   3.238   0.090  0.00  0.00     0.007 C 
ATOM      9  C   UNL d   1       4.967   4.704  -0.159  0.00  0.00     0.009 C 
ENDBRANCH   7   8
ENDBRANCH   1   7
TORSDOF 2
ENDMDL
