MODEL 1
REMARK minimizedAffinity -1.91429353
REMARK minimizedRMSD -1
REMARK  2 active torsions:
REMARK  status: ('A' for Active; 'I' for Inactive)
REMARK    1  A    between atoms: C1_2  and  C2_3 
REMARK    2  A    between atoms: C2_3  and  C3_4 
ROOT
ATOM      1  C3  UNL d   1      -1.030  -0.751  -0.082  0.00  0.00    -0.075 A 
ATOM      2  C4  UNL d   1      -1.586  -1.483  -1.141  0.00  0.00     0.002 A 
ATOM      3  C5  UNL d   1      -2.931  -1.853  -1.117  0.00  0.00     0.002 A 
ATOM      4  C6  UNL d   1      -3.733  -1.505  -0.032  0.00  0.00    -0.004 A 
ATOM      5  C7  UNL d   1      -3.187  -0.791   1.033  0.00  0.00     0.002 A 
ATOM      6  C8  UNL d   1      -1.843  -0.416   1.009  0.00  0.00     0.002 A 
ENDROOT
BRANCH   1   7
ATOM      7  C2  UNL d   1       0.418  -0.322  -0.116  0.00  0.00     0.056 C 
BRANCH   7   8
ATOM      8  C1  UNL d   1       0.803   0.475  -1.366  0.00  0.00     0.007 C 
ATOM      9  C   UNL d   1       0.060   1.799  -1.487  0.00  0.00     0.009 C 
ENDBRANCH   7   8
ENDBRANCH   1   7
TORSDOF 2
ENDMDL
