MODEL 1
REMARK minimizedAffinity -2.96586156
REMARK minimizedRMSD -1
REMARK  2 active torsions:
REMARK  status: ('A' for Active; 'I' for Inactive)
REMARK    1  A    between atoms: C1_2  and  C2_3 
REMARK    2  A    between atoms: C2_3  and  C3_4 
ROOT
ATOM      1  C3  UNL d   1      -1.113  -0.015  -0.828  0.00  0.00    -0.075 A 
ATOM      2  C4  UNL d   1      -2.322  -0.508  -1.339  0.00  0.00     0.002 A 
ATOM      3  C5  UNL d   1      -3.445  -0.621  -0.518  0.00  0.00     0.002 A 
ATOM      4  C6  UNL d   1      -3.371  -0.252   0.823  0.00  0.00    -0.004 A 
ATOM      5  C7  UNL d   1      -2.170   0.224   1.345  0.00  0.00     0.002 A 
ATOM      6  C8  UNL d   1      -1.046   0.342   0.525  0.00  0.00     0.002 A 
ENDROOT
BRANCH   1   7
ATOM      7  C2  UNL d   1       0.097   0.137  -1.718  0.00  0.00     0.056 C 
BRANCH   7   8
ATOM      8  C1  UNL d   1      -0.112   1.094  -2.897  0.00  0.00     0.007 C 
ATOM      9  C   UNL d   1       0.663   0.689  -4.144  0.00  0.00     0.009 C 
ENDBRANCH   7   8
ENDBRANCH   1   7
TORSDOF 2
ENDMDL
