MODEL 1
REMARK minimizedAffinity -0.193756908
REMARK minimizedRMSD -1
REMARK  2 active torsions:
REMARK  status: ('A' for Active; 'I' for Inactive)
REMARK    1  A    between atoms: C1_2  and  C2_3 
REMARK    2  A    between atoms: C2_3  and  C3_4 
ROOT
ATOM      1  C3  UNL d   1      -0.919  -0.435   0.247  0.00  0.00    -0.075 A 
ATOM      2  C4  UNL d   1      -0.845   0.015  -1.079  0.00  0.00     0.002 A 
ATOM      3  C5  UNL d   1       0.390   0.162  -1.710  0.00  0.00     0.002 A 
ATOM      4  C6  UNL d   1       1.566  -0.129  -1.021  0.00  0.00    -0.004 A 
ATOM      5  C7  UNL d   1       1.506  -0.560   0.302  0.00  0.00     0.002 A 
ATOM      6  C8  UNL d   1       0.270  -0.712   0.934  0.00  0.00     0.002 A 
ENDROOT
BRANCH   1   7
ATOM      7  C2  UNL d   1      -2.255  -0.624   0.926  0.00  0.00     0.056 C 
BRANCH   7   8
ATOM      8  C1  UNL d   1      -3.353  -1.159   0.002  0.00  0.00     0.007 C 
ATOM      9  C   UNL d   1      -4.648  -1.486   0.735  0.00  0.00     0.009 C 
ENDBRANCH   7   8
ENDBRANCH   1   7
TORSDOF 2
ENDMDL
