MODEL 1
REMARK minimizedAffinity 10.2967949
REMARK minimizedRMSD -1
REMARK  0 active torsions:
REMARK  status: ('A' for Active; 'I' for Inactive)
ROOT
ATOM      1  C   UNL d   1      -2.208  -3.925   1.024  0.00  0.00     0.077 C 
ATOM      2  C1  UNL d   1      -0.727  -3.956   1.262  0.00  0.00    -0.074 A 
ATOM      3  C2  UNL d   1      -0.074  -5.154   1.571  0.00  0.00    -0.005 A 
ATOM      4  C3  UNL d   1       1.305  -5.169   1.780  0.00  0.00     0.006 A 
ATOM      5  C4  UNL d   1       2.043  -3.989   1.683  0.00  0.00    -0.005 A 
ATOM      6  C5  UNL d   1       1.408  -2.782   1.375  0.00  0.00    -0.074 A 
ATOM      7  C6  UNL d   1       2.188  -1.507   1.258  0.00  0.00     0.077 C 
ATOM      8  C7  UNL d   1       0.023  -2.776   1.159  0.00  0.00    -0.001 A 
ENDROOT
TORSDOF 0
ENDMDL
