MODEL 1
REMARK minimizedAffinity 11.0387259
REMARK minimizedRMSD -1
REMARK  0 active torsions:
REMARK  status: ('A' for Active; 'I' for Inactive)
ROOT
ATOM      1  C   UNL d   1      -0.412  -3.565  -3.493  0.00  0.00     0.077 C 
ATOM      2  C1  UNL d   1       0.667  -4.140  -4.362  0.00  0.00    -0.074 A 
ATOM      3  C2  UNL d   1       0.609  -5.468  -4.796  0.00  0.00    -0.005 A 
ATOM      4  C3  UNL d   1       1.615  -5.986  -5.611  0.00  0.00     0.006 A 
ATOM      5  C4  UNL d   1       2.688  -5.183  -6.000  0.00  0.00    -0.005 A 
ATOM      6  C5  UNL d   1       2.762  -3.852  -5.576  0.00  0.00    -0.074 A 
ATOM      7  C6  UNL d   1       3.903  -2.972  -5.993  0.00  0.00     0.077 C 
ATOM      8  C7  UNL d   1       1.744  -3.337  -4.763  0.00  0.00    -0.001 A 
ENDROOT
TORSDOF 0
ENDMDL
