MODEL 1
REMARK minimizedAffinity 16.5365047
REMARK minimizedRMSD -1
REMARK  0 active torsions:
REMARK  status: ('A' for Active; 'I' for Inactive)
ROOT
ATOM      1  C   UNL d   1      -5.031   4.814  -0.373  0.00  0.00     0.077 C 
ATOM      2  C1  UNL d   1      -4.039   4.381  -1.411  0.00  0.00    -0.074 A 
ATOM      3  C2  UNL d   1      -3.750   3.027  -1.608  0.00  0.00    -0.005 A 
ATOM      4  C3  UNL d   1      -2.833   2.638  -2.584  0.00  0.00     0.006 A 
ATOM      5  C4  UNL d   1      -2.197   3.598  -3.373  0.00  0.00    -0.005 A 
ATOM      6  C5  UNL d   1      -2.475   4.956  -3.192  0.00  0.00    -0.074 A 
ATOM      7  C6  UNL d   1      -1.809   6.000  -4.038  0.00  0.00     0.077 C 
ATOM      8  C7  UNL d   1      -3.403   5.338  -2.213  0.00  0.00    -0.001 A 
ENDROOT
TORSDOF 0
ENDMDL
