MODEL 1
REMARK minimizedAffinity 16.8691139
REMARK minimizedRMSD -1
REMARK  0 active torsions:
REMARK  status: ('A' for Active; 'I' for Inactive)
ROOT
ATOM      1  C   UNL d   1       1.117  -0.554   1.810  0.00  0.00     0.077 C 
ATOM      2  C1  UNL d   1       0.542  -1.939   1.756  0.00  0.00    -0.074 A 
ATOM      3  C2  UNL d   1      -0.809  -2.145   1.460  0.00  0.00    -0.005 A 
ATOM      4  C3  UNL d   1      -1.327  -3.439   1.404  0.00  0.00     0.006 A 
ATOM      5  C4  UNL d   1      -0.501  -4.537   1.643  0.00  0.00    -0.005 A 
ATOM      6  C5  UNL d   1       0.853  -4.351   1.940  0.00  0.00    -0.074 A 
ATOM      7  C6  UNL d   1       1.757  -5.521   2.189  0.00  0.00     0.077 C 
ATOM      8  C7  UNL d   1       1.368  -3.048   1.987  0.00  0.00    -0.001 A 
ENDROOT
TORSDOF 0
ENDMDL
