MODEL 1
REMARK minimizedAffinity 8.08905792
REMARK minimizedRMSD -1
REMARK  0 active torsions:
REMARK  status: ('A' for Active; 'I' for Inactive)
ROOT
ATOM      1  C   UNL d   1      -6.000  -3.630   5.997  0.00  0.00     0.077 C 
ATOM      2  C1  UNL d   1      -5.508  -4.174   4.689  0.00  0.00    -0.074 A 
ATOM      3  C2  UNL d   1      -6.000  -5.381   4.182  0.00  0.00    -0.005 A 
ATOM      4  C3  UNL d   1      -5.539  -5.870   2.960  0.00  0.00     0.006 A 
ATOM      5  C4  UNL d   1      -4.584  -5.158   2.233  0.00  0.00    -0.005 A 
ATOM      6  C5  UNL d   1      -4.081  -3.949   2.724  0.00  0.00    -0.074 A 
ATOM      7  C6  UNL d   1      -3.061  -3.167   1.951  0.00  0.00     0.077 C 
ATOM      8  C7  UNL d   1      -4.554  -3.461   3.950  0.00  0.00    -0.001 A 
ENDROOT
TORSDOF 0
ENDMDL
