MODEL 1
REMARK minimizedAffinity 0.770013869
REMARK minimizedRMSD -1
REMARK  0 active torsions:
REMARK  status: ('A' for Active; 'I' for Inactive)
ROOT
ATOM      1  C   UNL d   1      -3.765  -3.003   2.999  0.00  0.00     0.077 C 
ATOM      2  C1  UNL d   1      -4.466  -4.056   2.194  0.00  0.00    -0.074 A 
ATOM      3  C2  UNL d   1      -5.251  -5.033   2.815  0.00  0.00    -0.005 A 
ATOM      4  C3  UNL d   1      -5.905  -6.000   2.052  0.00  0.00     0.006 A 
ATOM      5  C4  UNL d   1      -5.781  -6.000   0.662  0.00  0.00    -0.005 A 
ATOM      6  C5  UNL d   1      -5.002  -5.030   0.023  0.00  0.00    -0.074 A 
ATOM      7  C6  UNL d   1      -4.866  -5.010  -1.471  0.00  0.00     0.077 C 
ATOM      8  C7  UNL d   1      -4.353  -4.058   0.796  0.00  0.00    -0.001 A 
ENDROOT
TORSDOF 0
ENDMDL
