MODEL 1
REMARK minimizedAffinity 7.79067564
REMARK minimizedRMSD -1
REMARK  0 active torsions:
REMARK  status: ('A' for Active; 'I' for Inactive)
ROOT
ATOM      1  C   UNL d   1      -1.566  -1.878   2.826  0.00  0.00     0.077 C 
ATOM      2  C1  UNL d   1      -0.195  -1.713   2.241  0.00  0.00    -0.074 A 
ATOM      3  C2  UNL d   1       0.706  -2.782   2.208  0.00  0.00    -0.005 A 
ATOM      4  C3  UNL d   1       1.975  -2.616   1.653  0.00  0.00     0.006 A 
ATOM      5  C4  UNL d   1       2.355  -1.381   1.127  0.00  0.00    -0.005 A 
ATOM      6  C5  UNL d   1       1.468  -0.300   1.150  0.00  0.00    -0.074 A 
ATOM      7  C6  UNL d   1       1.857   1.031   0.580  0.00  0.00     0.077 C 
ATOM      8  C7  UNL d   1       0.192  -0.477   1.703  0.00  0.00    -0.001 A 
ENDROOT
TORSDOF 0
ENDMDL
