MODEL 1
REMARK minimizedAffinity 6.72969246
REMARK minimizedRMSD -1
REMARK  0 active torsions:
REMARK  status: ('A' for Active; 'I' for Inactive)
ROOT
ATOM      1  C   UNL d   1       2.199  -1.638   0.907  0.00  0.00     0.077 C 
ATOM      2  C1  UNL d   1       1.040  -1.533   1.853  0.00  0.00    -0.074 A 
ATOM      3  C2  UNL d   1       1.092  -0.680   2.961  0.00  0.00    -0.005 A 
ATOM      4  C3  UNL d   1       0.003  -0.585   3.827  0.00  0.00     0.006 A 
ATOM      5  C4  UNL d   1      -1.148  -1.340   3.595  0.00  0.00    -0.005 A 
ATOM      6  C5  UNL d   1      -1.218  -2.197   2.492  0.00  0.00    -0.074 A 
ATOM      7  C6  UNL d   1      -2.451  -3.008   2.222  0.00  0.00     0.077 C 
ATOM      8  C7  UNL d   1      -0.122  -2.282   1.622  0.00  0.00    -0.001 A 
ENDROOT
TORSDOF 0
ENDMDL
