MODEL 1
REMARK minimizedAffinity 9.73521042
REMARK minimizedRMSD -1
REMARK  0 active torsions:
REMARK  status: ('A' for Active; 'I' for Inactive)
ROOT
ATOM      1  C   UNL d   1      -3.370   5.155  -1.439  0.00  0.00     0.077 C 
ATOM      2  C1  UNL d   1      -2.837   4.621  -2.735  0.00  0.00    -0.074 A 
ATOM      3  C2  UNL d   1      -2.783   3.245  -2.977  0.00  0.00    -0.005 A 
ATOM      4  C3  UNL d   1      -2.293   2.763  -4.191  0.00  0.00     0.006 A 
ATOM      5  C4  UNL d   1      -1.855   3.652  -5.174  0.00  0.00    -0.005 A 
ATOM      6  C5  UNL d   1      -1.903   5.031  -4.950  0.00  0.00    -0.074 A 
ATOM      7  C6  UNL d   1      -1.444   6.000  -6.000  0.00  0.00     0.077 C 
ATOM      8  C7  UNL d   1      -2.402   5.508  -3.730  0.00  0.00    -0.001 A 
ENDROOT
TORSDOF 0
ENDMDL
