MODEL 1
REMARK minimizedAffinity 12.9270573
REMARK minimizedRMSD -1
REMARK  0 active torsions:
REMARK  status: ('A' for Active; 'I' for Inactive)
ROOT
ATOM      1  C   UNL d   1       0.270  -3.641  -2.832  0.00  0.00     0.077 C 
ATOM      2  C1  UNL d   1       0.701  -3.584  -1.397  0.00  0.00    -0.074 A 
ATOM      3  C2  UNL d   1       0.929  -4.755  -0.668  0.00  0.00    -0.005 A 
ATOM      4  C3  UNL d   1       1.338  -4.686   0.664  0.00  0.00     0.006 A 
ATOM      5  C4  UNL d   1       1.525  -3.447   1.278  0.00  0.00    -0.005 A 
ATOM      6  C5  UNL d   1       1.303  -2.265   0.565  0.00  0.00    -0.074 A 
ATOM      7  C6  UNL d   1       1.508  -0.925   1.207  0.00  0.00     0.077 C 
ATOM      8  C7  UNL d   1       0.898  -2.343  -0.775  0.00  0.00    -0.001 A 
ENDROOT
TORSDOF 0
ENDMDL
