MODEL 1
REMARK minimizedAffinity 9.89292812
REMARK minimizedRMSD -1
REMARK  0 active torsions:
REMARK  status: ('A' for Active; 'I' for Inactive)
ROOT
ATOM      1  C   UNL d   1      -1.766  -4.822   0.003  0.00  0.00     0.077 C 
ATOM      2  C1  UNL d   1      -3.235  -4.856   0.304  0.00  0.00    -0.074 A 
ATOM      3  C2  UNL d   1      -4.007  -5.980  -0.007  0.00  0.00    -0.005 A 
ATOM      4  C3  UNL d   1      -5.370  -6.000   0.287  0.00  0.00     0.006 A 
ATOM      5  C4  UNL d   1      -5.974  -4.898   0.894  0.00  0.00    -0.005 A 
ATOM      6  C5  UNL d   1      -5.218  -3.765   1.213  0.00  0.00    -0.074 A 
ATOM      7  C6  UNL d   1      -5.850  -2.576   1.874  0.00  0.00     0.077 C 
ATOM      8  C7  UNL d   1      -3.848  -3.756   0.920  0.00  0.00    -0.001 A 
ENDROOT
TORSDOF 0
ENDMDL
