MODEL 1
REMARK minimizedAffinity 1.99211395
REMARK minimizedRMSD -1
REMARK  0 active torsions:
REMARK  status: ('A' for Active; 'I' for Inactive)
ROOT
ATOM      1  C   UNL d   1      -5.999  -3.979   5.995  0.00  0.00     0.077 C 
ATOM      2  C1  UNL d   1      -5.471  -4.409   4.659  0.00  0.00    -0.074 A 
ATOM      3  C2  UNL d   1      -5.875  -5.617   4.081  0.00  0.00    -0.005 A 
ATOM      4  C3  UNL d   1      -5.382  -5.999   2.833  0.00  0.00     0.006 A 
ATOM      5  C4  UNL d   1      -4.481  -5.179   2.152  0.00  0.00    -0.005 A 
ATOM      6  C5  UNL d   1      -4.067  -3.967   2.714  0.00  0.00    -0.074 A 
ATOM      7  C6  UNL d   1      -3.107  -3.069   1.991  0.00  0.00     0.077 C 
ATOM      8  C7  UNL d   1      -4.572  -3.587   3.965  0.00  0.00    -0.001 A 
ENDROOT
TORSDOF 0
ENDMDL
