MODEL 1
REMARK minimizedAffinity 1.85474098
REMARK minimizedRMSD -1
REMARK  0 active torsions:
REMARK  status: ('A' for Active; 'I' for Inactive)
ROOT
ATOM      1  C   UNL d   1      -5.926  -5.999   3.253  0.00  0.00     0.077 C 
ATOM      2  C1  UNL d   1      -5.020  -5.392   2.224  0.00  0.00    -0.074 A 
ATOM      3  C2  UNL d   1      -4.217  -4.290   2.534  0.00  0.00    -0.005 A 
ATOM      4  C3  UNL d   1      -3.372  -3.742   1.569  0.00  0.00     0.006 A 
ATOM      5  C4  UNL d   1      -3.321  -4.290   0.287  0.00  0.00    -0.005 A 
ATOM      6  C5  UNL d   1      -4.116  -5.393  -0.041  0.00  0.00    -0.074 A 
ATOM      7  C6  UNL d   1      -4.066  -6.000  -1.412  0.00  0.00     0.077 C 
ATOM      8  C7  UNL d   1      -4.957  -5.942   0.936  0.00  0.00    -0.001 A 
ENDROOT
TORSDOF 0
ENDMDL
