MODEL 1
REMARK minimizedAffinity 15.0453749
REMARK minimizedRMSD -1
REMARK  0 active torsions:
REMARK  status: ('A' for Active; 'I' for Inactive)
ROOT
ATOM      1  C   UNL d   1       1.159  -2.210   1.106  0.00  0.00     0.077 C 
ATOM      2  C1  UNL d   1       0.131  -1.944   2.165  0.00  0.00    -0.074 A 
ATOM      3  C2  UNL d   1       0.304  -0.909   3.090  0.00  0.00    -0.005 A 
ATOM      4  C3  UNL d   1      -0.665  -0.667   4.064  0.00  0.00     0.006 A 
ATOM      5  C4  UNL d   1      -1.814  -1.456   4.123  0.00  0.00    -0.005 A 
ATOM      6  C5  UNL d   1      -2.005  -2.495   3.206  0.00  0.00    -0.074 A 
ATOM      7  C6  UNL d   1      -3.239  -3.346   3.248  0.00  0.00     0.077 C 
ATOM      8  C7  UNL d   1      -1.030  -2.727   2.226  0.00  0.00    -0.001 A 
ENDROOT
TORSDOF 0
ENDMDL
