MODEL 1
REMARK minimizedAffinity 11.6140013
REMARK minimizedRMSD -1
REMARK  0 active torsions:
REMARK  status: ('A' for Active; 'I' for Inactive)
ROOT
ATOM      1  C   UNL d   1      -1.399   5.998  -3.079  0.00  0.00     0.077 C 
ATOM      2  C1  UNL d   1      -2.277   4.794  -2.902  0.00  0.00    -0.074 A 
ATOM      3  C2  UNL d   1      -2.105   3.656  -3.696  0.00  0.00    -0.005 A 
ATOM      4  C3  UNL d   1      -2.923   2.541  -3.513  0.00  0.00     0.006 A 
ATOM      5  C4  UNL d   1      -3.919   2.553  -2.535  0.00  0.00    -0.005 A 
ATOM      6  C5  UNL d   1      -4.105   3.682  -1.732  0.00  0.00    -0.074 A 
ATOM      7  C6  UNL d   1      -5.164   3.708  -0.670  0.00  0.00     0.077 C 
ATOM      8  C7  UNL d   1      -3.275   4.796  -1.917  0.00  0.00    -0.001 A 
ENDROOT
TORSDOF 0
ENDMDL
