MODEL 1
REMARK minimizedAffinity 9.14954281
REMARK minimizedRMSD -1
REMARK  0 active torsions:
REMARK  status: ('A' for Active; 'I' for Inactive)
ROOT
ATOM      1  C   UNL d   1      -2.608  -2.919   2.374  0.00  0.00     0.077 C 
ATOM      2  C1  UNL d   1      -3.789  -3.682   2.897  0.00  0.00    -0.074 A 
ATOM      3  C2  UNL d   1      -4.351  -4.729   2.160  0.00  0.00    -0.005 A 
ATOM      4  C3  UNL d   1      -5.443  -5.436   2.663  0.00  0.00     0.006 A 
ATOM      5  C4  UNL d   1      -5.983  -5.102   3.906  0.00  0.00    -0.005 A 
ATOM      6  C5  UNL d   1      -5.434  -4.059   4.657  0.00  0.00    -0.074 A 
ATOM      7  C6  UNL d   1      -5.997  -3.694   5.999  0.00  0.00     0.077 C 
ATOM      8  C7  UNL d   1      -4.332  -3.358   4.148  0.00  0.00    -0.001 A 
ENDROOT
TORSDOF 0
ENDMDL
