MODEL 1
REMARK minimizedAffinity 0.898880184
REMARK minimizedRMSD -1
REMARK  0 active torsions:
REMARK  status: ('A' for Active; 'I' for Inactive)
ROOT
ATOM      1  C   UNL d   1       0.153  -3.373  -3.358  0.00  0.00     0.077 C 
ATOM      2  C1  UNL d   1       1.104  -4.084  -4.275  0.00  0.00    -0.074 A 
ATOM      3  C2  UNL d   1       0.806  -5.355  -4.775  0.00  0.00    -0.005 A 
ATOM      4  C3  UNL d   1       1.696  -6.000  -5.633  0.00  0.00     0.006 A 
ATOM      5  C4  UNL d   1       2.892  -5.381  -6.000  0.00  0.00    -0.005 A 
ATOM      6  C5  UNL d   1       3.207  -4.109  -5.511  0.00  0.00    -0.074 A 
ATOM      7  C6  UNL d   1       4.483  -3.425  -5.903  0.00  0.00     0.077 C 
ATOM      8  C7  UNL d   1       2.304  -3.465  -4.654  0.00  0.00    -0.001 A 
ENDROOT
TORSDOF 0
ENDMDL
