MODEL 1
REMARK minimizedAffinity 17.1021194
REMARK minimizedRMSD -1
REMARK  0 active torsions:
REMARK  status: ('A' for Active; 'I' for Inactive)
ROOT
ATOM      1  C   UNL d   1       4.011  -2.867  -5.967  0.00  0.00     0.077 C 
ATOM      2  C1  UNL d   1       2.856  -3.711  -5.516  0.00  0.00    -0.074 A 
ATOM      3  C2  UNL d   1       2.685  -5.012  -5.999  0.00  0.00    -0.005 A 
ATOM      4  C3  UNL d   1       1.611  -5.788  -5.564  0.00  0.00     0.006 A 
ATOM      5  C4  UNL d   1       0.698  -5.272  -4.643  0.00  0.00    -0.005 A 
ATOM      6  C5  UNL d   1       0.853  -3.973  -4.149  0.00  0.00    -0.074 A 
ATOM      7  C6  UNL d   1      -0.113  -3.406  -3.151  0.00  0.00     0.077 C 
ATOM      8  C7  UNL d   1       1.939  -3.202  -4.586  0.00  0.00    -0.001 A 
ENDROOT
TORSDOF 0
ENDMDL
