MODEL 1
REMARK minimizedAffinity 1.63274956
REMARK minimizedRMSD -1
REMARK  0 active torsions:
REMARK  status: ('A' for Active; 'I' for Inactive)
ROOT
ATOM      1  C   UNL d   1      -2.975  -2.636   2.238  0.00  0.00     0.077 C 
ATOM      2  C1  UNL d   1      -3.783  -3.814   1.780  0.00  0.00    -0.074 A 
ATOM      3  C2  UNL d   1      -4.609  -4.508   2.670  0.00  0.00    -0.005 A 
ATOM      4  C3  UNL d   1      -5.362  -5.596   2.228  0.00  0.00     0.006 A 
ATOM      5  C4  UNL d   1      -5.298  -5.999   0.894  0.00  0.00    -0.005 A 
ATOM      6  C5  UNL d   1      -4.479  -5.316  -0.011  0.00  0.00    -0.074 A 
ATOM      7  C6  UNL d   1      -4.405  -5.730  -1.451  0.00  0.00     0.077 C 
ATOM      8  C7  UNL d   1      -3.730  -4.220   0.439  0.00  0.00    -0.001 A 
ENDROOT
TORSDOF 0
ENDMDL
