MODEL 1
REMARK minimizedAffinity 11.6092567
REMARK minimizedRMSD -1
REMARK  3 active torsions:
REMARK  status: ('A' for Active; 'I' for Inactive)
REMARK    1  A    between atoms: C3'_2  and  C2'_3 
REMARK    2  A    between atoms: C2'_3  and  C1'_4 
REMARK    3  A    between atoms: C1'_4  and  C1_5 
ROOT
ATOM      1  C1  N4B d   1       0.271   1.550   1.937  0.00  0.00    -0.075 A 
ATOM      2  C2  N4B d   1      -0.117   1.486   0.580  0.00  0.00     0.002 A 
ATOM      3  C3  N4B d   1       0.128   0.350  -0.151  0.00  0.00     0.002 A 
ATOM      4  C4  N4B d   1       0.773  -0.723   0.444  0.00  0.00    -0.004 A 
ATOM      5  C5  N4B d   1       1.122  -0.663   1.762  0.00  0.00     0.002 A 
ATOM      6  C6  N4B d   1       0.879   0.471   2.510  0.00  0.00     0.002 A 
ENDROOT
BRANCH   1   7
ATOM      7  C1' N4B d   1       0.103   2.802   2.753  0.00  0.00     0.057 C 
BRANCH   7   8
ATOM      8  C2' N4B d   1       1.474   3.290   3.211  0.00  0.00     0.009 C 
BRANCH   8   9
ATOM      9  C3' N4B d   1       1.849   4.614   2.567  0.00  0.00     0.004 C 
ATOM     10  C4' N4B d   1       0.925   5.001   1.452  0.00  0.00     0.003 C 
ENDBRANCH   8   9
ENDBRANCH   7   8
ENDBRANCH   1   7
TORSDOF 3
ENDMDL
