MODEL 1
REMARK minimizedAffinity 4.80151367
REMARK minimizedRMSD -1
REMARK  3 active torsions:
REMARK  status: ('A' for Active; 'I' for Inactive)
REMARK    1  A    between atoms: C3'_2  and  C2'_3 
REMARK    2  A    between atoms: C2'_3  and  C1'_4 
REMARK    3  A    between atoms: C1'_4  and  C1_5 
ROOT
ATOM      1  C1  N4B d   1       0.428   2.243   2.349  0.00  0.00    -0.075 A 
ATOM      2  C2  N4B d   1       1.564   2.466   3.158  0.00  0.00     0.002 A 
ATOM      3  C3  N4B d   1       2.334   3.586   2.966  0.00  0.00     0.002 A 
ATOM      4  C4  N4B d   1       2.001   4.484   1.963  0.00  0.00    -0.004 A 
ATOM      5  C5  N4B d   1       0.888   4.274   1.203  0.00  0.00     0.002 A 
ATOM      6  C6  N4B d   1       0.102   3.155   1.387  0.00  0.00     0.002 A 
ENDROOT
BRANCH   1   7
ATOM      7  C1' N4B d   1      -0.396   0.989   2.465  0.00  0.00     0.057 C 
BRANCH   7   8
ATOM      8  C2' N4B d   1       0.461  -0.119   3.068  0.00  0.00     0.009 C 
BRANCH   8   9
ATOM      9  C3' N4B d   1       0.705  -1.249   2.082  0.00  0.00     0.004 C 
ATOM     10  C4' N4B d   1       1.815  -0.952   1.120  0.00  0.00     0.003 C 
ENDBRANCH   8   9
ENDBRANCH   7   8
ENDBRANCH   1   7
TORSDOF 3
ENDMDL
