MODEL 1
REMARK minimizedAffinity 6.30854559
REMARK minimizedRMSD -1
REMARK  3 active torsions:
REMARK  status: ('A' for Active; 'I' for Inactive)
REMARK    1  A    between atoms: C3'_2  and  C2'_3 
REMARK    2  A    between atoms: C2'_3  and  C1'_4 
REMARK    3  A    between atoms: C1'_4  and  C1_5 
ROOT
ATOM      1  C1  N4B d   1      -5.808  -1.382   3.425  0.00  0.00    -0.075 A 
ATOM      2  C2  N4B d   1      -5.750  -2.770   3.166  0.00  0.00     0.002 A 
ATOM      3  C3  N4B d   1      -5.815  -3.665   4.205  0.00  0.00     0.002 A 
ATOM      4  C4  N4B d   1      -5.918  -3.199   5.507  0.00  0.00    -0.004 A 
ATOM      5  C5  N4B d   1      -5.999  -1.858   5.746  0.00  0.00     0.002 A 
ATOM      6  C6  N4B d   1      -5.939  -0.947   4.711  0.00  0.00     0.002 A 
ENDROOT
BRANCH   1   7
ATOM      7  C1' N4B d   1      -5.654  -0.363   2.329  0.00  0.00     0.057 C 
BRANCH   7   8
ATOM      8  C2' N4B d   1      -4.212   0.134   2.306  0.00  0.00     0.009 C 
BRANCH   8   9
ATOM      9  C3' N4B d   1      -3.771   0.534   0.909  0.00  0.00     0.004 C 
ATOM     10  C4' N4B d   1      -4.869   1.174   0.114  0.00  0.00     0.003 C 
ENDBRANCH   8   9
ENDBRANCH   7   8
ENDBRANCH   1   7
TORSDOF 3
ENDMDL
