MODEL 1
REMARK minimizedAffinity -1.98547351
REMARK minimizedRMSD -1
REMARK  3 active torsions:
REMARK  status: ('A' for Active; 'I' for Inactive)
REMARK    1  A    between atoms: C3'_2  and  C2'_3 
REMARK    2  A    between atoms: C2'_3  and  C1'_4 
REMARK    3  A    between atoms: C1'_4  and  C1_5 
ROOT
ATOM      1  C1  N4B d   1      -1.893  -1.331  -1.248  0.00  0.00    -0.075 A 
ATOM      2  C2  N4B d   1      -0.802  -0.691  -0.620  0.00  0.00     0.002 A 
ATOM      3  C3  N4B d   1      -0.670   0.674  -0.697  0.00  0.00     0.002 A 
ATOM      4  C4  N4B d   1      -1.601   1.415  -1.409  0.00  0.00    -0.004 A 
ATOM      5  C5  N4B d   1      -2.666   0.791  -1.991  0.00  0.00     0.002 A 
ATOM      6  C6  N4B d   1      -2.814  -0.579  -1.919  0.00  0.00     0.002 A 
ENDROOT
BRANCH   1   7
ATOM      7  C1' N4B d   1      -2.032  -2.828  -1.264  0.00  0.00     0.057 C 
BRANCH   7   8
ATOM      8  C2' N4B d   1      -0.757  -3.456  -0.709  0.00  0.00     0.009 C 
BRANCH   8   9
ATOM      9  C3' N4B d   1      -0.345  -4.691  -1.492  0.00  0.00     0.004 C 
ATOM     10  C4' N4B d   1       0.966  -5.258  -1.034  0.00  0.00     0.003 C 
ENDBRANCH   8   9
ENDBRANCH   7   8
ENDBRANCH   1   7
TORSDOF 3
ENDMDL
