MODEL 1
REMARK minimizedAffinity 12.7349348
REMARK minimizedRMSD -1
REMARK  0 active torsions:
REMARK  status: ('A' for Active; 'I' for Inactive)
ROOT
ATOM      1  O1  BZF d   1       3.853   1.273  -1.709  0.00  0.00    -0.204 OA
ATOM      2  C2  BZF d   1       4.997   2.030  -1.876  0.00  0.00     0.174 A 
ATOM      3  C3  BZF d   1       6.000   1.558  -1.108  0.00  0.00    -0.012 A 
ATOM      4  C3A BZF d   1       5.476   0.380  -0.488  0.00  0.00    -0.107 A 
ATOM      5  C4  BZF d   1       6.000  -0.539   0.376  0.00  0.00     0.055 A 
ATOM      6  C5  BZF d   1       5.201  -1.532   0.849  0.00  0.00    -0.016 A 
ATOM      7  C6  BZF d   1       3.875  -1.632   0.484  0.00  0.00     0.022 A 
ATOM      8  C7  BZF d   1       3.311  -0.747  -0.374  0.00  0.00     0.029 A 
ATOM      9  C7A BZF d   1       4.124   0.237  -0.879  0.00  0.00     0.058 A 
ENDROOT
TORSDOF 0
ENDMDL
