MODEL 1
REMARK minimizedAffinity 17.9061127
REMARK minimizedRMSD -1
REMARK  0 active torsions:
REMARK  status: ('A' for Active; 'I' for Inactive)
ROOT
ATOM      1  O1  BZF d   1       4.350   0.874  -1.942  0.00  0.00    -0.204 OA
ATOM      2  C2  BZF d   1       4.913   1.687  -0.978  0.00  0.00     0.174 A 
ATOM      3  C3  BZF d   1       4.749   1.156   0.251  0.00  0.00    -0.012 A 
ATOM      4  C3A BZF d   1       4.119  -0.110   0.033  0.00  0.00    -0.107 A 
ATOM      5  C4  BZF d   1       3.713  -1.113   0.866  0.00  0.00     0.055 A 
ATOM      6  C5  BZF d   1       3.065  -2.186   0.342  0.00  0.00    -0.016 A 
ATOM      7  C6  BZF d   1       2.802  -2.287  -1.009  0.00  0.00     0.022 A 
ATOM      8  C7  BZF d   1       3.190  -1.320  -1.876  0.00  0.00     0.029 A 
ATOM      9  C7A BZF d   1       3.875  -0.250  -1.353  0.00  0.00     0.058 A 
ENDROOT
TORSDOF 0
ENDMDL
