MODEL 1
REMARK minimizedAffinity 9.8317976
REMARK minimizedRMSD -1
REMARK  0 active torsions:
REMARK  status: ('A' for Active; 'I' for Inactive)
ROOT
ATOM      1  O1  BZF d   1       4.703   2.091  -1.135  0.00  0.00    -0.204 OA
ATOM      2  C2  BZF d   1       5.996   1.643  -0.944  0.00  0.00     0.174 A 
ATOM      3  C3  BZF d   1       5.999   0.385  -0.457  0.00  0.00    -0.012 A 
ATOM      4  C3A BZF d   1       4.624  -0.009  -0.423  0.00  0.00    -0.107 A 
ATOM      5  C4  BZF d   1       3.986  -1.157  -0.050  0.00  0.00     0.055 A 
ATOM      6  C5  BZF d   1       2.627  -1.193  -0.068  0.00  0.00    -0.016 A 
ATOM      7  C6  BZF d   1       1.877  -0.100  -0.448  0.00  0.00     0.022 A 
ATOM      8  C7  BZF d   1       2.466   1.059  -0.832  0.00  0.00     0.029 A 
ATOM      9  C7A BZF d   1       3.839   1.088  -0.846  0.00  0.00     0.058 A 
ENDROOT
TORSDOF 0
ENDMDL
