MODEL 1
REMARK minimizedAffinity 7.24451542
REMARK minimizedRMSD -1
REMARK  0 active torsions:
REMARK  status: ('A' for Active; 'I' for Inactive)
ROOT
ATOM      1  O1  BZF d   1       4.602   0.678  -2.205  0.00  0.00    -0.204 OA
ATOM      2  C2  BZF d   1       4.439   1.180  -0.928  0.00  0.00     0.174 A 
ATOM      3  C3  BZF d   1       3.788   0.295  -0.146  0.00  0.00    -0.012 A 
ATOM      4  C3A BZF d   1       3.609  -0.867  -0.961  0.00  0.00    -0.107 A 
ATOM      5  C4  BZF d   1       3.042  -2.090  -0.741  0.00  0.00     0.055 A 
ATOM      6  C5  BZF d   1       2.963  -2.976  -1.768  0.00  0.00    -0.016 A 
ATOM      7  C6  BZF d   1       3.436  -2.672  -3.028  0.00  0.00     0.022 A 
ATOM      8  C7  BZF d   1       4.012  -1.474  -3.293  0.00  0.00     0.029 A 
ATOM      9  C7A BZF d   1       4.122  -0.588  -2.249  0.00  0.00     0.058 A 
ENDROOT
TORSDOF 0
ENDMDL
