MODEL 1
REMARK minimizedAffinity 9.87971306
REMARK minimizedRMSD -1
REMARK  0 active torsions:
REMARK  status: ('A' for Active; 'I' for Inactive)
ROOT
ATOM      1  O1  BZF d   1       3.652  -1.393  -2.299  0.00  0.00    -0.204 OA
ATOM      2  C2  BZF d   1       2.945  -1.918  -1.235  0.00  0.00     0.174 A 
ATOM      3  C3  BZF d   1       3.184  -1.217  -0.108  0.00  0.00    -0.012 A 
ATOM      4  C3A BZF d   1       4.027  -0.133  -0.512  0.00  0.00    -0.107 A 
ATOM      5  C4  BZF d   1       4.591   0.916   0.155  0.00  0.00     0.055 A 
ATOM      6  C5  BZF d   1       5.422   1.756  -0.517  0.00  0.00    -0.016 A 
ATOM      7  C6  BZF d   1       5.714   1.574  -1.853  0.00  0.00     0.022 A 
ATOM      8  C7  BZF d   1       5.174   0.550  -2.558  0.00  0.00     0.029 A 
ATOM      9  C7A BZF d   1       4.308  -0.281  -1.890  0.00  0.00     0.058 A 
ENDROOT
TORSDOF 0
ENDMDL
