MODEL 1
REMARK minimizedAffinity 6.43006802
REMARK minimizedRMSD -1
REMARK  0 active torsions:
REMARK  status: ('A' for Active; 'I' for Inactive)
ROOT
ATOM      1  O1  BZF d   1       3.852   1.419  -1.902  0.00  0.00    -0.204 OA
ATOM      2  C2  BZF d   1       3.808   0.338  -1.042  0.00  0.00     0.174 A 
ATOM      3  C3  BZF d   1       4.513   0.590   0.080  0.00  0.00    -0.012 A 
ATOM      4  C3A BZF d   1       4.953   1.946  -0.049  0.00  0.00    -0.107 A 
ATOM      5  C4  BZF d   1       5.683   2.776   0.753  0.00  0.00     0.055 A 
ATOM      6  C5  BZF d   1       6.000   4.018   0.303  0.00  0.00    -0.016 A 
ATOM      7  C6  BZF d   1       5.609   4.461  -0.944  0.00  0.00     0.022 A 
ATOM      8  C7  BZF d   1       4.879   3.675  -1.773  0.00  0.00     0.029 A 
ATOM      9  C7A BZF d   1       4.529   2.431  -1.308  0.00  0.00     0.058 A 
ENDROOT
TORSDOF 0
ENDMDL
