MODEL 1
REMARK minimizedAffinity 9.19750214
REMARK minimizedRMSD -1
REMARK  0 active torsions:
REMARK  status: ('A' for Active; 'I' for Inactive)
ROOT
ATOM      1  O1  BZF d   1       2.382   0.964  -1.025  0.00  0.00    -0.204 OA
ATOM      2  C2  BZF d   1       1.562  -0.004  -0.479  0.00  0.00     0.174 A 
ATOM      3  C3  BZF d   1       2.292  -0.981   0.096  0.00  0.00    -0.012 A 
ATOM      4  C3A BZF d   1       3.653  -0.553  -0.023  0.00  0.00    -0.107 A 
ATOM      5  C4  BZF d   1       4.844  -1.091   0.373  0.00  0.00     0.055 A 
ATOM      6  C5  BZF d   1       5.998  -0.457   0.039  0.00  0.00    -0.016 A 
ATOM      7  C6  BZF d   1       5.999   0.712  -0.694  0.00  0.00     0.022 A 
ATOM      8  C7  BZF d   1       4.842   1.286  -1.104  0.00  0.00     0.029 A 
ATOM      9  C7A BZF d   1       3.672   0.665  -0.740  0.00  0.00     0.058 A 
ENDROOT
TORSDOF 0
ENDMDL
