MODEL 1
REMARK minimizedAffinity 2.58820271
REMARK minimizedRMSD -1
REMARK  0 active torsions:
REMARK  status: ('A' for Active; 'I' for Inactive)
ROOT
ATOM      1  O1  BZF d   1       4.400   0.360  -2.260  0.00  0.00    -0.204 OA
ATOM      2  C2  BZF d   1       4.782   1.193  -1.226  0.00  0.00     0.174 A 
ATOM      3  C3  BZF d   1       4.480   0.643  -0.033  0.00  0.00    -0.012 A 
ATOM      4  C3A BZF d   1       3.954  -0.653  -0.337  0.00  0.00    -0.107 A 
ATOM      5  C4  BZF d   1       3.492  -1.683   0.431  0.00  0.00     0.055 A 
ATOM      6  C5  BZF d   1       2.980  -2.784  -0.179  0.00  0.00    -0.016 A 
ATOM      7  C6  BZF d   1       2.910  -2.886  -1.553  0.00  0.00     0.022 A 
ATOM      8  C7  BZF d   1       3.361  -1.892  -2.357  0.00  0.00     0.029 A 
ATOM      9  C7A BZF d   1       3.909  -0.792  -1.744  0.00  0.00     0.058 A 
ENDROOT
TORSDOF 0
ENDMDL
