MODEL 1
REMARK minimizedAffinity 16.5180283
REMARK minimizedRMSD -1
REMARK  0 active torsions:
REMARK  status: ('A' for Active; 'I' for Inactive)
ROOT
ATOM      1  O1  BZF d   1      -3.006  -3.749  -2.555  0.00  0.00    -0.204 OA
ATOM      2  C2  BZF d   1      -1.836  -4.075  -1.897  0.00  0.00     0.174 A 
ATOM      3  C3  BZF d   1      -1.139  -4.998  -2.591  0.00  0.00    -0.012 A 
ATOM      4  C3A BZF d   1      -1.878  -5.197  -3.800  0.00  0.00    -0.107 A 
ATOM      5  C4  BZF d   1      -1.684  -5.983  -4.900  0.00  0.00     0.055 A 
ATOM      6  C5  BZF d   1      -2.631  -6.000  -5.875  0.00  0.00    -0.016 A 
ATOM      7  C6  BZF d   1      -3.784  -5.249  -5.780  0.00  0.00     0.022 A 
ATOM      8  C7  BZF d   1      -4.018  -4.450  -4.710  0.00  0.00     0.029 A 
ATOM      9  C7A BZF d   1      -3.048  -4.406  -3.739  0.00  0.00     0.058 A 
ENDROOT
TORSDOF 0
ENDMDL
