MODEL 1
REMARK minimizedAffinity 9.10681057
REMARK minimizedRMSD -1
REMARK  0 active torsions:
REMARK  status: ('A' for Active; 'I' for Inactive)
ROOT
ATOM      1  O1  BZF d   1       4.426   0.285  -2.603  0.00  0.00    -0.204 OA
ATOM      2  C2  BZF d   1       4.439   1.019  -1.433  0.00  0.00     0.174 A 
ATOM      3  C3  BZF d   1       3.850   0.335  -0.432  0.00  0.00    -0.012 A 
ATOM      4  C3A BZF d   1       3.526  -0.943  -0.989  0.00  0.00    -0.107 A 
ATOM      5  C4  BZF d   1       2.939  -2.067  -0.482  0.00  0.00     0.055 A 
ATOM      6  C5  BZF d   1       2.701  -3.118  -1.309  0.00  0.00    -0.016 A 
ATOM      7  C6  BZF d   1       3.031  -3.078  -2.648  0.00  0.00     0.022 A 
ATOM      8  C7  BZF d   1       3.620  -1.987  -3.195  0.00  0.00     0.029 A 
ATOM      9  C7A BZF d   1       3.892  -0.935  -2.355  0.00  0.00     0.058 A 
ENDROOT
TORSDOF 0
ENDMDL
