MODEL 1
REMARK minimizedAffinity 8.19656372
REMARK minimizedRMSD -1
REMARK  0 active torsions:
REMARK  status: ('A' for Active; 'I' for Inactive)
ROOT
ATOM      1  O1  BZF d   1       5.581   4.241  -2.248  0.00  0.00    -0.204 OA
ATOM      2  C2  BZF d   1       5.999   5.248  -1.399  0.00  0.00     0.174 A 
ATOM      3  C3  BZF d   1       5.995   4.826  -0.118  0.00  0.00    -0.012 A 
ATOM      4  C3A BZF d   1       5.635   3.443  -0.179  0.00  0.00    -0.107 A 
ATOM      5  C4  BZF d   1       5.478   2.471   0.768  0.00  0.00     0.055 A 
ATOM      6  C5  BZF d   1       5.049   1.239   0.385  0.00  0.00    -0.016 A 
ATOM      7  C6  BZF d   1       4.762   0.947  -0.932  0.00  0.00     0.022 A 
ATOM      8  C7  BZF d   1       4.908   1.877  -1.907  0.00  0.00     0.029 A 
ATOM      9  C7A BZF d   1       5.373   3.113  -1.529  0.00  0.00     0.058 A 
ENDROOT
TORSDOF 0
ENDMDL
