MODEL 1
REMARK minimizedAffinity 7.89262915
REMARK minimizedRMSD -1
REMARK  0 active torsions:
REMARK  status: ('A' for Active; 'I' for Inactive)
ROOT
ATOM      1  O1  BZF d   1       2.684  -0.734  -1.502  0.00  0.00    -0.204 OA
ATOM      2  C2  BZF d   1       3.189   0.206  -0.624  0.00  0.00     0.174 A 
ATOM      3  C3  BZF d   1       4.513   0.375  -0.814  0.00  0.00    -0.012 A 
ATOM      4  C3A BZF d   1       4.840  -0.448  -1.938  0.00  0.00    -0.107 A 
ATOM      5  C4  BZF d   1       6.000  -0.692  -2.616  0.00  0.00     0.055 A 
ATOM      6  C5  BZF d   1       5.996  -1.605  -3.623  0.00  0.00    -0.016 A 
ATOM      7  C6  BZF d   1       4.854  -2.295  -3.974  0.00  0.00     0.022 A 
ATOM      8  C7  BZF d   1       3.679  -2.083  -3.333  0.00  0.00     0.029 A 
ATOM      9  C7A BZF d   1       3.672  -1.137  -2.337  0.00  0.00     0.058 A 
ENDROOT
TORSDOF 0
ENDMDL
