MODEL 1
REMARK minimizedAffinity 5.00771093
REMARK minimizedRMSD -1
REMARK  0 active torsions:
REMARK  status: ('A' for Active; 'I' for Inactive)
ROOT
ATOM      1  C4' PXY d   1       1.460  -2.664   3.771  0.00  0.00     0.077 C 
ATOM      2  C1' PXY d   1      -2.965   0.170   1.361  0.00  0.00     0.077 C 
ATOM      3  C1  PXY d   1      -1.802  -0.562   2.001  0.00  0.00    -0.082 A 
ATOM      4  C2  PXY d   1      -1.206  -1.544   1.343  0.00  0.00     0.003 A 
ATOM      5  C3  PXY d   1      -0.174  -2.239   1.920  0.00  0.00     0.003 A 
ATOM      6  C4  PXY d   1       0.288  -1.890   3.160  0.00  0.00    -0.082 A 
ATOM      7  C5  PXY d   1      -0.307  -0.883   3.833  0.00  0.00     0.003 A 
ATOM      8  C6  PXY d   1      -1.380  -0.217   3.248  0.00  0.00     0.003 A 
ENDROOT
TORSDOF 0
ENDMDL
