MODEL 1
REMARK minimizedAffinity 11.4685812
REMARK minimizedRMSD -1
REMARK  0 active torsions:
REMARK  status: ('A' for Active; 'I' for Inactive)
ROOT
ATOM      1  C4' PXY d   1      -2.489   0.349   3.337  0.00  0.00     0.077 C 
ATOM      2  C1' PXY d   1      -6.000   4.092   5.997  0.00  0.00     0.077 C 
ATOM      3  C1  PXY d   1      -5.082   3.102   5.309  0.00  0.00    -0.082 A 
ATOM      4  C2  PXY d   1      -4.084   3.545   4.562  0.00  0.00     0.003 A 
ATOM      5  C3  PXY d   1      -3.264   2.663   3.906  0.00  0.00     0.003 A 
ATOM      6  C4  PXY d   1      -3.434   1.313   4.059  0.00  0.00    -0.082 A 
ATOM      7  C5  PXY d   1      -4.444   0.853   4.828  0.00  0.00     0.003 A 
ATOM      8  C6  PXY d   1      -5.291   1.765   5.452  0.00  0.00     0.003 A 
ENDROOT
TORSDOF 0
ENDMDL
