MODEL 1
REMARK minimizedAffinity 5.515728
REMARK minimizedRMSD -1
REMARK  0 active torsions:
REMARK  status: ('A' for Active; 'I' for Inactive)
ROOT
ATOM      1  C4' PXY d   1      -4.841   1.190   0.379  0.00  0.00     0.077 C 
ATOM      2  C1' PXY d   1      -0.135  -1.566   2.298  0.00  0.00     0.077 C 
ATOM      3  C1  PXY d   1      -1.375  -0.846   1.806  0.00  0.00    -0.082 A 
ATOM      4  C2  PXY d   1      -1.589  -0.725   0.506  0.00  0.00     0.003 A 
ATOM      5  C3  PXY d   1      -2.689  -0.049   0.044  0.00  0.00     0.003 A 
ATOM      6  C4  PXY d   1      -3.607   0.462   0.921  0.00  0.00    -0.082 A 
ATOM      7  C5  PXY d   1      -3.402   0.334   2.249  0.00  0.00     0.003 A 
ATOM      8  C6  PXY d   1      -2.258  -0.319   2.698  0.00  0.00     0.003 A 
ENDROOT
TORSDOF 0
ENDMDL
