MODEL 1
REMARK minimizedAffinity 7.87952375
REMARK minimizedRMSD -1
REMARK  0 active torsions:
REMARK  status: ('A' for Active; 'I' for Inactive)
ROOT
ATOM      1  C4' PXY d   1      -5.635  -2.719   6.000  0.00  0.00     0.077 C 
ATOM      2  C1' PXY d   1      -5.609  -6.000   1.240  0.00  0.00     0.077 C 
ATOM      3  C1  PXY d   1      -5.624  -5.147   2.494  0.00  0.00    -0.082 A 
ATOM      4  C2  PXY d   1      -5.286  -3.870   2.421  0.00  0.00     0.003 A 
ATOM      5  C3  PXY d   1      -5.264  -3.093   3.550  0.00  0.00     0.003 A 
ATOM      6  C4  PXY d   1      -5.643  -3.615   4.758  0.00  0.00    -0.082 A 
ATOM      7  C5  PXY d   1      -5.999  -4.915   4.839  0.00  0.00     0.003 A 
ATOM      8  C6  PXY d   1      -5.975  -5.697   3.688  0.00  0.00     0.003 A 
ENDROOT
TORSDOF 0
ENDMDL
