MODEL 1
REMARK minimizedAffinity 10.166914
REMARK minimizedRMSD -1
REMARK  0 active torsions:
REMARK  status: ('A' for Active; 'I' for Inactive)
ROOT
ATOM      1  C4' PXY d   1      -5.845  -5.990   5.943  0.00  0.00     0.077 C 
ATOM      2  C1' PXY d   1      -5.463  -3.243   0.870  0.00  0.00     0.077 C 
ATOM      3  C1  PXY d   1      -5.571  -3.972   2.195  0.00  0.00    -0.082 A 
ATOM      4  C2  PXY d   1      -5.347  -3.317   3.323  0.00  0.00     0.003 A 
ATOM      5  C3  PXY d   1      -5.409  -3.969   4.527  0.00  0.00     0.003 A 
ATOM      6  C4  PXY d   1      -5.757  -5.292   4.583  0.00  0.00    -0.082 A 
ATOM      7  C5  PXY d   1      -5.997  -5.965   3.437  0.00  0.00     0.003 A 
ATOM      8  C6  PXY d   1      -5.889  -5.295   2.222  0.00  0.00     0.003 A 
ENDROOT
TORSDOF 0
ENDMDL
