MODEL 1
REMARK minimizedAffinity 17.0203323
REMARK minimizedRMSD -1
REMARK  0 active torsions:
REMARK  status: ('A' for Active; 'I' for Inactive)
ROOT
ATOM      1  C4' PXY d   1       1.285  -1.900   3.150  0.00  0.00     0.077 C 
ATOM      2  C1' PXY d   1      -3.611   0.104   0.821  0.00  0.00     0.077 C 
ATOM      3  C1  PXY d   1      -2.325  -0.410   1.438  0.00  0.00    -0.082 A 
ATOM      4  C2  PXY d   1      -1.675  -1.406   0.859  0.00  0.00     0.003 A 
ATOM      5  C3  PXY d   1      -0.528  -1.904   1.421  0.00  0.00     0.003 A 
ATOM      6  C4  PXY d   1      -0.012  -1.342   2.558  0.00  0.00    -0.082 A 
ATOM      7  C5  PXY d   1      -0.664  -0.318   3.148  0.00  0.00     0.003 A 
ATOM      8  C6  PXY d   1      -1.849   0.146   2.585  0.00  0.00     0.003 A 
ENDROOT
TORSDOF 0
ENDMDL
