MODEL 1
REMARK minimizedAffinity 4.95299387
REMARK minimizedRMSD -1
REMARK  0 active torsions:
REMARK  status: ('A' for Active; 'I' for Inactive)
ROOT
ATOM      1  C4' PXY d   1      -5.593  -2.297   5.974  0.00  0.00     0.077 C 
ATOM      2  C1' PXY d   1      -5.659  -5.980   1.519  0.00  0.00     0.077 C 
ATOM      3  C1  PXY d   1      -5.650  -5.022   2.694  0.00  0.00    -0.082 A 
ATOM      4  C2  PXY d   1      -5.295  -3.761   2.507  0.00  0.00     0.003 A 
ATOM      5  C3  PXY d   1      -5.250  -2.889   3.564  0.00  0.00     0.003 A 
ATOM      6  C4  PXY d   1      -5.625  -3.298   4.816  0.00  0.00    -0.082 A 
ATOM      7  C5  PXY d   1      -6.000  -4.579   5.013  0.00  0.00     0.003 A 
ATOM      8  C6  PXY d   1      -5.998  -5.460   3.934  0.00  0.00     0.003 A 
ENDROOT
TORSDOF 0
ENDMDL
