MODEL 1
REMARK minimizedAffinity 8.07277203
REMARK minimizedRMSD -1
REMARK  0 active torsions:
REMARK  status: ('A' for Active; 'I' for Inactive)
ROOT
ATOM      1  C4' PXY d   1      -2.265  -2.102   0.830  0.00  0.00     0.077 C 
ATOM      2  C1' PXY d   1       2.558  -2.233   4.014  0.00  0.00     0.077 C 
ATOM      3  C1  PXY d   1       1.286  -2.194   3.189  0.00  0.00    -0.082 A 
ATOM      4  C2  PXY d   1       1.150  -3.011   2.158  0.00  0.00     0.003 A 
ATOM      5  C3  PXY d   1       0.020  -2.967   1.382  0.00  0.00     0.003 A 
ATOM      6  C4  PXY d   1      -1.003  -2.114   1.697  0.00  0.00    -0.082 A 
ATOM      7  C5  PXY d   1      -0.876  -1.284   2.754  0.00  0.00     0.003 A 
ATOM      8  C6  PXY d   1       0.296  -1.316   3.504  0.00  0.00     0.003 A 
ENDROOT
TORSDOF 0
ENDMDL
