MODEL 1
REMARK minimizedAffinity 12.3909712
REMARK minimizedRMSD -1
REMARK  0 active torsions:
REMARK  status: ('A' for Active; 'I' for Inactive)
ROOT
ATOM      1  C4' PXY d   1       4.090   3.053  -4.756  0.00  0.00     0.077 C 
ATOM      2  C1' PXY d   1       2.890   1.602   0.709  0.00  0.00     0.077 C 
ATOM      3  C1  PXY d   1       3.200   1.971  -0.729  0.00  0.00    -0.082 A 
ATOM      4  C2  PXY d   1       4.172   2.829  -0.988  0.00  0.00     0.003 A 
ATOM      5  C3  PXY d   1       4.444   3.199  -2.280  0.00  0.00     0.003 A 
ATOM      6  C4  PXY d   1       3.749   2.644  -3.321  0.00  0.00    -0.082 A 
ATOM      7  C5  PXY d   1       2.762   1.759  -3.065  0.00  0.00     0.003 A 
ATOM      8  C6  PXY d   1       2.474   1.428  -1.744  0.00  0.00     0.003 A 
ENDROOT
TORSDOF 0
ENDMDL
