MODEL 1
REMARK minimizedAffinity 12.2790709
REMARK minimizedRMSD -1
REMARK  0 active torsions:
REMARK  status: ('A' for Active; 'I' for Inactive)
ROOT
ATOM      1  C4' PXY d   1       0.515  -1.870   1.883  0.00  0.00     0.077 C 
ATOM      2  C1' PXY d   1      -4.570   0.372   0.293  0.00  0.00     0.077 C 
ATOM      3  C1  PXY d   1      -3.231  -0.204   0.710  0.00  0.00    -0.082 A 
ATOM      4  C2  PXY d   1      -2.946  -1.465   0.432  0.00  0.00     0.003 A 
ATOM      5  C3  PXY d   1      -1.753  -2.012   0.830  0.00  0.00     0.003 A 
ATOM      6  C4  PXY d   1      -0.820  -1.244   1.473  0.00  0.00    -0.082 A 
ATOM      7  C5  PXY d   1      -1.099   0.048   1.752  0.00  0.00     0.003 A 
ATOM      8  C6  PXY d   1      -2.332   0.572   1.376  0.00  0.00     0.003 A 
ENDROOT
TORSDOF 0
ENDMDL
