MODEL 1
REMARK minimizedAffinity 7.48025036
REMARK minimizedRMSD -1
REMARK  0 active torsions:
REMARK  status: ('A' for Active; 'I' for Inactive)
ROOT
ATOM      1  C4' PXY d   1       0.883  -2.124   3.373  0.00  0.00     0.077 C 
ATOM      2  C1' PXY d   1      -3.649   0.696   1.153  0.00  0.00     0.077 C 
ATOM      3  C1  PXY d   1      -2.458  -0.034   1.744  0.00  0.00    -0.082 A 
ATOM      4  C2  PXY d   1      -1.800  -0.915   1.008  0.00  0.00     0.003 A 
ATOM      5  C3  PXY d   1      -0.741  -1.607   1.537  0.00  0.00     0.003 A 
ATOM      6  C4  PXY d   1      -0.319  -1.357   2.815  0.00  0.00    -0.082 A 
ATOM      7  C5  PXY d   1      -0.979  -0.452   3.569  0.00  0.00     0.003 A 
ATOM      8  C6  PXY d   1      -2.076   0.210   3.027  0.00  0.00     0.003 A 
ENDROOT
TORSDOF 0
ENDMDL
