MODEL 1
REMARK minimizedAffinity 2.97517109
REMARK minimizedRMSD -1
REMARK  0 active torsions:
REMARK  status: ('A' for Active; 'I' for Inactive)
ROOT
ATOM      1  C4' PXY d   1       0.324   5.322  -3.971  0.00  0.00     0.077 C 
ATOM      2  C1' PXY d   1       5.551   4.123  -1.813  0.00  0.00     0.077 C 
ATOM      3  C1  PXY d   1       4.179   4.447  -2.371  0.00  0.00    -0.082 A 
ATOM      4  C2  PXY d   1       3.486   3.506  -2.990  0.00  0.00     0.003 A 
ATOM      5  C3  PXY d   1       2.257   3.790  -3.529  0.00  0.00     0.003 A 
ATOM      6  C4  PXY d   1       1.709   5.037  -3.384  0.00  0.00    -0.082 A 
ATOM      7  C5  PXY d   1       2.406   6.000  -2.744  0.00  0.00     0.003 A 
ATOM      8  C6  PXY d   1       3.669   5.702  -2.241  0.00  0.00     0.003 A 
ENDROOT
TORSDOF 0
ENDMDL
