MODEL 1
REMARK minimizedAffinity 14.1336765
REMARK minimizedRMSD -1
REMARK  0 active torsions:
REMARK  status: ('A' for Active; 'I' for Inactive)
ROOT
ATOM      1  C4' PXY d   1      -1.521   0.047   5.014  0.00  0.00     0.077 C 
ATOM      2  C1' PXY d   1       1.374  -3.225   1.228  0.00  0.00     0.077 C 
ATOM      3  C1  PXY d   1       0.619  -2.374   2.231  0.00  0.00    -0.082 A 
ATOM      4  C2  PXY d   1      -0.418  -1.657   1.830  0.00  0.00     0.003 A 
ATOM      5  C3  PXY d   1      -1.092  -0.858   2.717  0.00  0.00     0.003 A 
ATOM      6  C4  PXY d   1      -0.734  -0.834   4.039  0.00  0.00    -0.082 A 
ATOM      7  C5  PXY d   1       0.316  -1.571   4.457  0.00  0.00     0.003 A 
ATOM      8  C6  PXY d   1       1.013  -2.344   3.533  0.00  0.00     0.003 A 
ENDROOT
TORSDOF 0
ENDMDL
