MODEL 1
REMARK minimizedAffinity 12.2510786
REMARK minimizedRMSD -1
REMARK  0 active torsions:
REMARK  status: ('A' for Active; 'I' for Inactive)
ROOT
ATOM      1  C4' PXY d   1       0.973   3.072  -4.641  0.00  0.00     0.077 C 
ATOM      2  C1' PXY d   1       4.676   1.336  -0.555  0.00  0.00     0.077 C 
ATOM      3  C1  PXY d   1       3.711   1.803  -1.627  0.00  0.00    -0.082 A 
ATOM      4  C2  PXY d   1       2.514   1.246  -1.717  0.00  0.00     0.003 A 
ATOM      5  C3  PXY d   1       1.641   1.634  -2.701  0.00  0.00     0.003 A 
ATOM      6  C4  PXY d   1       1.976   2.639  -3.568  0.00  0.00    -0.082 A 
ATOM      7  C5  PXY d   1       3.192   3.219  -3.476  0.00  0.00     0.003 A 
ATOM      8  C6  PXY d   1       4.079   2.782  -2.497  0.00  0.00     0.003 A 
ENDROOT
TORSDOF 0
ENDMDL
