MODEL 1
REMARK minimizedAffinity 15.919426
REMARK minimizedRMSD -1
REMARK  0 active torsions:
REMARK  status: ('A' for Active; 'I' for Inactive)
ROOT
ATOM      1  C4' PXY d   1      -1.110  -0.433   0.523  0.00  0.00     0.077 C 
ATOM      2  C1' PXY d   1       1.278  -3.903   4.482  0.00  0.00     0.077 C 
ATOM      3  C1  PXY d   1       0.648  -2.985   3.453  0.00  0.00    -0.082 A 
ATOM      4  C2  PXY d   1       0.272  -3.474   2.283  0.00  0.00     0.003 A 
ATOM      5  C3  PXY d   1      -0.270  -2.652   1.329  0.00  0.00     0.003 A 
ATOM      6  C4  PXY d   1      -0.478  -1.325   1.596  0.00  0.00    -0.082 A 
ATOM      7  C5  PXY d   1      -0.107  -0.820   2.791  0.00  0.00     0.003 A 
ATOM      8  C6  PXY d   1       0.480  -1.663   3.731  0.00  0.00     0.003 A 
ENDROOT
TORSDOF 0
ENDMDL
