MODEL 1
REMARK minimizedAffinity 18.1924629
REMARK minimizedRMSD -1
REMARK  0 active torsions:
REMARK  status: ('A' for Active; 'I' for Inactive)
ROOT
ATOM      1  C4' PXY d   1      -0.173  -3.771   5.194  0.00  0.00     0.077 C 
ATOM      2  C1' PXY d   1      -0.950  -0.439   0.534  0.00  0.00     0.077 C 
ATOM      3  C1  PXY d   1      -0.739  -1.304   1.762  0.00  0.00    -0.082 A 
ATOM      4  C2  PXY d   1      -0.848  -2.619   1.662  0.00  0.00     0.003 A 
ATOM      5  C3  PXY d   1      -0.692  -3.413   2.769  0.00  0.00     0.003 A 
ATOM      6  C4  PXY d   1      -0.368  -2.860   3.979  0.00  0.00    -0.082 A 
ATOM      7  C5  PXY d   1      -0.245  -1.520   4.086  0.00  0.00     0.003 A 
ATOM      8  C6  PXY d   1      -0.448  -0.728   2.959  0.00  0.00     0.003 A 
ENDROOT
TORSDOF 0
ENDMDL
