MODEL 1
REMARK minimizedAffinity 12.9248276
REMARK minimizedRMSD -1
REMARK  0 active torsions:
REMARK  status: ('A' for Active; 'I' for Inactive)
ROOT
ATOM      1  C4' PXY d   1      -1.008  -0.399   4.350  0.00  0.00     0.077 C 
ATOM      2  C1' PXY d   1      -0.422  -3.792  -0.293  0.00  0.00     0.077 C 
ATOM      3  C1  PXY d   1      -0.563  -2.901   0.926  0.00  0.00    -0.082 A 
ATOM      4  C2  PXY d   1      -1.657  -2.973   1.665  0.00  0.00     0.003 A 
ATOM      5  C3  PXY d   1      -1.815  -2.152   2.752  0.00  0.00     0.003 A 
ATOM      6  C4  PXY d   1      -0.818  -1.286   3.117  0.00  0.00    -0.082 A 
ATOM      7  C5  PXY d   1       0.306  -1.215   2.373  0.00  0.00     0.003 A 
ATOM      8  C6  PXY d   1       0.429  -2.027   1.250  0.00  0.00     0.003 A 
ENDROOT
TORSDOF 0
ENDMDL
