MODEL 1
REMARK minimizedAffinity 17.7745991
REMARK minimizedRMSD -1
REMARK  0 active torsions:
REMARK  status: ('A' for Active; 'I' for Inactive)
ROOT
ATOM      1  C4' PXY d   1       0.818  -4.116   1.563  0.00  0.00     0.077 C 
ATOM      2  C1' PXY d   1      -1.872   0.991   1.888  0.00  0.00     0.077 C 
ATOM      3  C1  PXY d   1      -1.178  -0.354   1.800  0.00  0.00    -0.082 A 
ATOM      4  C2  PXY d   1      -0.021  -0.535   2.416  0.00  0.00     0.003 A 
ATOM      5  C3  PXY d   1       0.636  -1.735   2.321  0.00  0.00     0.003 A 
ATOM      6  C4  PXY d   1       0.077  -2.778   1.632  0.00  0.00    -0.082 A 
ATOM      7  C5  PXY d   1      -1.108  -2.605   1.009  0.00  0.00     0.003 A 
ATOM      8  C6  PXY d   1      -1.739  -1.366   1.084  0.00  0.00     0.003 A 
ENDROOT
TORSDOF 0
ENDMDL
