MODEL 1
REMARK minimizedAffinity 6.35009861
REMARK minimizedRMSD -1
REMARK  0 active torsions:
REMARK  status: ('A' for Active; 'I' for Inactive)
ROOT
ATOM      1  C4' PXY d   1      -2.501   6.000  -6.000  0.00  0.00     0.077 C 
ATOM      2  C1' PXY d   1       1.740   3.103  -3.346  0.00  0.00     0.077 C 
ATOM      3  C1  PXY d   1       0.632   3.858  -4.053  0.00  0.00    -0.082 A 
ATOM      4  C2  PXY d   1       0.104   4.930  -3.485  0.00  0.00     0.003 A 
ATOM      5  C3  PXY d   1      -0.920   5.606  -4.096  0.00  0.00     0.003 A 
ATOM      6  C4  PXY d   1      -1.374   5.212  -5.326  0.00  0.00    -0.082 A 
ATOM      7  C5  PXY d   1      -0.833   4.125  -5.918  0.00  0.00     0.003 A 
ATOM      8  C6  PXY d   1       0.178   3.429  -5.262  0.00  0.00     0.003 A 
ENDROOT
TORSDOF 0
ENDMDL
