MODEL 1
REMARK minimizedAffinity 7.45139456
REMARK minimizedRMSD -1
REMARK  0 active torsions:
REMARK  status: ('A' for Active; 'I' for Inactive)
ROOT
ATOM      1  C4' PXY d   1       0.424  -0.523   1.279  0.00  0.00     0.077 C 
ATOM      2  C1' PXY d   1       3.254   2.592  -2.684  0.00  0.00     0.077 C 
ATOM      3  C1  PXY d   1       2.522   1.776  -1.637  0.00  0.00    -0.082 A 
ATOM      4  C2  PXY d   1       1.562   0.945  -2.008  0.00  0.00     0.003 A 
ATOM      5  C3  PXY d   1       0.868   0.224  -1.071  0.00  0.00     0.003 A 
ATOM      6  C4  PXY d   1       1.196   0.314   0.255  0.00  0.00    -0.082 A 
ATOM      7  C5  PXY d   1       2.182   1.152   0.641  0.00  0.00     0.003 A 
ATOM      8  C6  PXY d   1       2.846   1.906  -0.322  0.00  0.00     0.003 A 
ENDROOT
TORSDOF 0
ENDMDL
