MODEL 1
REMARK minimizedAffinity -4.23378372
REMARK minimizedRMSD -1
REMARK  1 active torsions:
REMARK  status: ('A' for Active; 'I' for Inactive)
REMARK    1  A    between atoms: C1_2  and  C2_3 
ROOT
ATOM      1  C2  UNL d   1      -0.731   0.623   0.887  0.00  0.00    -0.076 A 
ATOM      2  C3  UNL d   1      -0.630   1.160  -0.408  0.00  0.00     0.004 A 
ATOM      3  C4  UNL d   1       0.090   0.502  -1.403  0.00  0.00    -0.003 A 
ATOM      4  C5  UNL d   1       0.721  -0.705  -1.120  0.00  0.00     0.000 A 
ATOM      5  C6  UNL d   1       0.616  -1.261   0.154  0.00  0.00     0.000 A 
ATOM      6  C7  UNL d   1      -0.120  -0.618   1.165  0.00  0.00    -0.073 A 
ATOM      7  C8  UNL d   1      -0.194  -1.260   2.523  0.00  0.00     0.078 C 
ENDROOT
BRANCH   1   8
ATOM      8  C1  UNL d   1      -1.503   1.395   1.933  0.00  0.00     0.053 C 
ATOM      9  C   UNL d   1      -2.695   2.137   1.348  0.00  0.00     0.018 C 
ENDBRANCH   1   8
TORSDOF 1
ENDMDL
