MODEL 1
REMARK minimizedAffinity -4.66025257
REMARK minimizedRMSD -1
REMARK  1 active torsions:
REMARK  status: ('A' for Active; 'I' for Inactive)
REMARK    1  A    between atoms: C1_2  and  C2_3 
ROOT
ATOM      1  C2  UNL d   1      -0.006  -0.018  -0.353  0.00  0.00    -0.076 A 
ATOM      2  C3  UNL d   1      -0.400   1.044  -1.186  0.00  0.00     0.004 A 
ATOM      3  C4  UNL d   1      -1.196   2.080  -0.700  0.00  0.00    -0.003 A 
ATOM      4  C5  UNL d   1      -1.610   2.072   0.627  0.00  0.00     0.000 A 
ATOM      5  C6  UNL d   1      -1.215   1.036   1.472  0.00  0.00     0.000 A 
ATOM      6  C7  UNL d   1      -0.399  -0.008   1.003  0.00  0.00    -0.073 A 
ATOM      7  C8  UNL d   1      -0.008  -1.103   1.957  0.00  0.00     0.078 C 
ENDROOT
BRANCH   1   8
ATOM      8  C1  UNL d   1       0.835  -1.128  -0.942  0.00  0.00     0.053 C 
ATOM      9  C   UNL d   1       0.085  -1.931  -1.993  0.00  0.00     0.018 C 
ENDBRANCH   1   8
TORSDOF 1
ENDMDL
