MODEL 1
REMARK minimizedAffinity -4.55876589
REMARK minimizedRMSD -1
REMARK  1 active torsions:
REMARK  status: ('A' for Active; 'I' for Inactive)
REMARK    1  A    between atoms: C1_2  and  C2_3 
ROOT
ATOM      1  C2  UNL d   1       0.188  -0.021   0.036  0.00  0.00    -0.076 A 
ATOM      2  C3  UNL d   1      -0.140  -0.757   1.188  0.00  0.00     0.004 A 
ATOM      3  C4  UNL d   1      -1.033  -0.252   2.132  0.00  0.00    -0.003 A 
ATOM      4  C5  UNL d   1      -1.613   0.997   1.939  0.00  0.00     0.000 A 
ATOM      5  C6  UNL d   1      -1.312   1.733   0.793  0.00  0.00     0.000 A 
ATOM      6  C7  UNL d   1      -0.427   1.231  -0.176  0.00  0.00    -0.073 A 
ATOM      7  C8  UNL d   1      -0.134   2.070  -1.390  0.00  0.00     0.078 C 
ENDROOT
BRANCH   1   8
ATOM      8  C1  UNL d   1       1.183  -0.608  -0.939  0.00  0.00     0.053 C 
ATOM      9  C   UNL d   1       0.747  -1.965  -1.471  0.00  0.00     0.018 C 
ENDBRANCH   1   8
TORSDOF 1
ENDMDL
