MODEL 1
REMARK minimizedAffinity -4.56476116
REMARK minimizedRMSD -1
REMARK  1 active torsions:
REMARK  status: ('A' for Active; 'I' for Inactive)
REMARK    1  A    between atoms: C1_2  and  C2_3 
ROOT
ATOM      1  C2  UNL d   1      -0.311  -0.053   0.008  0.00  0.00    -0.076 A 
ATOM      2  C3  UNL d   1      -1.044   0.926  -0.686  0.00  0.00     0.004 A 
ATOM      3  C4  UNL d   1      -1.778   1.892  -0.000  0.00  0.00    -0.003 A 
ATOM      4  C5  UNL d   1      -1.790   1.896   1.390  0.00  0.00     0.000 A 
ATOM      5  C6  UNL d   1      -1.055   0.943   2.095  0.00  0.00     0.000 A 
ATOM      6  C7  UNL d   1      -0.297  -0.028   1.419  0.00  0.00    -0.073 A 
ATOM      7  C8  UNL d   1       0.472  -1.036   2.228  0.00  0.00     0.078 C 
ENDROOT
BRANCH   1   8
ATOM      8  C1  UNL d   1       0.444  -1.093  -0.790  0.00  0.00     0.053 C 
ATOM      9  C   UNL d   1      -0.360  -2.368  -0.994  0.00  0.00     0.018 C 
ENDBRANCH   1   8
TORSDOF 1
ENDMDL
