MODEL 1
REMARK minimizedAffinity -3.20385361
REMARK minimizedRMSD -1
REMARK  1 active torsions:
REMARK  status: ('A' for Active; 'I' for Inactive)
REMARK    1  A    between atoms: C1_2  and  C2_3 
ROOT
ATOM      1  C2  UNL d   1      -0.405   0.973   0.314  0.00  0.00    -0.076 A 
ATOM      2  C3  UNL d   1      -0.168  -0.266   0.934  0.00  0.00     0.004 A 
ATOM      3  C4  UNL d   1       0.824  -1.126   0.463  0.00  0.00    -0.003 A 
ATOM      4  C5  UNL d   1       1.595  -0.759  -0.634  0.00  0.00     0.000 A 
ATOM      5  C6  UNL d   1       1.385   0.474  -1.250  0.00  0.00     0.000 A 
ATOM      6  C7  UNL d   1       0.400   1.359  -0.779  0.00  0.00    -0.073 A 
ATOM      7  C8  UNL d   1       0.213   2.674  -1.485  0.00  0.00     0.078 C 
ENDROOT
BRANCH   1   8
ATOM      8  C1  UNL d   1      -1.512   1.851   0.851  0.00  0.00     0.053 C 
ATOM      9  C   UNL d   1      -1.340   2.167   2.329  0.00  0.00     0.018 C 
ENDBRANCH   1   8
TORSDOF 1
ENDMDL
