MODEL 1
REMARK minimizedAffinity -4.47162962
REMARK minimizedRMSD -1
REMARK  1 active torsions:
REMARK  status: ('A' for Active; 'I' for Inactive)
REMARK    1  A    between atoms: C1_2  and  C2_3 
ROOT
ATOM      1  C2  UNL d   1      -0.450  -1.083  -0.861  0.00  0.00    -0.076 A 
ATOM      2  C3  UNL d   1      -1.089  -1.647  -1.979  0.00  0.00     0.004 A 
ATOM      3  C4  UNL d   1      -0.475  -2.652  -2.724  0.00  0.00    -0.003 A 
ATOM      4  C5  UNL d   1       0.787  -3.111  -2.363  0.00  0.00     0.000 A 
ATOM      5  C6  UNL d   1       1.428  -2.575  -1.246  0.00  0.00     0.000 A 
ATOM      6  C7  UNL d   1       0.816  -1.572  -0.474  0.00  0.00    -0.073 A 
ATOM      7  C8  UNL d   1       1.555  -1.026   0.716  0.00  0.00     0.078 C 
ENDROOT
BRANCH   1   8
ATOM      8  C1  UNL d   1      -1.153   0.024  -0.107  0.00  0.00     0.053 C 
ATOM      9  C   UNL d   1      -2.261  -0.498   0.795  0.00  0.00     0.018 C 
ENDBRANCH   1   8
TORSDOF 1
ENDMDL
