MODEL 1
REMARK minimizedAffinity -4.28152418
REMARK minimizedRMSD -1
REMARK  1 active torsions:
REMARK  status: ('A' for Active; 'I' for Inactive)
REMARK    1  A    between atoms: C1_2  and  C2_3 
ROOT
ATOM      1  C2  UNL d   1       0.362  -0.664  -0.673  0.00  0.00    -0.076 A 
ATOM      2  C3  UNL d   1       0.839  -1.273   0.501  0.00  0.00     0.004 A 
ATOM      3  C4  UNL d   1       0.435  -0.825   1.757  0.00  0.00    -0.003 A 
ATOM      4  C5  UNL d   1      -0.454   0.239   1.861  0.00  0.00     0.000 A 
ATOM      5  C6  UNL d   1      -0.951   0.844   0.707  0.00  0.00     0.000 A 
ATOM      6  C7  UNL d   1      -0.566   0.394  -0.568  0.00  0.00    -0.073 A 
ATOM      7  C8  UNL d   1      -1.129   1.088  -1.778  0.00  0.00     0.078 C 
ENDROOT
BRANCH   1   8
ATOM      8  C1  UNL d   1       0.857  -1.175  -2.007  0.00  0.00     0.053 C 
ATOM      9  C   UNL d   1       0.553  -2.650  -2.215  0.00  0.00     0.018 C 
ENDBRANCH   1   8
TORSDOF 1
ENDMDL
