MODEL 1
REMARK minimizedAffinity -5.0861187
REMARK minimizedRMSD -1
REMARK  1 active torsions:
REMARK  status: ('A' for Active; 'I' for Inactive)
REMARK    1  A    between atoms: C1_2  and  C2_3 
ROOT
ATOM      1  C2  UNL d   1       0.244   0.286   0.044  0.00  0.00    -0.076 A 
ATOM      2  C3  UNL d   1      -0.335  -0.383   1.136  0.00  0.00     0.004 A 
ATOM      3  C4  UNL d   1      -1.346   0.213   1.888  0.00  0.00    -0.003 A 
ATOM      4  C5  UNL d   1      -1.796   1.487   1.559  0.00  0.00     0.000 A 
ATOM      5  C6  UNL d   1      -1.244   2.158   0.468  0.00  0.00     0.000 A 
ATOM      6  C7  UNL d   1      -0.235   1.565  -0.310  0.00  0.00    -0.073 A 
ATOM      7  C8  UNL d   1       0.328   2.336  -1.473  0.00  0.00     0.078 C 
ENDROOT
BRANCH   1   8
ATOM      8  C1  UNL d   1       1.357  -0.399  -0.717  0.00  0.00     0.053 C 
ATOM      9  C   UNL d   1       1.005  -1.828  -1.102  0.00  0.00     0.018 C 
ENDBRANCH   1   8
TORSDOF 1
ENDMDL
