MODEL 1
REMARK minimizedAffinity -5.38064194
REMARK minimizedRMSD -1
REMARK  1 active torsions:
REMARK  status: ('A' for Active; 'I' for Inactive)
REMARK    1  A    between atoms: C1_2  and  C2_3 
ROOT
ATOM      1  C2  UNL d   1       0.081  -0.018   0.207  0.00  0.00    -0.076 A 
ATOM      2  C3  UNL d   1      -0.569  -0.787   1.188  0.00  0.00     0.004 A 
ATOM      3  C4  UNL d   1      -1.598  -0.247   1.958  0.00  0.00    -0.003 A 
ATOM      4  C5  UNL d   1      -1.995   1.071   1.759  0.00  0.00     0.000 A 
ATOM      5  C6  UNL d   1      -1.373   1.843   0.778  0.00  0.00     0.000 A 
ATOM      6  C7  UNL d   1      -0.345   1.309  -0.018  0.00  0.00    -0.073 A 
ATOM      7  C8  UNL d   1       0.295   2.188  -1.057  0.00  0.00     0.078 C 
ENDROOT
BRANCH   1   8
ATOM      8  C1  UNL d   1       1.208  -0.649  -0.578  0.00  0.00     0.053 C 
ATOM      9  C   UNL d   1       1.043  -2.153  -0.729  0.00  0.00     0.018 C 
ENDBRANCH   1   8
TORSDOF 1
ENDMDL
