MODEL 1
REMARK minimizedAffinity -4.61992025
REMARK minimizedRMSD -1
REMARK  1 active torsions:
REMARK  status: ('A' for Active; 'I' for Inactive)
REMARK    1  A    between atoms: C1_2  and  C2_3 
ROOT
ATOM      1  C2  UNL d   1       0.063   0.030   0.039  0.00  0.00    -0.076 A 
ATOM      2  C3  UNL d   1      -0.792   0.888  -0.676  0.00  0.00     0.004 A 
ATOM      3  C4  UNL d   1      -1.710   1.701  -0.014  0.00  0.00    -0.003 A 
ATOM      4  C5  UNL d   1      -1.788   1.670   1.374  0.00  0.00     0.000 A 
ATOM      5  C6  UNL d   1      -0.935   0.839   2.100  0.00  0.00     0.000 A 
ATOM      6  C7  UNL d   1       0.007   0.025   1.449  0.00  0.00    -0.073 A 
ATOM      7  C8  UNL d   1       0.897  -0.857   2.281  0.00  0.00     0.078 C 
ENDROOT
BRANCH   1   8
ATOM      8  C1  UNL d   1       1.019  -0.849  -0.735  0.00  0.00     0.053 C 
ATOM      9  C   UNL d   1       0.305  -1.759  -1.722  0.00  0.00     0.018 C 
ENDBRANCH   1   8
TORSDOF 1
ENDMDL
