MODEL 1
REMARK minimizedAffinity -4.49746752
REMARK minimizedRMSD -1
REMARK  1 active torsions:
REMARK  status: ('A' for Active; 'I' for Inactive)
REMARK    1  A    between atoms: C1_2  and  C2_3 
ROOT
ATOM      1  C2  UNL d   1      -0.090   0.284   0.265  0.00  0.00    -0.076 A 
ATOM      2  C3  UNL d   1      -0.439   1.423  -0.481  0.00  0.00     0.004 A 
ATOM      3  C4  UNL d   1      -1.465   2.269  -0.062  0.00  0.00    -0.003 A 
ATOM      4  C5  UNL d   1      -2.158   1.990   1.110  0.00  0.00     0.000 A 
ATOM      5  C6  UNL d   1      -1.814   0.874   1.872  0.00  0.00     0.000 A 
ATOM      6  C7  UNL d   1      -0.771   0.020   1.473  0.00  0.00    -0.073 A 
ATOM      7  C8  UNL d   1      -0.446  -1.172   2.330  0.00  0.00     0.078 C 
ENDROOT
BRANCH   1   8
ATOM      8  C1  UNL d   1       1.013  -0.611  -0.253  0.00  0.00     0.053 C 
ATOM      9  C   UNL d   1       0.520  -1.593  -1.304  0.00  0.00     0.018 C 
ENDBRANCH   1   8
TORSDOF 1
ENDMDL
