MODEL 1
REMARK minimizedAffinity -4.24721622
REMARK minimizedRMSD -1
REMARK  1 active torsions:
REMARK  status: ('A' for Active; 'I' for Inactive)
REMARK    1  A    between atoms: C1_2  and  C2_3 
ROOT
ATOM      1  C2  UNL d   1       0.125   0.226   0.109  0.00  0.00    -0.076 A 
ATOM      2  C3  UNL d   1      -0.208  -0.405   1.320  0.00  0.00     0.004 A 
ATOM      3  C4  UNL d   1      -1.104   0.182   2.212  0.00  0.00    -0.003 A 
ATOM      4  C5  UNL d   1      -1.682   1.409   1.907  0.00  0.00     0.000 A 
ATOM      5  C6  UNL d   1      -1.377   2.041   0.701  0.00  0.00     0.000 A 
ATOM      6  C7  UNL d   1      -0.488   1.455  -0.216  0.00  0.00    -0.073 A 
ATOM      7  C8  UNL d   1      -0.190   2.183  -1.498  0.00  0.00     0.078 C 
ENDROOT
BRANCH   1   8
ATOM      8  C1  UNL d   1       1.124  -0.445  -0.806  0.00  0.00     0.053 C 
ATOM      9  C   UNL d   1       0.545  -1.665  -1.507  0.00  0.00     0.018 C 
ENDBRANCH   1   8
TORSDOF 1
ENDMDL
