MODEL 1
REMARK minimizedAffinity -2.54626536
REMARK minimizedRMSD -1
REMARK  1 active torsions:
REMARK  status: ('A' for Active; 'I' for Inactive)
REMARK    1  A    between atoms: C1_2  and  C2_3 
ROOT
ATOM      1  C2  UNL d   1       0.411  -0.642  -1.627  0.00  0.00    -0.076 A 
ATOM      2  C3  UNL d   1       0.018  -1.158  -2.874  0.00  0.00     0.004 A 
ATOM      3  C4  UNL d   1       0.111  -2.521  -3.149  0.00  0.00    -0.003 A 
ATOM      4  C5  UNL d   1       0.600  -3.391  -2.180  0.00  0.00     0.000 A 
ATOM      5  C6  UNL d   1       0.978  -2.900  -0.931  0.00  0.00     0.000 A 
ATOM      6  C7  UNL d   1       0.874  -1.530  -0.633  0.00  0.00    -0.073 A 
ATOM      7  C8  UNL d   1       1.302  -1.054   0.728  0.00  0.00     0.078 C 
ENDROOT
BRANCH   1   8
ATOM      8  C1  UNL d   1       0.312   0.849  -1.396  0.00  0.00     0.053 C 
ATOM      9  C   UNL d   1      -0.889   1.228  -0.544  0.00  0.00     0.018 C 
ENDBRANCH   1   8
TORSDOF 1
ENDMDL
