MODEL 1
REMARK minimizedAffinity 1.18567348
REMARK minimizedRMSD -1
REMARK  1 active torsions:
REMARK  status: ('A' for Active; 'I' for Inactive)
REMARK    1  A    between atoms: C1_2  and  C2_3 
ROOT
ATOM      1  C2  UNL d   1       1.308  -2.964   0.400  0.00  0.00    -0.076 A 
ATOM      2  C3  UNL d   1       2.111  -2.008  -0.246  0.00  0.00     0.004 A 
ATOM      3  C4  UNL d   1       1.542  -0.905  -0.882  0.00  0.00    -0.003 A 
ATOM      4  C5  UNL d   1       0.161  -0.742  -0.881  0.00  0.00     0.000 A 
ATOM      5  C6  UNL d   1      -0.649  -1.671  -0.230  0.00  0.00     0.000 A 
ATOM      6  C7  UNL d   1      -0.090  -2.779   0.430  0.00  0.00    -0.073 A 
ATOM      7  C8  UNL d   1      -1.012  -3.754   1.111  0.00  0.00     0.078 C 
ENDROOT
BRANCH   1   8
ATOM      8  C1  UNL d   1       1.980  -4.153   1.049  0.00  0.00     0.053 C 
ATOM      9  C   UNL d   1       1.012  -5.296   1.315  0.00  0.00     0.018 C 
ENDBRANCH   1   8
TORSDOF 1
ENDMDL
