MODEL 1
REMARK minimizedAffinity 7.3205781
REMARK minimizedRMSD -1
REMARK  1 active torsions:
REMARK  status: ('A' for Active; 'I' for Inactive)
REMARK    1  A    between atoms: C1_2  and  C2_3 
ROOT
ATOM      1  C2  UNL d   1       1.520  -1.976   0.271  0.00  0.00    -0.076 A 
ATOM      2  C3  UNL d   1       2.399  -1.077  -0.358  0.00  0.00     0.004 A 
ATOM      3  C4  UNL d   1       2.012  -0.374  -1.498  0.00  0.00    -0.003 A 
ATOM      4  C5  UNL d   1       0.740  -0.559  -2.027  0.00  0.00     0.000 A 
ATOM      5  C6  UNL d   1      -0.151  -1.434  -1.407  0.00  0.00     0.000 A 
ATOM      6  C7  UNL d   1       0.217  -2.138  -0.247  0.00  0.00    -0.073 A 
ATOM      7  C8  UNL d   1      -0.782  -3.073   0.378  0.00  0.00     0.078 C 
ENDROOT
BRANCH   1   8
ATOM      8  C1  UNL d   1       2.004  -2.731   1.488  0.00  0.00     0.053 C 
ATOM      9  C   UNL d   1       2.305  -1.811   2.662  0.00  0.00     0.018 C 
ENDBRANCH   1   8
TORSDOF 1
ENDMDL
