MODEL 1
REMARK minimizedAffinity -1.83041489
REMARK minimizedRMSD -1
REMARK  1 active torsions:
REMARK  status: ('A' for Active; 'I' for Inactive)
REMARK    1  A    between atoms: C1_2  and  C2_3 
ROOT
ATOM      1  C2  UNL d   1       1.071  -2.860   0.481  0.00  0.00    -0.076 A 
ATOM      2  C3  UNL d   1       2.039  -2.022  -0.101  0.00  0.00     0.004 A 
ATOM      3  C4  UNL d   1       1.667  -0.953  -0.914  0.00  0.00    -0.003 A 
ATOM      4  C5  UNL d   1       0.321  -0.703  -1.157  0.00  0.00     0.000 A 
ATOM      5  C6  UNL d   1      -0.653  -1.512  -0.574  0.00  0.00     0.000 A 
ATOM      6  C7  UNL d   1      -0.295  -2.585   0.261  0.00  0.00    -0.073 A 
ATOM      7  C8  UNL d   1      -1.387  -3.429   0.859  0.00  0.00     0.078 C 
ENDROOT
BRANCH   1   8
ATOM      8  C1  UNL d   1       1.535  -4.021   1.331  0.00  0.00     0.053 C 
ATOM      9  C   UNL d   1       0.841  -5.324   0.967  0.00  0.00     0.018 C 
ENDBRANCH   1   8
TORSDOF 1
ENDMDL
