MODEL 1
REMARK minimizedAffinity 0.603212416
REMARK minimizedRMSD -1
REMARK  1 active torsions:
REMARK  status: ('A' for Active; 'I' for Inactive)
REMARK    1  A    between atoms: C1_2  and  C2_3 
ROOT
ATOM      1  C2  UNL d   1       0.279  -2.586   0.352  0.00  0.00    -0.076 A 
ATOM      2  C3  UNL d   1       1.524  -2.381   0.972  0.00  0.00     0.004 A 
ATOM      3  C4  UNL d   1       2.349  -1.324   0.592  0.00  0.00    -0.003 A 
ATOM      4  C5  UNL d   1       1.943  -0.455  -0.414  0.00  0.00     0.000 A 
ATOM      5  C6  UNL d   1       0.704  -0.633  -1.028  0.00  0.00     0.000 A 
ATOM      6  C7  UNL d   1      -0.148  -1.683  -0.645  0.00  0.00    -0.073 A 
ATOM      7  C8  UNL d   1      -1.471  -1.831  -1.345  0.00  0.00     0.078 C 
ENDROOT
BRANCH   1   8
ATOM      8  C1  UNL d   1      -0.562  -3.765   0.787  0.00  0.00     0.053 C 
ATOM      9  C   UNL d   1       0.281  -4.939   1.261  0.00  0.00     0.018 C 
ENDBRANCH   1   8
TORSDOF 1
ENDMDL
