MODEL 1
REMARK minimizedAffinity 10.0874653
REMARK minimizedRMSD -1
REMARK  1 active torsions:
REMARK  status: ('A' for Active; 'I' for Inactive)
REMARK    1  A    between atoms: C1_2  and  C2_3 
ROOT
ATOM      1  C2  UNL d   1      -3.433   0.956   3.720  0.00  0.00    -0.076 A 
ATOM      2  C3  UNL d   1      -4.694   0.824   3.111  0.00  0.00     0.004 A 
ATOM      3  C4  UNL d   1      -5.109  -0.396   2.580  0.00  0.00    -0.003 A 
ATOM      4  C5  UNL d   1      -4.271  -1.503   2.649  0.00  0.00     0.000 A 
ATOM      5  C6  UNL d   1      -3.025  -1.395   3.264  0.00  0.00     0.000 A 
ATOM      6  C7  UNL d   1      -2.597  -0.176   3.820  0.00  0.00    -0.073 A 
ATOM      7  C8  UNL d   1      -1.241  -0.114   4.466  0.00  0.00     0.078 C 
ENDROOT
BRANCH   1   8
ATOM      8  C1  UNL d   1      -3.026   2.311   4.254  0.00  0.00     0.053 C 
ATOM      9  C   UNL d   1      -3.779   2.688   5.520  0.00  0.00     0.018 C 
ENDBRANCH   1   8
TORSDOF 1
ENDMDL
