MODEL 1
REMARK minimizedAffinity 4.4738636
REMARK minimizedRMSD -1
REMARK  1 active torsions:
REMARK  status: ('A' for Active; 'I' for Inactive)
REMARK    1  A    between atoms: C1_2  and  C2_3 
ROOT
ATOM      1  C2  UNL d   1      -0.091  -1.807  -0.134  0.00  0.00    -0.076 A 
ATOM      2  C3  UNL d   1      -0.593  -0.689  -0.823  0.00  0.00     0.004 A 
ATOM      3  C4  UNL d   1       0.265   0.281  -1.338  0.00  0.00    -0.003 A 
ATOM      4  C5  UNL d   1       1.640   0.149  -1.174  0.00  0.00     0.000 A 
ATOM      5  C6  UNL d   1       2.156  -0.963  -0.509  0.00  0.00     0.000 A 
ATOM      6  C7  UNL d   1       1.306  -1.958   0.003  0.00  0.00    -0.073 A 
ATOM      7  C8  UNL d   1       1.917  -3.133   0.716  0.00  0.00     0.078 C 
ENDROOT
BRANCH   1   8
ATOM      8  C1  UNL d   1      -1.071  -2.812   0.426  0.00  0.00     0.053 C 
ATOM      9  C   UNL d   1      -1.954  -2.221   1.514  0.00  0.00     0.018 C 
ENDBRANCH   1   8
TORSDOF 1
ENDMDL
