MODEL 1
REMARK minimizedAffinity 2.55550122
REMARK minimizedRMSD -1
REMARK  1 active torsions:
REMARK  status: ('A' for Active; 'I' for Inactive)
REMARK    1  A    between atoms: C1_2  and  C2_3 
ROOT
ATOM      1  C2  UNL d   1       1.265   1.028  -3.187  0.00  0.00    -0.076 A 
ATOM      2  C3  UNL d   1       1.730  -0.298  -3.152  0.00  0.00     0.004 A 
ATOM      3  C4  UNL d   1       1.563  -1.088  -2.015  0.00  0.00    -0.003 A 
ATOM      4  C5  UNL d   1       0.927  -0.564  -0.895  0.00  0.00     0.000 A 
ATOM      5  C6  UNL d   1       0.444   0.744  -0.918  0.00  0.00     0.000 A 
ATOM      6  C7  UNL d   1       0.590   1.548  -2.062  0.00  0.00    -0.073 A 
ATOM      7  C8  UNL d   1       0.056   2.954  -2.029  0.00  0.00     0.078 C 
ENDROOT
BRANCH   1   8
ATOM      8  C1  UNL d   1       1.500   1.845  -4.437  0.00  0.00     0.053 C 
ATOM      9  C   UNL d   1       2.903   1.665  -4.996  0.00  0.00     0.018 C 
ENDBRANCH   1   8
TORSDOF 1
ENDMDL
