MODEL 1
REMARK minimizedAffinity 0.274043262
REMARK minimizedRMSD -1
REMARK  1 active torsions:
REMARK  status: ('A' for Active; 'I' for Inactive)
REMARK    1  A    between atoms: C1_2  and  C2_3 
ROOT
ATOM      1  C2  UNL d   1       0.829  -1.101  -1.289  0.00  0.00    -0.076 A 
ATOM      2  C3  UNL d   1       1.207  -2.338  -1.840  0.00  0.00     0.004 A 
ATOM      3  C4  UNL d   1       1.463  -2.468  -3.204  0.00  0.00    -0.003 A 
ATOM      4  C5  UNL d   1       1.344  -1.363  -4.040  0.00  0.00     0.000 A 
ATOM      5  C6  UNL d   1       0.986  -0.125  -3.508  0.00  0.00     0.000 A 
ATOM      6  C7  UNL d   1       0.741   0.027  -2.133  0.00  0.00    -0.073 A 
ATOM      7  C8  UNL d   1       0.353   1.385  -1.615  0.00  0.00     0.078 C 
ENDROOT
BRANCH   1   8
ATOM      8  C1  UNL d   1       0.538  -1.026   0.193  0.00  0.00     0.053 C 
ATOM      9  C   UNL d   1      -0.531  -2.016   0.627  0.00  0.00     0.018 C 
ENDBRANCH   1   8
TORSDOF 1
ENDMDL
