MODEL 1
REMARK minimizedAffinity 1.49815869
REMARK minimizedRMSD -1
REMARK  1 active torsions:
REMARK  status: ('A' for Active; 'I' for Inactive)
REMARK    1  A    between atoms: C1_2  and  C2_3 
ROOT
ATOM      1  C2  UNL d   1       3.421   3.602  -4.875  0.00  0.00    -0.076 A 
ATOM      2  C3  UNL d   1       3.723   2.511  -5.708  0.00  0.00     0.004 A 
ATOM      3  C4  UNL d   1       4.989   1.927  -5.694  0.00  0.00    -0.003 A 
ATOM      4  C5  UNL d   1       5.972   2.424  -4.846  0.00  0.00     0.000 A 
ATOM      5  C6  UNL d   1       5.684   3.494  -4.000  0.00  0.00     0.000 A 
ATOM      6  C7  UNL d   1       4.409   4.084  -3.990  0.00  0.00    -0.073 A 
ATOM      7  C8  UNL d   1       4.155   5.240  -3.061  0.00  0.00     0.078 C 
ENDROOT
BRANCH   1   8
ATOM      8  C1  UNL d   1       2.039   4.212  -4.953  0.00  0.00     0.053 C 
ATOM      9  C   UNL d   1       1.946   5.311  -6.000  0.00  0.00     0.018 C 
ENDBRANCH   1   8
TORSDOF 1
ENDMDL
