MODEL 1
REMARK minimizedAffinity 2.13943553
REMARK minimizedRMSD -1
REMARK  1 active torsions:
REMARK  status: ('A' for Active; 'I' for Inactive)
REMARK    1  A    between atoms: C1_2  and  C2_3 
ROOT
ATOM      1  C2  UNL d   1       3.818   3.270  -5.099  0.00  0.00    -0.076 A 
ATOM      2  C3  UNL d   1       5.195   3.455  -5.312  0.00  0.00     0.004 A 
ATOM      3  C4  UNL d   1       5.999   2.407  -5.758  0.00  0.00    -0.003 A 
ATOM      4  C5  UNL d   1       5.439   1.158  -6.000  0.00  0.00     0.000 A 
ATOM      5  C6  UNL d   1       4.072   0.961  -5.811  0.00  0.00     0.000 A 
ATOM      6  C7  UNL d   1       3.244   2.010  -5.377  0.00  0.00    -0.073 A 
ATOM      7  C8  UNL d   1       1.777   1.740  -5.184  0.00  0.00     0.078 C 
ENDROOT
BRANCH   1   8
ATOM      8  C1  UNL d   1       3.001   4.435  -4.589  0.00  0.00     0.053 C 
ATOM      9  C   UNL d   1       3.451   4.903  -3.213  0.00  0.00     0.018 C 
ENDBRANCH   1   8
TORSDOF 1
ENDMDL
