MODEL 1
REMARK minimizedAffinity 6.83763838
REMARK minimizedRMSD -1
REMARK  1 active torsions:
REMARK  status: ('A' for Active; 'I' for Inactive)
REMARK    1  A    between atoms: C1_2  and  C2_3 
ROOT
ATOM      1  C2  UNL d   1       1.546  -0.326  -3.584  0.00  0.00    -0.076 A 
ATOM      2  C3  UNL d   1       1.440   0.997  -3.122  0.00  0.00     0.004 A 
ATOM      3  C4  UNL d   1       0.827   1.284  -1.903  0.00  0.00    -0.003 A 
ATOM      4  C5  UNL d   1       0.311   0.253  -1.127  0.00  0.00     0.000 A 
ATOM      5  C6  UNL d   1       0.423  -1.068  -1.561  0.00  0.00     0.000 A 
ATOM      6  C7  UNL d   1       1.053  -1.376  -2.780  0.00  0.00    -0.073 A 
ATOM      7  C8  UNL d   1       1.141  -2.817  -3.203  0.00  0.00     0.078 C 
ENDROOT
BRANCH   1   8
ATOM      8  C1  UNL d   1       2.197  -0.575  -4.926  0.00  0.00     0.053 C 
ATOM      9  C   UNL d   1       3.501   0.189  -5.091  0.00  0.00     0.018 C 
ENDBRANCH   1   8
TORSDOF 1
ENDMDL
