MODEL 1
REMARK minimizedAffinity -3.01062012
REMARK minimizedRMSD -1
REMARK  0 active torsions:
REMARK  status: ('A' for Active; 'I' for Inactive)
ROOT
ATOM      1  C   UNL d   1      -1.765   1.473  -0.130  0.00  0.00     0.172 C 
ATOM      2  N   UNL d   1      -0.683   0.525  -0.003  0.00  0.00    -0.070 N 
ATOM      3  C1  UNL d   1      -0.815  -0.797   0.328  0.00  0.00    -0.004 A 
ATOM      4  C2  UNL d   1       0.445  -1.356   0.343  0.00  0.00    -0.047 A 
ATOM      5  C3  UNL d   1       1.365  -0.334   0.010  0.00  0.00    -0.047 A 
ATOM      6  C4  UNL d   1       0.640   0.820  -0.199  0.00  0.00    -0.004 A 
ENDROOT
TORSDOF 0
ENDMDL
