MODEL 1
REMARK minimizedAffinity -2.28981423
REMARK minimizedRMSD -1
REMARK  0 active torsions:
REMARK  status: ('A' for Active; 'I' for Inactive)
ROOT
ATOM      1  C   UNL d   1      -0.657  -0.002   0.455  0.00  0.00     0.172 C 
ATOM      2  N   UNL d   1       0.461  -0.453  -0.339  0.00  0.00    -0.070 N 
ATOM      3  C1  UNL d   1       0.450  -1.518  -1.200  0.00  0.00    -0.004 A 
ATOM      4  C2  UNL d   1       1.704  -1.619  -1.763  0.00  0.00    -0.047 A 
ATOM      5  C3  UNL d   1       2.496  -0.579  -1.221  0.00  0.00    -0.047 A 
ATOM      6  C4  UNL d   1       1.702   0.128  -0.342  0.00  0.00    -0.004 A 
ENDROOT
TORSDOF 0
ENDMDL
