MODEL 1
REMARK minimizedAffinity -3.38211441
REMARK minimizedRMSD -1
REMARK  0 active torsions:
REMARK  status: ('A' for Active; 'I' for Inactive)
ROOT
ATOM      1  C   UNL d   1       2.738   0.237  -0.378  0.00  0.00     0.172 C 
ATOM      2  N   UNL d   1       1.309   0.370  -0.214  0.00  0.00    -0.070 N 
ATOM      3  C1  UNL d   1       0.484   1.134  -0.995  0.00  0.00    -0.004 A 
ATOM      4  C2  UNL d   1      -0.801   0.993  -0.515  0.00  0.00    -0.047 A 
ATOM      5  C3  UNL d   1      -0.745   0.113   0.592  0.00  0.00    -0.047 A 
ATOM      6  C4  UNL d   1       0.573  -0.257   0.756  0.00  0.00    -0.004 A 
ENDROOT
TORSDOF 0
ENDMDL
