MODEL 1
REMARK minimizedAffinity -1.74299204
REMARK minimizedRMSD -1
REMARK  0 active torsions:
REMARK  status: ('A' for Active; 'I' for Inactive)
ROOT
ATOM      1  C   UNL d   1       1.120  -1.245   0.571  0.00  0.00     0.172 C 
ATOM      2  N   UNL d   1       0.010  -0.329   0.460  0.00  0.00    -0.070 N 
ATOM      3  C1  UNL d   1      -0.124   0.653  -0.484  0.00  0.00    -0.004 A 
ATOM      4  C2  UNL d   1      -1.315   1.305  -0.250  0.00  0.00    -0.047 A 
ATOM      5  C3  UNL d   1      -1.918   0.694   0.875  0.00  0.00    -0.047 A 
ATOM      6  C4  UNL d   1      -1.076  -0.314   1.295  0.00  0.00    -0.004 A 
ENDROOT
TORSDOF 0
ENDMDL
