MODEL 1
REMARK minimizedAffinity -3.85336161
REMARK minimizedRMSD -1
REMARK  0 active torsions:
REMARK  status: ('A' for Active; 'I' for Inactive)
ROOT
ATOM      1  C   UNL d   1      -0.139  -1.403   0.507  0.00  0.00     0.172 C 
ATOM      2  N   UNL d   1       0.911  -0.673  -0.165  0.00  0.00    -0.070 N 
ATOM      3  C1  UNL d   1       1.090   0.684  -0.128  0.00  0.00    -0.004 A 
ATOM      4  C2  UNL d   1       2.196   0.985  -0.892  0.00  0.00    -0.047 A 
ATOM      5  C3  UNL d   1       2.699  -0.234  -1.407  0.00  0.00    -0.047 A 
ATOM      6  C4  UNL d   1       1.885  -1.244  -0.941  0.00  0.00    -0.004 A 
ENDROOT
TORSDOF 0
ENDMDL
