MODEL 1
REMARK minimizedAffinity -3.79079032
REMARK minimizedRMSD -1
REMARK  0 active torsions:
REMARK  status: ('A' for Active; 'I' for Inactive)
ROOT
ATOM      1  C   UNL d   1      -0.427   0.380   0.165  0.00  0.00     0.172 C 
ATOM      2  N   UNL d   1       0.727   0.253  -0.695  0.00  0.00    -0.070 N 
ATOM      3  C1  UNL d   1       1.188   1.210  -1.558  0.00  0.00    -0.004 A 
ATOM      4  C2  UNL d   1       2.303   0.706  -2.192  0.00  0.00    -0.047 A 
ATOM      5  C3  UNL d   1       2.519  -0.601  -1.693  0.00  0.00    -0.047 A 
ATOM      6  C4  UNL d   1       1.528  -0.856  -0.768  0.00  0.00    -0.004 A 
ENDROOT
TORSDOF 0
ENDMDL
