MODEL 1
REMARK minimizedAffinity -2.96264768
REMARK minimizedRMSD -1
REMARK  0 active torsions:
REMARK  status: ('A' for Active; 'I' for Inactive)
ROOT
ATOM      1  C   UNL d   1      -0.787   0.285  -0.019  0.00  0.00     0.172 C 
ATOM      2  N   UNL d   1       0.409  -0.311  -0.566  0.00  0.00    -0.070 N 
ATOM      3  C1  UNL d   1       1.115  -1.343  -0.007  0.00  0.00    -0.004 A 
ATOM      4  C2  UNL d   1       2.184  -1.619  -0.831  0.00  0.00    -0.047 A 
ATOM      5  C3  UNL d   1       2.119  -0.722  -1.924  0.00  0.00    -0.047 A 
ATOM      6  C4  UNL d   1       1.010   0.076  -1.735  0.00  0.00    -0.004 A 
ENDROOT
TORSDOF 0
ENDMDL
