MODEL 1
REMARK minimizedAffinity -4.02901125
REMARK minimizedRMSD -1
REMARK  0 active torsions:
REMARK  status: ('A' for Active; 'I' for Inactive)
ROOT
ATOM      1  C   UNL d   1      -0.160   0.367  -0.201  0.00  0.00     0.172 C 
ATOM      2  N   UNL d   1       1.069   0.042  -0.887  0.00  0.00    -0.070 N 
ATOM      3  C1  UNL d   1       2.056   0.931  -1.219  0.00  0.00    -0.004 A 
ATOM      4  C2  UNL d   1       3.056   0.231  -1.859  0.00  0.00    -0.047 A 
ATOM      5  C3  UNL d   1       2.655  -1.125  -1.914  0.00  0.00    -0.047 A 
ATOM      6  C4  UNL d   1       1.421  -1.214  -1.305  0.00  0.00    -0.004 A 
ENDROOT
TORSDOF 0
ENDMDL
