MODEL 1
REMARK minimizedAffinity -3.4186902
REMARK minimizedRMSD -1
REMARK  0 active torsions:
REMARK  status: ('A' for Active; 'I' for Inactive)
ROOT
ATOM      1  C   UNL d   1      -0.050  -1.602   0.277  0.00  0.00     0.172 C 
ATOM      2  N   UNL d   1       0.113  -0.271  -0.258  0.00  0.00    -0.070 N 
ATOM      3  C1  UNL d   1      -0.883   0.657  -0.407  0.00  0.00    -0.004 A 
ATOM      4  C2  UNL d   1      -0.323   1.794  -0.948  0.00  0.00    -0.047 A 
ATOM      5  C3  UNL d   1       1.057   1.540  -1.132  0.00  0.00    -0.047 A 
ATOM      6  C4  UNL d   1       1.300   0.255  -0.696  0.00  0.00    -0.004 A 
ENDROOT
TORSDOF 0
ENDMDL
