MODEL 1
REMARK minimizedAffinity -3.47184277
REMARK minimizedRMSD -1
REMARK  0 active torsions:
REMARK  status: ('A' for Active; 'I' for Inactive)
ROOT
ATOM      1  C   UNL d   1      -1.327   0.338   1.104  0.00  0.00     0.172 C 
ATOM      2  N   UNL d   1      -0.209   0.018   0.248  0.00  0.00    -0.070 N 
ATOM      3  C1  UNL d   1       0.615   0.925  -0.362  0.00  0.00    -0.004 A 
ATOM      4  C2  UNL d   1       1.553   0.223  -1.087  0.00  0.00    -0.047 A 
ATOM      5  C3  UNL d   1       1.283  -1.154  -0.907  0.00  0.00    -0.047 A 
ATOM      6  C4  UNL d   1       0.187  -1.253  -0.076  0.00  0.00    -0.004 A 
ENDROOT
TORSDOF 0
ENDMDL
