MODEL 1
REMARK minimizedAffinity -3.24231148
REMARK minimizedRMSD -1
REMARK  0 active torsions:
REMARK  status: ('A' for Active; 'I' for Inactive)
ROOT
ATOM      1  C   UNL d   1       2.972  -0.209  -1.185  0.00  0.00     0.172 C 
ATOM      2  N   UNL d   1       1.691  -0.453  -0.565  0.00  0.00    -0.070 N 
ATOM      3  C1  UNL d   1       1.127   0.304   0.427  0.00  0.00    -0.004 A 
ATOM      4  C2  UNL d   1      -0.092  -0.256   0.743  0.00  0.00    -0.047 A 
ATOM      5  C3  UNL d   1      -0.266  -1.389  -0.087  0.00  0.00    -0.047 A 
ATOM      6  C4  UNL d   1       0.852  -1.487  -0.887  0.00  0.00    -0.004 A 
ENDROOT
TORSDOF 0
ENDMDL
