MODEL 1
REMARK minimizedAffinity -4.560534
REMARK minimizedRMSD -1
REMARK  0 active torsions:
REMARK  status: ('A' for Active; 'I' for Inactive)
ROOT
ATOM      1  C   UNL d   1       0.500  -0.086   0.539  0.00  0.00     0.172 C 
ATOM      2  N   UNL d   1       1.112   0.364  -0.689  0.00  0.00    -0.070 N 
ATOM      3  C1  UNL d   1       2.125  -0.271  -1.355  0.00  0.00    -0.004 A 
ATOM      4  C2  UNL d   1       2.425   0.473  -2.476  0.00  0.00    -0.047 A 
ATOM      5  C3  UNL d   1       1.563   1.594  -2.483  0.00  0.00    -0.047 A 
ATOM      6  C4  UNL d   1       0.760   1.502  -1.365  0.00  0.00    -0.004 A 
ENDROOT
TORSDOF 0
ENDMDL
