MODEL 1
REMARK minimizedAffinity -1.7601676
REMARK minimizedRMSD -1
REMARK  0 active torsions:
REMARK  status: ('A' for Active; 'I' for Inactive)
ROOT
ATOM      1  C   UNL d   1      -0.324   0.554   0.214  0.00  0.00     0.172 C 
ATOM      2  N   UNL d   1      -1.147   0.760   1.383  0.00  0.00    -0.070 N 
ATOM      3  C1  UNL d   1      -1.070   1.829   2.236  0.00  0.00    -0.004 A 
ATOM      4  C2  UNL d   1      -2.020   1.654   3.219  0.00  0.00    -0.047 A 
ATOM      5  C3  UNL d   1      -2.691   0.438   2.947  0.00  0.00    -0.047 A 
ATOM      6  C4  UNL d   1      -2.131  -0.094   1.805  0.00  0.00    -0.004 A 
ENDROOT
TORSDOF 0
ENDMDL
