MODEL 1
REMARK minimizedAffinity -3.30931973
REMARK minimizedRMSD -1
REMARK  0 active torsions:
REMARK  status: ('A' for Active; 'I' for Inactive)
ROOT
ATOM      1  C   UNL d   1      -0.977   0.427   0.782  0.00  0.00     0.172 C 
ATOM      2  N   UNL d   1       0.028  -0.273   0.017  0.00  0.00    -0.070 N 
ATOM      3  C1  UNL d   1      -0.037  -1.584  -0.375  0.00  0.00    -0.004 A 
ATOM      4  C2  UNL d   1       1.110  -1.870  -1.082  0.00  0.00    -0.047 A 
ATOM      5  C3  UNL d   1       1.892  -0.691  -1.116  0.00  0.00    -0.047 A 
ATOM      6  C4  UNL d   1       1.199   0.282  -0.428  0.00  0.00    -0.004 A 
ENDROOT
TORSDOF 0
ENDMDL
