MODEL 1
REMARK minimizedAffinity -4.14701605
REMARK minimizedRMSD -1
REMARK  0 active torsions:
REMARK  status: ('A' for Active; 'I' for Inactive)
ROOT
ATOM      1  C   UNL d   1       2.783  -0.056  -1.144  0.00  0.00     0.172 C 
ATOM      2  N   UNL d   1       1.479  -0.512  -0.721  0.00  0.00    -0.070 N 
ATOM      3  C1  UNL d   1       1.026  -1.802  -0.783  0.00  0.00    -0.004 A 
ATOM      4  C2  UNL d   1      -0.259  -1.823  -0.286  0.00  0.00    -0.047 A 
ATOM      5  C3  UNL d   1      -0.590  -0.498   0.087  0.00  0.00    -0.047 A 
ATOM      6  C4  UNL d   1       0.504   0.293  -0.193  0.00  0.00    -0.004 A 
ENDROOT
TORSDOF 0
ENDMDL
