MODEL 1
REMARK minimizedAffinity -3.94416428
REMARK minimizedRMSD -1
REMARK  0 active torsions:
REMARK  status: ('A' for Active; 'I' for Inactive)
ROOT
ATOM      1  C   UNL d   1      -1.013   0.365   0.358  0.00  0.00     0.172 C 
ATOM      2  N   UNL d   1       0.311   0.004  -0.092  0.00  0.00    -0.070 N 
ATOM      3  C1  UNL d   1       0.669  -1.201  -0.634  0.00  0.00    -0.004 A 
ATOM      4  C2  UNL d   1       2.013  -1.147  -0.932  0.00  0.00    -0.047 A 
ATOM      5  C3  UNL d   1       2.479   0.135  -0.554  0.00  0.00    -0.047 A 
ATOM      6  C4  UNL d   1       1.405   0.827  -0.037  0.00  0.00    -0.004 A 
ENDROOT
TORSDOF 0
ENDMDL
