MODEL 1
REMARK minimizedAffinity 3.22685528
REMARK minimizedRMSD -1
REMARK  1 active torsions:
REMARK  status: ('A' for Active; 'I' for Inactive)
REMARK    1  A    between atoms: C1_2  and  C2_3 
ROOT
ATOM      1  C2  UNL d   1       4.882   5.040  -4.283  0.00  0.00    -0.076 A 
ATOM      2  C3  UNL d   1       5.999   4.777  -3.471  0.00  0.00     0.004 A 
ATOM      3  C4  UNL d   1       5.996   5.109  -2.118  0.00  0.00    -0.003 A 
ATOM      4  C5  UNL d   1       4.877   5.711  -1.554  0.00  0.00     0.000 A 
ATOM      5  C6  UNL d   1       3.753   5.964  -2.340  0.00  0.00     0.000 A 
ATOM      6  C7  UNL d   1       3.733   5.619  -3.703  0.00  0.00    -0.073 A 
ATOM      7  C8  UNL d   1       2.497   5.920  -4.505  0.00  0.00     0.078 C 
ENDROOT
BRANCH   1   8
ATOM      8  C1  UNL d   1       4.952   4.682  -5.750  0.00  0.00     0.053 C 
ATOM      9  C   UNL d   1       5.514   3.288  -5.983  0.00  0.00     0.018 C 
ENDBRANCH   1   8
TORSDOF 1
ENDMDL
