MODEL 1
REMARK minimizedAffinity 13.1037807
REMARK minimizedRMSD -1
REMARK  1 active torsions:
REMARK  status: ('A' for Active; 'I' for Inactive)
REMARK    1  A    between atoms: C1_2  and  C2_3 
ROOT
ATOM      1  C2  UNL d   1       1.102  -2.377  -2.445  0.00  0.00    -0.076 A 
ATOM      2  C3  UNL d   1       1.253  -2.861  -1.134  0.00  0.00     0.004 A 
ATOM      3  C4  UNL d   1       0.261  -2.657  -0.176  0.00  0.00    -0.003 A 
ATOM      4  C5  UNL d   1      -0.897  -1.966  -0.513  0.00  0.00     0.000 A 
ATOM      5  C6  UNL d   1      -1.071  -1.494  -1.814  0.00  0.00     0.000 A 
ATOM      6  C7  UNL d   1      -0.088  -1.705  -2.796  0.00  0.00    -0.073 A 
ATOM      7  C8  UNL d   1      -0.325  -1.169  -4.181  0.00  0.00     0.078 C 
ENDROOT
BRANCH   1   8
ATOM      8  C1  UNL d   1       2.223  -2.604  -3.435  0.00  0.00     0.053 C 
ATOM      9  C   UNL d   1       3.485  -1.838  -3.071  0.00  0.00     0.018 C 
ENDBRANCH   1   8
TORSDOF 1
ENDMDL
