MODEL 1
REMARK minimizedAffinity 23.6296749
REMARK minimizedRMSD -1
REMARK  1 active torsions:
REMARK  status: ('A' for Active; 'I' for Inactive)
REMARK    1  A    between atoms: C1_2  and  C2_3 
ROOT
ATOM      1  C2  UNL d   1      -3.252  -5.092  -5.425  0.00  0.00    -0.076 A 
ATOM      2  C3  UNL d   1      -4.192  -5.993  -5.954  0.00  0.00     0.004 A 
ATOM      3  C4  UNL d   1      -5.552  -5.854  -5.680  0.00  0.00    -0.003 A 
ATOM      4  C5  UNL d   1      -5.993  -4.812  -4.872  0.00  0.00     0.000 A 
ATOM      5  C6  UNL d   1      -5.075  -3.899  -4.353  0.00  0.00     0.000 A 
ATOM      6  C7  UNL d   1      -3.703  -4.015  -4.633  0.00  0.00    -0.073 A 
ATOM      7  C8  UNL d   1      -2.758  -3.006  -4.042  0.00  0.00     0.078 C 
ENDROOT
BRANCH   1   8
ATOM      8  C1  UNL d   1      -1.788  -5.309  -5.735  0.00  0.00     0.053 C 
ATOM      9  C   UNL d   1      -0.957  -4.051  -5.533  0.00  0.00     0.018 C 
ENDBRANCH   1   8
TORSDOF 1
ENDMDL
