MODEL 1
REMARK minimizedAffinity 20.4763336
REMARK minimizedRMSD -1
REMARK  1 active torsions:
REMARK  status: ('A' for Active; 'I' for Inactive)
REMARK    1  A    between atoms: C1_2  and  C2_3 
ROOT
ATOM      1  C2  UNL d   1       1.161  -2.208  -2.344  0.00  0.00    -0.076 A 
ATOM      2  C3  UNL d   1       1.316  -2.507  -0.979  0.00  0.00     0.004 A 
ATOM      3  C4  UNL d   1       0.256  -2.355  -0.087  0.00  0.00    -0.003 A 
ATOM      4  C5  UNL d   1      -0.976  -1.902  -0.544  0.00  0.00     0.000 A 
ATOM      5  C6  UNL d   1      -1.152  -1.617  -1.898  0.00  0.00     0.000 A 
ATOM      6  C7  UNL d   1      -0.099  -1.780  -2.814  0.00  0.00    -0.073 A 
ATOM      7  C8  UNL d   1      -0.343  -1.452  -4.261  0.00  0.00     0.078 C 
ENDROOT
BRANCH   1   8
ATOM      8  C1  UNL d   1       2.354  -2.366  -3.260  0.00  0.00     0.053 C 
ATOM      9  C   UNL d   1       3.491  -1.421  -2.904  0.00  0.00     0.018 C 
ENDBRANCH   1   8
TORSDOF 1
ENDMDL
