MODEL 1
REMARK minimizedAffinity 8.37688541
REMARK minimizedRMSD -1
REMARK  1 active torsions:
REMARK  status: ('A' for Active; 'I' for Inactive)
REMARK    1  A    between atoms: C1_2  and  C2_3 
ROOT
ATOM      1  C2  UNL d   1       4.391   4.950  -3.620  0.00  0.00    -0.076 A 
ATOM      2  C3  UNL d   1       5.652   4.622  -3.091  0.00  0.00     0.004 A 
ATOM      3  C4  UNL d   1       6.000   4.985  -1.791  0.00  0.00    -0.003 A 
ATOM      4  C5  UNL d   1       5.093   5.681  -0.999  0.00  0.00     0.000 A 
ATOM      5  C6  UNL d   1       3.832   5.999  -1.502  0.00  0.00     0.000 A 
ATOM      6  C7  UNL d   1       3.459   5.626  -2.805  0.00  0.00    -0.073 A 
ATOM      7  C8  UNL d   1       2.088   6.000  -3.298  0.00  0.00     0.078 C 
ENDROOT
BRANCH   1   8
ATOM      8  C1  UNL d   1       4.080   4.554  -5.046  0.00  0.00     0.053 C 
ATOM      9  C   UNL d   1       4.112   5.738  -6.000  0.00  0.00     0.018 C 
ENDBRANCH   1   8
TORSDOF 1
ENDMDL
