MODEL 1
REMARK minimizedAffinity 8.96496296
REMARK minimizedRMSD -1
REMARK  1 active torsions:
REMARK  status: ('A' for Active; 'I' for Inactive)
REMARK    1  A    between atoms: C1_2  and  C2_3 
ROOT
ATOM      1  C2  UNL d   1       1.171  -2.061  -2.888  0.00  0.00    -0.076 A 
ATOM      2  C3  UNL d   1       1.520  -2.351  -1.558  0.00  0.00     0.004 A 
ATOM      3  C4  UNL d   1       0.593  -2.214  -0.526  0.00  0.00    -0.003 A 
ATOM      4  C5  UNL d   1      -0.699  -1.785  -0.809  0.00  0.00     0.000 A 
ATOM      5  C6  UNL d   1      -1.068  -1.510  -2.125  0.00  0.00     0.000 A 
ATOM      6  C7  UNL d   1      -0.150  -1.659  -3.179  0.00  0.00    -0.073 A 
ATOM      7  C8  UNL d   1      -0.600  -1.342  -4.578  0.00  0.00     0.078 C 
ENDROOT
BRANCH   1   8
ATOM      8  C1  UNL d   1       2.227  -2.202  -3.961  0.00  0.00     0.053 C 
ATOM      9  C   UNL d   1       3.639  -2.105  -3.405  0.00  0.00     0.018 C 
ENDBRANCH   1   8
TORSDOF 1
ENDMDL
