MODEL 1
REMARK minimizedAffinity 14.7636833
REMARK minimizedRMSD -1
REMARK  1 active torsions:
REMARK  status: ('A' for Active; 'I' for Inactive)
REMARK    1  A    between atoms: C1_2  and  C2_3 
ROOT
ATOM      1  C2  UNL d   1       0.317  -2.876  -2.459  0.00  0.00    -0.076 A 
ATOM      2  C3  UNL d   1      -0.176  -1.621  -2.856  0.00  0.00     0.004 A 
ATOM      3  C4  UNL d   1      -0.932  -0.839  -1.985  0.00  0.00    -0.003 A 
ATOM      4  C5  UNL d   1      -1.206  -1.298  -0.701  0.00  0.00     0.000 A 
ATOM      5  C6  UNL d   1      -0.709  -2.533  -0.284  0.00  0.00     0.000 A 
ATOM      6  C7  UNL d   1       0.068  -3.327  -1.145  0.00  0.00    -0.073 A 
ATOM      7  C8  UNL d   1       0.572  -4.653  -0.645  0.00  0.00     0.078 C 
ENDROOT
BRANCH   1   8
ATOM      8  C1  UNL d   1       1.108  -3.692  -3.456  0.00  0.00     0.053 C 
ATOM      9  C   UNL d   1       2.150  -2.864  -4.191  0.00  0.00     0.018 C 
ENDBRANCH   1   8
TORSDOF 1
ENDMDL
