MODEL 1
REMARK minimizedAffinity 7.91296911
REMARK minimizedRMSD -1
REMARK  1 active torsions:
REMARK  status: ('A' for Active; 'I' for Inactive)
REMARK    1  A    between atoms: C1_2  and  C2_3 
ROOT
ATOM      1  C2  UNL d   1      -1.222  -2.151  -2.376  0.00  0.00    -0.076 A 
ATOM      2  C3  UNL d   1      -2.089  -1.540  -1.454  0.00  0.00     0.004 A 
ATOM      3  C4  UNL d   1      -1.748  -1.439  -0.106  0.00  0.00    -0.003 A 
ATOM      4  C5  UNL d   1      -0.533  -1.946   0.342  0.00  0.00     0.000 A 
ATOM      5  C6  UNL d   1       0.347  -2.539  -0.562  0.00  0.00     0.000 A 
ATOM      6  C7  UNL d   1       0.026  -2.635  -1.927  0.00  0.00    -0.073 A 
ATOM      7  C8  UNL d   1       1.011  -3.290  -2.857  0.00  0.00     0.078 C 
ENDROOT
BRANCH   1   8
ATOM      8  C1  UNL d   1      -1.657  -2.257  -3.820  0.00  0.00     0.053 C 
ATOM      9  C   UNL d   1      -2.936  -3.062  -3.985  0.00  0.00     0.018 C 
ENDBRANCH   1   8
TORSDOF 1
ENDMDL
