MODEL 1
REMARK minimizedAffinity 12.7706375
REMARK minimizedRMSD -1
REMARK  1 active torsions:
REMARK  status: ('A' for Active; 'I' for Inactive)
REMARK    1  A    between atoms: C1_2  and  C2_3 
ROOT
ATOM      1  C2  UNL d   1       0.419  -2.749  -2.401  0.00  0.00    -0.076 A 
ATOM      2  C3  UNL d   1      -0.173  -1.661  -3.066  0.00  0.00     0.004 A 
ATOM      3  C4  UNL d   1      -1.000  -0.769  -2.386  0.00  0.00    -0.003 A 
ATOM      4  C5  UNL d   1      -1.249  -0.949  -1.030  0.00  0.00     0.000 A 
ATOM      5  C6  UNL d   1      -0.656  -2.013  -0.350  0.00  0.00     0.000 A 
ATOM      6  C7  UNL d   1       0.194  -2.912  -1.017  0.00  0.00    -0.073 A 
ATOM      7  C8  UNL d   1       0.802  -4.045  -0.236  0.00  0.00     0.078 C 
ENDROOT
BRANCH   1   8
ATOM      8  C1  UNL d   1       1.285  -3.700  -3.196  0.00  0.00     0.053 C 
ATOM      9  C   UNL d   1       2.071  -2.994  -4.290  0.00  0.00     0.018 C 
ENDBRANCH   1   8
TORSDOF 1
ENDMDL
