MODEL 1
REMARK minimizedAffinity 7.04464769
REMARK minimizedRMSD -1
REMARK  1 active torsions:
REMARK  status: ('A' for Active; 'I' for Inactive)
REMARK    1  A    between atoms: C1_2  and  C2_3 
ROOT
ATOM      1  C2  UNL d   1      -0.071  -3.767  -3.025  0.00  0.00    -0.076 A 
ATOM      2  C3  UNL d   1      -0.357  -2.395  -2.916  0.00  0.00     0.004 A 
ATOM      3  C4  UNL d   1      -0.512  -1.791  -1.670  0.00  0.00    -0.003 A 
ATOM      4  C5  UNL d   1      -0.383  -2.549  -0.511  0.00  0.00     0.000 A 
ATOM      5  C6  UNL d   1      -0.082  -3.908  -0.600  0.00  0.00     0.000 A 
ATOM      6  C7  UNL d   1       0.094  -4.529  -1.848  0.00  0.00    -0.073 A 
ATOM      7  C8  UNL d   1       0.411  -5.999  -1.885  0.00  0.00     0.078 C 
ENDROOT
BRANCH   1   8
ATOM      8  C1  UNL d   1       0.060  -4.373  -4.404  0.00  0.00     0.053 C 
ATOM      9  C   UNL d   1       1.507  -4.472  -4.862  0.00  0.00     0.018 C 
ENDBRANCH   1   8
TORSDOF 1
ENDMDL
