MODEL 1
REMARK minimizedAffinity 14.0473423
REMARK minimizedRMSD -1
REMARK  1 active torsions:
REMARK  status: ('A' for Active; 'I' for Inactive)
REMARK    1  A    between atoms: C1_2  and  C2_3 
ROOT
ATOM      1  C2  UNL d   1       0.342  -2.639  -2.590  0.00  0.00    -0.076 A 
ATOM      2  C3  UNL d   1      -0.178  -1.415  -3.046  0.00  0.00     0.004 A 
ATOM      3  C4  UNL d   1      -0.906  -0.584  -2.196  0.00  0.00    -0.003 A 
ATOM      4  C5  UNL d   1      -1.124  -0.963  -0.875  0.00  0.00     0.000 A 
ATOM      5  C6  UNL d   1      -0.600  -2.165  -0.402  0.00  0.00     0.000 A 
ATOM      6  C7  UNL d   1       0.150  -3.007  -1.241  0.00  0.00    -0.073 A 
ATOM      7  C8  UNL d   1       0.686  -4.295  -0.679  0.00  0.00     0.078 C 
ENDROOT
BRANCH   1   8
ATOM      8  C1  UNL d   1       1.100  -3.512  -3.565  0.00  0.00     0.053 C 
ATOM      9  C   UNL d   1       2.234  -2.768  -4.252  0.00  0.00     0.018 C 
ENDBRANCH   1   8
TORSDOF 1
ENDMDL
