MODEL 1
REMARK minimizedAffinity -0.853950143
REMARK minimizedRMSD -1
REMARK  0 active torsions:
REMARK  status: ('A' for Active; 'I' for Inactive)
ROOT
ATOM      1  C1  DEN d   1       2.994  -0.548  -3.703  0.00  0.00     0.130 A 
ATOM      2  C2  DEN d   1       3.758  -1.766  -3.955  0.00  0.00    -0.031 A 
ATOM      3  C3  DEN d   1       4.868  -1.428  -4.869  0.00  0.00     0.027 A 
ATOM      4  C4  DEN d   1       5.476   0.853  -5.908  0.00  0.00     0.027 A 
ATOM      5  C5  DEN d   1       5.113   2.178  -5.997  0.00  0.00    -0.003 A 
ATOM      6  C6  DEN d   1       4.008   2.677  -5.360  0.00  0.00     0.001 A 
ATOM      7  C7  DEN d   1       3.251   1.854  -4.569  0.00  0.00     0.017 A 
ATOM      8  C8  DEN d   1       3.607   0.514  -4.480  0.00  0.00    -0.094 A 
ATOM      9  C9  DEN d   1       4.735   0.032  -5.122  0.00  0.00    -0.072 A 
ENDROOT
TORSDOF 0
ENDMDL
