MODEL 1
REMARK minimizedAffinity 6.35833693
REMARK minimizedRMSD -1
REMARK  0 active torsions:
REMARK  status: ('A' for Active; 'I' for Inactive)
ROOT
ATOM      1  C1  DEN d   1      -2.340   1.710   0.626  0.00  0.00     0.130 A 
ATOM      2  C2  DEN d   1      -2.102   1.595  -0.811  0.00  0.00    -0.031 A 
ATOM      3  C3  DEN d   1      -3.127   2.397  -1.508  0.00  0.00     0.027 A 
ATOM      4  C4  DEN d   1      -5.046   3.802  -0.509  0.00  0.00     0.027 A 
ATOM      5  C5  DEN d   1      -5.657   4.196   0.661  0.00  0.00    -0.003 A 
ATOM      6  C6  DEN d   1      -5.230   3.765   1.889  0.00  0.00     0.001 A 
ATOM      7  C7  DEN d   1      -4.133   2.950   1.978  0.00  0.00     0.017 A 
ATOM      8  C8  DEN d   1      -3.516   2.542   0.803  0.00  0.00    -0.094 A 
ATOM      9  C9  DEN d   1      -3.955   2.999  -0.428  0.00  0.00    -0.072 A 
ENDROOT
TORSDOF 0
ENDMDL
