MODEL 1
REMARK minimizedAffinity 0.142114475
REMARK minimizedRMSD -1
REMARK  0 active torsions:
REMARK  status: ('A' for Active; 'I' for Inactive)
ROOT
ATOM      1  C1  DEN d   1       2.013  -6.000  -5.201  0.00  0.00     0.130 A 
ATOM      2  C2  DEN d   1       3.283  -5.963  -5.922  0.00  0.00    -0.031 A 
ATOM      3  C3  DEN d   1       4.372  -5.947  -4.925  0.00  0.00     0.027 A 
ATOM      4  C4  DEN d   1       4.218  -5.980  -2.351  0.00  0.00     0.027 A 
ATOM      5  C5  DEN d   1       3.354  -5.999  -1.279  0.00  0.00    -0.003 A 
ATOM      6  C6  DEN d   1       1.993  -5.986  -1.437  0.00  0.00     0.001 A 
ATOM      7  C7  DEN d   1       1.456  -5.998  -2.697  0.00  0.00     0.017 A 
ATOM      8  C8  DEN d   1       2.321  -5.971  -3.783  0.00  0.00    -0.094 A 
ATOM      9  C9  DEN d   1       3.693  -5.997  -3.603  0.00  0.00    -0.072 A 
ENDROOT
TORSDOF 0
ENDMDL
