MODEL 1
REMARK minimizedAffinity 3.69195127
REMARK minimizedRMSD -1
REMARK  0 active torsions:
REMARK  status: ('A' for Active; 'I' for Inactive)
ROOT
ATOM      1  C1  DEN d   1       1.518  -5.984  -2.325  0.00  0.00     0.130 A 
ATOM      2  C2  DEN d   1       2.586  -5.987  -1.329  0.00  0.00    -0.031 A 
ATOM      3  C3  DEN d   1       3.877  -5.969  -2.044  0.00  0.00     0.027 A 
ATOM      4  C4  DEN d   1       4.325  -5.932  -4.584  0.00  0.00     0.027 A 
ATOM      5  C5  DEN d   1       3.735  -5.934  -5.828  0.00  0.00    -0.003 A 
ATOM      6  C6  DEN d   1       2.376  -5.986  -5.991  0.00  0.00     0.001 A 
ATOM      7  C7  DEN d   1       1.560  -5.994  -4.890  0.00  0.00     0.017 A 
ATOM      8  C8  DEN d   1       2.148  -6.000  -3.632  0.00  0.00    -0.094 A 
ATOM      9  C9  DEN d   1       3.524  -5.934  -3.489  0.00  0.00    -0.072 A 
ENDROOT
TORSDOF 0
ENDMDL
