MODEL 1
REMARK minimizedAffinity 0.223213673
REMARK minimizedRMSD -1
REMARK  0 active torsions:
REMARK  status: ('A' for Active; 'I' for Inactive)
ROOT
ATOM      1  C1  DEN d   1       5.076  -1.439  -2.490  0.00  0.00     0.130 A 
ATOM      2  C2  DEN d   1       4.189  -0.606  -1.683  0.00  0.00    -0.031 A 
ATOM      3  C3  DEN d   1       3.799   0.565  -2.494  0.00  0.00     0.027 A 
ATOM      4  C4  DEN d   1       4.475   1.163  -4.910  0.00  0.00     0.027 A 
ATOM      5  C5  DEN d   1       5.221   0.766  -5.998  0.00  0.00    -0.003 A 
ATOM      6  C6  DEN d   1       5.991  -0.366  -5.981  0.00  0.00     0.001 A 
ATOM      7  C7  DEN d   1       5.998  -1.166  -4.869  0.00  0.00     0.017 A 
ATOM      8  C8  DEN d   1       5.254  -0.769  -3.766  0.00  0.00    -0.094 A 
ATOM      9  C9  DEN d   1       4.472   0.373  -3.807  0.00  0.00    -0.072 A 
ENDROOT
TORSDOF 0
ENDMDL
