MODEL 1
REMARK minimizedAffinity 3.99562693
REMARK minimizedRMSD -1
REMARK  0 active torsions:
REMARK  status: ('A' for Active; 'I' for Inactive)
ROOT
ATOM      1  C1  DEN d   1       2.356  -1.454   2.048  0.00  0.00     0.130 A 
ATOM      2  C2  DEN d   1       1.767  -0.255   2.639  0.00  0.00    -0.031 A 
ATOM      3  C3  DEN d   1       1.149  -0.637   3.924  0.00  0.00     0.027 A 
ATOM      4  C4  DEN d   1       1.052  -2.953   5.054  0.00  0.00     0.027 A 
ATOM      5  C5  DEN d   1       1.403  -4.279   4.928  0.00  0.00    -0.003 A 
ATOM      6  C6  DEN d   1       2.061  -4.759   3.827  0.00  0.00     0.001 A 
ATOM      7  C7  DEN d   1       2.429  -3.897   2.828  0.00  0.00     0.017 A 
ATOM      8  C8  DEN d   1       2.072  -2.560   2.944  0.00  0.00    -0.094 A 
ATOM      9  C9  DEN d   1       1.418  -2.093   4.071  0.00  0.00    -0.072 A 
ENDROOT
TORSDOF 0
ENDMDL
