MODEL 1
REMARK minimizedAffinity 2.7172153
REMARK minimizedRMSD -1
REMARK  0 active torsions:
REMARK  status: ('A' for Active; 'I' for Inactive)
ROOT
ATOM      1  C1  DEN d   1       1.332  -0.781   4.041  0.00  0.00     0.130 A 
ATOM      2  C2  DEN d   1       2.107  -0.246   2.924  0.00  0.00    -0.031 A 
ATOM      3  C3  DEN d   1       2.810  -1.372   2.276  0.00  0.00     0.027 A 
ATOM      4  C4  DEN d   1       2.769  -3.878   2.887  0.00  0.00     0.027 A 
ATOM      5  C5  DEN d   1       2.264  -4.811   3.765  0.00  0.00    -0.003 A 
ATOM      6  C6  DEN d   1       1.446  -4.465   4.808  0.00  0.00     0.001 A 
ATOM      7  C7  DEN d   1       1.073  -3.157   4.973  0.00  0.00     0.017 A 
ATOM      8  C8  DEN d   1       1.585  -2.209   4.096  0.00  0.00    -0.094 A 
ATOM      9  C9  DEN d   1       2.400  -2.581   3.041  0.00  0.00    -0.072 A 
ENDROOT
TORSDOF 0
ENDMDL
