MODEL 1
REMARK minimizedAffinity -3.05920148
REMARK minimizedRMSD -1
REMARK  0 active torsions:
REMARK  status: ('A' for Active; 'I' for Inactive)
ROOT
ATOM      1  C4' PXY d   1      -2.607  -0.079   1.002  0.00  0.00     0.077 C 
ATOM      2  C1' PXY d   1       2.715  -1.119  -1.001  0.00  0.00     0.077 C 
ATOM      3  C1  PXY d   1       1.316  -0.840  -0.487  0.00  0.00    -0.082 A 
ATOM      4  C2  PXY d   1       1.087  -0.834   0.816  0.00  0.00     0.003 A 
ATOM      5  C3  PXY d   1      -0.178  -0.616   1.298  0.00  0.00     0.003 A 
ATOM      6  C4  PXY d   1      -1.209  -0.347   0.438  0.00  0.00    -0.082 A 
ATOM      7  C5  PXY d   1      -0.981  -0.340  -0.893  0.00  0.00     0.003 A 
ATOM      8  C6  PXY d   1       0.302  -0.605  -1.362  0.00  0.00     0.003 A 
ENDROOT
TORSDOF 0
ENDMDL
