MODEL 1
REMARK minimizedAffinity -5.03644848
REMARK minimizedRMSD -1
REMARK  0 active torsions:
REMARK  status: ('A' for Active; 'I' for Inactive)
ROOT
ATOM      1  C4' PXY d   1      -0.668   1.313  -1.974  0.00  0.00     0.077 C 
ATOM      2  C1' PXY d   1       1.297  -1.444   2.711  0.00  0.00     0.077 C 
ATOM      3  C1  PXY d   1       0.794  -0.722   1.477  0.00  0.00    -0.082 A 
ATOM      4  C2  PXY d   1      -0.273   0.056   1.564  0.00  0.00     0.003 A 
ATOM      5  C3  PXY d   1      -0.761   0.691   0.451  0.00  0.00     0.003 A 
ATOM      6  C4  PXY d   1      -0.118   0.572  -0.752  0.00  0.00    -0.082 A 
ATOM      7  C5  PXY d   1       0.977  -0.211  -0.847  0.00  0.00     0.003 A 
ATOM      8  C6  PXY d   1       1.432  -0.880   0.286  0.00  0.00     0.003 A 
ENDROOT
TORSDOF 0
ENDMDL
