MODEL 1
REMARK minimizedAffinity -5.19497442
REMARK minimizedRMSD -1
REMARK  0 active torsions:
REMARK  status: ('A' for Active; 'I' for Inactive)
ROOT
ATOM      1  C4' PXY d   1      -0.968  -0.013  -1.509  0.00  0.00     0.077 C 
ATOM      2  C1' PXY d   1       2.016  -0.927   3.357  0.00  0.00     0.077 C 
ATOM      3  C1  PXY d   1       1.222  -0.691   2.087  0.00  0.00    -0.082 A 
ATOM      4  C2  PXY d   1       1.835  -0.736   0.915  0.00  0.00     0.003 A 
ATOM      5  C3  PXY d   1       1.139  -0.493  -0.241  0.00  0.00     0.003 A 
ATOM      6  C4  PXY d   1      -0.208  -0.255  -0.201  0.00  0.00    -0.082 A 
ATOM      7  C5  PXY d   1      -0.843  -0.218   0.990  0.00  0.00     0.003 A 
ATOM      8  C6  PXY d   1      -0.110  -0.426   2.155  0.00  0.00     0.003 A 
ENDROOT
TORSDOF 0
ENDMDL
