MODEL 1
REMARK minimizedAffinity -5.61927032
REMARK minimizedRMSD -1
REMARK  0 active torsions:
REMARK  status: ('A' for Active; 'I' for Inactive)
ROOT
ATOM      1  C4' PXY d   1      -0.737   0.562  -1.734  0.00  0.00     0.077 C 
ATOM      2  C1' PXY d   1       1.103  -0.915   3.543  0.00  0.00     0.077 C 
ATOM      3  C1  PXY d   1       0.608  -0.532   2.163  0.00  0.00    -0.082 A 
ATOM      4  C2  PXY d   1       1.470  -0.432   1.164  0.00  0.00     0.003 A 
ATOM      5  C3  PXY d   1       1.045  -0.055  -0.084  0.00  0.00     0.003 A 
ATOM      6  C4  PXY d   1      -0.284   0.169  -0.325  0.00  0.00    -0.082 A 
ATOM      7  C5  PXY d   1      -1.171   0.058   0.687  0.00  0.00     0.003 A 
ATOM      8  C6  PXY d   1      -0.713  -0.285   1.955  0.00  0.00     0.003 A 
ENDROOT
TORSDOF 0
ENDMDL
