MODEL 1
REMARK minimizedAffinity -2.85841608
REMARK minimizedRMSD -1
REMARK  0 active torsions:
REMARK  status: ('A' for Active; 'I' for Inactive)
ROOT
ATOM      1  C4' PXY d   1      -0.981   0.366  -1.905  0.00  0.00     0.077 C 
ATOM      2  C1' PXY d   1       1.788  -0.880   3.014  0.00  0.00     0.077 C 
ATOM      3  C1  PXY d   1       1.073  -0.550   1.718  0.00  0.00    -0.082 A 
ATOM      4  C2  PXY d   1      -0.218  -0.260   1.739  0.00  0.00     0.003 A 
ATOM      5  C3  PXY d   1      -0.887   0.010   0.573  0.00  0.00     0.003 A 
ATOM      6  C4  PXY d   1      -0.216   0.036  -0.620  0.00  0.00    -0.082 A 
ATOM      7  C5  PXY d   1       1.103  -0.248  -0.648  0.00  0.00     0.003 A 
ATOM      8  C6  PXY d   1       1.755  -0.560   0.541  0.00  0.00     0.003 A 
ENDROOT
TORSDOF 0
ENDMDL
