MODEL 1
REMARK minimizedAffinity -2.65473437
REMARK minimizedRMSD -1
REMARK  0 active torsions:
REMARK  status: ('A' for Active; 'I' for Inactive)
ROOT
ATOM      1  C4' PXY d   1      -2.098   1.832  -3.471  0.00  0.00     0.077 C 
ATOM      2  C1' PXY d   1       1.324  -0.757   0.402  0.00  0.00     0.077 C 
ATOM      3  C1  PXY d   1       0.437  -0.072  -0.619  0.00  0.00    -0.082 A 
ATOM      4  C2  PXY d   1      -0.847   0.106  -0.355  0.00  0.00     0.003 A 
ATOM      5  C3  PXY d   1      -1.670   0.695  -1.280  0.00  0.00     0.003 A 
ATOM      6  C4  PXY d   1      -1.163   1.154  -2.466  0.00  0.00    -0.082 A 
ATOM      7  C5  PXY d   1       0.148   0.986  -2.738  0.00  0.00     0.003 A 
ATOM      8  C6  PXY d   1       0.959   0.348  -1.803  0.00  0.00     0.003 A 
ENDROOT
TORSDOF 0
ENDMDL
