MODEL 1
REMARK minimizedAffinity -4.21538401
REMARK minimizedRMSD -1
REMARK  0 active torsions:
REMARK  status: ('A' for Active; 'I' for Inactive)
ROOT
ATOM      1  C4' PXY d   1      -2.130   0.330  -1.340  0.00  0.00     0.077 C 
ATOM      2  C1' PXY d   1       0.074  -2.527   3.176  0.00  0.00     0.077 C 
ATOM      3  C1  PXY d   1      -0.516  -1.778   1.997  0.00  0.00    -0.082 A 
ATOM      4  C2  PXY d   1       0.081  -1.840   0.818  0.00  0.00     0.003 A 
ATOM      5  C3  PXY d   1      -0.421  -1.143  -0.251  0.00  0.00     0.003 A 
ATOM      6  C4  PXY d   1      -1.576  -0.418  -0.125  0.00  0.00    -0.082 A 
ATOM      7  C5  PXY d   1      -2.196  -0.358   1.073  0.00  0.00     0.003 A 
ATOM      8  C6  PXY d   1      -1.648  -1.040   2.155  0.00  0.00     0.003 A 
ENDROOT
TORSDOF 0
ENDMDL
