MODEL 1
REMARK minimizedAffinity -2.399158
REMARK minimizedRMSD -1
REMARK  0 active torsions:
REMARK  status: ('A' for Active; 'I' for Inactive)
ROOT
ATOM      1  C4' PXY d   1      -1.390  -0.256  -1.759  0.00  0.00     0.077 C 
ATOM      2  C1' PXY d   1       1.443  -0.586   3.269  0.00  0.00     0.077 C 
ATOM      3  C1  PXY d   1       0.711  -0.494   1.945  0.00  0.00    -0.082 A 
ATOM      4  C2  PXY d   1      -0.611  -0.442   1.931  0.00  0.00     0.003 A 
ATOM      5  C3  PXY d   1      -1.291  -0.391   0.741  0.00  0.00     0.003 A 
ATOM      6  C4  PXY d   1      -0.608  -0.340  -0.445  0.00  0.00    -0.082 A 
ATOM      7  C5  PXY d   1       0.741  -0.382  -0.439  0.00  0.00     0.003 A 
ATOM      8  C6  PXY d   1       1.411  -0.475   0.778  0.00  0.00     0.003 A 
ENDROOT
TORSDOF 0
ENDMDL
