MODEL 1
REMARK minimizedAffinity -5.22725725
REMARK minimizedRMSD -1
REMARK  0 active torsions:
REMARK  status: ('A' for Active; 'I' for Inactive)
ROOT
ATOM      1  C4' PXY d   1       2.681  -1.580   0.108  0.00  0.00     0.077 C 
ATOM      2  C1' PXY d   1      -2.600   0.092   1.761  0.00  0.00     0.077 C 
ATOM      3  C1  PXY d   1      -1.211  -0.346   1.340  0.00  0.00    -0.082 A 
ATOM      4  C2  PXY d   1      -0.791  -0.096   0.110  0.00  0.00     0.003 A 
ATOM      5  C3  PXY d   1       0.450  -0.514  -0.297  0.00  0.00     0.003 A 
ATOM      6  C4  PXY d   1       1.290  -1.148   0.579  0.00  0.00    -0.082 A 
ATOM      7  C5  PXY d   1       0.873  -1.397   1.839  0.00  0.00     0.003 A 
ATOM      8  C6  PXY d   1      -0.406  -1.001   2.220  0.00  0.00     0.003 A 
ENDROOT
TORSDOF 0
ENDMDL
