MODEL 1
REMARK minimizedAffinity -2.44825387
REMARK minimizedRMSD -1
REMARK  0 active torsions:
REMARK  status: ('A' for Active; 'I' for Inactive)
ROOT
ATOM      1  C   UNL d   1      -0.827   1.963   1.867  0.00  0.00     0.023 A 
ATOM      2  C1  UNL d   1      -1.839   1.328   1.147  0.00  0.00     0.003 A 
ATOM      3  C2  UNL d   1      -1.523   0.313   0.242  0.00  0.00     0.048 A 
ATOM      4  C3  UNL d   1      -0.193  -0.064   0.062  0.00  0.00     0.023 A 
ATOM      5  C4  UNL d   1       0.824   0.568   0.781  0.00  0.00     0.048 A 
ATOM      6  C5  UNL d   1       0.503   1.583   1.684  0.00  0.00     0.003 A 
ATOM      7  I   UNL d   1       0.280  -1.575  -1.284  0.00  0.00    -0.146 I 
ENDROOT
TORSDOF 0
ENDMDL
