MODEL 1
REMARK minimizedAffinity -2.38585997
REMARK minimizedRMSD -1
REMARK  0 active torsions:
REMARK  status: ('A' for Active; 'I' for Inactive)
ROOT
ATOM      1  C   UNL d   1      -0.974   2.496   1.957  0.00  0.00     0.023 A 
ATOM      2  C1  UNL d   1       0.257   1.849   2.068  0.00  0.00     0.003 A 
ATOM      3  C2  UNL d   1       0.581   0.808   1.196  0.00  0.00     0.048 A 
ATOM      4  C3  UNL d   1      -0.329   0.419   0.214  0.00  0.00     0.023 A 
ATOM      5  C4  UNL d   1      -1.562   1.064   0.099  0.00  0.00     0.048 A 
ATOM      6  C5  UNL d   1      -1.883   2.103   0.974  0.00  0.00     0.003 A 
ATOM      7  I   UNL d   1       0.152  -1.130  -1.085  0.00  0.00    -0.146 I 
ENDROOT
TORSDOF 0
ENDMDL
