MODEL 1
REMARK minimizedAffinity -2.95842862
REMARK minimizedRMSD -1
REMARK  0 active torsions:
REMARK  status: ('A' for Active; 'I' for Inactive)
ROOT
ATOM      1  C   UNL d   1      -0.022  -1.181   1.533  0.00  0.00     0.124 A 
ATOM      2  C1  UNL d   1       0.879  -0.710   0.588  0.00  0.00     0.062 A 
ATOM      3  C2  UNL d   1       0.437   0.087  -0.464  0.00  0.00     0.162 A 
ATOM      4  C3  UNL d   1      -0.913   0.419  -0.577  0.00  0.00    -0.034 A 
ATOM      5  C4  UNL d   1      -1.813  -0.059   0.377  0.00  0.00     0.162 A 
ATOM      6  C5  UNL d   1      -1.367  -0.856   1.426  0.00  0.00     0.062 A 
ATOM      7  F   UNL d   1      -2.239  -1.310   2.338  0.00  0.00    -0.097 F 
ATOM      8  F1  UNL d   1      -3.118   0.241   0.299  0.00  0.00    -0.096 F 
ATOM      9  I   UNL d   1      -1.577   1.611  -2.148  0.00  0.00    -0.060 I 
ATOM     10  F2  UNL d   1       1.330   0.529  -1.362  0.00  0.00    -0.096 F 
ATOM     11  F3  UNL d   1       2.179  -1.024   0.688  0.00  0.00    -0.097 F 
ATOM     12  F4  UNL d   1       0.406  -1.949   2.543  0.00  0.00    -0.092 F 
ENDROOT
TORSDOF 0
ENDMDL
