MODEL 1
REMARK minimizedAffinity -5.02983475
REMARK minimizedRMSD -1
REMARK  0 active torsions:
REMARK  status: ('A' for Active; 'I' for Inactive)
ROOT
ATOM      1  C   UNL d   1       1.659  -1.430   0.276  0.00  0.00     0.124 A 
ATOM      2  C1  UNL d   1       0.597  -1.942   1.008  0.00  0.00     0.062 A 
ATOM      3  C2  UNL d   1      -0.631  -1.287   1.011  0.00  0.00     0.162 A 
ATOM      4  C3  UNL d   1      -0.804  -0.112   0.280  0.00  0.00    -0.034 A 
ATOM      5  C4  UNL d   1       0.270   0.397  -0.453  0.00  0.00     0.162 A 
ATOM      6  C5  UNL d   1       1.495  -0.261  -0.453  0.00  0.00     0.062 A 
ATOM      7  F   UNL d   1       2.520   0.235  -1.161  0.00  0.00    -0.097 F 
ATOM      8  F1  UNL d   1       0.138   1.525  -1.168  0.00  0.00    -0.096 F 
ATOM      9  I   UNL d   1      -2.638   0.871   0.282  0.00  0.00    -0.060 I 
ATOM     10  F2  UNL d   1      -1.640  -1.805   1.728  0.00  0.00    -0.096 F 
ATOM     11  F3  UNL d   1       0.753  -3.071   1.714  0.00  0.00    -0.097 F 
ATOM     12  F4  UNL d   1       2.840  -2.063   0.275  0.00  0.00    -0.092 F 
ENDROOT
TORSDOF 0
ENDMDL
