MODEL 1
REMARK minimizedAffinity -2.0608747
REMARK minimizedRMSD -1
REMARK  0 active torsions:
REMARK  status: ('A' for Active; 'I' for Inactive)
ROOT
ATOM      1  C   UNL d   1       0.764  -0.916   1.545  0.00  0.00     0.124 A 
ATOM      2  C1  UNL d   1       1.472  -0.658   0.380  0.00  0.00     0.062 A 
ATOM      3  C2  UNL d   1       0.952   0.206  -0.580  0.00  0.00     0.162 A 
ATOM      4  C3  UNL d   1      -0.284   0.820  -0.377  0.00  0.00    -0.034 A 
ATOM      5  C4  UNL d   1      -0.991   0.555   0.797  0.00  0.00     0.162 A 
ATOM      6  C5  UNL d   1      -0.467  -0.310   1.752  0.00  0.00     0.062 A 
ATOM      7  F   UNL d   1      -1.154  -0.557   2.877  0.00  0.00    -0.097 F 
ATOM      8  F1  UNL d   1      -2.183   1.128   1.023  0.00  0.00    -0.096 F 
ATOM      9  I   UNL d   1      -1.065   2.113  -1.809  0.00  0.00    -0.060 I 
ATOM     10  F2  UNL d   1       1.659   0.436  -1.696  0.00  0.00    -0.096 F 
ATOM     11  F3  UNL d   1       2.661  -1.244   0.176  0.00  0.00    -0.097 F 
ATOM     12  F4  UNL d   1       1.266  -1.749   2.466  0.00  0.00    -0.092 F 
ENDROOT
TORSDOF 0
ENDMDL
