MODEL 1
REMARK minimizedAffinity 0.0805183798
REMARK minimizedRMSD -1
REMARK  0 active torsions:
REMARK  status: ('A' for Active; 'I' for Inactive)
ROOT
ATOM      1  C   UNL d   1      -1.711   1.328  -1.533  0.00  0.00     0.124 A 
ATOM      2  C1  UNL d   1      -0.394   1.439  -1.957  0.00  0.00     0.062 A 
ATOM      3  C2  UNL d   1       0.620   0.776  -1.271  0.00  0.00     0.162 A 
ATOM      4  C3  UNL d   1       0.320  -0.004  -0.154  0.00  0.00    -0.034 A 
ATOM      5  C4  UNL d   1      -1.007  -0.110   0.266  0.00  0.00     0.162 A 
ATOM      6  C5  UNL d   1      -2.017   0.555  -0.423  0.00  0.00     0.062 A 
ATOM      7  F   UNL d   1      -3.289   0.447  -0.012  0.00  0.00    -0.097 F 
ATOM      8  F1  UNL d   1      -1.331  -0.852   1.336  0.00  0.00    -0.096 F 
ATOM      9  I   UNL d   1       1.832  -0.997   0.875  0.00  0.00    -0.060 I 
ATOM     10  F2  UNL d   1       1.884   0.901  -1.702  0.00  0.00    -0.096 F 
ATOM     11  F3  UNL d   1      -0.096   2.187  -3.029  0.00  0.00    -0.097 F 
ATOM     12  F4  UNL d   1      -2.684   1.968  -2.195  0.00  0.00    -0.092 F 
ENDROOT
TORSDOF 0
ENDMDL
