MODEL 1
REMARK minimizedAffinity 0.817049563
REMARK minimizedRMSD -1
REMARK  0 active torsions:
REMARK  status: ('A' for Active; 'I' for Inactive)
ROOT
ATOM      1  C   UNL d   1       0.771  -1.020   1.348  0.00  0.00     0.124 A 
ATOM      2  C1  UNL d   1      -0.498  -0.462   1.418  0.00  0.00     0.062 A 
ATOM      3  C2  UNL d   1      -0.921   0.439   0.445  0.00  0.00     0.162 A 
ATOM      4  C3  UNL d   1      -0.074   0.788  -0.607  0.00  0.00    -0.034 A 
ATOM      5  C4  UNL d   1       1.201   0.224  -0.670  0.00  0.00     0.162 A 
ATOM      6  C5  UNL d   1       1.619  -0.676   0.305  0.00  0.00     0.062 A 
ATOM      7  F   UNL d   1       2.846  -1.214   0.236  0.00  0.00    -0.097 F 
ATOM      8  F1  UNL d   1       2.041   0.537  -1.667  0.00  0.00    -0.096 F 
ATOM      9  I   UNL d   1      -0.703   2.135  -2.063  0.00  0.00    -0.060 I 
ATOM     10  F2  UNL d   1      -2.153   0.963   0.538  0.00  0.00    -0.096 F 
ATOM     11  F3  UNL d   1      -1.319  -0.791   2.426  0.00  0.00    -0.097 F 
ATOM     12  F4  UNL d   1       1.176  -1.886   2.286  0.00  0.00    -0.092 F 
ENDROOT
TORSDOF 0
ENDMDL
