MODEL 1
REMARK minimizedAffinity 4.0366621
REMARK minimizedRMSD -1
REMARK  0 active torsions:
REMARK  status: ('A' for Active; 'I' for Inactive)
ROOT
ATOM      1  C   UNL d   1       1.096  -0.954   1.293  0.00  0.00     0.124 A 
ATOM      2  C1  UNL d   1      -0.224  -0.526   1.334  0.00  0.00     0.062 A 
ATOM      3  C2  UNL d   1      -0.717   0.318   0.344  0.00  0.00     0.162 A 
ATOM      4  C3  UNL d   1       0.109   0.740  -0.697  0.00  0.00    -0.034 A 
ATOM      5  C4  UNL d   1       1.436   0.307  -0.732  0.00  0.00     0.162 A 
ATOM      6  C5  UNL d   1       1.924  -0.537   0.260  0.00  0.00     0.062 A 
ATOM      7  F   UNL d   1       3.200  -0.949   0.219  0.00  0.00    -0.097 F 
ATOM      8  F1  UNL d   1       2.258   0.694  -1.718  0.00  0.00    -0.096 F 
ATOM      9  I   UNL d   1      -0.625   2.003  -2.180  0.00  0.00    -0.060 I 
ATOM     10  F2  UNL d   1      -1.997   0.716   0.409  0.00  0.00    -0.096 F 
ATOM     11  F3  UNL d   1      -1.026  -0.927   2.331  0.00  0.00    -0.097 F 
ATOM     12  F4  UNL d   1       1.569  -1.766   2.247  0.00  0.00    -0.092 F 
ENDROOT
TORSDOF 0
ENDMDL
