MODEL 1
REMARK minimizedAffinity 1.36827636
REMARK minimizedRMSD -1
REMARK  0 active torsions:
REMARK  status: ('A' for Active; 'I' for Inactive)
ROOT
ATOM      1  C   UNL d   1      -1.513   1.587  -1.797  0.00  0.00     0.124 A 
ATOM      2  C1  UNL d   1      -0.225   1.972  -1.453  0.00  0.00     0.062 A 
ATOM      3  C2  UNL d   1       0.517   1.211  -0.554  0.00  0.00     0.162 A 
ATOM      4  C3  UNL d   1      -0.027   0.055   0.006  0.00  0.00    -0.034 A 
ATOM      5  C4  UNL d   1      -1.323  -0.326  -0.344  0.00  0.00     0.162 A 
ATOM      6  C5  UNL d   1      -2.061   0.438  -1.243  0.00  0.00     0.062 A 
ATOM      7  F   UNL d   1      -3.305   0.064  -1.574  0.00  0.00    -0.097 F 
ATOM      8  F1  UNL d   1      -1.877  -1.431   0.176  0.00  0.00    -0.096 F 
ATOM      9  I   UNL d   1       1.080  -1.085   1.350  0.00  0.00    -0.060 I 
ATOM     10  F2  UNL d   1       1.759   1.608  -0.240  0.00  0.00    -0.096 F 
ATOM     11  F3  UNL d   1       0.306   3.082  -1.986  0.00  0.00    -0.097 F 
ATOM     12  F4  UNL d   1      -2.225   2.321  -2.661  0.00  0.00    -0.092 F 
ENDROOT
TORSDOF 0
ENDMDL
