MODEL 1
REMARK minimizedAffinity 5.21576357
REMARK minimizedRMSD -1
REMARK  0 active torsions:
REMARK  status: ('A' for Active; 'I' for Inactive)
ROOT
ATOM      1  C   UNL d   1      -1.755   1.861  -2.109  0.00  0.00     0.124 A 
ATOM      2  C1  UNL d   1      -0.462   2.318  -1.896  0.00  0.00     0.062 A 
ATOM      3  C2  UNL d   1       0.433   1.562  -1.145  0.00  0.00     0.162 A 
ATOM      4  C3  UNL d   1       0.039   0.339  -0.602  0.00  0.00    -0.034 A 
ATOM      5  C4  UNL d   1      -1.264  -0.114  -0.819  0.00  0.00     0.162 A 
ATOM      6  C5  UNL d   1      -2.155   0.646  -1.570  0.00  0.00     0.062 A 
ATOM      7  F   UNL d   1      -3.404   0.203  -1.775  0.00  0.00    -0.097 F 
ATOM      8  F1  UNL d   1      -1.676  -1.285  -0.311  0.00  0.00    -0.096 F 
ATOM      9  I   UNL d   1       1.374  -0.795   0.522  0.00  0.00    -0.060 I 
ATOM     10  F2  UNL d   1       1.676   2.028  -0.956  0.00  0.00    -0.096 F 
ATOM     11  F3  UNL d   1      -0.074   3.492  -2.414  0.00  0.00    -0.097 F 
ATOM     12  F4  UNL d   1      -2.615   2.591  -2.831  0.00  0.00    -0.092 F 
ENDROOT
TORSDOF 0
ENDMDL
