MODEL 1
REMARK minimizedAffinity -0.145041823
REMARK minimizedRMSD -1
REMARK  0 active torsions:
REMARK  status: ('A' for Active; 'I' for Inactive)
ROOT
ATOM      1  C   UNL d   1      -0.350  -0.003   0.810  0.00  0.00     0.124 A 
ATOM      2  C1  UNL d   1       0.474   0.925   0.189  0.00  0.00     0.062 A 
ATOM      3  C2  UNL d   1       0.062   1.552  -0.984  0.00  0.00     0.162 A 
ATOM      4  C3  UNL d   1      -1.181   1.254  -1.542  0.00  0.00    -0.034 A 
ATOM      5  C4  UNL d   1      -2.003   0.319  -0.912  0.00  0.00     0.162 A 
ATOM      6  C5  UNL d   1      -1.587  -0.305   0.260  0.00  0.00     0.062 A 
ATOM      7  F   UNL d   1      -2.384  -1.202   0.859  0.00  0.00    -0.097 F 
ATOM      8  F1  UNL d   1      -3.205   0.009  -1.422  0.00  0.00    -0.096 F 
ATOM      9  I   UNL d   1      -1.800   2.190  -3.295  0.00  0.00    -0.060 I 
ATOM     10  F2  UNL d   1       0.879   2.445  -1.563  0.00  0.00    -0.096 F 
ATOM     11  F3  UNL d   1       1.671   1.218   0.718  0.00  0.00    -0.097 F 
ATOM     12  F4  UNL d   1       0.050  -0.606   1.937  0.00  0.00    -0.092 F 
ENDROOT
TORSDOF 0
ENDMDL
