MODEL 1
REMARK minimizedAffinity 0.713581026
REMARK minimizedRMSD -1
REMARK  0 active torsions:
REMARK  status: ('A' for Active; 'I' for Inactive)
ROOT
ATOM      1  C   UNL d   1       1.212  -1.174   1.338  0.00  0.00     0.124 A 
ATOM      2  C1  UNL d   1      -0.068  -0.669   1.519  0.00  0.00     0.062 A 
ATOM      3  C2  UNL d   1      -0.668   0.093   0.520  0.00  0.00     0.162 A 
ATOM      4  C3  UNL d   1       0.012   0.353  -0.670  0.00  0.00    -0.034 A 
ATOM      5  C4  UNL d   1       1.299  -0.157  -0.844  0.00  0.00     0.162 A 
ATOM      6  C5  UNL d   1       1.894  -0.918   0.157  0.00  0.00     0.062 A 
ATOM      7  F   UNL d   1       3.131  -1.405  -0.020  0.00  0.00    -0.097 F 
ATOM      8  F1  UNL d   1       1.981   0.074  -1.976  0.00  0.00    -0.096 F 
ATOM      9  I   UNL d   1      -0.882   1.492  -2.165  0.00  0.00    -0.060 I 
ATOM     10  F2  UNL d   1      -1.906   0.568   0.723  0.00  0.00    -0.096 F 
ATOM     11  F3  UNL d   1      -0.729  -0.915   2.659  0.00  0.00    -0.097 F 
ATOM     12  F4  UNL d   1       1.787  -1.906   2.301  0.00  0.00    -0.092 F 
ENDROOT
TORSDOF 0
ENDMDL
