MODEL 1
REMARK minimizedAffinity 7.00836086
REMARK minimizedRMSD -1
REMARK  0 active torsions:
REMARK  status: ('A' for Active; 'I' for Inactive)
ROOT
ATOM      1  C   UNL d   1       1.674   0.382  -0.069  0.00  0.00     0.124 A 
ATOM      2  C1  UNL d   1       0.592  -0.473  -0.232  0.00  0.00     0.062 A 
ATOM      3  C2  UNL d   1      -0.453  -0.125  -1.083  0.00  0.00     0.162 A 
ATOM      4  C3  UNL d   1      -0.421   1.084  -1.779  0.00  0.00    -0.034 A 
ATOM      5  C4  UNL d   1       0.670   1.939  -1.609  0.00  0.00     0.162 A 
ATOM      6  C5  UNL d   1       1.712   1.586  -0.757  0.00  0.00     0.062 A 
ATOM      7  F   UNL d   1       2.756   2.413  -0.601  0.00  0.00    -0.097 F 
ATOM      8  F1  UNL d   1       0.732   3.108  -2.262  0.00  0.00    -0.096 F 
ATOM      9  I   UNL d   1      -1.982   1.608  -3.052  0.00  0.00    -0.060 I 
ATOM     10  F2  UNL d   1      -1.485  -0.970  -1.221  0.00  0.00    -0.096 F 
ATOM     11  F3  UNL d   1       0.553  -1.637   0.433  0.00  0.00    -0.097 F 
ATOM     12  F4  UNL d   1       2.678   0.045   0.751  0.00  0.00    -0.092 F 
ENDROOT
TORSDOF 0
ENDMDL
