MODEL 1
REMARK minimizedAffinity -0.244450659
REMARK minimizedRMSD -1
REMARK  0 active torsions:
REMARK  status: ('A' for Active; 'I' for Inactive)
ROOT
ATOM      1  C   UNL d   1       0.522  -1.204   0.762  0.00  0.00     0.124 A 
ATOM      2  C1  UNL d   1      -0.816  -1.127   0.403  0.00  0.00     0.062 A 
ATOM      3  C2  UNL d   1      -1.244  -0.154  -0.496  0.00  0.00     0.162 A 
ATOM      4  C3  UNL d   1      -0.333   0.750  -1.042  0.00  0.00    -0.034 A 
ATOM      5  C4  UNL d   1       1.011   0.667  -0.674  0.00  0.00     0.162 A 
ATOM      6  C5  UNL d   1       1.435  -0.307   0.224  0.00  0.00     0.062 A 
ATOM      7  F   UNL d   1       2.728  -0.380   0.571  0.00  0.00    -0.097 F 
ATOM      8  F1  UNL d   1       1.914   1.520  -1.180  0.00  0.00    -0.096 F 
ATOM      9  I   UNL d   1      -0.969   2.206  -2.386  0.00  0.00    -0.060 I 
ATOM     10  F2  UNL d   1      -2.543  -0.103  -0.826  0.00  0.00    -0.096 F 
ATOM     11  F3  UNL d   1      -1.699  -1.991   0.922  0.00  0.00    -0.097 F 
ATOM     12  F4  UNL d   1       0.932  -2.140   1.628  0.00  0.00    -0.092 F 
ENDROOT
TORSDOF 0
ENDMDL
