MODEL 1
REMARK minimizedAffinity -5.57552576
REMARK minimizedRMSD -1
REMARK  0 active torsions:
REMARK  status: ('A' for Active; 'I' for Inactive)
ROOT
ATOM      1  C   UNL d   1       0.412  -2.957   1.749  0.00  0.00     0.124 A 
ATOM      2  C1  UNL d   1       1.180  -2.391   0.741  0.00  0.00     0.062 A 
ATOM      3  C2  UNL d   1       0.794  -1.187   0.159  0.00  0.00     0.162 A 
ATOM      4  C3  UNL d   1      -0.366  -0.540   0.584  0.00  0.00    -0.034 A 
ATOM      5  C4  UNL d   1      -1.134  -1.116   1.598  0.00  0.00     0.162 A 
ATOM      6  C5  UNL d   1      -0.744  -2.319   2.176  0.00  0.00     0.062 A 
ATOM      7  F   UNL d   1      -1.487  -2.865   3.150  0.00  0.00    -0.097 F 
ATOM      8  F1  UNL d   1      -2.256  -0.521   2.030  0.00  0.00    -0.096 F 
ATOM      9  I   UNL d   1      -0.948   1.260  -0.284  0.00  0.00    -0.060 I 
ATOM     10  F2  UNL d   1       1.555  -0.663  -0.813  0.00  0.00    -0.096 F 
ATOM     11  F3  UNL d   1       2.298  -3.005   0.326  0.00  0.00    -0.097 F 
ATOM     12  F4  UNL d   1       0.786  -4.116   2.307  0.00  0.00    -0.092 F 
ENDROOT
TORSDOF 0
ENDMDL
