MODEL 1
REMARK minimizedAffinity 1.91242504
REMARK minimizedRMSD -1
REMARK  0 active torsions:
REMARK  status: ('A' for Active; 'I' for Inactive)
ROOT
ATOM      1  C   UNL d   1       0.791  -1.436   2.396  0.00  0.00     0.124 A 
ATOM      2  C1  UNL d   1       1.503  -1.150   1.240  0.00  0.00     0.062 A 
ATOM      3  C2  UNL d   1       0.909  -0.420   0.215  0.00  0.00     0.162 A 
ATOM      4  C3  UNL d   1      -0.405   0.031   0.342  0.00  0.00    -0.034 A 
ATOM      5  C4  UNL d   1      -1.115  -0.261   1.508  0.00  0.00     0.162 A 
ATOM      6  C5  UNL d   1      -0.517  -0.991   2.529  0.00  0.00     0.062 A 
ATOM      7  F   UNL d   1      -1.206  -1.266   3.646  0.00  0.00    -0.097 F 
ATOM      8  F1  UNL d   1      -2.380   0.157   1.663  0.00  0.00    -0.096 F 
ATOM      9  I   UNL d   1      -1.297   1.124  -1.189  0.00  0.00    -0.060 I 
ATOM     10  F2  UNL d   1       1.620  -0.158  -0.892  0.00  0.00    -0.096 F 
ATOM     11  F3  UNL d   1       2.766  -1.579   1.108  0.00  0.00    -0.097 F 
ATOM     12  F4  UNL d   1       1.365  -2.140   3.381  0.00  0.00    -0.092 F 
ENDROOT
TORSDOF 0
ENDMDL
