MODEL 1
REMARK minimizedAffinity -3.55939341
REMARK minimizedRMSD -1
REMARK  0 active torsions:
REMARK  status: ('A' for Active; 'I' for Inactive)
ROOT
ATOM      1  C   UNL d   1       0.417  -1.207   1.939  0.00  0.00     0.124 A 
ATOM      2  C1  UNL d   1      -0.855  -0.653   1.923  0.00  0.00     0.062 A 
ATOM      3  C2  UNL d   1      -1.221   0.233   0.914  0.00  0.00     0.162 A 
ATOM      4  C3  UNL d   1      -0.313   0.571  -0.089  0.00  0.00    -0.034 A 
ATOM      5  C4  UNL d   1       0.966   0.011  -0.066  0.00  0.00     0.162 A 
ATOM      6  C5  UNL d   1       1.327  -0.875   0.944  0.00  0.00     0.062 A 
ATOM      7  F   UNL d   1       2.557  -1.408   0.957  0.00  0.00    -0.097 F 
ATOM      8  F1  UNL d   1       1.864   0.314  -1.015  0.00  0.00    -0.096 F 
ATOM      9  I   UNL d   1      -0.855   1.896  -1.599  0.00  0.00    -0.060 I 
ATOM     10  F2  UNL d   1      -2.458   0.753   0.924  0.00  0.00    -0.096 F 
ATOM     11  F3  UNL d   1      -1.735  -0.972   2.883  0.00  0.00    -0.097 F 
ATOM     12  F4  UNL d   1       0.767  -2.059   2.911  0.00  0.00    -0.092 F 
ENDROOT
TORSDOF 0
ENDMDL
