MODEL 1
REMARK minimizedAffinity 2.11851811
REMARK minimizedRMSD -1
REMARK  0 active torsions:
REMARK  status: ('A' for Active; 'I' for Inactive)
ROOT
ATOM      1  C   UNL d   1      -0.632  -0.210   1.614  0.00  0.00     0.124 A 
ATOM      2  C1  UNL d   1      -1.981  -0.260   1.289  0.00  0.00     0.062 A 
ATOM      3  C2  UNL d   1      -2.423   0.218   0.059  0.00  0.00     0.162 A 
ATOM      4  C3  UNL d   1      -1.515   0.750  -0.856  0.00  0.00    -0.034 A 
ATOM      5  C4  UNL d   1      -0.161   0.798  -0.522  0.00  0.00     0.162 A 
ATOM      6  C5  UNL d   1       0.276   0.319   0.708  0.00  0.00     0.062 A 
ATOM      7  F   UNL d   1       1.580   0.368   1.020  0.00  0.00    -0.097 F 
ATOM      8  F1  UNL d   1       0.739   1.303  -1.379  0.00  0.00    -0.096 F 
ATOM      9  I   UNL d   1      -2.172   1.466  -2.697  0.00  0.00    -0.060 I 
ATOM     10  F2  UNL d   1      -3.732   0.157  -0.228  0.00  0.00    -0.096 F 
ATOM     11  F3  UNL d   1      -2.861  -0.770   2.163  0.00  0.00    -0.097 F 
ATOM     12  F4  UNL d   1      -0.210  -0.670   2.799  0.00  0.00    -0.092 F 
ENDROOT
TORSDOF 0
ENDMDL
