MODEL 1
REMARK minimizedAffinity -1.81857252
REMARK minimizedRMSD -1
REMARK  0 active torsions:
REMARK  status: ('A' for Active; 'I' for Inactive)
ROOT
ATOM      1  C   UNL d   1      -0.709  -0.407   1.327  0.00  0.00     0.124 A 
ATOM      2  C1  UNL d   1       0.226   0.117   0.445  0.00  0.00     0.062 A 
ATOM      3  C2  UNL d   1      -0.178   0.613  -0.790  0.00  0.00     0.162 A 
ATOM      4  C3  UNL d   1      -1.525   0.590  -1.152  0.00  0.00    -0.034 A 
ATOM      5  C4  UNL d   1      -2.460   0.061  -0.260  0.00  0.00     0.162 A 
ATOM      6  C5  UNL d   1      -2.051  -0.434   0.974  0.00  0.00     0.062 A 
ATOM      7  F   UNL d   1      -2.956  -0.940   1.824  0.00  0.00    -0.097 F 
ATOM      8  F1  UNL d   1      -3.763   0.022  -0.576  0.00  0.00    -0.096 F 
ATOM      9  I   UNL d   1      -2.134   1.331  -2.999  0.00  0.00    -0.060 I 
ATOM     10  F2  UNL d   1       0.747   1.113  -1.623  0.00  0.00    -0.096 F 
ATOM     11  F3  UNL d   1       1.523   0.144   0.784  0.00  0.00    -0.097 F 
ATOM     12  F4  UNL d   1      -0.317  -0.885   2.515  0.00  0.00    -0.092 F 
ENDROOT
TORSDOF 0
ENDMDL
