MODEL 1
REMARK minimizedAffinity 1.27248764
REMARK minimizedRMSD -1
REMARK  0 active torsions:
REMARK  status: ('A' for Active; 'I' for Inactive)
ROOT
ATOM      1  C1  DEN d   1       2.329   6.000  -5.952  0.00  0.00     0.130 A 
ATOM      2  C2  DEN d   1       1.341   4.988  -5.587  0.00  0.00    -0.031 A 
ATOM      3  C3  DEN d   1       2.065   3.803  -5.085  0.00  0.00     0.027 A 
ATOM      4  C4  DEN d   1       4.607   3.441  -4.835  0.00  0.00     0.027 A 
ATOM      5  C5  DEN d   1       5.846   4.011  -5.025  0.00  0.00    -0.003 A 
ATOM      6  C6  DEN d   1       6.000   5.260  -5.565  0.00  0.00     0.001 A 
ATOM      7  C7  DEN d   1       4.894   5.999  -5.892  0.00  0.00     0.017 A 
ATOM      8  C8  DEN d   1       3.641   5.428  -5.710  0.00  0.00    -0.094 A 
ATOM      9  C9  DEN d   1       3.506   4.169  -5.151  0.00  0.00    -0.072 A 
ENDROOT
TORSDOF 0
ENDMDL
