MODEL 1
REMARK minimizedAffinity 5.27392483
REMARK minimizedRMSD -1
REMARK  0 active torsions:
REMARK  status: ('A' for Active; 'I' for Inactive)
ROOT
ATOM      1  C1  DEN d   1      -0.279  -1.066  -0.644  0.00  0.00     0.130 A 
ATOM      2  C2  DEN d   1       1.160  -1.074  -0.895  0.00  0.00    -0.031 A 
ATOM      3  C3  DEN d   1       1.369  -1.171  -2.353  0.00  0.00     0.027 A 
ATOM      4  C4  DEN d   1      -0.386  -1.302  -4.239  0.00  0.00     0.027 A 
ATOM      5  C5  DEN d   1      -1.735  -1.339  -4.516  0.00  0.00    -0.003 A 
ATOM      6  C6  DEN d   1      -2.684  -1.322  -3.529  0.00  0.00     0.001 A 
ATOM      7  C7  DEN d   1      -2.299  -1.221  -2.219  0.00  0.00     0.017 A 
ATOM      8  C8  DEN d   1      -0.941  -1.190  -1.930  0.00  0.00    -0.094 A 
ATOM      9  C9  DEN d   1       0.003  -1.196  -2.943  0.00  0.00    -0.072 A 
ENDROOT
TORSDOF 0
ENDMDL
