MODEL 1
REMARK minimizedAffinity -0.397309601
REMARK minimizedRMSD -1
REMARK  0 active torsions:
REMARK  status: ('A' for Active; 'I' for Inactive)
ROOT
ATOM      1  C1  DEN d   1      -3.620   5.998  -3.783  0.00  0.00     0.130 A 
ATOM      2  C2  DEN d   1      -3.959   5.971  -2.363  0.00  0.00    -0.031 A 
ATOM      3  C3  DEN d   1      -2.699   5.958  -1.592  0.00  0.00     0.027 A 
ATOM      4  C4  DEN d   1      -0.269   5.981  -2.457  0.00  0.00     0.027 A 
ATOM      5  C5  DEN d   1       0.521   5.992  -3.585  0.00  0.00    -0.003 A 
ATOM      6  C6  DEN d   1      -0.009   5.972  -4.848  0.00  0.00     0.001 A 
ATOM      7  C7  DEN d   1      -1.368   5.985  -5.013  0.00  0.00     0.017 A 
ATOM      8  C8  DEN d   1      -2.172   5.966  -3.881  0.00  0.00    -0.094 A 
ATOM      9  C9  DEN d   1      -1.617   5.999  -2.613  0.00  0.00    -0.072 A 
ENDROOT
TORSDOF 0
ENDMDL
