MODEL 1
REMARK minimizedAffinity 4.35123968
REMARK minimizedRMSD -1
REMARK  0 active torsions:
REMARK  status: ('A' for Active; 'I' for Inactive)
ROOT
ATOM      1  C1  DEN d   1       0.722   0.993   1.747  0.00  0.00     0.130 A 
ATOM      2  C2  DEN d   1       1.094   2.402   1.639  0.00  0.00    -0.031 A 
ATOM      3  C3  DEN d   1       1.581   2.641   0.266  0.00  0.00     0.027 A 
ATOM      4  C4  DEN d   1       1.790   0.978  -1.695  0.00  0.00     0.027 A 
ATOM      5  C5  DEN d   1       1.608  -0.332  -2.080  0.00  0.00    -0.003 A 
ATOM      6  C6  DEN d   1       1.153  -1.291  -1.214  0.00  0.00     0.001 A 
ATOM      7  C7  DEN d   1       0.823  -0.945   0.070  0.00  0.00     0.017 A 
ATOM      8  C8  DEN d   1       1.011   0.372   0.467  0.00  0.00    -0.094 A 
ATOM      9  C9  DEN d   1       1.459   1.329  -0.426  0.00  0.00    -0.072 A 
ENDROOT
TORSDOF 0
ENDMDL
