MODEL 1
REMARK minimizedAffinity 6.03394032
REMARK minimizedRMSD -1
REMARK  0 active torsions:
REMARK  status: ('A' for Active; 'I' for Inactive)
ROOT
ATOM      1  C1  DEN d   1      -3.752   5.997  -1.258  0.00  0.00     0.130 A 
ATOM      2  C2  DEN d   1      -3.053   5.962   0.024  0.00  0.00    -0.031 A 
ATOM      3  C3  DEN d   1      -1.601   5.947  -0.248  0.00  0.00     0.027 A 
ATOM      4  C4  DEN d   1      -0.375   5.978  -2.517  0.00  0.00     0.027 A 
ATOM      5  C5  DEN d   1      -0.544   5.996  -3.884  0.00  0.00    -0.003 A 
ATOM      6  C6  DEN d   1      -1.783   5.981  -4.467  0.00  0.00     0.001 A 
ATOM      7  C7  DEN d   1      -2.904   5.993  -3.679  0.00  0.00     0.017 A 
ATOM      8  C8  DEN d   1      -2.742   5.968  -2.300  0.00  0.00    -0.094 A 
ATOM      9  C9  DEN d   1      -1.481   5.995  -1.730  0.00  0.00    -0.072 A 
ENDROOT
TORSDOF 0
ENDMDL
