MODEL 1
REMARK minimizedAffinity -1.44138968
REMARK minimizedRMSD -1
REMARK  0 active torsions:
REMARK  status: ('A' for Active; 'I' for Inactive)
ROOT
ATOM      1  C1  DEN d   1      -0.548   5.927  -4.968  0.00  0.00     0.130 A 
ATOM      2  C2  DEN d   1       0.811   5.957  -4.433  0.00  0.00    -0.031 A 
ATOM      3  C3  DEN d   1       0.720   5.993  -2.960  0.00  0.00     0.027 A 
ATOM      4  C4  DEN d   1      -1.380   5.999  -1.463  0.00  0.00     0.027 A 
ATOM      5  C5  DEN d   1      -2.757   5.994  -1.461  0.00  0.00    -0.003 A 
ATOM      6  C6  DEN d   1      -3.489   6.000  -2.619  0.00  0.00     0.001 A 
ATOM      7  C7  DEN d   1      -2.846   5.966  -3.828  0.00  0.00     0.017 A 
ATOM      8  C8  DEN d   1      -1.457   5.979  -3.838  0.00  0.00    -0.094 A 
ATOM      9  C9  DEN d   1      -0.736   5.961  -2.657  0.00  0.00    -0.072 A 
ENDROOT
TORSDOF 0
ENDMDL
