MODEL 1
REMARK minimizedAffinity 2.54201603
REMARK minimizedRMSD -1
REMARK  0 active torsions:
REMARK  status: ('A' for Active; 'I' for Inactive)
ROOT
ATOM      1  C1  DEN d   1       1.742   2.099  -0.281  0.00  0.00     0.130 A 
ATOM      2  C2  DEN d   1       1.914   3.358   0.438  0.00  0.00    -0.031 A 
ATOM      3  C3  DEN d   1       1.237   3.234   1.744  0.00  0.00     0.027 A 
ATOM      4  C4  DEN d   1      -0.051   1.223   2.720  0.00  0.00     0.027 A 
ATOM      5  C5  DEN d   1      -0.474  -0.064   2.475  0.00  0.00    -0.003 A 
ATOM      6  C6  DEN d   1      -0.220  -0.704   1.291  0.00  0.00     0.001 A 
ATOM      7  C7  DEN d   1       0.516  -0.073   0.323  0.00  0.00     0.017 A 
ATOM      8  C8  DEN d   1       0.940   1.228   0.560  0.00  0.00    -0.094 A 
ATOM      9  C9  DEN d   1       0.684   1.853   1.769  0.00  0.00    -0.072 A 
ENDROOT
TORSDOF 0
ENDMDL
