MODEL 1
REMARK minimizedAffinity -0.0492332727
REMARK minimizedRMSD -1
REMARK  0 active torsions:
REMARK  status: ('A' for Active; 'I' for Inactive)
ROOT
ATOM      1  C1  DEN d   1       1.189   5.994  -3.860  0.00  0.00     0.130 A 
ATOM      2  C2  DEN d   1       1.436   5.953  -5.299  0.00  0.00    -0.031 A 
ATOM      3  C3  DEN d   1       0.130   5.937  -5.987  0.00  0.00     0.027 A 
ATOM      4  C4  DEN d   1      -2.240   5.976  -4.969  0.00  0.00     0.027 A 
ATOM      5  C5  DEN d   1      -2.956   6.000  -3.793  0.00  0.00    -0.003 A 
ATOM      6  C6  DEN d   1      -2.347   5.990  -2.566  0.00  0.00     0.001 A 
ATOM      7  C7  DEN d   1      -0.979   6.000  -2.488  0.00  0.00     0.017 A 
ATOM      8  C8  DEN d   1      -0.250   5.968  -3.670  0.00  0.00    -0.094 A 
ATOM      9  C9  DEN d   1      -0.885   5.991  -4.900  0.00  0.00    -0.072 A 
ENDROOT
TORSDOF 0
ENDMDL
