MODEL 1
REMARK minimizedAffinity 4.69307709
REMARK minimizedRMSD -1
REMARK  0 active torsions:
REMARK  status: ('A' for Active; 'I' for Inactive)
ROOT
ATOM      1  C1  DEN d   1       1.984   1.861  -0.127  0.00  0.00     0.130 A 
ATOM      2  C2  DEN d   1       1.555   2.981   0.706  0.00  0.00    -0.031 A 
ATOM      3  C3  DEN d   1       0.374   2.549   1.480  0.00  0.00     0.027 A 
ATOM      4  C4  DEN d   1      -0.823   0.264   1.473  0.00  0.00     0.027 A 
ATOM      5  C5  DEN d   1      -0.831  -0.997   0.919  0.00  0.00    -0.003 A 
ATOM      6  C6  DEN d   1       0.070  -1.380  -0.039  0.00  0.00     0.001 A 
ATOM      7  C7  DEN d   1       1.046  -0.507  -0.440  0.00  0.00     0.017 A 
ATOM      8  C8  DEN d   1       1.056   0.769   0.108  0.00  0.00    -0.094 A 
ATOM      9  C9  DEN d   1       0.144   1.133   1.084  0.00  0.00    -0.072 A 
ENDROOT
TORSDOF 0
ENDMDL
