MODEL 1
REMARK minimizedAffinity 8.21931744
REMARK minimizedRMSD -1
REMARK  0 active torsions:
REMARK  status: ('A' for Active; 'I' for Inactive)
ROOT
ATOM      1  C1  DEN d   1       1.144   3.736  -4.618  0.00  0.00     0.130 A 
ATOM      2  C2  DEN d   1       0.224   4.644  -5.298  0.00  0.00    -0.031 A 
ATOM      3  C3  DEN d   1       1.024   5.695  -5.958  0.00  0.00     0.027 A 
ATOM      4  C4  DEN d   1       3.585   6.000  -5.999  0.00  0.00     0.027 A 
ATOM      5  C5  DEN d   1       4.784   5.486  -5.556  0.00  0.00    -0.003 A 
ATOM      6  C6  DEN d   1       4.851   4.382  -4.748  0.00  0.00     0.001 A 
ATOM      7  C7  DEN d   1       3.700   3.729  -4.395  0.00  0.00     0.017 A 
ATOM      8  C8  DEN d   1       2.487   4.245  -4.832  0.00  0.00    -0.094 A 
ATOM      9  C9  DEN d   1       2.441   5.355  -5.658  0.00  0.00    -0.072 A 
ENDROOT
TORSDOF 0
ENDMDL
