MODEL 1
REMARK minimizedAffinity 3.30343127
REMARK minimizedRMSD -1
REMARK  0 active torsions:
REMARK  status: ('A' for Active; 'I' for Inactive)
ROOT
ATOM      1  C1  DEN d   1       0.753   3.141   1.581  0.00  0.00     0.130 A 
ATOM      2  C2  DEN d   1       1.515   3.015   0.342  0.00  0.00    -0.031 A 
ATOM      3  C3  DEN d   1       1.551   1.586  -0.029  0.00  0.00     0.027 A 
ATOM      4  C4  DEN d   1       0.501  -0.433   1.185  0.00  0.00     0.027 A 
ATOM      5  C5  DEN d   1      -0.231  -0.825   2.284  0.00  0.00    -0.003 A 
ATOM      6  C6  DEN d   1      -0.655   0.065   3.235  0.00  0.00     0.001 A 
ATOM      7  C7  DEN d   1      -0.387   1.400   3.082  0.00  0.00     0.017 A 
ATOM      8  C8  DEN d   1       0.357   1.802   1.981  0.00  0.00    -0.094 A 
ATOM      9  C9  DEN d   1       0.766   0.889   1.024  0.00  0.00    -0.072 A 
ENDROOT
TORSDOF 0
ENDMDL
