MODEL 1
REMARK minimizedAffinity 1.85718763
REMARK minimizedRMSD -1
REMARK  0 active torsions:
REMARK  status: ('A' for Active; 'I' for Inactive)
ROOT
ATOM      1  C1  DEN d   1      -0.689   5.929  -4.470  0.00  0.00     0.130 A 
ATOM      2  C2  DEN d   1       0.420   5.954  -3.521  0.00  0.00    -0.031 A 
ATOM      3  C3  DEN d   1      -0.146   5.985  -2.158  0.00  0.00     0.027 A 
ATOM      4  C4  DEN d   1      -2.621   5.991  -1.429  0.00  0.00     0.027 A 
ATOM      5  C5  DEN d   1      -3.923   5.988  -1.877  0.00  0.00    -0.003 A 
ATOM      6  C6  DEN d   1      -4.236   5.999  -3.211  0.00  0.00     0.001 A 
ATOM      7  C7  DEN d   1      -3.233   5.968  -4.144  0.00  0.00     0.017 A 
ATOM      8  C8  DEN d   1      -1.918   5.979  -3.699  0.00  0.00    -0.094 A 
ATOM      9  C9  DEN d   1      -1.622   5.955  -2.347  0.00  0.00    -0.072 A 
ENDROOT
TORSDOF 0
ENDMDL
