MODEL 1
REMARK minimizedAffinity 3.71624255
REMARK minimizedRMSD -1
REMARK  0 active torsions:
REMARK  status: ('A' for Active; 'I' for Inactive)
ROOT
ATOM      1  C   UNL d   1      -1.115   3.365  -1.385  0.00  0.00     0.078 C 
ATOM      2  C1  UNL d   1      -0.775   2.985   0.026  0.00  0.00    -0.077 A 
ATOM      3  C2  UNL d   1       0.408   2.299   0.323  0.00  0.00    -0.001 A 
ATOM      4  C3  UNL d   1       0.707   1.943   1.639  0.00  0.00     0.003 A 
ATOM      5  C4  UNL d   1      -0.173   2.269   2.669  0.00  0.00    -0.005 A 
ATOM      6  C5  UNL d   1      -1.354   2.950   2.383  0.00  0.00     0.003 A 
ATOM      7  C6  UNL d   1      -1.655   3.306   1.067  0.00  0.00    -0.001 A 
ENDROOT
TORSDOF 0
ENDMDL
