MODEL 1
REMARK minimizedAffinity 2.80977416
REMARK minimizedRMSD -1
REMARK  0 active torsions:
REMARK  status: ('A' for Active; 'I' for Inactive)
ROOT
ATOM      1  C   UNL d   1       1.817  -1.111  -0.842  0.00  0.00     0.078 C 
ATOM      2  C1  UNL d   1       2.918  -2.104  -1.063  0.00  0.00    -0.077 A 
ATOM      3  C2  UNL d   1       4.162  -1.702  -1.565  0.00  0.00    -0.001 A 
ATOM      4  C3  UNL d   1       5.175  -2.639  -1.775  0.00  0.00     0.003 A 
ATOM      5  C4  UNL d   1       4.954  -3.985  -1.487  0.00  0.00    -0.005 A 
ATOM      6  C5  UNL d   1       3.719  -4.394  -0.990  0.00  0.00     0.003 A 
ATOM      7  C6  UNL d   1       2.705  -3.459  -0.779  0.00  0.00    -0.001 A 
ENDROOT
TORSDOF 0
ENDMDL
