MODEL 1
REMARK minimizedAffinity 10.0908804
REMARK minimizedRMSD -1
REMARK  0 active torsions:
REMARK  status: ('A' for Active; 'I' for Inactive)
ROOT
ATOM      1  C   UNL d   1       4.982  -4.370   4.996  0.00  0.00     0.078 C 
ATOM      2  C1  UNL d   1       3.943  -3.399   4.520  0.00  0.00    -0.077 A 
ATOM      3  C2  UNL d   1       4.102  -2.021   4.711  0.00  0.00    -0.001 A 
ATOM      4  C3  UNL d   1       3.123  -1.129   4.271  0.00  0.00     0.003 A 
ATOM      5  C4  UNL d   1       1.976  -1.605   3.638  0.00  0.00    -0.005 A 
ATOM      6  C5  UNL d   1       1.808  -2.975   3.446  0.00  0.00     0.003 A 
ATOM      7  C6  UNL d   1       2.786  -3.868   3.885  0.00  0.00    -0.001 A 
ENDROOT
TORSDOF 0
ENDMDL
