MODEL 1
REMARK minimizedAffinity -3.5396018
REMARK minimizedRMSD -1
REMARK  0 active torsions:
REMARK  status: ('A' for Active; 'I' for Inactive)
ROOT
ATOM      1  C   UNL d   1      -0.147  -0.255   3.349  0.00  0.00     0.078 C 
ATOM      2  C1  UNL d   1      -0.526   0.916   2.493  0.00  0.00    -0.077 A 
ATOM      3  C2  UNL d   1      -0.078   1.018   1.170  0.00  0.00    -0.001 A 
ATOM      4  C3  UNL d   1      -0.431   2.119   0.388  0.00  0.00     0.003 A 
ATOM      5  C4  UNL d   1      -1.232   3.127   0.920  0.00  0.00    -0.005 A 
ATOM      6  C5  UNL d   1      -1.681   3.036   2.235  0.00  0.00     0.003 A 
ATOM      7  C6  UNL d   1      -1.329   1.936   3.019  0.00  0.00    -0.001 A 
ENDROOT
TORSDOF 0
ENDMDL
