MODEL 1
REMARK minimizedAffinity 4.6704545
REMARK minimizedRMSD -1
REMARK  0 active torsions:
REMARK  status: ('A' for Active; 'I' for Inactive)
ROOT
ATOM      1  C   UNL d   1       0.302   0.089   3.940  0.00  0.00     0.078 C 
ATOM      2  C1  UNL d   1      -0.383   1.127   3.103  0.00  0.00    -0.077 A 
ATOM      3  C2  UNL d   1      -1.777   1.258   3.114  0.00  0.00    -0.001 A 
ATOM      4  C3  UNL d   1      -2.402   2.223   2.322  0.00  0.00     0.003 A 
ATOM      5  C4  UNL d   1      -1.641   3.063   1.512  0.00  0.00    -0.005 A 
ATOM      6  C5  UNL d   1      -0.253   2.939   1.493  0.00  0.00     0.003 A 
ATOM      7  C6  UNL d   1       0.374   1.975   2.284  0.00  0.00    -0.001 A 
ENDROOT
TORSDOF 0
ENDMDL
