MODEL 1
REMARK minimizedAffinity -1.79360509
REMARK minimizedRMSD -1
REMARK  0 active torsions:
REMARK  status: ('A' for Active; 'I' for Inactive)
ROOT
ATOM      1  C   UNL d   1      -4.438   4.283  -3.565  0.00  0.00     0.078 C 
ATOM      2  C1  UNL d   1      -4.162   2.909  -3.031  0.00  0.00    -0.077 A 
ATOM      3  C2  UNL d   1      -5.205   2.009  -2.781  0.00  0.00    -0.001 A 
ATOM      4  C3  UNL d   1      -4.934   0.737  -2.275  0.00  0.00     0.003 A 
ATOM      5  C4  UNL d   1      -3.620   0.354  -2.012  0.00  0.00    -0.005 A 
ATOM      6  C5  UNL d   1      -2.576   1.244  -2.255  0.00  0.00     0.003 A 
ATOM      7  C6  UNL d   1      -2.845   2.516  -2.761  0.00  0.00    -0.001 A 
ENDROOT
TORSDOF 0
ENDMDL
