MODEL 1
REMARK minimizedAffinity 1.74538517
REMARK minimizedRMSD -1
REMARK  0 active torsions:
REMARK  status: ('A' for Active; 'I' for Inactive)
ROOT
ATOM      1  C   UNL d   1       4.227  -1.436  -0.076  0.00  0.00     0.078 C 
ATOM      2  C1  UNL d   1       4.537  -2.754  -0.722  0.00  0.00    -0.077 A 
ATOM      3  C2  UNL d   1       4.043  -3.068  -1.994  0.00  0.00    -0.001 A 
ATOM      4  C3  UNL d   1       4.331  -4.302  -2.579  0.00  0.00     0.003 A 
ATOM      5  C4  UNL d   1       5.113  -5.233  -1.898  0.00  0.00    -0.005 A 
ATOM      6  C5  UNL d   1       5.608  -4.931  -0.631  0.00  0.00     0.003 A 
ATOM      7  C6  UNL d   1       5.320  -3.697  -0.044  0.00  0.00    -0.001 A 
ENDROOT
TORSDOF 0
ENDMDL
