MODEL 1
REMARK minimizedAffinity 9.71882343
REMARK minimizedRMSD -1
REMARK  1 active torsions:
REMARK  status: ('A' for Active; 'I' for Inactive)
REMARK    1  A    between atoms: C1_2  and  C2_3 
ROOT
ATOM      1  C2  UNL d   1       2.237  -1.480   5.052  0.00  0.00    -0.073 A 
ATOM      2  C3  UNL d   1       3.277  -2.308   5.490  0.00  0.00    -0.002 A 
ATOM      3  C4  UNL d   1       4.295  -2.685   4.612  0.00  0.00     0.004 A 
ATOM      4  C5  UNL d   1       4.287  -2.233   3.293  0.00  0.00    -0.004 A 
ATOM      5  C6  UNL d   1       3.263  -1.394   2.840  0.00  0.00    -0.075 A 
ATOM      6  C7  UNL d   1       3.240  -0.901   1.424  0.00  0.00     0.076 C 
ATOM      7  C8  UNL d   1       2.244  -1.023   3.727  0.00  0.00     0.001 A 
ENDROOT
BRANCH   1   8
ATOM      8  C1  UNL d   1       1.140  -1.065   5.998  0.00  0.00     0.053 C 
ATOM      9  C   UNL d   1      -0.158  -1.809   5.726  0.00  0.00     0.018 C 
ENDBRANCH   1   8
TORSDOF 1
ENDMDL
