MODEL 1
REMARK minimizedAffinity 4.07409811
REMARK minimizedRMSD -1
REMARK  1 active torsions:
REMARK  status: ('A' for Active; 'I' for Inactive)
REMARK    1  A    between atoms: C1_2  and  C2_3 
ROOT
ATOM      1  C2  UNL d   1      -3.383   0.602  -1.437  0.00  0.00    -0.073 A 
ATOM      2  C3  UNL d   1      -1.992   0.668  -1.583  0.00  0.00    -0.002 A 
ATOM      3  C4  UNL d   1      -1.341  -0.152  -2.504  0.00  0.00     0.004 A 
ATOM      4  C5  UNL d   1      -2.071  -1.040  -3.294  0.00  0.00    -0.004 A 
ATOM      5  C6  UNL d   1      -3.463  -1.112  -3.171  0.00  0.00    -0.075 A 
ATOM      6  C7  UNL d   1      -4.263  -2.064  -4.011  0.00  0.00     0.076 C 
ATOM      7  C8  UNL d   1      -4.110  -0.287  -2.241  0.00  0.00     0.001 A 
ENDROOT
BRANCH   1   8
ATOM      8  C1  UNL d   1      -4.091   1.490  -0.448  0.00  0.00     0.053 C 
ATOM      9  C   UNL d   1      -5.188   0.749   0.301  0.00  0.00     0.018 C 
ENDBRANCH   1   8
TORSDOF 1
ENDMDL
