MODEL 1
REMARK minimizedAffinity 1.13982439
REMARK minimizedRMSD -1
REMARK  1 active torsions:
REMARK  status: ('A' for Active; 'I' for Inactive)
REMARK    1  A    between atoms: C1_2  and  C2_3 
ROOT
ATOM      1  C2  UNL d   1      -5.041  -0.415   3.282  0.00  0.00    -0.073 A 
ATOM      2  C3  UNL d   1      -6.000  -0.136   4.263  0.00  0.00    -0.002 A 
ATOM      3  C4  UNL d   1      -5.696  -0.301   5.614  0.00  0.00     0.004 A 
ATOM      4  C5  UNL d   1      -4.429  -0.741   6.000  0.00  0.00    -0.004 A 
ATOM      5  C6  UNL d   1      -3.454  -1.014   5.036  0.00  0.00    -0.075 A 
ATOM      6  C7  UNL d   1      -2.087  -1.490   5.434  0.00  0.00     0.076 C 
ATOM      7  C8  UNL d   1      -3.768  -0.848   3.680  0.00  0.00     0.001 A 
ENDROOT
BRANCH   1   8
ATOM      8  C1  UNL d   1      -5.363  -0.232   1.822  0.00  0.00     0.053 C 
ATOM      9  C   UNL d   1      -5.964   1.136   1.538  0.00  0.00     0.018 C 
ENDBRANCH   1   8
TORSDOF 1
ENDMDL
