MODEL 1
REMARK minimizedAffinity -0.66061914
REMARK minimizedRMSD -1
REMARK  1 active torsions:
REMARK  status: ('A' for Active; 'I' for Inactive)
REMARK    1  A    between atoms: C1_2  and  C2_3 
ROOT
ATOM      1  C2  UNL d   1       1.069   0.005   1.535  0.00  0.00    -0.073 A 
ATOM      2  C3  UNL d   1       1.266  -0.084   0.152  0.00  0.00    -0.002 A 
ATOM      3  C4  UNL d   1       0.476   0.665  -0.722  0.00  0.00     0.004 A 
ATOM      4  C5  UNL d   1      -0.512   1.514  -0.223  0.00  0.00    -0.004 A 
ATOM      5  C6  UNL d   1      -0.716   1.624   1.156  0.00  0.00    -0.075 A 
ATOM      6  C7  UNL d   1      -1.777   2.531   1.709  0.00  0.00     0.076 C 
ATOM      7  C8  UNL d   1       0.079   0.867   2.027  0.00  0.00     0.001 A 
ENDROOT
BRANCH   1   8
ATOM      8  C1  UNL d   1       1.923  -0.797   2.482  0.00  0.00     0.053 C 
ATOM      9  C   UNL d   1       1.239  -1.012   3.823  0.00  0.00     0.018 C 
ENDBRANCH   1   8
TORSDOF 1
ENDMDL
