MODEL 1
REMARK minimizedAffinity 6.54597616
REMARK minimizedRMSD -1
REMARK  2 active torsions:
REMARK  status: ('A' for Active; 'I' for Inactive)
REMARK    1  A    between atoms: C2'_3  and  C1'_4 
REMARK    2  A    between atoms: C1'_4  and  C1_5 
ROOT
ATOM      1  C1  I4B d   1       5.884   2.106   4.594  0.00  0.00    -0.075 A 
ATOM      2  C2  I4B d   1       5.683   1.642   3.318  0.00  0.00     0.003 A 
ATOM      3  C3  I4B d   1       5.600   0.250   3.071  0.00  0.00     0.002 A 
ATOM      4  C4  I4B d   1       5.773  -0.637   4.114  0.00  0.00    -0.004 A 
ATOM      5  C5  I4B d   1       5.954  -0.164   5.410  0.00  0.00     0.002 A 
ATOM      6  C6  I4B d   1       5.997   1.217   5.654  0.00  0.00     0.003 A 
ENDROOT
BRANCH   1   7
ATOM      7  C1' I4B d   1       5.999   3.581   4.814  0.00  0.00     0.060 C 
BRANCH   7   8
ATOM      8  C2' I4B d   1       5.874   4.265   3.467  0.00  0.00    -0.013 C 
ATOM      9  C4' I4B d   1       4.577   3.906   2.792  0.00  0.00     0.013 C 
ATOM     10  C3' I4B d   1       5.978   5.745   3.688  0.00  0.00     0.013 C 
ENDBRANCH   7   8
ENDBRANCH   1   7
TORSDOF 2
ENDMDL
