MODEL 1
REMARK minimizedAffinity 16.9525089
REMARK minimizedRMSD -1
REMARK  2 active torsions:
REMARK  status: ('A' for Active; 'I' for Inactive)
REMARK    1  A    between atoms: C2'_3  and  C1'_4 
REMARK    2  A    between atoms: C1'_4  and  C1_5 
ROOT
ATOM      1  C1  I4B d   1       5.130   1.496   3.069  0.00  0.00    -0.075 A 
ATOM      2  C2  I4B d   1       4.252   1.003   2.137  0.00  0.00     0.003 A 
ATOM      3  C3  I4B d   1       3.423   1.885   1.402  0.00  0.00     0.002 A 
ATOM      4  C4  I4B d   1       3.468   3.239   1.666  0.00  0.00    -0.004 A 
ATOM      5  C5  I4B d   1       4.375   3.739   2.596  0.00  0.00     0.002 A 
ATOM      6  C6  I4B d   1       5.220   2.864   3.293  0.00  0.00     0.003 A 
ENDROOT
BRANCH   1   7
ATOM      7  C1' I4B d   1       5.967   0.534   3.851  0.00  0.00     0.060 C 
BRANCH   7   8
ATOM      8  C2' I4B d   1       5.495   0.567   5.290  0.00  0.00    -0.013 C 
ATOM      9  C4' I4B d   1       5.992   1.799   5.999  0.00  0.00     0.013 C 
ATOM     10  C3' I4B d   1       3.997   0.510   5.288  0.00  0.00     0.013 C 
ENDBRANCH   7   8
ENDBRANCH   1   7
TORSDOF 2
ENDMDL
