MODEL 1
REMARK minimizedAffinity 5.55389261
REMARK minimizedRMSD -1
REMARK  2 active torsions:
REMARK  status: ('A' for Active; 'I' for Inactive)
REMARK    1  A    between atoms: C2'_3  and  C1'_4 
REMARK    2  A    between atoms: C1'_4  and  C1_5 
ROOT
ATOM      1  C1  I4B d   1      -3.642  -1.156   2.219  0.00  0.00    -0.075 A 
ATOM      2  C2  I4B d   1      -4.979  -0.955   1.980  0.00  0.00     0.003 A 
ATOM      3  C3  I4B d   1      -5.471  -0.943   0.652  0.00  0.00     0.002 A 
ATOM      4  C4  I4B d   1      -4.590  -1.084  -0.401  0.00  0.00    -0.004 A 
ATOM      5  C5  I4B d   1      -3.239  -1.310  -0.155  0.00  0.00     0.002 A 
ATOM      6  C6  I4B d   1      -2.763  -1.359   1.163  0.00  0.00     0.003 A 
ENDROOT
BRANCH   1   7
ATOM      7  C1' I4B d   1      -3.151  -1.129   3.632  0.00  0.00     0.060 C 
BRANCH   7   8
ATOM      8  C2' I4B d   1      -1.913  -0.256   3.680  0.00  0.00    -0.013 C 
ATOM      9  C4' I4B d   1      -2.241   1.126   4.179  0.00  0.00     0.013 C 
ATOM     10  C3' I4B d   1      -0.907  -0.928   4.565  0.00  0.00     0.013 C 
ENDBRANCH   7   8
ENDBRANCH   1   7
TORSDOF 2
ENDMDL
