MODEL 1
REMARK minimizedAffinity 12.3879519
REMARK minimizedRMSD -1
REMARK  2 active torsions:
REMARK  status: ('A' for Active; 'I' for Inactive)
REMARK    1  A    between atoms: C2'_3  and  C1'_4 
REMARK    2  A    between atoms: C1'_4  and  C1_5 
ROOT
ATOM      1  C1  I4B d   1       4.804   1.498   3.293  0.00  0.00    -0.075 A 
ATOM      2  C2  I4B d   1       5.352   2.545   3.991  0.00  0.00     0.003 A 
ATOM      3  C3  I4B d   1       5.984   2.318   5.237  0.00  0.00     0.002 A 
ATOM      4  C4  I4B d   1       6.000   1.045   5.769  0.00  0.00    -0.004 A 
ATOM      5  C5  I4B d   1       5.464  -0.019   5.050  0.00  0.00     0.002 A 
ATOM      6  C6  I4B d   1       4.873   0.206   3.798  0.00  0.00     0.003 A 
ENDROOT
BRANCH   1   7
ATOM      7  C1' I4B d   1       4.116   1.779   1.995  0.00  0.00     0.060 C 
BRANCH   7   8
ATOM      8  C2' I4B d   1       3.469   3.146   2.095  0.00  0.00    -0.013 C 
ATOM      9  C4' I4B d   1       4.506   4.237   2.139  0.00  0.00     0.013 C 
ATOM     10  C3' I4B d   1       2.556   3.314   0.918  0.00  0.00     0.013 C 
ENDBRANCH   7   8
ENDBRANCH   1   7
TORSDOF 2
ENDMDL
