MODEL 1
REMARK minimizedAffinity 10.6173687
REMARK minimizedRMSD -1
REMARK  2 active torsions:
REMARK  status: ('A' for Active; 'I' for Inactive)
REMARK    1  A    between atoms: C2'_3  and  C1'_4 
REMARK    2  A    between atoms: C1'_4  and  C1_5 
ROOT
ATOM      1  C1  I4B d   1       4.835   3.022   4.072  0.00  0.00    -0.075 A 
ATOM      2  C2  I4B d   1       5.689   2.157   4.709  0.00  0.00     0.003 A 
ATOM      3  C3  I4B d   1       5.913   0.861   4.185  0.00  0.00     0.002 A 
ATOM      4  C4  I4B d   1       5.229   0.456   3.057  0.00  0.00    -0.004 A 
ATOM      5  C5  I4B d   1       4.381   1.343   2.399  0.00  0.00     0.002 A 
ATOM      6  C6  I4B d   1       4.192   2.638   2.902  0.00  0.00     0.003 A 
ENDROOT
BRANCH   1   7
ATOM      7  C1' I4B d   1       4.596   4.371   4.671  0.00  0.00     0.060 C 
BRANCH   7   8
ATOM      8  C2' I4B d   1       5.893   5.152   4.595  0.00  0.00    -0.013 C 
ATOM      9  C4' I4B d   1       5.947   5.998   3.350  0.00  0.00     0.013 C 
ATOM     10  C3' I4B d   1       5.998   5.997   5.829  0.00  0.00     0.013 C 
ENDBRANCH   7   8
ENDBRANCH   1   7
TORSDOF 2
ENDMDL
