MODEL 1
REMARK minimizedAffinity -2.80970573
REMARK minimizedRMSD -1
REMARK  2 active torsions:
REMARK  status: ('A' for Active; 'I' for Inactive)
REMARK    1  A    between atoms: C2'_3  and  C1'_4 
REMARK    2  A    between atoms: C1'_4  and  C1_5 
ROOT
ATOM      1  C1  I4B d   1       3.954   0.717  -3.929  0.00  0.00    -0.075 A 
ATOM      2  C2  I4B d   1       5.014  -0.154  -3.930  0.00  0.00     0.003 A 
ATOM      3  C3  I4B d   1       5.979  -0.102  -4.966  0.00  0.00     0.002 A 
ATOM      4  C4  I4B d   1       5.818   0.798  -5.999  0.00  0.00    -0.004 A 
ATOM      5  C5  I4B d   1       4.755   1.696  -5.984  0.00  0.00     0.002 A 
ATOM      6  C6  I4B d   1       3.823   1.664  -4.936  0.00  0.00     0.003 A 
ENDROOT
BRANCH   1   7
ATOM      7  C1' I4B d   1       2.936   0.612  -2.838  0.00  0.00     0.060 C 
BRANCH   7   8
ATOM      8  C2' I4B d   1       1.585   0.971  -3.424  0.00  0.00    -0.013 C 
ATOM      9  C4' I4B d   1       0.643  -0.203  -3.380  0.00  0.00     0.013 C 
ATOM     10  C3' I4B d   1       1.038   2.133  -2.649  0.00  0.00     0.013 C 
ENDBRANCH   7   8
ENDBRANCH   1   7
TORSDOF 2
ENDMDL
