MODEL 1
REMARK minimizedAffinity 12.9856958
REMARK minimizedRMSD -1
REMARK  2 active torsions:
REMARK  status: ('A' for Active; 'I' for Inactive)
REMARK    1  A    between atoms: C2'_3  and  C1'_4 
REMARK    2  A    between atoms: C1'_4  and  C1_5 
ROOT
ATOM      1  C1  I4B d   1       4.386   4.223  -5.126  0.00  0.00    -0.075 A 
ATOM      2  C2  I4B d   1       4.484   4.558  -3.799  0.00  0.00     0.003 A 
ATOM      3  C3  I4B d   1       3.429   5.255  -3.160  0.00  0.00     0.002 A 
ATOM      4  C4  I4B d   1       2.326   5.639  -3.894  0.00  0.00    -0.004 A 
ATOM      5  C5  I4B d   1       2.219   5.279  -5.234  0.00  0.00     0.002 A 
ATOM      6  C6  I4B d   1       3.250   4.556  -5.852  0.00  0.00     0.003 A 
ENDROOT
BRANCH   1   7
ATOM      7  C1' I4B d   1       5.532   3.516  -5.777  0.00  0.00     0.060 C 
BRANCH   7   8
ATOM      8  C2' I4B d   1       5.125   2.074  -6.000  0.00  0.00    -0.013 C 
ATOM      9  C4' I4B d   1       5.993   1.134  -5.206  0.00  0.00     0.013 C 
ATOM     10  C3' I4B d   1       3.683   1.935  -5.614  0.00  0.00     0.013 C 
ENDBRANCH   7   8
ENDBRANCH   1   7
TORSDOF 2
ENDMDL
