MODEL 1
REMARK minimizedAffinity 7.81830311
REMARK minimizedRMSD -1
REMARK  2 active torsions:
REMARK  status: ('A' for Active; 'I' for Inactive)
REMARK    1  A    between atoms: C2'_3  and  C1'_4 
REMARK    2  A    between atoms: C1'_4  and  C1_5 
ROOT
ATOM      1  C1  I4B d   1       4.572   3.168  -5.294  0.00  0.00    -0.075 A 
ATOM      2  C2  I4B d   1       3.794   2.282  -5.997  0.00  0.00     0.003 A 
ATOM      3  C3  I4B d   1       4.105   0.901  -5.993  0.00  0.00     0.002 A 
ATOM      4  C4  I4B d   1       5.225   0.458  -5.318  0.00  0.00    -0.004 A 
ATOM      5  C5  I4B d   1       5.999   1.354  -4.587  0.00  0.00     0.002 A 
ATOM      6  C6  I4B d   1       5.664   2.716  -4.565  0.00  0.00     0.003 A 
ENDROOT
BRANCH   1   7
ATOM      7  C1' I4B d   1       4.235   4.624  -5.348  0.00  0.00     0.060 C 
BRANCH   7   8
ATOM      8  C2' I4B d   1       3.301   4.929  -4.194  0.00  0.00    -0.013 C 
ATOM      9  C4' I4B d   1       4.023   5.647  -3.084  0.00  0.00     0.013 C 
ATOM     10  C3' I4B d   1       2.165   5.753  -4.723  0.00  0.00     0.013 C 
ENDBRANCH   7   8
ENDBRANCH   1   7
TORSDOF 2
ENDMDL
