MODEL 1
REMARK minimizedAffinity -6.43250656
REMARK minimizedRMSD -1
REMARK  2 active torsions:
REMARK  status: ('A' for Active; 'I' for Inactive)
REMARK    1  A    between atoms: C2'_3  and  C1'_4 
REMARK    2  A    between atoms: C1'_4  and  C1_5 
ROOT
ATOM      1  C1  I4B d   1      -3.226   2.444   3.325  0.00  0.00    -0.075 A 
ATOM      2  C2  I4B d   1      -3.976   2.628   4.460  0.00  0.00     0.003 A 
ATOM      3  C3  I4B d   1      -4.506   3.905   4.764  0.00  0.00     0.002 A 
ATOM      4  C4  I4B d   1      -4.221   4.974   3.939  0.00  0.00    -0.004 A 
ATOM      5  C5  I4B d   1      -3.479   4.780   2.777  0.00  0.00     0.002 A 
ATOM      6  C6  I4B d   1      -2.988   3.505   2.461  0.00  0.00     0.003 A 
ENDROOT
BRANCH   1   7
ATOM      7  C1' I4B d   1      -2.653   1.089   3.052  0.00  0.00     0.060 C 
BRANCH   7   8
ATOM      8  C2' I4B d   1      -3.651   0.323   2.206  0.00  0.00    -0.013 C 
ATOM      9  C4' I4B d   1      -2.993  -0.264   0.985  0.00  0.00     0.013 C 
ATOM     10  C3' I4B d   1      -4.257  -0.748   3.063  0.00  0.00     0.013 C 
ENDBRANCH   7   8
ENDBRANCH   1   7
TORSDOF 2
ENDMDL
