MODEL 1
REMARK minimizedAffinity -4.41377401
REMARK minimizedRMSD -1
REMARK  2 active torsions:
REMARK  status: ('A' for Active; 'I' for Inactive)
REMARK    1  A    between atoms: C2'_3  and  C1'_4 
REMARK    2  A    between atoms: C1'_4  and  C1_5 
ROOT
ATOM      1  C1  I4B d   1      -3.353   3.431   2.948  0.00  0.00    -0.075 A 
ATOM      2  C2  I4B d   1      -3.673   2.510   3.913  0.00  0.00     0.003 A 
ATOM      3  C3  I4B d   1      -4.285   2.926   5.121  0.00  0.00     0.002 A 
ATOM      4  C4  I4B d   1      -4.510   4.270   5.340  0.00  0.00    -0.004 A 
ATOM      5  C5  I4B d   1      -4.206   5.200   4.351  0.00  0.00     0.002 A 
ATOM      6  C6  I4B d   1      -3.634   4.777   3.142  0.00  0.00     0.003 A 
ENDROOT
BRANCH   1   7
ATOM      7  C1' I4B d   1      -2.678   2.961   1.698  0.00  0.00     0.060 C 
BRANCH   7   8
ATOM      8  C2' I4B d   1      -3.753   2.557   0.710  0.00  0.00    -0.013 C 
ATOM      9  C4' I4B d   1      -4.062   3.678  -0.247  0.00  0.00     0.013 C 
ATOM     10  C3' I4B d   1      -3.277   1.337  -0.019  0.00  0.00     0.013 C 
ENDBRANCH   7   8
ENDBRANCH   1   7
TORSDOF 2
ENDMDL
