MODEL 1
REMARK minimizedAffinity 6.65198374
REMARK minimizedRMSD -1
REMARK  2 active torsions:
REMARK  status: ('A' for Active; 'I' for Inactive)
REMARK    1  A    between atoms: C2'_3  and  C1'_4 
REMARK    2  A    between atoms: C1'_4  and  C1_5 
ROOT
ATOM      1  C1  I4B d   1      -0.550   0.818  -1.322  0.00  0.00    -0.075 A 
ATOM      2  C2  I4B d   1      -0.174  -0.429  -1.753  0.00  0.00     0.003 A 
ATOM      3  C3  I4B d   1       0.732  -0.567  -2.833  0.00  0.00     0.002 A 
ATOM      4  C4  I4B d   1       1.194   0.560  -3.481  0.00  0.00    -0.004 A 
ATOM      5  C5  I4B d   1       0.829   1.825  -3.027  0.00  0.00     0.002 A 
ATOM      6  C6  I4B d   1      -0.038   1.955  -1.933  0.00  0.00     0.003 A 
ENDROOT
BRANCH   1   7
ATOM      7  C1' I4B d   1      -1.533   0.927  -0.200  0.00  0.00     0.060 C 
BRANCH   7   8
ATOM      8  C2' I4B d   1      -2.373  -0.335  -0.191  0.00  0.00    -0.013 C 
ATOM      9  C4' I4B d   1      -2.371  -0.982   1.169  0.00  0.00     0.013 C 
ATOM     10  C3' I4B d   1      -3.764   0.033  -0.614  0.00  0.00     0.013 C 
ENDBRANCH   7   8
ENDBRANCH   1   7
TORSDOF 2
ENDMDL
