MODEL 1
REMARK minimizedAffinity 4.02289343
REMARK minimizedRMSD -1
REMARK  2 active torsions:
REMARK  status: ('A' for Active; 'I' for Inactive)
REMARK    1  A    between atoms: C2'_3  and  C1'_4 
REMARK    2  A    between atoms: C1'_4  and  C1_5 
ROOT
ATOM      1  C1  I4B d   1      -2.946   1.468   1.103  0.00  0.00    -0.075 A 
ATOM      2  C2  I4B d   1      -3.116   1.556  -0.256  0.00  0.00     0.003 A 
ATOM      3  C3  I4B d   1      -3.123   2.821  -0.893  0.00  0.00     0.002 A 
ATOM      4  C4  I4B d   1      -3.008   3.966  -0.132  0.00  0.00    -0.004 A 
ATOM      5  C5  I4B d   1      -2.813   3.874   1.243  0.00  0.00     0.002 A 
ATOM      6  C6  I4B d   1      -2.769   2.617   1.864  0.00  0.00     0.003 A 
ENDROOT
BRANCH   1   7
ATOM      7  C1' I4B d   1      -2.976   0.119   1.748  0.00  0.00     0.060 C 
BRANCH   7   8
ATOM      8  C2' I4B d   1      -3.151   0.317   3.239  0.00  0.00    -0.013 C 
ATOM      9  C4' I4B d   1      -4.446  -0.282   3.721  0.00  0.00     0.013 C 
ATOM     10  C3' I4B d   1      -1.975  -0.306   3.931  0.00  0.00     0.013 C 
ENDBRANCH   7   8
ENDBRANCH   1   7
TORSDOF 2
ENDMDL
