MODEL 1
REMARK minimizedAffinity 5.7647934
REMARK minimizedRMSD -1
REMARK  2 active torsions:
REMARK  status: ('A' for Active; 'I' for Inactive)
REMARK    1  A    between atoms: C2'_3  and  C1'_4 
REMARK    2  A    between atoms: C1'_4  and  C1_5 
ROOT
ATOM      1  C1  I4B d   1       3.928   3.358  -5.302  0.00  0.00    -0.075 A 
ATOM      2  C2  I4B d   1       5.123   3.417  -4.630  0.00  0.00     0.003 A 
ATOM      3  C3  I4B d   1       5.999   2.305  -4.634  0.00  0.00     0.002 A 
ATOM      4  C4  I4B d   1       5.620   1.143  -5.276  0.00  0.00    -0.004 A 
ATOM      5  C5  I4B d   1       4.418   1.093  -5.976  0.00  0.00     0.002 A 
ATOM      6  C6  I4B d   1       3.572   2.211  -6.000  0.00  0.00     0.003 A 
ENDROOT
BRANCH   1   7
ATOM      7  C1' I4B d   1       3.013   4.540  -5.250  0.00  0.00     0.060 C 
BRANCH   7   8
ATOM      8  C2' I4B d   1       1.595   4.041  -5.442  0.00  0.00    -0.013 C 
ATOM      9  C4' I4B d   1       1.128   3.251  -4.248  0.00  0.00     0.013 C 
ATOM     10  C3' I4B d   1       0.714   5.231  -5.682  0.00  0.00     0.013 C 
ENDBRANCH   7   8
ENDBRANCH   1   7
TORSDOF 2
ENDMDL
