MODEL 1
REMARK minimizedAffinity -4.69854069
REMARK minimizedRMSD -1
REMARK  0 active torsions:
REMARK  status: ('A' for Active; 'I' for Inactive)
ROOT
ATOM      1  N1  IND d   1      -1.673  -0.943   1.785  0.00  0.00    -0.196 N 
ATOM      2  C2  IND d   1      -0.978  -0.962   2.962  0.00  0.00     0.054 A 
ATOM      3  C3  IND d   1       0.302  -0.580   2.759  0.00  0.00    -0.031 A 
ATOM      4  C4  IND d   1       1.447   0.218   0.595  0.00  0.00     0.051 A 
ATOM      5  C5  IND d   1       1.229   0.372  -0.745  0.00  0.00    -0.031 A 
ATOM      6  C6  IND d   1       0.007   0.092  -1.322  0.00  0.00     0.015 A 
ATOM      7  C7  IND d   1      -1.050  -0.343  -0.574  0.00  0.00    -0.016 A 
ATOM      8  C8  IND d   1      -0.831  -0.507   0.786  0.00  0.00    -0.047 A 
ATOM      9  C9  IND d   1       0.419  -0.265   1.370  0.00  0.00    -0.096 A 
ATOM     10  HN1 IND d   1      -2.498  -1.165   1.686  0.00  0.00     0.298 HD
ENDROOT
TORSDOF 0
ENDMDL
