MODEL 1
REMARK minimizedAffinity -1.77324796
REMARK minimizedRMSD -1
REMARK  0 active torsions:
REMARK  status: ('A' for Active; 'I' for Inactive)
ROOT
ATOM      1  N1  IND d   1      -2.077   0.868   0.350  0.00  0.00    -0.196 N 
ATOM      2  C2  IND d   1      -1.692   0.937  -0.960  0.00  0.00     0.054 A 
ATOM      3  C3  IND d   1      -0.356   0.758  -1.068  0.00  0.00    -0.031 A 
ATOM      4  C4  IND d   1       1.377   0.237   0.763  0.00  0.00     0.051 A 
ATOM      5  C5  IND d   1       1.508   0.113   2.118  0.00  0.00    -0.031 A 
ATOM      6  C6  IND d   1       0.429   0.235   2.970  0.00  0.00     0.015 A 
ATOM      7  C7  IND d   1      -0.829   0.474   2.495  0.00  0.00    -0.016 A 
ATOM      8  C8  IND d   1      -0.966   0.607   1.120  0.00  0.00    -0.047 A 
ATOM      9  C9  IND d   1       0.133   0.527   0.255  0.00  0.00    -0.096 A 
ATOM     10  HN1 IND d   1      -2.879   0.970   0.643  0.00  0.00     0.298 HD
ENDROOT
TORSDOF 0
ENDMDL
