MODEL 1
REMARK minimizedAffinity -2.84858727
REMARK minimizedRMSD -1
REMARK  0 active torsions:
REMARK  status: ('A' for Active; 'I' for Inactive)
ROOT
ATOM      1  N1  IND d   1      -1.336  -0.435  -0.192  0.00  0.00    -0.196 N 
ATOM      2  C2  IND d   1      -0.639  -0.162  -1.336  0.00  0.00     0.054 A 
ATOM      3  C3  IND d   1       0.659   0.082  -1.049  0.00  0.00    -0.031 A 
ATOM      4  C4  IND d   1       1.880  -0.012   1.215  0.00  0.00     0.051 A 
ATOM      5  C5  IND d   1       1.657  -0.183   2.553  0.00  0.00    -0.031 A 
ATOM      6  C6  IND d   1       0.400  -0.455   3.054  0.00  0.00     0.015 A 
ATOM      7  C7  IND d   1      -0.684  -0.578   2.230  0.00  0.00    -0.016 A 
ATOM      8  C8  IND d   1      -0.462  -0.398   0.872  0.00  0.00    -0.047 A 
ATOM      9  C9  IND d   1       0.803  -0.080   0.363  0.00  0.00    -0.096 A 
ATOM     10  HN1 IND d   1      -2.178  -0.602  -0.145  0.00  0.00     0.298 HD
ENDROOT
TORSDOF 0
ENDMDL
