MODEL 1
REMARK minimizedAffinity -4.84355831
REMARK minimizedRMSD -1
REMARK  0 active torsions:
REMARK  status: ('A' for Active; 'I' for Inactive)
ROOT
ATOM      1  N1  IND d   1      -1.015   0.403  -1.006  0.00  0.00    -0.196 N 
ATOM      2  C2  IND d   1       0.095   0.212  -1.782  0.00  0.00     0.054 A 
ATOM      3  C3  IND d   1       1.146  -0.158  -1.017  0.00  0.00    -0.031 A 
ATOM      4  C4  IND d   1       1.247  -0.609   1.516  0.00  0.00     0.051 A 
ATOM      5  C5  IND d   1       0.495  -0.533   2.654  0.00  0.00    -0.031 A 
ATOM      6  C6  IND d   1      -0.827  -0.136   2.630  0.00  0.00     0.015 A 
ATOM      7  C7  IND d   1      -1.451   0.190   1.459  0.00  0.00    -0.016 A 
ATOM      8  C8  IND d   1      -0.688   0.121   0.302  0.00  0.00    -0.047 A 
ATOM      9  C9  IND d   1       0.665  -0.240   0.326  0.00  0.00    -0.096 A 
ATOM     10  HN1 IND d   1      -1.786   0.656  -1.288  0.00  0.00     0.298 HD
ENDROOT
TORSDOF 0
ENDMDL
