MODEL 1
REMARK minimizedAffinity -0.409760028
REMARK minimizedRMSD -1
REMARK  0 active torsions:
REMARK  status: ('A' for Active; 'I' for Inactive)
ROOT
ATOM      1  N1  IND d   1       0.650   0.291   2.860  0.00  0.00    -0.196 N 
ATOM      2  C2  IND d   1      -0.409  -0.433   3.333  0.00  0.00     0.054 A 
ATOM      3  C3  IND d   1      -1.197  -0.836   2.311  0.00  0.00    -0.031 A 
ATOM      4  C4  IND d   1      -0.885  -0.508  -0.224  0.00  0.00     0.051 A 
ATOM      5  C5  IND d   1      -0.086   0.119  -1.138  0.00  0.00    -0.031 A 
ATOM      6  C6  IND d   1       1.023   0.848  -0.760  0.00  0.00     0.015 A 
ATOM      7  C7  IND d   1       1.382   0.968   0.553  0.00  0.00    -0.016 A 
ATOM      8  C8  IND d   1       0.569   0.338   1.485  0.00  0.00    -0.047 A 
ATOM      9  C9  IND d   1      -0.581  -0.368   1.110  0.00  0.00    -0.096 A 
ATOM     10  HN1 IND d   1       1.263   0.655   3.340  0.00  0.00     0.298 HD
ENDROOT
TORSDOF 0
ENDMDL
