MODEL 1
REMARK minimizedAffinity -3.15661192
REMARK minimizedRMSD -1
REMARK  0 active torsions:
REMARK  status: ('A' for Active; 'I' for Inactive)
ROOT
ATOM      1  N1  IND d   1      -1.852   0.949  -1.155  0.00  0.00    -0.196 N 
ATOM      2  C2  IND d   1      -0.727   1.149  -1.906  0.00  0.00     0.054 A 
ATOM      3  C3  IND d   1       0.355   0.638  -1.277  0.00  0.00    -0.031 A 
ATOM      4  C4  IND d   1       0.495  -0.659   0.943  0.00  0.00     0.051 A 
ATOM      5  C5  IND d   1      -0.264  -1.059   2.007  0.00  0.00    -0.031 A 
ATOM      6  C6  IND d   1      -1.619  -0.807   2.071  0.00  0.00     0.015 A 
ATOM      7  C7  IND d   1      -2.271  -0.153   1.064  0.00  0.00    -0.016 A 
ATOM      8  C8  IND d   1      -1.502   0.261  -0.015  0.00  0.00    -0.047 A 
ATOM      9  C9  IND d   1      -0.119   0.046  -0.066  0.00  0.00    -0.096 A 
ATOM     10  HN1 IND d   1      -2.645   1.210  -1.361  0.00  0.00     0.298 HD
ENDROOT
TORSDOF 0
ENDMDL
