MODEL 1
REMARK minimizedAffinity -0.808756053
REMARK minimizedRMSD -1
REMARK  0 active torsions:
REMARK  status: ('A' for Active; 'I' for Inactive)
ROOT
ATOM      1  N1  IND d   1       0.727   1.362  -0.281  0.00  0.00    -0.196 N 
ATOM      2  C2  IND d   1       0.189   0.749  -1.378  0.00  0.00     0.054 A 
ATOM      3  C3  IND d   1      -0.529  -0.335  -1.007  0.00  0.00    -0.031 A 
ATOM      4  C4  IND d   1      -1.039  -1.229   1.352  0.00  0.00     0.051 A 
ATOM      5  C5  IND d   1      -0.738  -1.026   2.670  0.00  0.00    -0.031 A 
ATOM      6  C6  IND d   1       0.081   0.006   3.079  0.00  0.00     0.015 A 
ATOM      7  C7  IND d   1       0.623   0.884   2.184  0.00  0.00    -0.016 A 
ATOM      8  C8  IND d   1       0.325   0.676   0.845  0.00  0.00    -0.047 A 
ATOM      9  C9  IND d   1      -0.471  -0.395   0.419  0.00  0.00    -0.096 A 
ATOM     10  HN1 IND d   1       1.231   2.058  -0.292  0.00  0.00     0.298 HD
ENDROOT
TORSDOF 0
ENDMDL
