MODEL 1
REMARK minimizedAffinity -0.61485678
REMARK minimizedRMSD -1
REMARK  0 active torsions:
REMARK  status: ('A' for Active; 'I' for Inactive)
ROOT
ATOM      1  N1  IND d   1      -0.660  -0.464  -0.954  0.00  0.00    -0.196 N 
ATOM      2  C2  IND d   1       0.432   0.203  -1.435  0.00  0.00     0.054 A 
ATOM      3  C3  IND d   1       1.180   0.679  -0.414  0.00  0.00    -0.031 A 
ATOM      4  C4  IND d   1       0.854   0.393   2.124  0.00  0.00     0.051 A 
ATOM      5  C5  IND d   1      -0.019  -0.108   3.048  0.00  0.00    -0.031 A 
ATOM      6  C6  IND d   1      -1.173  -0.768   2.678  0.00  0.00     0.015 A 
ATOM      7  C7  IND d   1      -1.492  -0.964   1.364  0.00  0.00    -0.016 A 
ATOM      8  C8  IND d   1      -0.611  -0.451   0.423  0.00  0.00    -0.047 A 
ATOM      9  C9  IND d   1       0.540   0.258   0.792  0.00  0.00    -0.096 A 
ATOM     10  HN1 IND d   1      -1.275  -0.830  -1.431  0.00  0.00     0.298 HD
ENDROOT
TORSDOF 0
ENDMDL
