MODEL 1
REMARK minimizedAffinity 0.139857829
REMARK minimizedRMSD -1
REMARK  0 active torsions:
REMARK  status: ('A' for Active; 'I' for Inactive)
ROOT
ATOM      1  N1  IND d   1      -0.868  -0.915  -0.906  0.00  0.00    -0.196 N 
ATOM      2  C2  IND d   1      -0.366   0.042  -0.068  0.00  0.00     0.054 A 
ATOM      3  C3  IND d   1       0.772   0.564  -0.577  0.00  0.00    -0.031 A 
ATOM      4  C4  IND d   1       1.939   0.067  -2.818  0.00  0.00     0.051 A 
ATOM      5  C5  IND d   1       1.876  -0.758  -3.906  0.00  0.00    -0.031 A 
ATOM      6  C6  IND d   1       0.874  -1.695  -4.053  0.00  0.00     0.015 A 
ATOM      7  C7  IND d   1      -0.114  -1.834  -3.120  0.00  0.00    -0.016 A 
ATOM      8  C8  IND d   1      -0.049  -1.002  -2.011  0.00  0.00    -0.047 A 
ATOM      9  C9  IND d   1       0.989  -0.079  -1.835  0.00  0.00    -0.096 A 
ATOM     10  HN1 IND d   1      -1.575  -1.383  -0.766  0.00  0.00     0.298 HD
ENDROOT
TORSDOF 0
ENDMDL
