MODEL 1
REMARK minimizedAffinity -2.4364984
REMARK minimizedRMSD -1
REMARK  0 active torsions:
REMARK  status: ('A' for Active; 'I' for Inactive)
ROOT
ATOM      1  N1  IND d   1       1.221  -0.108  -0.867  0.00  0.00    -0.196 N 
ATOM      2  C2  IND d   1       0.108   0.028  -1.648  0.00  0.00     0.054 A 
ATOM      3  C3  IND d   1      -1.009  -0.012  -0.887  0.00  0.00    -0.031 A 
ATOM      4  C4  IND d   1      -1.239  -0.190   1.671  0.00  0.00     0.051 A 
ATOM      5  C5  IND d   1      -0.504  -0.373   2.808  0.00  0.00    -0.031 A 
ATOM      6  C6  IND d   1       0.872  -0.475   2.779  0.00  0.00     0.015 A 
ATOM      7  C7  IND d   1       1.568  -0.388   1.606  0.00  0.00    -0.016 A 
ATOM      8  C8  IND d   1       0.824  -0.210   0.448  0.00  0.00    -0.047 A 
ATOM      9  C9  IND d   1      -0.575  -0.147   0.467  0.00  0.00    -0.096 A 
ATOM     10  HN1 IND d   1       2.033  -0.126  -1.149  0.00  0.00     0.298 HD
ENDROOT
TORSDOF 0
ENDMDL
