MODEL 1
REMARK minimizedAffinity -1.41042495
REMARK minimizedRMSD -1
REMARK  0 active torsions:
REMARK  status: ('A' for Active; 'I' for Inactive)
ROOT
ATOM      1  N1  IND d   1       1.045  -0.415  -1.005  0.00  0.00    -0.196 N 
ATOM      2  C2  IND d   1       0.113  -1.092  -1.741  0.00  0.00     0.054 A 
ATOM      3  C3  IND d   1      -0.932  -1.450  -0.961  0.00  0.00    -0.031 A 
ATOM      4  C4  IND d   1      -1.369  -0.939   1.524  0.00  0.00     0.051 A 
ATOM      5  C5  IND d   1      -0.787  -0.381   2.627  0.00  0.00    -0.031 A 
ATOM      6  C6  IND d   1       0.460   0.209   2.574  0.00  0.00     0.015 A 
ATOM      7  C7  IND d   1       1.169   0.272   1.408  0.00  0.00    -0.016 A 
ATOM      8  C8  IND d   1       0.584  -0.300   0.288  0.00  0.00    -0.047 A 
ATOM      9  C9  IND d   1      -0.662  -0.937   0.344  0.00  0.00    -0.096 A 
ATOM     10  HN1 IND d   1       1.794  -0.113  -1.301  0.00  0.00     0.298 HD
ENDROOT
TORSDOF 0
ENDMDL
