MODEL 1
REMARK minimizedAffinity -2.44841671
REMARK minimizedRMSD -1
REMARK  0 active torsions:
REMARK  status: ('A' for Active; 'I' for Inactive)
ROOT
ATOM      1  N1  IND d   1      -0.953  -0.388   2.098  0.00  0.00    -0.196 N 
ATOM      2  C2  IND d   1      -2.172  -0.687   1.555  0.00  0.00     0.054 A 
ATOM      3  C3  IND d   1      -2.180  -0.403   0.233  0.00  0.00    -0.031 A 
ATOM      4  C4  IND d   1      -0.274   0.462  -1.266  0.00  0.00     0.051 A 
ATOM      5  C5  IND d   1       1.014   0.915  -1.217  0.00  0.00    -0.031 A 
ATOM      6  C6  IND d   1       1.728   0.955  -0.037  0.00  0.00     0.015 A 
ATOM      7  C7  IND d   1       1.182   0.530   1.141  0.00  0.00    -0.016 A 
ATOM      8  C8  IND d   1      -0.129   0.077   1.096  0.00  0.00    -0.047 A 
ATOM      9  C9  IND d   1      -0.873   0.074  -0.091  0.00  0.00    -0.096 A 
ATOM     10  HN1 IND d   1      -0.737  -0.477   2.925  0.00  0.00     0.298 HD
ENDROOT
TORSDOF 0
ENDMDL
