MODEL 1
REMARK minimizedAffinity -4.81031322
REMARK minimizedRMSD -1
REMARK  0 active torsions:
REMARK  status: ('A' for Active; 'I' for Inactive)
ROOT
ATOM      1  N1  IND d   1      -0.098   0.722  -1.083  0.00  0.00    -0.196 N 
ATOM      2  C2  IND d   1       1.084   1.402  -0.989  0.00  0.00     0.054 A 
ATOM      3  C3  IND d   1       1.488   1.467   0.300  0.00  0.00    -0.031 A 
ATOM      4  C4  IND d   1       0.416   0.441   2.403  0.00  0.00     0.051 A 
ATOM      5  C5  IND d   1      -0.692  -0.239   2.826  0.00  0.00    -0.031 A 
ATOM      6  C6  IND d   1      -1.677  -0.644   1.948  0.00  0.00     0.015 A 
ATOM      7  C7  IND d   1      -1.585  -0.392   0.609  0.00  0.00    -0.016 A 
ATOM      8  C8  IND d   1      -0.465   0.304   0.177  0.00  0.00    -0.047 A 
ATOM      9  C9  IND d   1       0.518   0.754   1.069  0.00  0.00    -0.096 A 
ATOM     10  HN1 IND d   1      -0.539   0.579  -1.808  0.00  0.00     0.298 HD
ENDROOT
TORSDOF 0
ENDMDL
