MODEL 1
REMARK minimizedAffinity -5.99986506
REMARK minimizedRMSD -1
REMARK  0 active torsions:
REMARK  status: ('A' for Active; 'I' for Inactive)
ROOT
ATOM      1  N1  IND d   1      -0.966   0.144  -0.713  0.00  0.00    -0.196 N 
ATOM      2  C2  IND d   1       0.361   0.425  -0.875  0.00  0.00     0.054 A 
ATOM      3  C3  IND d   1       0.993   0.418   0.320  0.00  0.00    -0.031 A 
ATOM      4  C4  IND d   1       0.064  -0.130   2.658  0.00  0.00     0.051 A 
ATOM      5  C5  IND d   1      -1.101  -0.411   3.315  0.00  0.00    -0.031 A 
ATOM      6  C6  IND d   1      -2.304  -0.527   2.650  0.00  0.00     0.015 A 
ATOM      7  C7  IND d   1      -2.386  -0.377   1.294  0.00  0.00    -0.016 A 
ATOM      8  C8  IND d   1      -1.206  -0.084   0.624  0.00  0.00    -0.047 A 
ATOM      9  C9  IND d   1       0.010   0.077   1.299  0.00  0.00    -0.096 A 
ATOM     10  HN1 IND d   1      -1.553   0.113  -1.341  0.00  0.00     0.298 HD
ENDROOT
TORSDOF 0
ENDMDL
