MODEL 1
REMARK minimizedAffinity -4.10060835
REMARK minimizedRMSD -1
REMARK  0 active torsions:
REMARK  status: ('A' for Active; 'I' for Inactive)
ROOT
ATOM      1  N1  IND d   1      -0.746   0.163  -0.978  0.00  0.00    -0.196 N 
ATOM      2  C2  IND d   1       0.472   0.721  -1.254  0.00  0.00     0.054 A 
ATOM      3  C3  IND d   1       1.233   0.767  -0.138  0.00  0.00    -0.031 A 
ATOM      4  C4  IND d   1       0.720  -0.109   2.228  0.00  0.00     0.051 A 
ATOM      5  C5  IND d   1      -0.279  -0.664   2.978  0.00  0.00    -0.031 A 
ATOM      6  C6  IND d   1      -1.508  -0.981   2.436  0.00  0.00     0.015 A 
ATOM      7  C7  IND d   1      -1.781  -0.764   1.116  0.00  0.00    -0.016 A 
ATOM      8  C8  IND d   1      -0.772  -0.193   0.353  0.00  0.00    -0.047 A 
ATOM      9  C9  IND d   1       0.462   0.169   0.907  0.00  0.00    -0.096 A 
ATOM     10  HN1 IND d   1      -1.387   0.054  -1.540  0.00  0.00     0.298 HD
ENDROOT
TORSDOF 0
ENDMDL
