MODEL 1
REMARK minimizedAffinity -2.81382799
REMARK minimizedRMSD -1
REMARK  0 active torsions:
REMARK  status: ('A' for Active; 'I' for Inactive)
ROOT
ATOM      1  N1  IND d   1      -0.385   0.072  -0.884  0.00  0.00    -0.196 N 
ATOM      2  C2  IND d   1       0.883   0.578  -0.953  0.00  0.00     0.054 A 
ATOM      3  C3  IND d   1       1.417   0.678   0.285  0.00  0.00    -0.031 A 
ATOM      4  C4  IND d   1       0.429  -0.026   2.555  0.00  0.00     0.051 A 
ATOM      5  C5  IND d   1      -0.715  -0.506   3.130  0.00  0.00    -0.031 A 
ATOM      6  C6  IND d   1      -1.829  -0.826   2.381  0.00  0.00     0.015 A 
ATOM      7  C7  IND d   1      -1.836  -0.689   1.021  0.00  0.00    -0.016 A 
ATOM      8  C8  IND d   1      -0.679  -0.196   0.435  0.00  0.00    -0.047 A 
ATOM      9  C9  IND d   1       0.439   0.171   1.194  0.00  0.00    -0.096 A 
ATOM     10  HN1 IND d   1      -0.910  -0.058  -1.552  0.00  0.00     0.298 HD
ENDROOT
TORSDOF 0
ENDMDL
