MODEL 1
REMARK minimizedAffinity -2.46798921
REMARK minimizedRMSD -1
REMARK  0 active torsions:
REMARK  status: ('A' for Active; 'I' for Inactive)
ROOT
ATOM      1  C1  DEN d   1       5.972   1.711   5.246  0.00  0.00     0.130 A 
ATOM      2  C2  DEN d   1       5.987   2.329   3.923  0.00  0.00    -0.031 A 
ATOM      3  C3  DEN d   1       5.989   1.250   2.915  0.00  0.00     0.027 A 
ATOM      4  C4  DEN d   1       5.966  -1.304   3.273  0.00  0.00     0.027 A 
ATOM      5  C5  DEN d   1       5.963  -2.305   4.219  0.00  0.00    -0.003 A 
ATOM      6  C6  DEN d   1       5.997  -2.040   5.563  0.00  0.00     0.001 A 
ATOM      7  C7  DEN d   1       5.989  -0.741   5.999  0.00  0.00     0.017 A 
ATOM      8  C8  DEN d   1       6.000   0.273   5.050  0.00  0.00    -0.094 A 
ATOM      9  C9  DEN d   1       5.953  -0.015   3.697  0.00  0.00    -0.072 A 
ENDROOT
TORSDOF 0
ENDMDL
