MODEL 1
REMARK minimizedAffinity -1.47545779
REMARK minimizedRMSD -1
REMARK  0 active torsions:
REMARK  status: ('A' for Active; 'I' for Inactive)
ROOT
ATOM      1  C1  DEN d   1       6.000   1.165   2.276  0.00  0.00     0.130 A 
ATOM      2  C2  DEN d   1       5.998   2.573   2.666  0.00  0.00    -0.031 A 
ATOM      3  C3  DEN d   1       5.969   2.638   4.140  0.00  0.00     0.027 A 
ATOM      4  C4  DEN d   1       5.932   0.707   5.850  0.00  0.00     0.027 A 
ATOM      5  C5  DEN d   1       5.913  -0.662   5.996  0.00  0.00    -0.003 A 
ATOM      6  C6  DEN d   1       5.887  -1.511   4.921  0.00  0.00     0.001 A 
ATOM      7  C7  DEN d   1       5.925  -0.999   3.651  0.00  0.00     0.017 A 
ATOM      8  C8  DEN d   1       5.938   0.381   3.496  0.00  0.00    -0.094 A 
ATOM      9  C9  DEN d   1       5.976   1.222   4.595  0.00  0.00    -0.072 A 
ENDROOT
TORSDOF 0
ENDMDL
