MODEL 1
REMARK minimizedAffinity 18.708889
REMARK minimizedRMSD -1
REMARK  0 active torsions:
REMARK  status: ('A' for Active; 'I' for Inactive)
ROOT
ATOM      1  C1  DEN d   1      -1.753   2.682   4.014  0.00  0.00     0.130 A 
ATOM      2  C2  DEN d   1      -2.432   1.390   3.986  0.00  0.00    -0.031 A 
ATOM      3  C3  DEN d   1      -2.441   0.909   2.590  0.00  0.00     0.027 A 
ATOM      4  C4  DEN d   1      -1.471   2.034   0.480  0.00  0.00     0.027 A 
ATOM      5  C5  DEN d   1      -0.813   3.145   0.003  0.00  0.00    -0.003 A 
ATOM      6  C6  DEN d   1      -0.454   4.187   0.817  0.00  0.00     0.001 A 
ATOM      7  C7  DEN d   1      -0.712   4.119   2.160  0.00  0.00     0.017 A 
ATOM      8  C8  DEN d   1      -1.383   3.005   2.648  0.00  0.00    -0.094 A 
ATOM      9  C9  DEN d   1      -1.726   1.956   1.811  0.00  0.00    -0.072 A 
ENDROOT
TORSDOF 0
ENDMDL
