MODEL 1
REMARK minimizedAffinity 2.28813267
REMARK minimizedRMSD -1
REMARK  0 active torsions:
REMARK  status: ('A' for Active; 'I' for Inactive)
ROOT
ATOM      1  C1  DEN d   1       5.336   2.135   4.492  0.00  0.00     0.130 A 
ATOM      2  C2  DEN d   1       4.704   2.261   3.181  0.00  0.00    -0.031 A 
ATOM      3  C3  DEN d   1       4.423   0.902   2.677  0.00  0.00     0.027 A 
ATOM      4  C4  DEN d   1       4.896  -1.374   3.795  0.00  0.00     0.027 A 
ATOM      5  C5  DEN d   1       5.430  -1.989   4.905  0.00  0.00    -0.003 A 
ATOM      6  C6  DEN d   1       5.995  -1.281   5.932  0.00  0.00     0.001 A 
ATOM      7  C7  DEN d   1       6.000   0.088   5.890  0.00  0.00     0.017 A 
ATOM      8  C8  DEN d   1       5.471   0.716   4.770  0.00  0.00    -0.094 A 
ATOM      9  C9  DEN d   1       4.892  -0.017   3.748  0.00  0.00    -0.072 A 
ENDROOT
TORSDOF 0
ENDMDL
