MODEL 1
REMARK minimizedAffinity -1.94786942
REMARK minimizedRMSD -1
REMARK  0 active torsions:
REMARK  status: ('A' for Active; 'I' for Inactive)
ROOT
ATOM      1  C1  DEN d   1       5.977   2.843   5.254  0.00  0.00     0.130 A 
ATOM      2  C2  DEN d   1       5.619   3.478   3.989  0.00  0.00    -0.031 A 
ATOM      3  C3  DEN d   1       5.186   2.420   3.053  0.00  0.00     0.027 A 
ATOM      4  C4  DEN d   1       5.032  -0.125   3.442  0.00  0.00     0.027 A 
ATOM      5  C5  DEN d   1       5.240  -1.136   4.353  0.00  0.00    -0.003 A 
ATOM      6  C6  DEN d   1       5.737  -0.898   5.607  0.00  0.00     0.001 A 
ATOM      7  C7  DEN d   1       6.000   0.388   6.000  0.00  0.00     0.017 A 
ATOM      8  C8  DEN d   1       5.799   1.412   5.084  0.00  0.00    -0.094 A 
ATOM      9  C9  DEN d   1       5.285   1.152   3.825  0.00  0.00    -0.072 A 
ENDROOT
TORSDOF 0
ENDMDL
