MODEL 1
REMARK minimizedAffinity -0.921883762
REMARK minimizedRMSD -1
REMARK  0 active torsions:
REMARK  status: ('A' for Active; 'I' for Inactive)
ROOT
ATOM      1  C1  DEN d   1       5.815   0.445   2.600  0.00  0.00     0.130 A 
ATOM      2  C2  DEN d   1       5.627  -0.673   3.519  0.00  0.00    -0.031 A 
ATOM      3  C3  DEN d   1       5.514  -0.127   4.886  0.00  0.00     0.027 A 
ATOM      4  C4  DEN d   1       5.605   2.331   5.664  0.00  0.00     0.027 A 
ATOM      5  C5  DEN d   1       5.760   3.635   5.248  0.00  0.00    -0.003 A 
ATOM      6  C6  DEN d   1       5.977   3.962   3.936  0.00  0.00     0.001 A 
ATOM      7  C7  DEN d   1       6.000   2.975   2.985  0.00  0.00     0.017 A 
ATOM      8  C8  DEN d   1       5.851   1.658   3.398  0.00  0.00    -0.094 A 
ATOM      9  C9  DEN d   1       5.620   1.349   4.728  0.00  0.00    -0.072 A 
ENDROOT
TORSDOF 0
ENDMDL
