MODEL 1
REMARK minimizedAffinity -1.67940855
REMARK minimizedRMSD -1
REMARK  0 active torsions:
REMARK  status: ('A' for Active; 'I' for Inactive)
ROOT
ATOM      1  C1  DEN d   1       5.990   4.287   3.529  0.00  0.00     0.130 A 
ATOM      2  C2  DEN d   1       5.952   5.126   4.723  0.00  0.00    -0.031 A 
ATOM      3  C3  DEN d   1       5.937   4.239   5.904  0.00  0.00     0.027 A 
ATOM      4  C4  DEN d   1       5.975   1.662   5.998  0.00  0.00     0.027 A 
ATOM      5  C5  DEN d   1       5.997   0.511   5.241  0.00  0.00    -0.003 A 
ATOM      6  C6  DEN d   1       5.985   0.538   3.871  0.00  0.00     0.001 A 
ATOM      7  C7  DEN d   1       5.994   1.740   3.216  0.00  0.00     0.017 A 
ATOM      8  C8  DEN d   1       5.964   2.905   3.972  0.00  0.00    -0.094 A 
ATOM      9  C9  DEN d   1       5.990   2.857   5.355  0.00  0.00    -0.072 A 
ENDROOT
TORSDOF 0
ENDMDL
