MODEL 1
REMARK minimizedAffinity 14.3841982
REMARK minimizedRMSD -1
REMARK  0 active torsions:
REMARK  status: ('A' for Active; 'I' for Inactive)
ROOT
ATOM      1  C1  DEN d   1       4.998   1.166  -3.956  0.00  0.00     0.130 A 
ATOM      2  C2  DEN d   1       5.918   2.180  -3.449  0.00  0.00    -0.031 A 
ATOM      3  C3  DEN d   1       5.415   3.504  -3.869  0.00  0.00     0.027 A 
ATOM      4  C4  DEN d   1       3.310   4.078  -5.244  0.00  0.00     0.027 A 
ATOM      5  C5  DEN d   1       2.223   3.550  -5.906  0.00  0.00    -0.003 A 
ATOM      6  C6  DEN d   1       2.006   2.201  -5.994  0.00  0.00     0.001 A 
ATOM      7  C7  DEN d   1       2.864   1.333  -5.370  0.00  0.00     0.017 A 
ATOM      8  C8  DEN d   1       3.965   1.857  -4.706  0.00  0.00    -0.094 A 
ATOM      9  C9  DEN d   1       4.161   3.225  -4.619  0.00  0.00    -0.072 A 
ENDROOT
TORSDOF 0
ENDMDL
