MODEL 1
REMARK minimizedAffinity -3.49076676
REMARK minimizedRMSD -1
REMARK  0 active torsions:
REMARK  status: ('A' for Active; 'I' for Inactive)
ROOT
ATOM      1  C1  DEN d   1       6.000   2.487   5.604  0.00  0.00     0.130 A 
ATOM      2  C2  DEN d   1       5.883   3.426   4.491  0.00  0.00    -0.031 A 
ATOM      3  C3  DEN d   1       5.717   2.645   3.250  0.00  0.00     0.027 A 
ATOM      4  C4  DEN d   1       5.625   0.085   2.943  0.00  0.00     0.027 A 
ATOM      5  C5  DEN d   1       5.691  -1.126   3.595  0.00  0.00    -0.003 A 
ATOM      6  C6  DEN d   1       5.897  -1.218   4.946  0.00  0.00     0.001 A 
ATOM      7  C7  DEN d   1       5.999  -0.077   5.696  0.00  0.00     0.017 A 
ATOM      8  C8  DEN d   1       5.941   1.149   5.045  0.00  0.00    -0.094 A 
ATOM      9  C9  DEN d   1       5.720   1.221   3.681  0.00  0.00    -0.072 A 
ENDROOT
TORSDOF 0
ENDMDL
