MODEL 1
REMARK minimizedAffinity 6.74692726
REMARK minimizedRMSD -1
REMARK  0 active torsions:
REMARK  status: ('A' for Active; 'I' for Inactive)
ROOT
ATOM      1  C1  DEN d   1       5.696   2.609   2.304  0.00  0.00     0.130 A 
ATOM      2  C2  DEN d   1       5.917   3.558   3.391  0.00  0.00    -0.031 A 
ATOM      3  C3  DEN d   1       5.996   2.797   4.653  0.00  0.00     0.027 A 
ATOM      4  C4  DEN d   1       5.804   0.252   5.028  0.00  0.00     0.027 A 
ATOM      5  C5  DEN d   1       5.603  -0.962   4.408  0.00  0.00    -0.003 A 
ATOM      6  C6  DEN d   1       5.387  -1.066   3.060  0.00  0.00     0.001 A 
ATOM      7  C7  DEN d   1       5.412   0.059   2.279  0.00  0.00     0.017 A 
ATOM      8  C8  DEN d   1       5.606   1.287   2.897  0.00  0.00    -0.094 A 
ATOM      9  C9  DEN d   1       5.835   1.371   4.260  0.00  0.00    -0.072 A 
ENDROOT
TORSDOF 0
ENDMDL
