MODEL 1
REMARK minimizedAffinity -1.42033219
REMARK minimizedRMSD -1
REMARK  0 active torsions:
REMARK  status: ('A' for Active; 'I' for Inactive)
ROOT
ATOM      1  C1  DEN d   1       5.962   2.324   4.503  0.00  0.00     0.130 A 
ATOM      2  C2  DEN d   1       5.985   2.505   3.054  0.00  0.00    -0.031 A 
ATOM      3  C3  DEN d   1       5.999   1.168   2.427  0.00  0.00     0.027 A 
ATOM      4  C4  DEN d   1       5.984  -1.152   3.552  0.00  0.00     0.027 A 
ATOM      5  C5  DEN d   1       5.978  -1.814   4.760  0.00  0.00    -0.003 A 
ATOM      6  C6  DEN d   1       6.000  -1.149   5.957  0.00  0.00     0.001 A 
ATOM      7  C7  DEN d   1       5.984   0.221   5.973  0.00  0.00     0.017 A 
ATOM      8  C8  DEN d   1       5.998   0.895   4.759  0.00  0.00    -0.094 A 
ATOM      9  C9  DEN d   1       5.963   0.204   3.559  0.00  0.00    -0.072 A 
ENDROOT
TORSDOF 0
ENDMDL
