MODEL 1
REMARK minimizedAffinity 5.63157558
REMARK minimizedRMSD -1
REMARK  0 active torsions:
REMARK  status: ('A' for Active; 'I' for Inactive)
ROOT
ATOM      1  C1  DEN d   1       6.000   6.000   2.751  0.00  0.00     0.130 A 
ATOM      2  C2  DEN d   1       5.402   5.292   3.879  0.00  0.00    -0.031 A 
ATOM      3  C3  DEN d   1       4.319   4.434   3.357  0.00  0.00     0.027 A 
ATOM      4  C4  DEN d   1       3.517   4.132   0.925  0.00  0.00     0.027 A 
ATOM      5  C5  DEN d   1       3.711   4.532  -0.379  0.00  0.00    -0.003 A 
ATOM      6  C6  DEN d   1       4.651   5.467  -0.724  0.00  0.00     0.001 A 
ATOM      7  C7  DEN d   1       5.464   6.000   0.241  0.00  0.00     0.017 A 
ATOM      8  C8  DEN d   1       5.269   5.607   1.559  0.00  0.00    -0.094 A 
ATOM      9  C9  DEN d   1       4.322   4.652   1.886  0.00  0.00    -0.072 A 
ENDROOT
TORSDOF 0
ENDMDL
