MODEL 1
REMARK minimizedAffinity -4.38426161
REMARK minimizedRMSD -1
REMARK  0 active torsions:
REMARK  status: ('A' for Active; 'I' for Inactive)
ROOT
ATOM      1  C1  DEN d   1       5.829   3.834   4.923  0.00  0.00     0.130 A 
ATOM      2  C2  DEN d   1       5.973   4.265   3.535  0.00  0.00    -0.031 A 
ATOM      3  C3  DEN d   1       5.999   3.059   2.683  0.00  0.00     0.027 A 
ATOM      4  C4  DEN d   1       5.828   0.580   3.375  0.00  0.00     0.027 A 
ATOM      5  C5  DEN d   1       5.707  -0.282   4.442  0.00  0.00    -0.003 A 
ATOM      6  C6  DEN d   1       5.652   0.162   5.737  0.00  0.00     0.001 A 
ATOM      7  C7  DEN d   1       5.674   1.507   5.994  0.00  0.00     0.017 A 
ATOM      8  C8  DEN d   1       5.804   2.382   4.923  0.00  0.00    -0.094 A 
ATOM      9  C9  DEN d   1       5.845   1.914   3.621  0.00  0.00    -0.072 A 
ENDROOT
TORSDOF 0
ENDMDL
