MODEL 1
REMARK minimizedAffinity -3.62234449
REMARK minimizedRMSD -1
REMARK  0 active torsions:
REMARK  status: ('A' for Active; 'I' for Inactive)
ROOT
ATOM      1  C1  DEN d   1       6.000   2.569   3.247  0.00  0.00     0.130 A 
ATOM      2  C2  DEN d   1       6.000   3.377   4.463  0.00  0.00    -0.031 A 
ATOM      3  C3  DEN d   1       5.975   2.461   5.621  0.00  0.00     0.027 A 
ATOM      4  C4  DEN d   1       5.941  -0.118   5.648  0.00  0.00     0.027 A 
ATOM      5  C5  DEN d   1       5.922  -1.249   4.862  0.00  0.00    -0.003 A 
ATOM      6  C6  DEN d   1       5.892  -1.187   3.494  0.00  0.00     0.001 A 
ATOM      7  C7  DEN d   1       5.928   0.032   2.869  0.00  0.00     0.017 A 
ATOM      8  C8  DEN d   1       5.940   1.177   3.655  0.00  0.00    -0.094 A 
ATOM      9  C9  DEN d   1       5.982   1.093   5.037  0.00  0.00    -0.072 A 
ENDROOT
TORSDOF 0
ENDMDL
