MODEL 1
REMARK minimizedAffinity -0.611205041
REMARK minimizedRMSD -1
REMARK  0 active torsions:
REMARK  status: ('A' for Active; 'I' for Inactive)
ROOT
ATOM      1  C1  DEN d   1       5.999   0.531   5.985  0.00  0.00     0.130 A 
ATOM      2  C2  DEN d   1       5.966  -0.597   5.058  0.00  0.00    -0.031 A 
ATOM      3  C3  DEN d   1       5.947  -0.058   3.683  0.00  0.00     0.027 A 
ATOM      4  C4  DEN d   1       5.972   2.401   2.904  0.00  0.00     0.027 A 
ATOM      5  C5  DEN d   1       5.988   3.712   3.326  0.00  0.00    -0.003 A 
ATOM      6  C6  DEN d   1       5.974   4.052   4.653  0.00  0.00     0.001 A 
ATOM      7  C7  DEN d   1       5.990   3.068   5.606  0.00  0.00     0.017 A 
ATOM      8  C8  DEN d   1       5.966   1.744   5.188  0.00  0.00    -0.094 A 
ATOM      9  C9  DEN d   1       5.993   1.420   3.842  0.00  0.00    -0.072 A 
ENDROOT
TORSDOF 0
ENDMDL
