MODEL 1
REMARK minimizedAffinity -0.9409343
REMARK minimizedRMSD -1
REMARK  0 active torsions:
REMARK  status: ('A' for Active; 'I' for Inactive)
ROOT
ATOM      1  C1  DEN d   1       5.966   0.323   2.913  0.00  0.00     0.130 A 
ATOM      2  C2  DEN d   1       5.987  -0.694   3.961  0.00  0.00    -0.031 A 
ATOM      3  C3  DEN d   1       5.999  -0.004   5.267  0.00  0.00     0.027 A 
ATOM      4  C4  DEN d   1       5.981   2.527   5.765  0.00  0.00     0.027 A 
ATOM      5  C5  DEN d   1       5.975   3.782   5.198  0.00  0.00    -0.003 A 
ATOM      6  C6  DEN d   1       5.999   3.971   3.842  0.00  0.00     0.001 A 
ATOM      7  C7  DEN d   1       5.985   2.887   3.005  0.00  0.00     0.017 A 
ATOM      8  C8  DEN d   1       5.999   1.618   3.569  0.00  0.00    -0.094 A 
ATOM      9  C9  DEN d   1       5.962   1.447   4.942  0.00  0.00    -0.072 A 
ENDROOT
TORSDOF 0
ENDMDL
