MODEL 1
REMARK minimizedAffinity -0.416706622
REMARK minimizedRMSD -1
REMARK  0 active torsions:
REMARK  status: ('A' for Active; 'I' for Inactive)
ROOT
ATOM      1  C1  DEN d   1       5.344   3.577   3.321  0.00  0.00     0.130 A 
ATOM      2  C2  DEN d   1       5.684   4.519   4.384  0.00  0.00    -0.031 A 
ATOM      3  C3  DEN d   1       5.999   3.741   5.599  0.00  0.00     0.027 A 
ATOM      4  C4  DEN d   1       6.000   1.184   5.934  0.00  0.00     0.027 A 
ATOM      5  C5  DEN d   1       5.767  -0.028   5.323  0.00  0.00    -0.003 A 
ATOM      6  C6  DEN d   1       5.348  -0.122   4.022  0.00  0.00     0.001 A 
ATOM      7  C7  DEN d   1       5.192   1.016   3.276  0.00  0.00     0.017 A 
ATOM      8  C8  DEN d   1       5.417   2.243   3.887  0.00  0.00    -0.094 A 
ATOM      9  C9  DEN d   1       5.852   2.316   5.200  0.00  0.00    -0.072 A 
ENDROOT
TORSDOF 0
ENDMDL
