MODEL 1
REMARK minimizedAffinity -0.527392924
REMARK minimizedRMSD -1
REMARK  0 active torsions:
REMARK  status: ('A' for Active; 'I' for Inactive)
ROOT
ATOM      1  C   UNL d   1      -0.871  -0.354   1.078  0.00  0.00     0.124 A 
ATOM      2  C1  UNL d   1      -1.464   0.002  -0.126  0.00  0.00     0.062 A 
ATOM      3  C2  UNL d   1      -0.755  -0.121  -1.318  0.00  0.00     0.162 A 
ATOM      4  C3  UNL d   1       0.554  -0.602  -1.312  0.00  0.00    -0.034 A 
ATOM      5  C4  UNL d   1       1.143  -0.957  -0.098  0.00  0.00     0.162 A 
ATOM      6  C5  UNL d   1       0.431  -0.832   1.091  0.00  0.00     0.062 A 
ATOM      7  F   UNL d   1       1.006  -1.176   2.253  0.00  0.00    -0.097 F 
ATOM      8  F1  UNL d   1       2.400  -1.423  -0.056  0.00  0.00    -0.096 F 
ATOM      9  I   UNL d   1       1.616  -0.787  -3.092  0.00  0.00    -0.060 I 
ATOM     10  F2  UNL d   1      -1.353   0.230  -2.466  0.00  0.00    -0.096 F 
ATOM     11  F3  UNL d   1      -2.722   0.466  -0.141  0.00  0.00    -0.097 F 
ATOM     12  F4  UNL d   1      -1.554  -0.234   2.223  0.00  0.00    -0.092 F 
ENDROOT
TORSDOF 0
ENDMDL
