MODEL 1
REMARK minimizedAffinity -1.69040191
REMARK minimizedRMSD -1
REMARK  0 active torsions:
REMARK  status: ('A' for Active; 'I' for Inactive)
ROOT
ATOM      1  C   UNL d   1       0.363   0.250   1.626  0.00  0.00     0.124 A 
ATOM      2  C1  UNL d   1       1.226   0.789   0.681  0.00  0.00     0.062 A 
ATOM      3  C2  UNL d   1       1.193   0.337  -0.635  0.00  0.00     0.162 A 
ATOM      4  C3  UNL d   1       0.294  -0.660  -1.015  0.00  0.00    -0.034 A 
ATOM      5  C4  UNL d   1      -0.570  -1.197  -0.059  0.00  0.00     0.162 A 
ATOM      6  C5  UNL d   1      -0.534  -0.742   1.255  0.00  0.00     0.062 A 
ATOM      7  F   UNL d   1      -1.368  -1.264   2.166  0.00  0.00    -0.097 F 
ATOM      8  F1  UNL d   1      -1.447  -2.157  -0.390  0.00  0.00    -0.096 F 
ATOM      9  I   UNL d   1       0.242  -1.338  -2.982  0.00  0.00    -0.060 I 
ATOM     10  F2  UNL d   1       2.038   0.875  -1.527  0.00  0.00    -0.096 F 
ATOM     11  F3  UNL d   1       2.093   1.747   1.037  0.00  0.00    -0.097 F 
ATOM     12  F4  UNL d   1       0.397   0.686   2.892  0.00  0.00    -0.092 F 
ENDROOT
TORSDOF 0
ENDMDL
