MODEL 1
REMARK minimizedAffinity -1.14878178
REMARK minimizedRMSD -1
REMARK  0 active torsions:
REMARK  status: ('A' for Active; 'I' for Inactive)
ROOT
ATOM      1  C   UNL d   1      -1.441  -0.705   1.708  0.00  0.00     0.124 A 
ATOM      2  C1  UNL d   1      -1.938   0.005   0.624  0.00  0.00     0.062 A 
ATOM      3  C2  UNL d   1      -1.211   0.072  -0.561  0.00  0.00     0.162 A 
ATOM      4  C3  UNL d   1       0.020  -0.574  -0.669  0.00  0.00    -0.034 A 
ATOM      5  C4  UNL d   1       0.514  -1.286   0.426  0.00  0.00     0.162 A 
ATOM      6  C5  UNL d   1      -0.216  -1.350   1.608  0.00  0.00     0.062 A 
ATOM      7  F   UNL d   1       0.266  -2.036   2.655  0.00  0.00    -0.097 F 
ATOM      8  F1  UNL d   1       1.695  -1.918   0.356  0.00  0.00    -0.096 F 
ATOM      9  I   UNL d   1       1.110  -0.476  -2.440  0.00  0.00    -0.060 I 
ATOM     10  F2  UNL d   1      -1.716   0.765  -1.593  0.00  0.00    -0.096 F 
ATOM     11  F3  UNL d   1      -3.121   0.629   0.719  0.00  0.00    -0.097 F 
ATOM     12  F4  UNL d   1      -2.142  -0.768   2.848  0.00  0.00    -0.092 F 
ENDROOT
TORSDOF 0
ENDMDL
