MODEL 1
REMARK minimizedAffinity -1.57097924
REMARK minimizedRMSD -1
REMARK  0 active torsions:
REMARK  status: ('A' for Active; 'I' for Inactive)
ROOT
ATOM      1  C   UNL d   1      -1.361  -0.113   2.781  0.00  0.00     0.124 A 
ATOM      2  C1  UNL d   1      -2.185   0.130   1.690  0.00  0.00     0.062 A 
ATOM      3  C2  UNL d   1      -1.654   0.160   0.404  0.00  0.00     0.162 A 
ATOM      4  C3  UNL d   1      -0.290  -0.055   0.201  0.00  0.00    -0.034 A 
ATOM      5  C4  UNL d   1       0.532  -0.298   1.302  0.00  0.00     0.162 A 
ATOM      6  C5  UNL d   1      -0.004  -0.327   2.586  0.00  0.00     0.062 A 
ATOM      7  F   UNL d   1       0.794  -0.562   3.638  0.00  0.00    -0.097 F 
ATOM      8  F1  UNL d   1       1.847  -0.509   1.143  0.00  0.00    -0.096 F 
ATOM      9  I   UNL d   1       0.508  -0.011  -1.721  0.00  0.00    -0.060 I 
ATOM     10  F2  UNL d   1      -2.473   0.398  -0.631  0.00  0.00    -0.096 F 
ATOM     11  F3  UNL d   1      -3.496   0.338   1.876  0.00  0.00    -0.097 F 
ATOM     12  F4  UNL d   1      -1.875  -0.140   4.017  0.00  0.00    -0.092 F 
ENDROOT
TORSDOF 0
ENDMDL
