MODEL 1
REMARK minimizedAffinity -0.240552858
REMARK minimizedRMSD -1
REMARK  0 active torsions:
REMARK  status: ('A' for Active; 'I' for Inactive)
ROOT
ATOM      1  C   UNL d   1      -2.821   0.240   1.785  0.00  0.00     0.124 A 
ATOM      2  C1  UNL d   1      -2.426   0.554   0.492  0.00  0.00     0.062 A 
ATOM      3  C2  UNL d   1      -1.076   0.552   0.152  0.00  0.00     0.162 A 
ATOM      4  C3  UNL d   1      -0.111   0.233   1.106  0.00  0.00    -0.034 A 
ATOM      5  C4  UNL d   1      -0.515  -0.081   2.405  0.00  0.00     0.162 A 
ATOM      6  C5  UNL d   1      -1.865  -0.077   2.740  0.00  0.00     0.062 A 
ATOM      7  F   UNL d   1      -2.245  -0.380   3.990  0.00  0.00    -0.097 F 
ATOM      8  F1  UNL d   1       0.387  -0.392   3.348  0.00  0.00    -0.096 F 
ATOM      9  I   UNL d   1       1.909   0.228   0.602  0.00  0.00    -0.060 I 
ATOM     10  F2  UNL d   1      -0.723   0.859  -1.106  0.00  0.00    -0.096 F 
ATOM     11  F3  UNL d   1      -3.347   0.862  -0.433  0.00  0.00    -0.097 F 
ATOM     12  F4  UNL d   1      -4.120   0.244   2.109  0.00  0.00    -0.092 F 
ENDROOT
TORSDOF 0
ENDMDL
