MODEL 1
REMARK minimizedAffinity -0.599493563
REMARK minimizedRMSD -1
REMARK  0 active torsions:
REMARK  status: ('A' for Active; 'I' for Inactive)
ROOT
ATOM      1  C   UNL d   1       0.559   0.783  -1.018  0.00  0.00     0.124 A 
ATOM      2  C1  UNL d   1      -0.748   0.366  -0.813  0.00  0.00     0.062 A 
ATOM      3  C2  UNL d   1      -1.124  -0.180   0.411  0.00  0.00     0.162 A 
ATOM      4  C3  UNL d   1      -0.192  -0.310   1.440  0.00  0.00    -0.034 A 
ATOM      5  C4  UNL d   1       1.122   0.111   1.225  0.00  0.00     0.162 A 
ATOM      6  C5  UNL d   1       1.493   0.655   0.000  0.00  0.00     0.062 A 
ATOM      7  F   UNL d   1       2.757   1.058  -0.197  0.00  0.00    -0.097 F 
ATOM      8  F1  UNL d   1       2.044  -0.000   2.193  0.00  0.00    -0.096 F 
ATOM      9  I   UNL d   1      -0.750  -1.125   3.272  0.00  0.00    -0.060 I 
ATOM     10  F2  UNL d   1      -2.395  -0.574   0.583  0.00  0.00    -0.096 F 
ATOM     11  F3  UNL d   1      -1.652   0.487  -1.796  0.00  0.00    -0.097 F 
ATOM     12  F4  UNL d   1       0.919   1.307  -2.198  0.00  0.00    -0.092 F 
ENDROOT
TORSDOF 0
ENDMDL
