MODEL 1
REMARK minimizedAffinity -2.2624197
REMARK minimizedRMSD -1
REMARK  0 active torsions:
REMARK  status: ('A' for Active; 'I' for Inactive)
ROOT
ATOM      1  C   UNL d   1      -1.300   0.182   2.331  0.00  0.00     0.124 A 
ATOM      2  C1  UNL d   1      -2.028   0.332   1.159  0.00  0.00     0.062 A 
ATOM      3  C2  UNL d   1      -1.404   0.184  -0.076  0.00  0.00     0.162 A 
ATOM      4  C3  UNL d   1      -0.043  -0.117  -0.146  0.00  0.00    -0.034 A 
ATOM      5  C4  UNL d   1       0.682  -0.265   1.037  0.00  0.00     0.162 A 
ATOM      6  C5  UNL d   1       0.054  -0.116   2.269  0.00  0.00     0.062 A 
ATOM      7  F   UNL d   1       0.759  -0.260   3.401  0.00  0.00    -0.097 F 
ATOM      8  F1  UNL d   1       1.992  -0.554   1.007  0.00  0.00    -0.096 F 
ATOM      9  I   UNL d   1       0.893  -0.339  -1.991  0.00  0.00    -0.060 I 
ATOM     10  F2  UNL d   1      -2.132   0.334  -1.193  0.00  0.00    -0.096 F 
ATOM     11  F3  UNL d   1      -3.336   0.621   1.216  0.00  0.00    -0.097 F 
ATOM     12  F4  UNL d   1      -1.902   0.326   3.519  0.00  0.00    -0.092 F 
ENDROOT
TORSDOF 0
ENDMDL
