MODEL 1
REMARK minimizedAffinity -0.284597605
REMARK minimizedRMSD -1
REMARK  0 active torsions:
REMARK  status: ('A' for Active; 'I' for Inactive)
ROOT
ATOM      1  C   UNL d   1       0.339  -0.009   1.940  0.00  0.00     0.124 A 
ATOM      2  C1  UNL d   1       0.942   0.481   0.790  0.00  0.00     0.062 A 
ATOM      3  C2  UNL d   1       0.526   0.037  -0.462  0.00  0.00     0.162 A 
ATOM      4  C3  UNL d   1      -0.500  -0.901  -0.571  0.00  0.00    -0.034 A 
ATOM      5  C4  UNL d   1      -1.101  -1.390   0.590  0.00  0.00     0.162 A 
ATOM      6  C5  UNL d   1      -0.682  -0.943   1.839  0.00  0.00     0.062 A 
ATOM      7  F   UNL d   1      -1.266  -1.418   2.949  0.00  0.00    -0.097 F 
ATOM      8  F1  UNL d   1      -2.091  -2.293   0.522  0.00  0.00    -0.096 F 
ATOM      9  I   UNL d   1      -1.125  -1.567  -2.441  0.00  0.00    -0.060 I 
ATOM     10  F2  UNL d   1       1.127   0.528  -1.557  0.00  0.00    -0.096 F 
ATOM     11  F3  UNL d   1       1.929   1.383   0.884  0.00  0.00    -0.097 F 
ATOM     12  F4  UNL d   1       0.742   0.419   3.143  0.00  0.00    -0.092 F 
ENDROOT
TORSDOF 0
ENDMDL
