MODEL 1
REMARK minimizedAffinity -2.02834773
REMARK minimizedRMSD -1
REMARK  0 active torsions:
REMARK  status: ('A' for Active; 'I' for Inactive)
ROOT
ATOM      1  C   UNL d   1       0.341   0.892  -0.558  0.00  0.00     0.124 A 
ATOM      2  C1  UNL d   1      -0.992   0.506  -0.582  0.00  0.00     0.062 A 
ATOM      3  C2  UNL d   1      -1.616   0.073   0.584  0.00  0.00     0.162 A 
ATOM      4  C3  UNL d   1      -0.908   0.024   1.785  0.00  0.00    -0.034 A 
ATOM      5  C4  UNL d   1       0.432   0.412   1.801  0.00  0.00     0.162 A 
ATOM      6  C5  UNL d   1       1.052   0.845   0.633  0.00  0.00     0.062 A 
ATOM      7  F   UNL d   1       2.340   1.217   0.658  0.00  0.00    -0.097 F 
ATOM      8  F1  UNL d   1       1.142   0.378   2.938  0.00  0.00    -0.096 F 
ATOM      9  I   UNL d   1      -1.838  -0.624   3.530  0.00  0.00    -0.060 I 
ATOM     10  F2  UNL d   1      -2.905  -0.294   0.531  0.00  0.00    -0.096 F 
ATOM     11  F3  UNL d   1      -1.681   0.550  -1.732  0.00  0.00    -0.097 F 
ATOM     12  F4  UNL d   1       0.940   1.308  -1.682  0.00  0.00    -0.092 F 
ENDROOT
TORSDOF 0
ENDMDL
