MODEL 1
REMARK minimizedAffinity -3.05380368
REMARK minimizedRMSD -1
REMARK  0 active torsions:
REMARK  status: ('A' for Active; 'I' for Inactive)
ROOT
ATOM      1  C   UNL d   1      -2.064  -0.150   2.028  0.00  0.00     0.124 A 
ATOM      2  C1  UNL d   1      -2.594   0.421   0.879  0.00  0.00     0.062 A 
ATOM      3  C2  UNL d   1      -1.779   0.660  -0.224  0.00  0.00     0.162 A 
ATOM      4  C3  UNL d   1      -0.425   0.326  -0.184  0.00  0.00    -0.034 A 
ATOM      5  C4  UNL d   1       0.101  -0.247   0.976  0.00  0.00     0.162 A 
ATOM      6  C5  UNL d   1      -0.718  -0.483   2.075  0.00  0.00     0.062 A 
ATOM      7  F   UNL d   1      -0.204  -1.035   3.184  0.00  0.00    -0.097 F 
ATOM      8  F1  UNL d   1       1.398  -0.580   1.048  0.00  0.00    -0.096 F 
ATOM      9  I   UNL d   1       0.797   0.681  -1.831  0.00  0.00    -0.060 I 
ATOM     10  F2  UNL d   1      -2.318   1.213  -1.320  0.00  0.00    -0.096 F 
ATOM     11  F3  UNL d   1      -3.894   0.745   0.832  0.00  0.00    -0.097 F 
ATOM     12  F4  UNL d   1      -2.850  -0.377   3.088  0.00  0.00    -0.092 F 
ENDROOT
TORSDOF 0
ENDMDL
