MODEL 1
REMARK minimizedAffinity -0.870653689
REMARK minimizedRMSD -1
REMARK  0 active torsions:
REMARK  status: ('A' for Active; 'I' for Inactive)
ROOT
ATOM      1  C   UNL d   1      -1.060   0.406   1.871  0.00  0.00     0.124 A 
ATOM      2  C1  UNL d   1      -1.880   0.541   0.759  0.00  0.00     0.062 A 
ATOM      3  C2  UNL d   1      -1.382   0.274  -0.514  0.00  0.00     0.162 A 
ATOM      4  C3  UNL d   1      -0.058  -0.132  -0.681  0.00  0.00    -0.034 A 
ATOM      5  C4  UNL d   1       0.760  -0.265   0.442  0.00  0.00     0.162 A 
ATOM      6  C5  UNL d   1       0.258   0.003   1.712  0.00  0.00     0.062 A 
ATOM      7  F   UNL d   1       1.051  -0.128   2.785  0.00  0.00    -0.097 F 
ATOM      8  F1  UNL d   1       2.038  -0.654   0.317  0.00  0.00    -0.096 F 
ATOM      9  I   UNL d   1       0.689  -0.532  -2.582  0.00  0.00    -0.060 I 
ATOM     10  F2  UNL d   1      -2.197   0.413  -1.570  0.00  0.00    -0.096 F 
ATOM     11  F3  UNL d   1      -3.153   0.931   0.910  0.00  0.00    -0.097 F 
ATOM     12  F4  UNL d   1      -1.541   0.664   3.094  0.00  0.00    -0.092 F 
ENDROOT
TORSDOF 0
ENDMDL
