MODEL 1
REMARK minimizedAffinity -0.558223605
REMARK minimizedRMSD -1
REMARK  0 active torsions:
REMARK  status: ('A' for Active; 'I' for Inactive)
ROOT
ATOM      1  C   UNL d   1      -0.729   0.399   1.916  0.00  0.00     0.124 A 
ATOM      2  C1  UNL d   1       0.639   0.168   1.964  0.00  0.00     0.062 A 
ATOM      3  C2  UNL d   1       1.338  -0.140   0.800  0.00  0.00     0.162 A 
ATOM      4  C3  UNL d   1       0.671  -0.216  -0.422  0.00  0.00    -0.034 A 
ATOM      5  C4  UNL d   1      -0.705   0.016  -0.462  0.00  0.00     0.162 A 
ATOM      6  C5  UNL d   1      -1.399   0.323   0.703  0.00  0.00     0.062 A 
ATOM      7  F   UNL d   1      -2.721   0.546   0.655  0.00  0.00    -0.097 F 
ATOM      8  F1  UNL d   1      -1.378  -0.049  -1.621  0.00  0.00    -0.096 F 
ATOM      9  I   UNL d   1       1.713  -0.676  -2.164  0.00  0.00    -0.060 I 
ATOM     10  F2  UNL d   1       2.659  -0.358   0.877  0.00  0.00    -0.096 F 
ATOM     11  F3  UNL d   1       1.289   0.239   3.135  0.00  0.00    -0.097 F 
ATOM     12  F4  UNL d   1      -1.400   0.693   3.037  0.00  0.00    -0.092 F 
ENDROOT
TORSDOF 0
ENDMDL
