MODEL 1
REMARK minimizedAffinity -4.08065081
REMARK minimizedRMSD -1
REMARK  0 active torsions:
REMARK  status: ('A' for Active; 'I' for Inactive)
ROOT
ATOM      1  C   UNL d   1       0.439   0.075  -2.251  0.00  0.00     0.124 A 
ATOM      2  C1  UNL d   1      -0.455   0.807  -1.482  0.00  0.00     0.062 A 
ATOM      3  C2  UNL d   1      -0.496   0.635  -0.102  0.00  0.00     0.162 A 
ATOM      4  C3  UNL d   1       0.361  -0.273   0.520  0.00  0.00    -0.034 A 
ATOM      5  C4  UNL d   1       1.256  -1.007  -0.260  0.00  0.00     0.162 A 
ATOM      6  C5  UNL d   1       1.293  -0.832  -1.639  0.00  0.00     0.062 A 
ATOM      7  F   UNL d   1       2.157  -1.540  -2.380  0.00  0.00    -0.097 F 
ATOM      8  F1  UNL d   1       2.094  -1.889   0.305  0.00  0.00    -0.096 F 
ATOM      9  I   UNL d   1       0.303  -0.534   2.584  0.00  0.00    -0.060 I 
ATOM     10  F2  UNL d   1      -1.370   1.356   0.616  0.00  0.00    -0.096 F 
ATOM     11  F3  UNL d   1      -1.283   1.683  -2.071  0.00  0.00    -0.097 F 
ATOM     12  F4  UNL d   1       0.475   0.242  -3.579  0.00  0.00    -0.092 F 
ENDROOT
TORSDOF 0
ENDMDL
