MODEL 1
REMARK minimizedAffinity -0.0783819556
REMARK minimizedRMSD -1
REMARK  0 active torsions:
REMARK  status: ('A' for Active; 'I' for Inactive)
ROOT
ATOM      1  C   UNL d   1      -1.395   0.462   2.168  0.00  0.00     0.124 A 
ATOM      2  C1  UNL d   1      -0.103  -0.032   2.062  0.00  0.00     0.062 A 
ATOM      3  C2  UNL d   1       0.459  -0.260   0.809  0.00  0.00     0.162 A 
ATOM      4  C3  UNL d   1      -0.272   0.008  -0.349  0.00  0.00    -0.034 A 
ATOM      5  C4  UNL d   1      -1.571   0.505  -0.234  0.00  0.00     0.162 A 
ATOM      6  C5  UNL d   1      -2.128   0.730   1.021  0.00  0.00     0.062 A 
ATOM      7  F   UNL d   1      -3.377   1.208   1.121  0.00  0.00    -0.097 F 
ATOM      8  F1  UNL d   1      -2.301   0.773  -1.327  0.00  0.00    -0.096 F 
ATOM      9  I   UNL d   1       0.565  -0.331  -2.225  0.00  0.00    -0.060 I 
ATOM     10  F2  UNL d   1       1.710  -0.738   0.736  0.00  0.00    -0.096 F 
ATOM     11  F3  UNL d   1       0.607  -0.293   3.169  0.00  0.00    -0.097 F 
ATOM     12  F4  UNL d   1      -1.933   0.679   3.375  0.00  0.00    -0.092 F 
ENDROOT
TORSDOF 0
ENDMDL
