MODEL 1
REMARK minimizedAffinity 0.383080661
REMARK minimizedRMSD -1
REMARK  0 active torsions:
REMARK  status: ('A' for Active; 'I' for Inactive)
ROOT
ATOM      1  C   UNL d   1      -0.587  -0.841   0.845  0.00  0.00     0.124 A 
ATOM      2  C1  UNL d   1       0.397  -1.686   0.350  0.00  0.00     0.062 A 
ATOM      3  C2  UNL d   1       1.001  -1.415  -0.874  0.00  0.00     0.162 A 
ATOM      4  C3  UNL d   1       0.623  -0.293  -1.612  0.00  0.00    -0.034 A 
ATOM      5  C4  UNL d   1      -0.367   0.551  -1.108  0.00  0.00     0.162 A 
ATOM      6  C5  UNL d   1      -0.968   0.276   0.116  0.00  0.00     0.062 A 
ATOM      7  F   UNL d   1      -1.918   1.093   0.593  0.00  0.00    -0.097 F 
ATOM      8  F1  UNL d   1      -0.754   1.638  -1.792  0.00  0.00    -0.096 F 
ATOM      9  I   UNL d   1       1.524   0.115  -3.443  0.00  0.00    -0.060 I 
ATOM     10  F2  UNL d   1       1.949  -2.249  -1.328  0.00  0.00    -0.096 F 
ATOM     11  F3  UNL d   1       0.766  -2.767   1.052  0.00  0.00    -0.097 F 
ATOM     12  F4  UNL d   1      -1.167  -1.105   2.023  0.00  0.00    -0.092 F 
ENDROOT
TORSDOF 0
ENDMDL
