MODEL 1
REMARK minimizedAffinity -0.454390824
REMARK minimizedRMSD -1
REMARK  0 active torsions:
REMARK  status: ('A' for Active; 'I' for Inactive)
ROOT
ATOM      1  C   UNL d   1      -1.235   0.050   2.269  0.00  0.00     0.124 A 
ATOM      2  C1  UNL d   1       0.151   0.071   2.185  0.00  0.00     0.062 A 
ATOM      3  C2  UNL d   1       0.776   0.128   0.943  0.00  0.00     0.162 A 
ATOM      4  C3  UNL d   1       0.017   0.167  -0.226  0.00  0.00    -0.034 A 
ATOM      5  C4  UNL d   1      -1.376   0.144  -0.134  0.00  0.00     0.162 A 
ATOM      6  C5  UNL d   1      -1.996   0.087   1.109  0.00  0.00     0.062 A 
ATOM      7  F   UNL d   1      -3.335   0.066   1.188  0.00  0.00    -0.097 F 
ATOM      8  F1  UNL d   1      -2.136   0.180  -1.239  0.00  0.00    -0.096 F 
ATOM      9  I   UNL d   1       0.949   0.253  -2.085  0.00  0.00    -0.060 I 
ATOM     10  F2  UNL d   1       2.117   0.147   0.893  0.00  0.00    -0.096 F 
ATOM     11  F3  UNL d   1       0.889   0.034   3.304  0.00  0.00    -0.097 F 
ATOM     12  F4  UNL d   1      -1.834  -0.007   3.465  0.00  0.00    -0.092 F 
ENDROOT
TORSDOF 0
ENDMDL
