MODEL 1
REMARK minimizedAffinity -2.01244497
REMARK minimizedRMSD -1
REMARK  2 active torsions:
REMARK  status: ('A' for Active; 'I' for Inactive)
REMARK    1  A    between atoms: C1_2  and  C2_3 
REMARK    2  A    between atoms: C2_3  and  C3_4 
ROOT
ATOM      1  C3  UNL d   1       0.388  -1.677   0.443  0.00  0.00    -0.075 A 
ATOM      2  C4  UNL d   1       1.600  -0.991   0.278  0.00  0.00     0.002 A 
ATOM      3  C5  UNL d   1       2.773  -1.686  -0.019  0.00  0.00     0.002 A 
ATOM      4  C6  UNL d   1       2.752  -3.073  -0.144  0.00  0.00    -0.004 A 
ATOM      5  C7  UNL d   1       1.557  -3.767   0.035  0.00  0.00     0.002 A 
ATOM      6  C8  UNL d   1       0.381  -3.074   0.328  0.00  0.00     0.002 A 
ENDROOT
BRANCH   1   7
ATOM      7  C2  UNL d   1      -0.890  -0.929   0.736  0.00  0.00     0.056 C 
BRANCH   7   8
ATOM      8  C1  UNL d   1      -0.755   0.131   1.835  0.00  0.00     0.007 C 
ATOM      9  C   UNL d   1      -1.873   1.165   1.813  0.00  0.00     0.009 C 
ENDBRANCH   7   8
ENDBRANCH   1   7
TORSDOF 2
ENDMDL
