MODEL 1
REMARK minimizedAffinity -3.18335509
REMARK minimizedRMSD -1
REMARK  2 active torsions:
REMARK  status: ('A' for Active; 'I' for Inactive)
REMARK    1  A    between atoms: C1_2  and  C2_3 
REMARK    2  A    between atoms: C2_3  and  C3_4 
ROOT
ATOM      1  C3  UNL d   1       2.607  -3.234  -0.036  0.00  0.00    -0.075 A 
ATOM      2  C4  UNL d   1       2.729  -1.886   0.331  0.00  0.00     0.002 A 
ATOM      3  C5  UNL d   1       1.596  -1.128   0.629  0.00  0.00     0.002 A 
ATOM      4  C6  UNL d   1       0.330  -1.703   0.553  0.00  0.00    -0.004 A 
ATOM      5  C7  UNL d   1       0.196  -3.037   0.173  0.00  0.00     0.002 A 
ATOM      6  C8  UNL d   1       1.328  -3.799  -0.121  0.00  0.00     0.002 A 
ENDROOT
BRANCH   1   7
ATOM      7  C2  UNL d   1       3.831  -4.068  -0.330  0.00  0.00     0.056 C 
BRANCH   7   8
ATOM      8  C1  UNL d   1       3.876  -5.400   0.427  0.00  0.00     0.007 C 
ATOM      9  C   UNL d   1       5.273  -5.999   0.506  0.00  0.00     0.009 C 
ENDBRANCH   7   8
ENDBRANCH   1   7
TORSDOF 2
ENDMDL
