MODEL 1
REMARK minimizedAffinity -3.64971066
REMARK minimizedRMSD -1
REMARK  2 active torsions:
REMARK  status: ('A' for Active; 'I' for Inactive)
REMARK    1  A    between atoms: C1_2  and  C2_3 
REMARK    2  A    between atoms: C2_3  and  C3_4 
ROOT
ATOM      1  C3  UNL d   1      -0.241  -1.073   1.021  0.00  0.00    -0.075 A 
ATOM      2  C4  UNL d   1      -0.542  -2.301   0.415  0.00  0.00     0.002 A 
ATOM      3  C5  UNL d   1       0.480  -3.146  -0.019  0.00  0.00     0.002 A 
ATOM      4  C6  UNL d   1       1.812  -2.770   0.138  0.00  0.00    -0.004 A 
ATOM      5  C7  UNL d   1       2.122  -1.545   0.724  0.00  0.00     0.002 A 
ATOM      6  C8  UNL d   1       1.102  -0.700   1.163  0.00  0.00     0.002 A 
ENDROOT
BRANCH   1   7
ATOM      7  C2  UNL d   1      -1.342  -0.167   1.520  0.00  0.00     0.056 C 
BRANCH   7   8
ATOM      8  C1  UNL d   1      -2.642  -0.264   0.714  0.00  0.00     0.007 C 
ATOM      9  C   UNL d   1      -3.280   1.092   0.441  0.00  0.00     0.009 C 
ENDBRANCH   7   8
ENDBRANCH   1   7
TORSDOF 2
ENDMDL
