MODEL 1
REMARK minimizedAffinity -0.35655278
REMARK minimizedRMSD -1
REMARK  2 active torsions:
REMARK  status: ('A' for Active; 'I' for Inactive)
REMARK    1  A    between atoms: C1_2  and  C2_3 
REMARK    2  A    between atoms: C2_3  and  C3_4 
ROOT
ATOM      1  C3  UNL d   1       1.312  -3.061   0.309  0.00  0.00    -0.075 A 
ATOM      2  C4  UNL d   1      -0.083  -3.094   0.455  0.00  0.00     0.002 A 
ATOM      3  C5  UNL d   1      -0.793  -1.929   0.745  0.00  0.00     0.002 A 
ATOM      4  C6  UNL d   1      -0.119  -0.720   0.904  0.00  0.00    -0.004 A 
ATOM      5  C7  UNL d   1       1.268  -0.678   0.777  0.00  0.00     0.002 A 
ATOM      6  C8  UNL d   1       1.981  -1.842   0.482  0.00  0.00     0.002 A 
ENDROOT
BRANCH   1   7
ATOM      7  C2  UNL d   1       2.083  -4.313  -0.035  0.00  0.00     0.056 C 
BRANCH   7   8
ATOM      8  C1  UNL d   1       3.605  -4.137  -0.003  0.00  0.00     0.007 C 
ATOM      9  C   UNL d   1       4.358  -5.451   0.151  0.00  0.00     0.009 C 
ENDBRANCH   7   8
ENDBRANCH   1   7
TORSDOF 2
ENDMDL
