MODEL 1
REMARK minimizedAffinity -4.95512819
REMARK minimizedRMSD -1
REMARK  2 active torsions:
REMARK  status: ('A' for Active; 'I' for Inactive)
REMARK    1  A    between atoms: C1_2  and  C2_3 
REMARK    2  A    between atoms: C2_3  and  C3_4 
ROOT
ATOM      1  C3  UNL d   1       2.306  -3.109  -0.097  0.00  0.00    -0.075 A 
ATOM      2  C4  UNL d   1       0.935  -3.289  -0.330  0.00  0.00     0.002 A 
ATOM      3  C5  UNL d   1       0.034  -2.250  -0.096  0.00  0.00     0.002 A 
ATOM      4  C6  UNL d   1       0.489  -1.024   0.383  0.00  0.00    -0.004 A 
ATOM      5  C7  UNL d   1       1.847  -0.839   0.634  0.00  0.00     0.002 A 
ATOM      6  C8  UNL d   1       2.752  -1.875   0.396  0.00  0.00     0.002 A 
ENDROOT
BRANCH   1   7
ATOM      7  C2  UNL d   1       3.290  -4.219  -0.377  0.00  0.00     0.056 C 
BRANCH   7   8
ATOM      8  C1  UNL d   1       3.391  -5.260   0.744  0.00  0.00     0.007 C 
ATOM      9  C   UNL d   1       4.722  -6.000   0.758  0.00  0.00     0.009 C 
ENDBRANCH   7   8
ENDBRANCH   1   7
TORSDOF 2
ENDMDL
