MODEL 1
REMARK minimizedAffinity -3.55189872
REMARK minimizedRMSD -1
REMARK  2 active torsions:
REMARK  status: ('A' for Active; 'I' for Inactive)
REMARK    1  A    between atoms: C1_2  and  C2_3 
REMARK    2  A    between atoms: C2_3  and  C3_4 
ROOT
ATOM      1  C3  UNL d   1       1.608  -0.617   0.042  0.00  0.00    -0.075 A 
ATOM      2  C4  UNL d   1       2.589  -1.611  -0.089  0.00  0.00     0.002 A 
ATOM      3  C5  UNL d   1       2.246  -2.960   0.000  0.00  0.00     0.002 A 
ATOM      4  C6  UNL d   1       0.924  -3.333   0.231  0.00  0.00    -0.004 A 
ATOM      5  C7  UNL d   1      -0.056  -2.354   0.378  0.00  0.00     0.002 A 
ATOM      6  C8  UNL d   1       0.283  -1.003   0.286  0.00  0.00     0.002 A 
ENDROOT
BRANCH   1   7
ATOM      7  C2  UNL d   1       1.967   0.844  -0.083  0.00  0.00     0.056 C 
BRANCH   7   8
ATOM      8  C1  UNL d   1       2.404   1.261  -1.491  0.00  0.00     0.007 C 
ATOM      9  C   UNL d   1       3.013   2.656  -1.542  0.00  0.00     0.009 C 
ENDBRANCH   7   8
ENDBRANCH   1   7
TORSDOF 2
ENDMDL
