MODEL 1
REMARK minimizedAffinity -2.26742625
REMARK minimizedRMSD -1
REMARK  2 active torsions:
REMARK  status: ('A' for Active; 'I' for Inactive)
REMARK    1  A    between atoms: C1_2  and  C2_3 
REMARK    2  A    between atoms: C2_3  and  C3_4 
ROOT
ATOM      1  C3  UNL d   1       1.365  -3.006   0.252  0.00  0.00    -0.075 A 
ATOM      2  C4  UNL d   1       2.053  -1.786   0.184  0.00  0.00     0.002 A 
ATOM      3  C5  UNL d   1       1.376  -0.580   0.374  0.00  0.00     0.002 A 
ATOM      4  C6  UNL d   1       0.005  -0.579   0.623  0.00  0.00    -0.004 A 
ATOM      5  C7  UNL d   1      -0.691  -1.785   0.676  0.00  0.00     0.002 A 
ATOM      6  C8  UNL d   1      -0.015  -2.993   0.491  0.00  0.00     0.002 A 
ENDROOT
BRANCH   1   7
ATOM      7  C2  UNL d   1       2.097  -4.316   0.077  0.00  0.00     0.056 C 
BRANCH   7   8
ATOM      8  C1  UNL d   1       3.573  -4.159  -0.304  0.00  0.00     0.007 C 
ATOM      9  C   UNL d   1       4.342  -5.473  -0.278  0.00  0.00     0.009 C 
ENDBRANCH   7   8
ENDBRANCH   1   7
TORSDOF 2
ENDMDL
