MODEL 1
REMARK minimizedAffinity -6.04734707
REMARK minimizedRMSD -1
REMARK  2 active torsions:
REMARK  status: ('A' for Active; 'I' for Inactive)
REMARK    1  A    between atoms: C1_2  and  C2_3 
REMARK    2  A    between atoms: C2_3  and  C3_4 
ROOT
ATOM      1  C3  UNL d   1       2.418  -2.664   0.141  0.00  0.00    -0.075 A 
ATOM      2  C4  UNL d   1       1.197  -3.237   0.525  0.00  0.00     0.002 A 
ATOM      3  C5  UNL d   1       0.146  -2.434   0.968  0.00  0.00     0.002 A 
ATOM      4  C6  UNL d   1       0.305  -1.052   1.043  0.00  0.00    -0.004 A 
ATOM      5  C7  UNL d   1       1.519  -0.473   0.680  0.00  0.00     0.002 A 
ATOM      6  C8  UNL d   1       2.571  -1.274   0.231  0.00  0.00     0.002 A 
ENDROOT
BRANCH   1   7
ATOM      7  C2  UNL d   1       3.550  -3.525  -0.368  0.00  0.00     0.056 C 
BRANCH   7   8
ATOM      8  C1  UNL d   1       3.908  -4.694   0.555  0.00  0.00     0.007 C 
ATOM      9  C   UNL d   1       5.016  -5.579   0.001  0.00  0.00     0.009 C 
ENDBRANCH   7   8
ENDBRANCH   1   7
TORSDOF 2
ENDMDL
