MODEL 1
REMARK minimizedAffinity -4.78301239
REMARK minimizedRMSD -1
REMARK  2 active torsions:
REMARK  status: ('A' for Active; 'I' for Inactive)
REMARK    1  A    between atoms: C1_2  and  C2_3 
REMARK    2  A    between atoms: C2_3  and  C3_4 
ROOT
ATOM      1  C3  UNL d   1       2.652  -2.788  -0.045  0.00  0.00    -0.075 A 
ATOM      2  C4  UNL d   1       2.856  -1.418   0.175  0.00  0.00     0.002 A 
ATOM      3  C5  UNL d   1       1.786  -0.588   0.509  0.00  0.00     0.002 A 
ATOM      4  C6  UNL d   1       0.500  -1.113   0.619  0.00  0.00    -0.004 A 
ATOM      5  C7  UNL d   1       0.284  -2.469   0.386  0.00  0.00     0.002 A 
ATOM      6  C8  UNL d   1       1.353  -3.304   0.056  0.00  0.00     0.002 A 
ENDROOT
BRANCH   1   7
ATOM      7  C2  UNL d   1       3.810  -3.698  -0.378  0.00  0.00     0.056 C 
BRANCH   7   8
ATOM      8  C1  UNL d   1       3.754  -5.061   0.319  0.00  0.00     0.007 C 
ATOM      9  C   UNL d   1       4.892  -5.989  -0.083  0.00  0.00     0.009 C 
ENDBRANCH   7   8
ENDBRANCH   1   7
TORSDOF 2
ENDMDL
