MODEL 1
REMARK minimizedAffinity 2.05188942
REMARK minimizedRMSD -1
REMARK  2 active torsions:
REMARK  status: ('A' for Active; 'I' for Inactive)
REMARK    1  A    between atoms: C1_2  and  C2_3 
REMARK    2  A    between atoms: C2_3  and  C3_4 
ROOT
ATOM      1  C3  UNL d   1       0.744  -1.027   0.975  0.00  0.00    -0.075 A 
ATOM      2  C4  UNL d   1       0.777  -1.407   2.324  0.00  0.00     0.002 A 
ATOM      3  C5  UNL d   1       1.954  -1.293   3.064  0.00  0.00     0.002 A 
ATOM      4  C6  UNL d   1       3.114  -0.808   2.463  0.00  0.00    -0.004 A 
ATOM      5  C7  UNL d   1       3.097  -0.443   1.118  0.00  0.00     0.002 A 
ATOM      6  C8  UNL d   1       1.919  -0.552   0.377  0.00  0.00     0.002 A 
ENDROOT
BRANCH   1   7
ATOM      7  C2  UNL d   1      -0.535  -1.120   0.177  0.00  0.00     0.056 C 
BRANCH   7   8
ATOM      8  C1  UNL d   1      -1.749  -0.493   0.870  0.00  0.00     0.007 C 
ATOM      9  C   UNL d   1      -1.438   0.840   1.537  0.00  0.00     0.009 C 
ENDBRANCH   7   8
ENDBRANCH   1   7
TORSDOF 2
ENDMDL
