MODEL 1
REMARK minimizedAffinity -4.25346518
REMARK minimizedRMSD -1
REMARK  2 active torsions:
REMARK  status: ('A' for Active; 'I' for Inactive)
REMARK    1  A    between atoms: C1_2  and  C2_3 
REMARK    2  A    between atoms: C2_3  and  C3_4 
ROOT
ATOM      1  C3  UNL d   1       1.627  -2.833   0.250  0.00  0.00    -0.075 A 
ATOM      2  C4  UNL d   1       0.296  -2.921   0.686  0.00  0.00     0.002 A 
ATOM      3  C5  UNL d   1      -0.391  -1.779   1.098  0.00  0.00     0.002 A 
ATOM      4  C6  UNL d   1       0.244  -0.539   1.088  0.00  0.00    -0.004 A 
ATOM      5  C7  UNL d   1       1.570  -0.442   0.673  0.00  0.00     0.002 A 
ATOM      6  C8  UNL d   1       2.259  -1.583   0.257  0.00  0.00     0.002 A 
ENDROOT
BRANCH   1   7
ATOM      7  C2  UNL d   1       2.367  -4.061  -0.224  0.00  0.00     0.056 C 
BRANCH   7   8
ATOM      8  C1  UNL d   1       3.862  -4.055   0.108  0.00  0.00     0.007 C 
ATOM      9  C   UNL d   1       4.456  -5.452   0.230  0.00  0.00     0.009 C 
ENDBRANCH   7   8
ENDBRANCH   1   7
TORSDOF 2
ENDMDL
