MODEL 1
REMARK minimizedAffinity 1.09842408
REMARK minimizedRMSD -1
REMARK  2 active torsions:
REMARK  status: ('A' for Active; 'I' for Inactive)
REMARK    1  A    between atoms: C1_2  and  C2_3 
REMARK    2  A    between atoms: C2_3  and  C3_4 
ROOT
ATOM      1  C3  UNL d   1       2.262  -2.714   0.304  0.00  0.00    -0.075 A 
ATOM      2  C4  UNL d   1       2.249  -1.313   0.239  0.00  0.00     0.002 A 
ATOM      3  C5  UNL d   1       1.104  -0.598   0.593  0.00  0.00     0.002 A 
ATOM      4  C6  UNL d   1      -0.042  -1.273   1.006  0.00  0.00    -0.004 A 
ATOM      5  C7  UNL d   1      -0.046  -2.665   1.059  0.00  0.00     0.002 A 
ATOM      6  C8  UNL d   1       1.099  -3.383   0.709  0.00  0.00     0.002 A 
ENDROOT
BRANCH   1   7
ATOM      7  C2  UNL d   1       3.507  -3.492  -0.049  0.00  0.00     0.056 C 
BRANCH   7   8
ATOM      8  C1  UNL d   1       3.444  -4.975   0.331  0.00  0.00     0.007 C 
ATOM      9  C   UNL d   1       4.818  -5.609   0.506  0.00  0.00     0.009 C 
ENDBRANCH   7   8
ENDBRANCH   1   7
TORSDOF 2
ENDMDL
