MODEL 1
REMARK minimizedAffinity -2.77829266
REMARK minimizedRMSD -1
REMARK  2 active torsions:
REMARK  status: ('A' for Active; 'I' for Inactive)
REMARK    1  A    between atoms: C1_2  and  C2_3 
REMARK    2  A    between atoms: C2_3  and  C3_4 
ROOT
ATOM      1  C3  UNL d   1       1.040  -2.924   0.251  0.00  0.00    -0.075 A 
ATOM      2  C4  UNL d   1       1.622  -1.711  -0.146  0.00  0.00     0.002 A 
ATOM      3  C5  UNL d   1       1.059  -0.495   0.241  0.00  0.00     0.002 A 
ATOM      4  C6  UNL d   1      -0.095  -0.475   1.021  0.00  0.00    -0.004 A 
ATOM      5  C7  UNL d   1      -0.691  -1.674   1.408  0.00  0.00     0.002 A 
ATOM      6  C8  UNL d   1      -0.127  -2.892   1.025  0.00  0.00     0.002 A 
ENDROOT
BRANCH   1   7
ATOM      7  C2  UNL d   1       1.661  -4.244  -0.140  0.00  0.00     0.056 C 
BRANCH   7   8
ATOM      8  C1  UNL d   1       3.182  -4.294   0.037  0.00  0.00     0.007 C 
ATOM      9  C   UNL d   1       3.768  -5.680  -0.197  0.00  0.00     0.009 C 
ENDBRANCH   7   8
ENDBRANCH   1   7
TORSDOF 2
ENDMDL
