MODEL 1
REMARK minimizedAffinity -4.08584785
REMARK minimizedRMSD -1
REMARK  1 active torsions:
REMARK  status: ('A' for Active; 'I' for Inactive)
REMARK    1  A    between atoms: N_2  and  C1_3 
ROOT
ATOM      1  C1  UNL d   1      -0.012   0.143   0.346  0.00  0.00     0.143 A 
ATOM      2  C2  UNL d   1      -0.956   0.007   1.369  0.00  0.00    -0.057 A 
ATOM      3  C3  UNL d   1      -1.269  -1.248   1.906  0.00  0.00     0.033 A 
ATOM      4  C4  UNL d   1      -0.661  -2.396   1.407  0.00  0.00    -0.042 A 
ATOM      5  C5  UNL d   1       0.263  -2.286   0.374  0.00  0.00     0.033 A 
ATOM      6  C6  UNL d   1       0.575  -1.030  -0.154  0.00  0.00    -0.057 A 
ENDROOT
BRANCH   1   7
ATOM      7  N   UNL d   1       0.270   1.351  -0.296  0.00  0.00    -0.732 N 
ATOM      8  C   UNL d   1       1.474   2.090   0.017  0.00  0.00     0.284 C 
ATOM      9  H3  UNL d   1       0.044   1.326  -1.288  0.00  0.00     0.395 HD
ENDBRANCH   1   7
TORSDOF 1
ENDMDL
