MODEL 1
REMARK minimizedAffinity -4.28142595
REMARK minimizedRMSD -1
REMARK  1 active torsions:
REMARK  status: ('A' for Active; 'I' for Inactive)
REMARK    1  A    between atoms: N_2  and  C1_3 
ROOT
ATOM      1  C1  UNL d   1      -0.266  -0.310   0.227  0.00  0.00     0.143 A 
ATOM      2  C2  UNL d   1       0.656  -1.173  -0.374  0.00  0.00    -0.057 A 
ATOM      3  C3  UNL d   1       0.646  -2.547  -0.107  0.00  0.00     0.033 A 
ATOM      4  C4  UNL d   1      -0.271  -3.080   0.792  0.00  0.00    -0.042 A 
ATOM      5  C5  UNL d   1      -1.181  -2.238   1.421  0.00  0.00     0.033 A 
ATOM      6  C6  UNL d   1      -1.171  -0.867   1.145  0.00  0.00    -0.057 A 
ENDROOT
BRANCH   1   7
ATOM      7  N   UNL d   1      -0.244   1.079   0.078  0.00  0.00    -0.732 N 
ATOM      8  C   UNL d   1       0.935   1.839   0.431  0.00  0.00     0.284 C 
ATOM      9  H3  UNL d   1      -0.694   1.384  -0.782  0.00  0.00     0.395 HD
ENDBRANCH   1   7
TORSDOF 1
ENDMDL
