MODEL 1
REMARK minimizedAffinity -4.63648844
REMARK minimizedRMSD -1
REMARK  1 active torsions:
REMARK  status: ('A' for Active; 'I' for Inactive)
REMARK    1  A    between atoms: N_2  and  C1_3 
ROOT
ATOM      1  C1  UNL d   1       0.008  -0.278  -0.486  0.00  0.00     0.143 A 
ATOM      2  C2  UNL d   1      -0.387  -0.872   0.717  0.00  0.00    -0.057 A 
ATOM      3  C3  UNL d   1      -0.398  -2.264   0.870  0.00  0.00     0.033 A 
ATOM      4  C4  UNL d   1      -0.041  -3.089  -0.191  0.00  0.00    -0.042 A 
ATOM      5  C5  UNL d   1       0.331  -2.521  -1.404  0.00  0.00     0.033 A 
ATOM      6  C6  UNL d   1       0.346  -1.130  -1.548  0.00  0.00    -0.057 A 
ENDROOT
BRANCH   1   7
ATOM      7  N   UNL d   1      -0.054   1.096  -0.732  0.00  0.00    -0.732 N 
ATOM      8  C   UNL d   1       0.769   2.018   0.022  0.00  0.00     0.284 C 
ATOM      9  H3  UNL d   1      -0.116   1.311  -1.724  0.00  0.00     0.395 HD
ENDBRANCH   1   7
TORSDOF 1
ENDMDL
