MODEL 1
REMARK minimizedAffinity -4.25964785
REMARK minimizedRMSD -1
REMARK  1 active torsions:
REMARK  status: ('A' for Active; 'I' for Inactive)
REMARK    1  A    between atoms: N_2  and  C1_3 
ROOT
ATOM      1  C1  UNL d   1       0.895   0.807   0.270  0.00  0.00     0.143 A 
ATOM      2  C2  UNL d   1       2.016   1.033   1.077  0.00  0.00    -0.057 A 
ATOM      3  C3  UNL d   1       2.499   2.328   1.302  0.00  0.00     0.033 A 
ATOM      4  C4  UNL d   1       1.885   3.421   0.699  0.00  0.00    -0.042 A 
ATOM      5  C5  UNL d   1       0.785   3.217  -0.127  0.00  0.00     0.033 A 
ATOM      6  C6  UNL d   1       0.304   1.923  -0.343  0.00  0.00    -0.057 A 
ENDROOT
BRANCH   1   7
ATOM      7  N   UNL d   1       0.427  -0.464  -0.071  0.00  0.00    -0.732 N 
ATOM      8  C   UNL d   1      -0.265  -1.280   0.903  0.00  0.00     0.284 C 
ATOM      9  H3  UNL d   1       0.016  -0.489  -1.002  0.00  0.00     0.395 HD
ENDBRANCH   1   7
TORSDOF 1
ENDMDL
