MODEL 1
REMARK minimizedAffinity -3.73887944
REMARK minimizedRMSD -1
REMARK  1 active torsions:
REMARK  status: ('A' for Active; 'I' for Inactive)
REMARK    1  A    between atoms: N_2  and  C1_3 
ROOT
ATOM      1  C1  UNL d   1      -0.146   0.007  -0.030  0.00  0.00     0.143 A 
ATOM      2  C2  UNL d   1      -1.246  -0.172   0.815  0.00  0.00    -0.057 A 
ATOM      3  C3  UNL d   1      -1.645  -1.449   1.228  0.00  0.00     0.033 A 
ATOM      4  C4  UNL d   1      -0.965  -2.576   0.777  0.00  0.00    -0.042 A 
ATOM      5  C5  UNL d   1       0.116  -2.424  -0.083  0.00  0.00     0.033 A 
ATOM      6  C6  UNL d   1       0.514  -1.145  -0.486  0.00  0.00    -0.057 A 
ENDROOT
BRANCH   1   7
ATOM      7  N   UNL d   1       0.240   1.243  -0.555  0.00  0.00    -0.732 N 
ATOM      8  C   UNL d   1       0.451   2.380   0.316  0.00  0.00     0.284 C 
ATOM      9  H3  UNL d   1       0.932   1.152  -1.295  0.00  0.00     0.395 HD
ENDBRANCH   1   7
TORSDOF 1
ENDMDL
