MODEL 1
REMARK minimizedAffinity -1.59349191
REMARK minimizedRMSD -1
REMARK  1 active torsions:
REMARK  status: ('A' for Active; 'I' for Inactive)
REMARK    1  A    between atoms: N_2  and  C1_3 
ROOT
ATOM      1  C1  UNL d   1       0.420   1.757   0.102  0.00  0.00     0.143 A 
ATOM      2  C2  UNL d   1       0.737   2.330   1.338  0.00  0.00    -0.057 A 
ATOM      3  C3  UNL d   1       1.749   3.290   1.455  0.00  0.00     0.033 A 
ATOM      4  C4  UNL d   1       2.484   3.675   0.338  0.00  0.00    -0.042 A 
ATOM      5  C5  UNL d   1       2.203   3.101  -0.896  0.00  0.00     0.033 A 
ATOM      6  C6  UNL d   1       1.187   2.147  -1.008  0.00  0.00    -0.057 A 
ENDROOT
BRANCH   1   7
ATOM      7  N   UNL d   1      -0.507   0.725  -0.063  0.00  0.00    -0.732 N 
ATOM      8  C   UNL d   1      -0.433  -0.469   0.751  0.00  0.00     0.284 C 
ATOM      9  H3  UNL d   1      -1.453   1.072  -0.206  0.00  0.00     0.395 HD
ENDBRANCH   1   7
TORSDOF 1
ENDMDL
