MODEL 1
REMARK minimizedAffinity 4.54771233
REMARK minimizedRMSD -1
REMARK  1 active torsions:
REMARK  status: ('A' for Active; 'I' for Inactive)
REMARK    1  A    between atoms: N_2  and  C1_3 
ROOT
ATOM      1  C1  UNL d   1       0.559   3.737   1.977  0.00  0.00     0.143 A 
ATOM      2  C2  UNL d   1      -0.454   3.822   1.016  0.00  0.00    -0.057 A 
ATOM      3  C3  UNL d   1      -1.503   4.739   1.146  0.00  0.00     0.033 A 
ATOM      4  C4  UNL d   1      -1.574   5.571   2.258  0.00  0.00    -0.042 A 
ATOM      5  C5  UNL d   1      -0.592   5.487   3.239  0.00  0.00     0.033 A 
ATOM      6  C6  UNL d   1       0.457   4.573   3.100  0.00  0.00    -0.057 A 
ENDROOT
BRANCH   1   7
ATOM      7  N   UNL d   1       1.575   2.779   1.954  0.00  0.00    -0.732 N 
ATOM      8  C   UNL d   1       2.458   2.667   0.812  0.00  0.00     0.284 C 
ATOM      9  H3  UNL d   1       2.044   2.688   2.852  0.00  0.00     0.395 HD
ENDBRANCH   1   7
TORSDOF 1
ENDMDL
