MODEL 1
REMARK minimizedAffinity -3.77085638
REMARK minimizedRMSD -1
REMARK  1 active torsions:
REMARK  status: ('A' for Active; 'I' for Inactive)
REMARK    1  A    between atoms: N_2  and  C1_3 
ROOT
ATOM      1  C1  UNL d   1      -0.542  -1.191   0.624  0.00  0.00     0.143 A 
ATOM      2  C2  UNL d   1      -0.748   0.151   0.962  0.00  0.00    -0.057 A 
ATOM      3  C3  UNL d   1      -0.203   1.186   0.191  0.00  0.00     0.033 A 
ATOM      4  C4  UNL d   1       0.584   0.894  -0.918  0.00  0.00    -0.042 A 
ATOM      5  C5  UNL d   1       0.822  -0.432  -1.259  0.00  0.00     0.033 A 
ATOM      6  C6  UNL d   1       0.270  -1.461  -0.489  0.00  0.00    -0.057 A 
ENDROOT
BRANCH   1   7
ATOM      7  N   UNL d   1      -0.974  -2.265   1.406  0.00  0.00    -0.732 N 
ATOM      8  C   UNL d   1      -0.334  -3.558   1.300  0.00  0.00     0.284 C 
ATOM      9  H3  UNL d   1      -1.195  -1.987   2.359  0.00  0.00     0.395 HD
ENDBRANCH   1   7
TORSDOF 1
ENDMDL
