MODEL 1
REMARK minimizedAffinity 3.74025607
REMARK minimizedRMSD -1
REMARK  0 active torsions:
REMARK  status: ('A' for Active; 'I' for Inactive)
ROOT
ATOM      1  C   UNL d   1       0.830   3.549  -1.073  0.00  0.00     0.078 C 
ATOM      2  C1  UNL d   1       1.233   2.355  -1.887  0.00  0.00    -0.077 A 
ATOM      3  C2  UNL d   1       2.568   1.934  -1.937  0.00  0.00    -0.001 A 
ATOM      4  C3  UNL d   1       2.931   0.828  -2.706  0.00  0.00     0.003 A 
ATOM      5  C4  UNL d   1       1.966   0.134  -3.433  0.00  0.00    -0.005 A 
ATOM      6  C5  UNL d   1       0.636   0.547  -3.391  0.00  0.00     0.003 A 
ATOM      7  C6  UNL d   1       0.271   1.653  -2.623  0.00  0.00    -0.001 A 
ENDROOT
TORSDOF 0
ENDMDL
