MODEL 1
REMARK minimizedAffinity 2.80736279
REMARK minimizedRMSD -1
REMARK  0 active torsions:
REMARK  status: ('A' for Active; 'I' for Inactive)
ROOT
ATOM      1  C   UNL d   1       4.458   5.994   4.401  0.00  0.00     0.078 C 
ATOM      2  C1  UNL d   1       4.863   5.298   3.136  0.00  0.00    -0.077 A 
ATOM      3  C2  UNL d   1       5.249   3.952   3.146  0.00  0.00    -0.001 A 
ATOM      4  C3  UNL d   1       5.633   3.319   1.963  0.00  0.00     0.003 A 
ATOM      5  C4  UNL d   1       5.636   4.025   0.761  0.00  0.00    -0.005 A 
ATOM      6  C5  UNL d   1       5.256   5.365   0.742  0.00  0.00     0.003 A 
ATOM      7  C6  UNL d   1       4.872   5.999   1.924  0.00  0.00    -0.001 A 
ENDROOT
TORSDOF 0
ENDMDL
