MODEL 1
REMARK minimizedAffinity 14.2161827
REMARK minimizedRMSD -1
REMARK  0 active torsions:
REMARK  status: ('A' for Active; 'I' for Inactive)
ROOT
ATOM      1  C   UNL d   1       0.729   1.398   1.031  0.00  0.00     0.078 C 
ATOM      2  C1  UNL d   1       1.297   1.677  -0.328  0.00  0.00    -0.077 A 
ATOM      3  C2  UNL d   1       1.293   0.695  -1.327  0.00  0.00    -0.001 A 
ATOM      4  C3  UNL d   1       1.834   0.966  -2.585  0.00  0.00     0.003 A 
ATOM      5  C4  UNL d   1       2.384   2.217  -2.856  0.00  0.00    -0.005 A 
ATOM      6  C5  UNL d   1       2.394   3.199  -1.868  0.00  0.00     0.003 A 
ATOM      7  C6  UNL d   1       1.854   2.931  -0.609  0.00  0.00    -0.001 A 
ENDROOT
TORSDOF 0
ENDMDL
