MODEL 1
REMARK minimizedAffinity 12.7118454
REMARK minimizedRMSD -1
REMARK  0 active torsions:
REMARK  status: ('A' for Active; 'I' for Inactive)
ROOT
ATOM      1  C   UNL d   1       3.258   2.596  -5.232  0.00  0.00     0.078 C 
ATOM      2  C1  UNL d   1       2.730   1.943  -3.990  0.00  0.00    -0.077 A 
ATOM      3  C2  UNL d   1       2.406   2.702  -2.859  0.00  0.00    -0.001 A 
ATOM      4  C3  UNL d   1       1.925   2.080  -1.706  0.00  0.00     0.003 A 
ATOM      5  C4  UNL d   1       1.764   0.697  -1.672  0.00  0.00    -0.005 A 
ATOM      6  C5  UNL d   1       2.086  -0.067  -2.792  0.00  0.00     0.003 A 
ATOM      7  C6  UNL d   1       2.567   0.553  -3.946  0.00  0.00    -0.001 A 
ENDROOT
TORSDOF 0
ENDMDL
