MODEL 1
REMARK minimizedAffinity 3.8628211
REMARK minimizedRMSD -1
REMARK  0 active torsions:
REMARK  status: ('A' for Active; 'I' for Inactive)
ROOT
ATOM      1  C   UNL d   1       1.373   1.603  -3.824  0.00  0.00     0.078 C 
ATOM      2  C1  UNL d   1       0.283   2.324  -4.558  0.00  0.00    -0.077 A 
ATOM      3  C2  UNL d   1      -1.039   1.862  -4.522  0.00  0.00    -0.001 A 
ATOM      4  C3  UNL d   1      -2.042   2.537  -5.219  0.00  0.00     0.003 A 
ATOM      5  C4  UNL d   1      -1.735   3.679  -5.957  0.00  0.00    -0.005 A 
ATOM      6  C5  UNL d   1      -0.423   4.145  -6.000  0.00  0.00     0.003 A 
ATOM      7  C6  UNL d   1       0.582   3.471  -5.304  0.00  0.00    -0.001 A 
ENDROOT
TORSDOF 0
ENDMDL
