MODEL 1
REMARK minimizedAffinity 0.318169236
REMARK minimizedRMSD -1
REMARK  0 active torsions:
REMARK  status: ('A' for Active; 'I' for Inactive)
ROOT
ATOM      1  C   UNL d   1      -3.381   2.695  -5.995  0.00  0.00     0.078 C 
ATOM      2  C1  UNL d   1      -4.296   3.724  -5.402  0.00  0.00    -0.077 A 
ATOM      3  C2  UNL d   1      -4.453   4.981  -6.000  0.00  0.00    -0.001 A 
ATOM      4  C3  UNL d   1      -5.301   5.932  -5.431  0.00  0.00     0.003 A 
ATOM      5  C4  UNL d   1      -5.999   5.638  -4.261  0.00  0.00    -0.005 A 
ATOM      6  C5  UNL d   1      -5.848   4.391  -3.658  0.00  0.00     0.003 A 
ATOM      7  C6  UNL d   1      -5.000   3.438  -4.225  0.00  0.00    -0.001 A 
ENDROOT
TORSDOF 0
ENDMDL
