MODEL 1
REMARK minimizedAffinity 2.91994095
REMARK minimizedRMSD -1
REMARK  0 active torsions:
REMARK  status: ('A' for Active; 'I' for Inactive)
ROOT
ATOM      1  C   UNL d   1       0.456   6.000  -5.953  0.00  0.00     0.078 C 
ATOM      2  C1  UNL d   1      -0.790   5.173  -5.840  0.00  0.00    -0.077 A 
ATOM      3  C2  UNL d   1      -0.723   3.797  -5.589  0.00  0.00    -0.001 A 
ATOM      4  C3  UNL d   1      -1.890   3.039  -5.496  0.00  0.00     0.003 A 
ATOM      5  C4  UNL d   1      -3.134   3.647  -5.655  0.00  0.00    -0.005 A 
ATOM      6  C5  UNL d   1      -3.211   5.015  -5.907  0.00  0.00     0.003 A 
ATOM      7  C6  UNL d   1      -2.044   5.775  -6.000  0.00  0.00    -0.001 A 
ENDROOT
TORSDOF 0
ENDMDL
