MODEL 1
REMARK minimizedAffinity 10.6462431
REMARK minimizedRMSD -1
REMARK  0 active torsions:
REMARK  status: ('A' for Active; 'I' for Inactive)
ROOT
ATOM      1  C   UNL d   1       2.416   1.801  -5.882  0.00  0.00     0.078 C 
ATOM      2  C1  UNL d   1       3.410   2.924  -5.892  0.00  0.00    -0.077 A 
ATOM      3  C2  UNL d   1       2.991   4.257  -5.978  0.00  0.00    -0.001 A 
ATOM      4  C3  UNL d   1       3.928   5.292  -5.996  0.00  0.00     0.003 A 
ATOM      5  C4  UNL d   1       5.290   5.004  -5.932  0.00  0.00    -0.005 A 
ATOM      6  C5  UNL d   1       5.716   3.680  -5.849  0.00  0.00     0.003 A 
ATOM      7  C6  UNL d   1       4.781   2.644  -5.830  0.00  0.00    -0.001 A 
ENDROOT
TORSDOF 0
ENDMDL
