MODEL 1
REMARK minimizedAffinity 3.67582607
REMARK minimizedRMSD -1
REMARK  0 active torsions:
REMARK  status: ('A' for Active; 'I' for Inactive)
ROOT
ATOM      1  C   UNL d   1       0.716   2.413  -4.507  0.00  0.00     0.078 C 
ATOM      2  C1  UNL d   1       0.017   3.631  -5.033  0.00  0.00    -0.077 A 
ATOM      3  C2  UNL d   1       0.697   4.847  -5.177  0.00  0.00    -0.001 A 
ATOM      4  C3  UNL d   1       0.032   5.975  -5.659  0.00  0.00     0.003 A 
ATOM      5  C4  UNL d   1      -1.317   5.900  -6.000  0.00  0.00    -0.005 A 
ATOM      6  C5  UNL d   1      -2.002   4.695  -5.859  0.00  0.00     0.003 A 
ATOM      7  C6  UNL d   1      -1.339   3.566  -5.377  0.00  0.00    -0.001 A 
ENDROOT
TORSDOF 0
ENDMDL
