MODEL 1
REMARK minimizedAffinity 6.67569208
REMARK minimizedRMSD -1
REMARK  0 active torsions:
REMARK  status: ('A' for Active; 'I' for Inactive)
ROOT
ATOM      1  C   UNL d   1      -2.453  -1.593   3.495  0.00  0.00     0.078 C 
ATOM      2  C1  UNL d   1      -2.490  -2.815   4.363  0.00  0.00    -0.077 A 
ATOM      3  C2  UNL d   1      -3.593  -3.085   5.183  0.00  0.00    -0.001 A 
ATOM      4  C3  UNL d   1      -3.609  -4.221   5.993  0.00  0.00     0.003 A 
ATOM      5  C4  UNL d   1      -2.525  -5.097   5.991  0.00  0.00    -0.005 A 
ATOM      6  C5  UNL d   1      -1.423  -4.837   5.180  0.00  0.00     0.003 A 
ATOM      7  C6  UNL d   1      -1.405  -3.700   4.370  0.00  0.00    -0.001 A 
ENDROOT
TORSDOF 0
ENDMDL
