MODEL 1
REMARK minimizedAffinity -0.932681561
REMARK minimizedRMSD -1
REMARK  0 active torsions:
REMARK  status: ('A' for Active; 'I' for Inactive)
ROOT
ATOM      1  C   UNL d   1       1.041   4.534  -5.415  0.00  0.00     0.078 C 
ATOM      2  C1  UNL d   1       1.854   4.142  -4.218  0.00  0.00    -0.077 A 
ATOM      3  C2  UNL d   1       3.167   4.600  -4.056  0.00  0.00    -0.001 A 
ATOM      4  C3  UNL d   1       3.915   4.219  -2.941  0.00  0.00     0.003 A 
ATOM      5  C4  UNL d   1       3.359   3.377  -1.980  0.00  0.00    -0.005 A 
ATOM      6  C5  UNL d   1       2.054   2.915  -2.133  0.00  0.00     0.003 A 
ATOM      7  C6  UNL d   1       1.304   3.295  -3.247  0.00  0.00    -0.001 A 
ENDROOT
TORSDOF 0
ENDMDL
