MODEL 1
REMARK minimizedAffinity 5.79465246
REMARK minimizedRMSD -1
REMARK  0 active torsions:
REMARK  status: ('A' for Active; 'I' for Inactive)
ROOT
ATOM      1  C   UNL d   1       0.338   5.595  -5.993  0.00  0.00     0.078 C 
ATOM      2  C1  UNL d   1      -0.519   4.423  -5.615  0.00  0.00    -0.077 A 
ATOM      3  C2  UNL d   1       0.010   3.346  -4.893  0.00  0.00    -0.001 A 
ATOM      4  C3  UNL d   1      -0.797   2.258  -4.557  0.00  0.00     0.003 A 
ATOM      5  C4  UNL d   1      -2.136   2.234  -4.940  0.00  0.00    -0.005 A 
ATOM      6  C5  UNL d   1      -2.670   3.300  -5.661  0.00  0.00     0.003 A 
ATOM      7  C6  UNL d   1      -1.866   4.390  -5.998  0.00  0.00    -0.001 A 
ENDROOT
TORSDOF 0
ENDMDL
