MODEL 1
REMARK minimizedAffinity -0.417092949
REMARK minimizedRMSD -1
REMARK  0 active torsions:
REMARK  status: ('A' for Active; 'I' for Inactive)
ROOT
ATOM      1  C   UNL d   1      -4.561   5.257  -6.000  0.00  0.00     0.078 C 
ATOM      2  C1  UNL d   1      -3.127   4.820  -5.992  0.00  0.00    -0.077 A 
ATOM      3  C2  UNL d   1      -2.087   5.757  -5.997  0.00  0.00    -0.001 A 
ATOM      4  C3  UNL d   1      -0.756   5.335  -6.000  0.00  0.00     0.003 A 
ATOM      5  C4  UNL d   1      -0.454   3.975  -5.999  0.00  0.00    -0.005 A 
ATOM      6  C5  UNL d   1      -1.482   3.035  -5.997  0.00  0.00     0.003 A 
ATOM      7  C6  UNL d   1      -2.813   3.455  -5.994  0.00  0.00    -0.001 A 
ENDROOT
TORSDOF 0
ENDMDL
