MODEL 1
REMARK minimizedAffinity -3.08485985
REMARK minimizedRMSD -1
REMARK  1 active torsions:
REMARK  status: ('A' for Active; 'I' for Inactive)
REMARK    1  A    between atoms: C1_2  and  C2_3 
ROOT
ATOM      1  C2  UNL d   1      -0.377   2.858  -2.385  0.00  0.00    -0.077 A 
ATOM      2  C3  UNL d   1       0.158   4.047  -1.869  0.00  0.00     0.002 A 
ATOM      3  C4  UNL d   1       0.567   4.117  -0.535  0.00  0.00     0.002 A 
ATOM      4  C5  UNL d   1       0.449   3.001   0.291  0.00  0.00    -0.004 A 
ATOM      5  C6  UNL d   1      -0.083   1.815  -0.213  0.00  0.00     0.002 A 
ATOM      6  C7  UNL d   1      -0.494   1.743  -1.545  0.00  0.00     0.002 A 
ENDROOT
BRANCH   1   7
ATOM      7  C1  UNL d   1      -0.772   2.766  -3.836  0.00  0.00     0.055 C 
ATOM      8  C   UNL d   1      -0.087   3.842  -4.666  0.00  0.00     0.019 C 
ENDBRANCH   1   7
TORSDOF 1
ENDMDL
