MODEL 1
REMARK minimizedAffinity -4.46047783
REMARK minimizedRMSD -1
REMARK  1 active torsions:
REMARK  status: ('A' for Active; 'I' for Inactive)
REMARK    1  A    between atoms: C1_2  and  C2_3 
ROOT
ATOM      1  C2  UNL d   1       0.382   0.453   0.153  0.00  0.00    -0.077 A 
ATOM      2  C3  UNL d   1       1.582  -0.252  -0.011  0.00  0.00     0.002 A 
ATOM      3  C4  UNL d   1       1.716  -1.547   0.493  0.00  0.00     0.002 A 
ATOM      4  C5  UNL d   1       0.651  -2.150   1.160  0.00  0.00    -0.004 A 
ATOM      5  C6  UNL d   1      -0.546  -1.456   1.331  0.00  0.00     0.002 A 
ATOM      6  C7  UNL d   1      -0.681  -0.161   0.829  0.00  0.00     0.002 A 
ENDROOT
BRANCH   1   7
ATOM      7  C1  UNL d   1       0.220   1.831  -0.433  0.00  0.00     0.055 C 
ATOM      8  C   UNL d   1       1.087   2.848   0.294  0.00  0.00     0.019 C 
ENDBRANCH   1   7
TORSDOF 1
ENDMDL
