MODEL 1
REMARK minimizedAffinity -4.76216364
REMARK minimizedRMSD -1
REMARK  1 active torsions:
REMARK  status: ('A' for Active; 'I' for Inactive)
REMARK    1  A    between atoms: C1_2  and  C2_3 
ROOT
ATOM      1  C2  UNL d   1      -0.672   2.074  -1.308  0.00  0.00    -0.077 A 
ATOM      2  C3  UNL d   1      -0.380   3.005  -2.315  0.00  0.00     0.002 A 
ATOM      3  C4  UNL d   1      -1.235   3.154  -3.409  0.00  0.00     0.002 A 
ATOM      4  C5  UNL d   1      -2.389   2.380  -3.504  0.00  0.00    -0.004 A 
ATOM      5  C6  UNL d   1      -2.688   1.450  -2.508  0.00  0.00     0.002 A 
ATOM      6  C7  UNL d   1      -1.834   1.299  -1.415  0.00  0.00     0.002 A 
ENDROOT
BRANCH   1   7
ATOM      7  C1  UNL d   1       0.223   1.947  -0.103  0.00  0.00     0.055 C 
ATOM      8  C   UNL d   1       0.834   3.287   0.276  0.00  0.00     0.019 C 
ENDBRANCH   1   7
TORSDOF 1
ENDMDL
