MODEL 1
REMARK minimizedAffinity -2.77780676
REMARK minimizedRMSD -1
REMARK  1 active torsions:
REMARK  status: ('A' for Active; 'I' for Inactive)
REMARK    1  A    between atoms: C1_2  and  C2_3 
ROOT
ATOM      1  C2  UNL d   1       1.406  -0.070  -0.041  0.00  0.00    -0.077 A 
ATOM      2  C3  UNL d   1       0.092   0.418  -0.024  0.00  0.00     0.002 A 
ATOM      3  C4  UNL d   1      -0.946  -0.368   0.482  0.00  0.00     0.002 A 
ATOM      4  C5  UNL d   1      -0.679  -1.642   0.978  0.00  0.00    -0.004 A 
ATOM      5  C6  UNL d   1       0.624  -2.136   0.964  0.00  0.00     0.002 A 
ATOM      6  C7  UNL d   1       1.662  -1.353   0.457  0.00  0.00     0.002 A 
ENDROOT
BRANCH   1   7
ATOM      7  C1  UNL d   1       2.534   0.795  -0.541  0.00  0.00     0.055 C 
ATOM      8  C   UNL d   1       2.425   2.214  -0.003  0.00  0.00     0.019 C 
ENDBRANCH   1   7
TORSDOF 1
ENDMDL
