MODEL 1
REMARK minimizedAffinity 1.06648076
REMARK minimizedRMSD -1
REMARK  1 active torsions:
REMARK  status: ('A' for Active; 'I' for Inactive)
REMARK    1  A    between atoms: C1_2  and  C2_3 
ROOT
ATOM      1  C2  UNL d   1      -0.604   0.342   0.328  0.00  0.00    -0.077 A 
ATOM      2  C3  UNL d   1      -1.545   0.783   1.268  0.00  0.00     0.002 A 
ATOM      3  C4  UNL d   1      -2.103  -0.113   2.182  0.00  0.00     0.002 A 
ATOM      4  C5  UNL d   1      -1.723  -1.453   2.167  0.00  0.00    -0.004 A 
ATOM      5  C6  UNL d   1      -0.789  -1.902   1.234  0.00  0.00     0.002 A 
ATOM      6  C7  UNL d   1      -0.231  -1.008   0.319  0.00  0.00     0.002 A 
ENDROOT
BRANCH   1   7
ATOM      7  C1  UNL d   1       0.036   1.317  -0.627  0.00  0.00     0.055 C 
ATOM      8  C   UNL d   1       1.168   2.084   0.041  0.00  0.00     0.019 C 
ENDBRANCH   1   7
TORSDOF 1
ENDMDL
