MODEL 1
REMARK minimizedAffinity -5.65419531
REMARK minimizedRMSD -1
REMARK  1 active torsions:
REMARK  status: ('A' for Active; 'I' for Inactive)
REMARK    1  A    between atoms: C1_2  and  C2_3 
ROOT
ATOM      1  C2  UNL d   1       0.371   0.031   0.343  0.00  0.00    -0.077 A 
ATOM      2  C3  UNL d   1      -0.237  -1.228   0.232  0.00  0.00     0.002 A 
ATOM      3  C4  UNL d   1       0.537  -2.390   0.247  0.00  0.00     0.002 A 
ATOM      4  C5  UNL d   1       1.922  -2.305   0.376  0.00  0.00    -0.004 A 
ATOM      5  C6  UNL d   1       2.536  -1.058   0.485  0.00  0.00     0.002 A 
ATOM      6  C7  UNL d   1       1.764   0.105   0.470  0.00  0.00     0.002 A 
ENDROOT
BRANCH   1   7
ATOM      7  C1  UNL d   1      -0.466   1.283   0.377  0.00  0.00     0.055 C 
ATOM      8  C   UNL d   1       0.405   2.530   0.399  0.00  0.00     0.019 C 
ENDBRANCH   1   7
TORSDOF 1
ENDMDL
