MODEL 1
REMARK minimizedAffinity -2.13490486
REMARK minimizedRMSD -1
REMARK  1 active torsions:
REMARK  status: ('A' for Active; 'I' for Inactive)
REMARK    1  A    between atoms: C1_2  and  C2_3 
ROOT
ATOM      1  C2  UNL d   1       0.813   2.325  -0.329  0.00  0.00    -0.077 A 
ATOM      2  C3  UNL d   1       2.214   2.308  -0.356  0.00  0.00     0.002 A 
ATOM      3  C4  UNL d   1       2.944   3.359   0.205  0.00  0.00     0.002 A 
ATOM      4  C5  UNL d   1       2.281   4.431   0.799  0.00  0.00    -0.004 A 
ATOM      5  C6  UNL d   1       0.887   4.458   0.828  0.00  0.00     0.002 A 
ATOM      6  C7  UNL d   1       0.156   3.410   0.268  0.00  0.00     0.002 A 
ENDROOT
BRANCH   1   7
ATOM      7  C1  UNL d   1       0.024   1.170  -0.889  0.00  0.00     0.055 C 
ATOM      8  C   UNL d   1      -0.567   0.314   0.221  0.00  0.00     0.019 C 
ENDBRANCH   1   7
TORSDOF 1
ENDMDL
