MODEL 1
REMARK minimizedAffinity -2.94804049
REMARK minimizedRMSD -1
REMARK  1 active torsions:
REMARK  status: ('A' for Active; 'I' for Inactive)
REMARK    1  A    between atoms: C1_2  and  C2_3 
ROOT
ATOM      1  C2  UNL d   1       0.571   1.230  -0.153  0.00  0.00    -0.077 A 
ATOM      2  C3  UNL d   1       1.913   0.917  -0.413  0.00  0.00     0.002 A 
ATOM      3  C4  UNL d   1       2.886   1.918  -0.402  0.00  0.00     0.002 A 
ATOM      4  C5  UNL d   1       2.529   3.237  -0.128  0.00  0.00    -0.004 A 
ATOM      5  C6  UNL d   1       1.197   3.558   0.131  0.00  0.00     0.002 A 
ATOM      6  C7  UNL d   1       0.222   2.559   0.119  0.00  0.00     0.002 A 
ENDROOT
BRANCH   1   7
ATOM      7  C1  UNL d   1      -0.472   0.144  -0.115  0.00  0.00     0.055 C 
ATOM      8  C   UNL d   1      -1.298   0.213   1.161  0.00  0.00     0.019 C 
ENDBRANCH   1   7
TORSDOF 1
ENDMDL
