MODEL 1
REMARK minimizedAffinity -2.72434115
REMARK minimizedRMSD -1
REMARK  1 active torsions:
REMARK  status: ('A' for Active; 'I' for Inactive)
REMARK    1  A    between atoms: C1_2  and  C2_3 
ROOT
ATOM      1  C2  UNL d   1       0.819   2.035   0.053  0.00  0.00    -0.077 A 
ATOM      2  C3  UNL d   1      -0.402   1.363   0.208  0.00  0.00     0.002 A 
ATOM      3  C4  UNL d   1      -0.442  -0.032   0.232  0.00  0.00     0.002 A 
ATOM      4  C5  UNL d   1       0.735  -0.767   0.107  0.00  0.00    -0.004 A 
ATOM      5  C6  UNL d   1       1.954  -0.108  -0.049  0.00  0.00     0.002 A 
ATOM      6  C7  UNL d   1       1.996   1.286  -0.075  0.00  0.00     0.002 A 
ENDROOT
BRANCH   1   7
ATOM      7  C1  UNL d   1       0.871   3.540   0.076  0.00  0.00     0.055 C 
ATOM      8  C   UNL d   1       2.193   4.040   0.639  0.00  0.00     0.019 C 
ENDBRANCH   1   7
TORSDOF 1
ENDMDL
