MODEL 1
REMARK minimizedAffinity -2.2547183
REMARK minimizedRMSD -1
REMARK  1 active torsions:
REMARK  status: ('A' for Active; 'I' for Inactive)
REMARK    1  A    between atoms: C1_2  and  C2_3 
ROOT
ATOM      1  C2  UNL d   1      -1.071   1.414  -1.064  0.00  0.00    -0.077 A 
ATOM      2  C3  UNL d   1      -2.229   0.687  -1.375  0.00  0.00     0.002 A 
ATOM      3  C4  UNL d   1      -3.086   1.123  -2.388  0.00  0.00     0.002 A 
ATOM      4  C5  UNL d   1      -2.792   2.284  -3.100  0.00  0.00    -0.004 A 
ATOM      5  C6  UNL d   1      -1.644   3.015  -2.797  0.00  0.00     0.002 A 
ATOM      6  C7  UNL d   1      -0.787   2.581  -1.784  0.00  0.00     0.002 A 
ENDROOT
BRANCH   1   7
ATOM      7  C1  UNL d   1      -0.120   0.919  -0.006  0.00  0.00     0.055 C 
ATOM      8  C   UNL d   1      -0.413  -0.527   0.368  0.00  0.00     0.019 C 
ENDBRANCH   1   7
TORSDOF 1
ENDMDL
