MODEL 1
REMARK minimizedAffinity -3.70327067
REMARK minimizedRMSD -1
REMARK  1 active torsions:
REMARK  status: ('A' for Active; 'I' for Inactive)
REMARK    1  A    between atoms: C1_2  and  C2_3 
ROOT
ATOM      1  C2  UNL d   1       1.505   1.149  -0.016  0.00  0.00    -0.077 A 
ATOM      2  C3  UNL d   1       0.402   0.325   0.248  0.00  0.00     0.002 A 
ATOM      3  C4  UNL d   1       0.568  -1.054   0.393  0.00  0.00     0.002 A 
ATOM      4  C5  UNL d   1       1.837  -1.619   0.280  0.00  0.00    -0.004 A 
ATOM      5  C6  UNL d   1       2.940  -0.809   0.015  0.00  0.00     0.002 A 
ATOM      6  C7  UNL d   1       2.775   0.569  -0.131  0.00  0.00     0.002 A 
ENDROOT
BRANCH   1   7
ATOM      7  C1  UNL d   1       1.335   2.642  -0.123  0.00  0.00     0.055 C 
ATOM      8  C   UNL d   1       2.588   3.376   0.331  0.00  0.00     0.019 C 
ENDBRANCH   1   7
TORSDOF 1
ENDMDL
