MODEL 1
REMARK minimizedAffinity 1.24600768
REMARK minimizedRMSD -1
REMARK  1 active torsions:
REMARK  status: ('A' for Active; 'I' for Inactive)
REMARK    1  A    between atoms: C1_2  and  C2_3 
ROOT
ATOM      1  C2  UNL d   1      -1.356   0.803  -1.580  0.00  0.00    -0.077 A 
ATOM      2  C3  UNL d   1      -2.285  -0.093  -2.127  0.00  0.00     0.002 A 
ATOM      3  C4  UNL d   1      -3.021   0.257  -3.261  0.00  0.00     0.002 A 
ATOM      4  C5  UNL d   1      -2.832   1.501  -3.859  0.00  0.00    -0.004 A 
ATOM      5  C6  UNL d   1      -1.912   2.400  -3.322  0.00  0.00     0.002 A 
ATOM      6  C7  UNL d   1      -1.176   2.053  -2.188  0.00  0.00     0.002 A 
ENDROOT
BRANCH   1   7
ATOM      7  C1  UNL d   1      -0.526   0.409  -0.387  0.00  0.00     0.055 C 
ATOM      8  C   UNL d   1      -1.355   0.407   0.889  0.00  0.00     0.019 C 
ENDBRANCH   1   7
TORSDOF 1
ENDMDL
