MODEL 1
REMARK minimizedAffinity -4.68709135
REMARK minimizedRMSD -1
REMARK  1 active torsions:
REMARK  status: ('A' for Active; 'I' for Inactive)
REMARK    1  A    between atoms: C1_2  and  C2_3 
ROOT
ATOM      1  C2  UNL d   1       0.021  -0.284   0.003  0.00  0.00    -0.077 A 
ATOM      2  C3  UNL d   1      -0.463  -1.202   0.946  0.00  0.00     0.002 A 
ATOM      3  C4  UNL d   1       0.364  -2.214   1.435  0.00  0.00     0.002 A 
ATOM      4  C5  UNL d   1       1.680  -2.317   0.990  0.00  0.00    -0.004 A 
ATOM      5  C6  UNL d   1       2.170  -1.410   0.051  0.00  0.00     0.002 A 
ATOM      6  C7  UNL d   1       1.345  -0.398  -0.439  0.00  0.00     0.002 A 
ENDROOT
BRANCH   1   7
ATOM      7  C1  UNL d   1      -0.855   0.839  -0.488  0.00  0.00     0.055 C 
ATOM      8  C   UNL d   1      -1.681   0.410  -1.692  0.00  0.00     0.019 C 
ENDBRANCH   1   7
TORSDOF 1
ENDMDL
