MODEL 1
REMARK minimizedAffinity -4.26552868
REMARK minimizedRMSD -1
REMARK  1 active torsions:
REMARK  status: ('A' for Active; 'I' for Inactive)
REMARK    1  A    between atoms: C1_2  and  C2_3 
ROOT
ATOM      1  C2  UNL d   1       0.227   2.075  -0.304  0.00  0.00    -0.077 A 
ATOM      2  C3  UNL d   1       0.411   3.443  -0.062  0.00  0.00     0.002 A 
ATOM      3  C4  UNL d   1       1.697   3.972   0.067  0.00  0.00     0.002 A 
ATOM      4  C5  UNL d   1       2.808   3.140  -0.050  0.00  0.00    -0.004 A 
ATOM      5  C6  UNL d   1       2.636   1.778  -0.290  0.00  0.00     0.002 A 
ATOM      6  C7  UNL d   1       1.352   1.247  -0.417  0.00  0.00     0.002 A 
ENDROOT
BRANCH   1   7
ATOM      7  C1  UNL d   1      -1.157   1.512  -0.492  0.00  0.00     0.055 C 
ATOM      8  C   UNL d   1      -1.697   1.820  -1.881  0.00  0.00     0.019 C 
ENDBRANCH   1   7
TORSDOF 1
ENDMDL
