MODEL 1
REMARK minimizedAffinity -5.10023975
REMARK minimizedRMSD -1
REMARK  1 active torsions:
REMARK  status: ('A' for Active; 'I' for Inactive)
REMARK    1  A    between atoms: C1_2  and  C2_3 
ROOT
ATOM      1  C2  UNL d   1      -1.090   3.025  -1.007  0.00  0.00    -0.077 A 
ATOM      2  C3  UNL d   1      -0.863   3.461  -2.320  0.00  0.00     0.002 A 
ATOM      3  C4  UNL d   1      -1.476   2.814  -3.395  0.00  0.00     0.002 A 
ATOM      4  C5  UNL d   1      -2.322   1.731  -3.168  0.00  0.00    -0.004 A 
ATOM      5  C6  UNL d   1      -2.553   1.288  -1.866  0.00  0.00     0.002 A 
ATOM      6  C7  UNL d   1      -1.940   1.933  -0.791  0.00  0.00     0.002 A 
ENDROOT
BRANCH   1   7
ATOM      7  C1  UNL d   1      -0.470   3.752   0.157  0.00  0.00     0.055 C 
ATOM      8  C   UNL d   1       1.047   3.630   0.140  0.00  0.00     0.019 C 
ENDBRANCH   1   7
TORSDOF 1
ENDMDL
