MODEL 1
REMARK minimizedAffinity -2.52439833
REMARK minimizedRMSD -1
REMARK  1 active torsions:
REMARK  status: ('A' for Active; 'I' for Inactive)
REMARK    1  A    between atoms: C1_2  and  C2_3 
ROOT
ATOM      1  C2  UNL d   1       0.895  -1.435   1.147  0.00  0.00    -0.077 A 
ATOM      2  C3  UNL d   1       1.018  -0.701  -0.040  0.00  0.00     0.002 A 
ATOM      3  C4  UNL d   1       0.009   0.179  -0.435  0.00  0.00     0.002 A 
ATOM      4  C5  UNL d   1      -1.129   0.336   0.355  0.00  0.00    -0.004 A 
ATOM      5  C6  UNL d   1      -1.262  -0.392   1.537  0.00  0.00     0.002 A 
ATOM      6  C7  UNL d   1      -0.254  -1.273   1.932  0.00  0.00     0.002 A 
ENDROOT
BRANCH   1   7
ATOM      7  C1  UNL d   1       2.005  -2.348   1.599  0.00  0.00     0.055 C 
ATOM      8  C   UNL d   1       3.193  -1.557   2.125  0.00  0.00     0.019 C 
ENDBRANCH   1   7
TORSDOF 1
ENDMDL
