MODEL 1
REMARK minimizedAffinity -1.74002314
REMARK minimizedRMSD -1
REMARK  1 active torsions:
REMARK  status: ('A' for Active; 'I' for Inactive)
REMARK    1  A    between atoms: C1_2  and  C2_3 
ROOT
ATOM      1  C2  UNL d   1       1.384   0.346   1.324  0.00  0.00    -0.076 A 
ATOM      2  C3  UNL d   1       0.646  -0.843   1.197  0.00  0.00     0.004 A 
ATOM      3  C4  UNL d   1      -0.566  -0.866   0.510  0.00  0.00    -0.003 A 
ATOM      4  C5  UNL d   1      -1.061   0.301  -0.061  0.00  0.00     0.000 A 
ATOM      5  C6  UNL d   1      -0.334   1.487   0.040  0.00  0.00     0.000 A 
ATOM      6  C7  UNL d   1       0.899   1.523   0.714  0.00  0.00    -0.073 A 
ATOM      7  C8  UNL d   1       1.638   2.830   0.797  0.00  0.00     0.078 C 
ENDROOT
BRANCH   1   8
ATOM      8  C1  UNL d   1       2.680   0.316   2.103  0.00  0.00     0.053 C 
ATOM      9  C   UNL d   1       2.571  -0.499   3.382  0.00  0.00     0.018 C 
ENDBRANCH   1   8
TORSDOF 1
ENDMDL
