MODEL 1
REMARK minimizedAffinity 4.08238316
REMARK minimizedRMSD -1
REMARK  1 active torsions:
REMARK  status: ('A' for Active; 'I' for Inactive)
REMARK    1  A    between atoms: C1_2  and  C2_3 
ROOT
ATOM      1  C2  UNL d   1       1.478  -0.034   2.014  0.00  0.00    -0.076 A 
ATOM      2  C3  UNL d   1       2.289   1.112   1.932  0.00  0.00     0.004 A 
ATOM      3  C4  UNL d   1       2.033   2.106   0.989  0.00  0.00    -0.003 A 
ATOM      4  C5  UNL d   1       0.961   1.972   0.114  0.00  0.00     0.000 A 
ATOM      5  C6  UNL d   1       0.135   0.851   0.193  0.00  0.00     0.000 A 
ATOM      6  C7  UNL d   1       0.370  -0.153   1.148  0.00  0.00    -0.073 A 
ATOM      7  C8  UNL d   1      -0.549  -1.344   1.185  0.00  0.00     0.078 C 
ENDROOT
BRANCH   1   8
ATOM      8  C1  UNL d   1       1.820  -1.092   3.038  0.00  0.00     0.053 C 
ATOM      9  C   UNL d   1       1.775  -0.560   4.463  0.00  0.00     0.018 C 
ENDBRANCH   1   8
TORSDOF 1
ENDMDL
