MODEL 1
REMARK minimizedAffinity 3.45092177
REMARK minimizedRMSD -1
REMARK  1 active torsions:
REMARK  status: ('A' for Active; 'I' for Inactive)
REMARK    1  A    between atoms: C1_2  and  C2_3 
ROOT
ATOM      1  C2  UNL d   1       0.805  -0.760   1.496  0.00  0.00    -0.076 A 
ATOM      2  C3  UNL d   1       0.463   0.046   0.396  0.00  0.00     0.004 A 
ATOM      3  C4  UNL d   1       1.106   1.262   0.170  0.00  0.00    -0.003 A 
ATOM      4  C5  UNL d   1       2.103   1.691   1.039  0.00  0.00     0.000 A 
ATOM      5  C6  UNL d   1       2.467   0.896   2.126  0.00  0.00     0.000 A 
ATOM      6  C7  UNL d   1       1.840  -0.340   2.359  0.00  0.00    -0.073 A 
ATOM      7  C8  UNL d   1       2.269  -1.154   3.549  0.00  0.00     0.078 C 
ENDROOT
BRANCH   1   8
ATOM      8  C1  UNL d   1       0.055  -2.056   1.705  0.00  0.00     0.053 C 
ATOM      9  C   UNL d   1       0.244  -3.032   0.554  0.00  0.00     0.018 C 
ENDBRANCH   1   8
TORSDOF 1
ENDMDL
