MODEL 1
REMARK minimizedAffinity -3.24151039
REMARK minimizedRMSD -1
REMARK  1 active torsions:
REMARK  status: ('A' for Active; 'I' for Inactive)
REMARK    1  A    between atoms: C1_2  and  C2_3 
ROOT
ATOM      1  C2  UNL d   1       1.338  -0.093   1.316  0.00  0.00    -0.076 A 
ATOM      2  C3  UNL d   1       2.208   1.000   1.168  0.00  0.00     0.004 A 
ATOM      3  C4  UNL d   1       1.789   2.171   0.538  0.00  0.00    -0.003 A 
ATOM      4  C5  UNL d   1       0.492   2.267   0.046  0.00  0.00     0.000 A 
ATOM      5  C6  UNL d   1      -0.391   1.199   0.201  0.00  0.00     0.000 A 
ATOM      6  C7  UNL d   1       0.011   0.018   0.848  0.00  0.00    -0.073 A 
ATOM      7  C8  UNL d   1      -0.980  -1.106   0.981  0.00  0.00     0.078 C 
ENDROOT
BRANCH   1   8
ATOM      8  C1  UNL d   1       1.857  -1.347   1.984  0.00  0.00     0.053 C 
ATOM      9  C   UNL d   1       3.319  -1.230   2.385  0.00  0.00     0.018 C 
ENDBRANCH   1   8
TORSDOF 1
ENDMDL
