MODEL 1
REMARK minimizedAffinity 11.538084
REMARK minimizedRMSD -1
REMARK  1 active torsions:
REMARK  status: ('A' for Active; 'I' for Inactive)
REMARK    1  A    between atoms: C1_2  and  C2_3 
ROOT
ATOM      1  C2  UNL d   1       3.099   1.600  -0.313  0.00  0.00    -0.076 A 
ATOM      2  C3  UNL d   1       2.363   1.689   0.881  0.00  0.00     0.004 A 
ATOM      3  C4  UNL d   1       2.107   0.556   1.653  0.00  0.00    -0.003 A 
ATOM      4  C5  UNL d   1       2.584  -0.684   1.243  0.00  0.00     0.000 A 
ATOM      5  C6  UNL d   1       3.331  -0.788   0.070  0.00  0.00     0.000 A 
ATOM      6  C7  UNL d   1       3.612   0.346  -0.711  0.00  0.00    -0.073 A 
ATOM      7  C8  UNL d   1       4.418   0.175  -1.969  0.00  0.00     0.078 C 
ENDROOT
BRANCH   1   8
ATOM      8  C1  UNL d   1       3.322   2.857  -1.122  0.00  0.00     0.053 C 
ATOM      9  C   UNL d   1       2.205   3.873  -0.939  0.00  0.00     0.018 C 
ENDBRANCH   1   8
TORSDOF 1
ENDMDL
