MODEL 1
REMARK minimizedAffinity 6.28364563
REMARK minimizedRMSD -1
REMARK  1 active torsions:
REMARK  status: ('A' for Active; 'I' for Inactive)
REMARK    1  A    between atoms: C1_2  and  C2_3 
ROOT
ATOM      1  C2  UNL d   1      -1.231  -2.077  -1.620  0.00  0.00    -0.076 A 
ATOM      2  C3  UNL d   1      -1.720  -1.959  -0.307  0.00  0.00     0.004 A 
ATOM      3  C4  UNL d   1      -0.850  -1.894   0.780  0.00  0.00    -0.003 A 
ATOM      4  C5  UNL d   1       0.524  -1.945   0.571  0.00  0.00     0.000 A 
ATOM      5  C6  UNL d   1       1.027  -2.045  -0.725  0.00  0.00     0.000 A 
ATOM      6  C7  UNL d   1       0.163  -2.095  -1.833  0.00  0.00    -0.073 A 
ATOM      7  C8  UNL d   1       0.760  -2.209  -3.209  0.00  0.00     0.078 C 
ENDROOT
BRANCH   1   8
ATOM      8  C1  UNL d   1      -2.224  -2.171  -2.757  0.00  0.00     0.053 C 
ATOM      9  C   UNL d   1      -2.790  -0.815  -3.149  0.00  0.00     0.018 C 
ENDBRANCH   1   8
TORSDOF 1
ENDMDL
