MODEL 1
REMARK minimizedAffinity -0.891480327
REMARK minimizedRMSD -1
REMARK  1 active torsions:
REMARK  status: ('A' for Active; 'I' for Inactive)
REMARK    1  A    between atoms: C1_2  and  C2_3 
ROOT
ATOM      1  C2  UNL d   1       1.648   0.057   2.039  0.00  0.00    -0.076 A 
ATOM      2  C3  UNL d   1       2.507   1.169   2.058  0.00  0.00     0.004 A 
ATOM      3  C4  UNL d   1       2.340   2.220   1.159  0.00  0.00    -0.003 A 
ATOM      4  C5  UNL d   1       1.310   2.177   0.225  0.00  0.00     0.000 A 
ATOM      5  C6  UNL d   1       0.437   1.090   0.203  0.00  0.00     0.000 A 
ATOM      6  C7  UNL d   1       0.582   0.029   1.114  0.00  0.00    -0.073 A 
ATOM      7  C8  UNL d   1      -0.384  -1.121   1.041  0.00  0.00     0.078 C 
ENDROOT
BRANCH   1   8
ATOM      8  C1  UNL d   1       1.894  -1.066   3.021  0.00  0.00     0.053 C 
ATOM      9  C   UNL d   1       2.212  -0.559   4.419  0.00  0.00     0.018 C 
ENDBRANCH   1   8
TORSDOF 1
ENDMDL
