MODEL 1
REMARK minimizedAffinity -1.98470271
REMARK minimizedRMSD -1
REMARK  0 active torsions:
REMARK  status: ('A' for Active; 'I' for Inactive)
ROOT
ATOM      1  C   UNL d   1      -1.063   0.841   3.129  0.00  0.00     0.172 C 
ATOM      2  N   UNL d   1      -0.136   0.362   2.132  0.00  0.00    -0.070 N 
ATOM      3  C1  UNL d   1       1.104  -0.164   2.382  0.00  0.00    -0.004 A 
ATOM      4  C2  UNL d   1       1.671  -0.501   1.172  0.00  0.00    -0.047 A 
ATOM      5  C3  UNL d   1       0.741  -0.165   0.160  0.00  0.00    -0.047 A 
ATOM      6  C4  UNL d   1      -0.369   0.368   0.782  0.00  0.00    -0.004 A 
ENDROOT
TORSDOF 0
ENDMDL
