MODEL 1
REMARK minimizedAffinity -3.25297856
REMARK minimizedRMSD -1
REMARK  0 active torsions:
REMARK  status: ('A' for Active; 'I' for Inactive)
ROOT
ATOM      1  C   UNL d   1       1.866  -0.492   2.135  0.00  0.00     0.172 C 
ATOM      2  N   UNL d   1       0.928  -0.371   1.043  0.00  0.00    -0.070 N 
ATOM      3  C1  UNL d   1      -0.163   0.456   1.015  0.00  0.00    -0.004 A 
ATOM      4  C2  UNL d   1      -0.797   0.278  -0.195  0.00  0.00    -0.047 A 
ATOM      5  C3  UNL d   1      -0.063  -0.691  -0.919  0.00  0.00    -0.047 A 
ATOM      6  C4  UNL d   1       1.000  -1.076  -0.129  0.00  0.00    -0.004 A 
ENDROOT
TORSDOF 0
ENDMDL
