MODEL 1
REMARK minimizedAffinity -2.19060755
REMARK minimizedRMSD -1
REMARK  0 active torsions:
REMARK  status: ('A' for Active; 'I' for Inactive)
ROOT
ATOM      1  C   UNL d   1      -1.135   0.562   2.607  0.00  0.00     0.172 C 
ATOM      2  N   UNL d   1      -0.677   0.240   1.275  0.00  0.00    -0.070 N 
ATOM      3  C1  UNL d   1      -1.465   0.159   0.158  0.00  0.00    -0.004 A 
ATOM      4  C2  UNL d   1      -0.654  -0.170  -0.907  0.00  0.00    -0.047 A 
ATOM      5  C3  UNL d   1       0.666  -0.292  -0.412  0.00  0.00    -0.047 A 
ATOM      6  C4  UNL d   1       0.623  -0.033   0.942  0.00  0.00    -0.004 A 
ENDROOT
TORSDOF 0
ENDMDL
