MODEL 1
REMARK minimizedAffinity -3.94322467
REMARK minimizedRMSD -1
REMARK  0 active torsions:
REMARK  status: ('A' for Active; 'I' for Inactive)
ROOT
ATOM      1  C   UNL d   1       2.068  -0.661   2.352  0.00  0.00     0.172 C 
ATOM      2  N   UNL d   1       0.780  -0.071   2.072  0.00  0.00    -0.070 N 
ATOM      3  C1  UNL d   1      -0.107   0.392   3.007  0.00  0.00    -0.004 A 
ATOM      4  C2  UNL d   1      -1.210   0.876   2.339  0.00  0.00    -0.047 A 
ATOM      5  C3  UNL d   1      -0.980   0.697   0.954  0.00  0.00    -0.047 A 
ATOM      6  C4  UNL d   1       0.260   0.109   0.817  0.00  0.00    -0.004 A 
ENDROOT
TORSDOF 0
ENDMDL
