MODEL 1
REMARK minimizedAffinity -0.816222191
REMARK minimizedRMSD -1
REMARK  0 active torsions:
REMARK  status: ('A' for Active; 'I' for Inactive)
ROOT
ATOM      1  C   UNL d   1       0.785  -0.314  -2.546  0.00  0.00     0.172 C 
ATOM      2  N   UNL d   1       0.244  -0.329  -1.207  0.00  0.00    -0.070 N 
ATOM      3  C1  UNL d   1       0.939  -0.636  -0.069  0.00  0.00    -0.004 A 
ATOM      4  C2  UNL d   1       0.070  -0.536   0.996  0.00  0.00    -0.047 A 
ATOM      5  C3  UNL d   1      -1.191  -0.156   0.480  0.00  0.00    -0.047 A 
ATOM      6  C4  UNL d   1      -1.055  -0.035  -0.887  0.00  0.00    -0.004 A 
ENDROOT
TORSDOF 0
ENDMDL
