MODEL 1
REMARK minimizedAffinity -2.93752599
REMARK minimizedRMSD -1
REMARK  0 active torsions:
REMARK  status: ('A' for Active; 'I' for Inactive)
ROOT
ATOM      1  C   UNL d   1       0.335  -0.300  -0.910  0.00  0.00     0.172 C 
ATOM      2  N   UNL d   1      -0.343  -0.195   0.361  0.00  0.00    -0.070 N 
ATOM      3  C1  UNL d   1       0.221  -0.424   1.588  0.00  0.00    -0.004 A 
ATOM      4  C2  UNL d   1      -0.751  -0.219   2.543  0.00  0.00    -0.047 A 
ATOM      5  C3  UNL d   1      -1.940   0.145   1.868  0.00  0.00    -0.047 A 
ATOM      6  C4  UNL d   1      -1.659   0.152   0.518  0.00  0.00    -0.004 A 
ENDROOT
TORSDOF 0
ENDMDL
