MODEL 1
REMARK minimizedAffinity -3.01140404
REMARK minimizedRMSD -1
REMARK  0 active torsions:
REMARK  status: ('A' for Active; 'I' for Inactive)
ROOT
ATOM      1  C   UNL d   1       0.036   0.787  -0.961  0.00  0.00     0.172 C 
ATOM      2  N   UNL d   1      -0.359   0.590   0.414  0.00  0.00    -0.070 N 
ATOM      3  C1  UNL d   1      -1.577   0.129   0.837  0.00  0.00    -0.004 A 
ATOM      4  C2  UNL d   1      -1.556   0.083   2.214  0.00  0.00    -0.047 A 
ATOM      5  C3  UNL d   1      -0.281   0.533   2.634  0.00  0.00    -0.047 A 
ATOM      6  C4  UNL d   1       0.439   0.840   1.499  0.00  0.00    -0.004 A 
ENDROOT
TORSDOF 0
ENDMDL
