MODEL 1
REMARK minimizedAffinity -4.41147566
REMARK minimizedRMSD -1
REMARK  2 active torsions:
REMARK  status: ('A' for Active; 'I' for Inactive)
REMARK    1  A    between atoms: C1_2  and  C2_3 
REMARK    2  A    between atoms: C2_3  and  C3_4 
ROOT
ATOM      1  C3  UNL d   1      -0.250   0.333   0.912  0.00  0.00    -0.075 A 
ATOM      2  C4  UNL d   1       0.883  -0.235   1.512  0.00  0.00     0.002 A 
ATOM      3  C5  UNL d   1       1.029  -0.225   2.900  0.00  0.00     0.002 A 
ATOM      4  C6  UNL d   1       0.053   0.362   3.702  0.00  0.00    -0.004 A 
ATOM      5  C7  UNL d   1      -1.068   0.944   3.115  0.00  0.00     0.002 A 
ATOM      6  C8  UNL d   1      -1.220   0.932   1.728  0.00  0.00     0.002 A 
ENDROOT
BRANCH   1   7
ATOM      7  C2  UNL d   1      -0.429   0.299  -0.587  0.00  0.00     0.056 C 
BRANCH   7   8
ATOM      8  C1  UNL d   1       0.539  -0.644  -1.309  0.00  0.00     0.007 C 
ATOM      9  C   UNL d   1       0.729  -0.297  -2.780  0.00  0.00     0.009 C 
ENDBRANCH   7   8
ENDBRANCH   1   7
TORSDOF 2
ENDMDL
