MODEL 1
REMARK minimizedAffinity -4.85214758
REMARK minimizedRMSD -1
REMARK  2 active torsions:
REMARK  status: ('A' for Active; 'I' for Inactive)
REMARK    1  A    between atoms: C1_2  and  C2_3 
REMARK    2  A    between atoms: C2_3  and  C3_4 
ROOT
ATOM      1  C3  UNL d   1       0.126  -0.232  -0.259  0.00  0.00    -0.075 A 
ATOM      2  C4  UNL d   1       0.566  -0.241   1.072  0.00  0.00     0.002 A 
ATOM      3  C5  UNL d   1      -0.331  -0.013   2.116  0.00  0.00     0.002 A 
ATOM      4  C6  UNL d   1      -1.674   0.236   1.843  0.00  0.00    -0.004 A 
ATOM      5  C7  UNL d   1      -2.119   0.264   0.523  0.00  0.00     0.002 A 
ATOM      6  C8  UNL d   1      -1.225   0.032  -0.523  0.00  0.00     0.002 A 
ENDROOT
BRANCH   1   7
ATOM      7  C2  UNL d   1       1.086  -0.508  -1.392  0.00  0.00     0.056 C 
BRANCH   7   8
ATOM      8  C1  UNL d   1       1.413   0.722  -2.245  0.00  0.00     0.007 C 
ATOM      9  C   UNL d   1       1.186   0.498  -3.734  0.00  0.00     0.009 C 
ENDBRANCH   7   8
ENDBRANCH   1   7
TORSDOF 2
ENDMDL
