MODEL 1
REMARK minimizedAffinity -4.40558004
REMARK minimizedRMSD -1
REMARK  2 active torsions:
REMARK  status: ('A' for Active; 'I' for Inactive)
REMARK    1  A    between atoms: C1_2  and  C2_3 
REMARK    2  A    between atoms: C2_3  and  C3_4 
ROOT
ATOM      1  C3  UNL d   1       0.593  -0.066  -1.534  0.00  0.00    -0.075 A 
ATOM      2  C4  UNL d   1       1.933   0.236  -1.819  0.00  0.00     0.002 A 
ATOM      3  C5  UNL d   1       2.306   0.668  -3.092  0.00  0.00     0.002 A 
ATOM      4  C6  UNL d   1       1.348   0.794  -4.097  0.00  0.00    -0.004 A 
ATOM      5  C7  UNL d   1       0.017   0.481  -3.829  0.00  0.00     0.002 A 
ATOM      6  C8  UNL d   1      -0.359   0.052  -2.554  0.00  0.00     0.002 A 
ENDROOT
BRANCH   1   7
ATOM      7  C2  UNL d   1       0.179  -0.506  -0.150  0.00  0.00     0.056 C 
BRANCH   7   8
ATOM      8  C1  UNL d   1      -1.261  -0.133   0.218  0.00  0.00     0.007 C 
ATOM      9  C   UNL d   1      -1.440   0.187   1.696  0.00  0.00     0.009 C 
ENDBRANCH   7   8
ENDBRANCH   1   7
TORSDOF 2
ENDMDL
