MODEL 1
REMARK minimizedAffinity -3.54897213
REMARK minimizedRMSD -1
REMARK  2 active torsions:
REMARK  status: ('A' for Active; 'I' for Inactive)
REMARK    1  A    between atoms: C1_2  and  C2_3 
REMARK    2  A    between atoms: C2_3  and  C3_4 
ROOT
ATOM      1  C3  UNL d   1      -0.137  -0.288   0.125  0.00  0.00    -0.075 A 
ATOM      2  C4  UNL d   1       0.632  -0.465   1.285  0.00  0.00     0.002 A 
ATOM      3  C5  UNL d   1       0.135  -0.079   2.530  0.00  0.00     0.002 A 
ATOM      4  C6  UNL d   1      -1.129   0.498   2.630  0.00  0.00    -0.004 A 
ATOM      5  C7  UNL d   1      -1.895   0.693   1.483  0.00  0.00     0.002 A 
ATOM      6  C8  UNL d   1      -1.402   0.303   0.236  0.00  0.00     0.002 A 
ENDROOT
BRANCH   1   7
ATOM      7  C2  UNL d   1       0.383  -0.732  -1.221  0.00  0.00     0.056 C 
BRANCH   7   8
ATOM      8  C1  UNL d   1       0.739   0.423  -2.164  0.00  0.00     0.007 C 
ATOM      9  C   UNL d   1       1.136  -0.040  -3.559  0.00  0.00     0.009 C 
ENDBRANCH   7   8
ENDBRANCH   1   7
TORSDOF 2
ENDMDL
