MODEL 1
REMARK minimizedAffinity -1.33478713
REMARK minimizedRMSD -1
REMARK  2 active torsions:
REMARK  status: ('A' for Active; 'I' for Inactive)
REMARK    1  A    between atoms: C1_2  and  C2_3 
REMARK    2  A    between atoms: C2_3  and  C3_4 
ROOT
ATOM      1  C3  UNL d   1       0.267  -0.276  -1.563  0.00  0.00    -0.075 A 
ATOM      2  C4  UNL d   1       1.547   0.296  -1.614  0.00  0.00     0.002 A 
ATOM      3  C5  UNL d   1       2.148   0.577  -2.841  0.00  0.00     0.002 A 
ATOM      4  C6  UNL d   1       1.484   0.281  -4.030  0.00  0.00    -0.004 A 
ATOM      5  C7  UNL d   1       0.220  -0.303  -3.991  0.00  0.00     0.002 A 
ATOM      6  C8  UNL d   1      -0.386  -0.581  -2.764  0.00  0.00     0.002 A 
ENDROOT
BRANCH   1   7
ATOM      7  C2  UNL d   1      -0.401  -0.556  -0.238  0.00  0.00     0.056 C 
BRANCH   7   8
ATOM      8  C1  UNL d   1      -1.810   0.032  -0.114  0.00  0.00     0.007 C 
ATOM      9  C   UNL d   1      -2.198   0.364   1.321  0.00  0.00     0.009 C 
ENDBRANCH   7   8
ENDBRANCH   1   7
TORSDOF 2
ENDMDL
