MODEL 1
REMARK minimizedAffinity -1.53965664
REMARK minimizedRMSD -1
REMARK  2 active torsions:
REMARK  status: ('A' for Active; 'I' for Inactive)
REMARK    1  A    between atoms: C1_2  and  C2_3 
REMARK    2  A    between atoms: C2_3  and  C3_4 
ROOT
ATOM      1  C3  UNL d   1       0.842  -0.071  -2.196  0.00  0.00    -0.075 A 
ATOM      2  C4  UNL d   1       0.089   1.015  -1.726  0.00  0.00     0.002 A 
ATOM      3  C5  UNL d   1      -0.520   0.965  -0.472  0.00  0.00     0.002 A 
ATOM      4  C6  UNL d   1      -0.393  -0.172   0.322  0.00  0.00    -0.004 A 
ATOM      5  C7  UNL d   1       0.339  -1.264  -0.141  0.00  0.00     0.002 A 
ATOM      6  C8  UNL d   1       0.953  -1.215  -1.394  0.00  0.00     0.002 A 
ENDROOT
BRANCH   1   7
ATOM      7  C2  UNL d   1       1.529  -0.012  -3.540  0.00  0.00     0.056 C 
BRANCH   7   8
ATOM      8  C1  UNL d   1       1.176   1.229  -4.366  0.00  0.00     0.007 C 
ATOM      9  C   UNL d   1      -0.146   1.099  -5.110  0.00  0.00     0.009 C 
ENDBRANCH   7   8
ENDBRANCH   1   7
TORSDOF 2
ENDMDL
