MODEL 1
REMARK minimizedAffinity -4.47373295
REMARK minimizedRMSD -1
REMARK  2 active torsions:
REMARK  status: ('A' for Active; 'I' for Inactive)
REMARK    1  A    between atoms: C1_2  and  C2_3 
REMARK    2  A    between atoms: C2_3  and  C3_4 
ROOT
ATOM      1  C3  UNL d   1       0.104  -0.524   0.516  0.00  0.00    -0.075 A 
ATOM      2  C4  UNL d   1       1.197  -0.847   1.333  0.00  0.00     0.002 A 
ATOM      3  C5  UNL d   1       1.124  -0.671   2.715  0.00  0.00     0.002 A 
ATOM      4  C6  UNL d   1      -0.035  -0.162   3.296  0.00  0.00    -0.004 A 
ATOM      5  C7  UNL d   1      -1.121   0.178   2.492  0.00  0.00     0.002 A 
ATOM      6  C8  UNL d   1      -1.053  -0.001   1.109  0.00  0.00     0.002 A 
ENDROOT
BRANCH   1   7
ATOM      7  C2  UNL d   1       0.166  -0.740  -0.977  0.00  0.00     0.056 C 
BRANCH   7   8
ATOM      8  C1  UNL d   1       0.238   0.555  -1.793  0.00  0.00     0.007 C 
ATOM      9  C   UNL d   1       0.311   0.316  -3.295  0.00  0.00     0.009 C 
ENDBRANCH   7   8
ENDBRANCH   1   7
TORSDOF 2
ENDMDL
