MODEL 1
REMARK minimizedAffinity 15.3895006
REMARK minimizedRMSD -1
REMARK  0 active torsions:
REMARK  status: ('A' for Active; 'I' for Inactive)
ROOT
ATOM      1  C   UNL d   1      -3.295  -3.903  -3.045  0.00  0.00     0.124 A 
ATOM      2  C1  UNL d   1      -3.325  -3.436  -1.738  0.00  0.00     0.062 A 
ATOM      3  C2  UNL d   1      -3.320  -2.068  -1.484  0.00  0.00     0.162 A 
ATOM      4  C3  UNL d   1      -3.285  -1.156  -2.539  0.00  0.00    -0.034 A 
ATOM      5  C4  UNL d   1      -3.253  -1.633  -3.850  0.00  0.00     0.162 A 
ATOM      6  C5  UNL d   1      -3.258  -3.002  -4.100  0.00  0.00     0.062 A 
ATOM      7  F   UNL d   1      -3.228  -3.451  -5.363  0.00  0.00    -0.097 F 
ATOM      8  F1  UNL d   1      -3.218  -0.784  -4.888  0.00  0.00    -0.096 F 
ATOM      9  I   UNL d   1      -3.276   0.891  -2.163  0.00  0.00    -0.060 I 
ATOM     10  F2  UNL d   1      -3.350  -1.645  -0.212  0.00  0.00    -0.096 F 
ATOM     11  F3  UNL d   1      -3.360  -4.305  -0.718  0.00  0.00    -0.097 F 
ATOM     12  F4  UNL d   1      -3.299  -5.221  -3.287  0.00  0.00    -0.092 F 
ENDROOT
TORSDOF 0
ENDMDL
