MODEL 1
REMARK minimizedAffinity 13.494029
REMARK minimizedRMSD -1
REMARK  0 active torsions:
REMARK  status: ('A' for Active; 'I' for Inactive)
ROOT
ATOM      1  C   UNL d   1      -2.776  -1.126  -0.637  0.00  0.00     0.124 A 
ATOM      2  C1  UNL d   1      -2.847  -0.867  -1.999  0.00  0.00     0.062 A 
ATOM      3  C2  UNL d   1      -3.340  -1.834  -2.871  0.00  0.00     0.162 A 
ATOM      4  C3  UNL d   1      -3.767  -3.069  -2.383  0.00  0.00    -0.034 A 
ATOM      5  C4  UNL d   1      -3.692  -3.322  -1.012  0.00  0.00     0.162 A 
ATOM      6  C5  UNL d   1      -3.199  -2.353  -0.145  0.00  0.00     0.062 A 
ATOM      7  F   UNL d   1      -3.131  -2.605   1.170  0.00  0.00    -0.097 F 
ATOM      8  F1  UNL d   1      -4.095  -4.499  -0.510  0.00  0.00    -0.096 F 
ATOM      9  I   UNL d   1      -4.505  -4.517  -3.683  0.00  0.00    -0.060 I 
ATOM     10  F2  UNL d   1      -3.397  -1.557  -4.182  0.00  0.00    -0.096 F 
ATOM     11  F3  UNL d   1      -2.438   0.317  -2.477  0.00  0.00    -0.097 F 
ATOM     12  F4  UNL d   1      -2.300  -0.195   0.199  0.00  0.00    -0.092 F 
ENDROOT
TORSDOF 0
ENDMDL
