MODEL 1
REMARK minimizedAffinity 16.6664448
REMARK minimizedRMSD -1
REMARK  0 active torsions:
REMARK  status: ('A' for Active; 'I' for Inactive)
ROOT
ATOM      1  C   UNL d   1       2.460   2.700  -0.596  0.00  0.00     0.124 A 
ATOM      2  C1  UNL d   1       1.265   3.060   0.010  0.00  0.00     0.062 A 
ATOM      3  C2  UNL d   1       0.915   2.521   1.244  0.00  0.00     0.162 A 
ATOM      4  C3  UNL d   1       1.763   1.615   1.882  0.00  0.00    -0.034 A 
ATOM      5  C4  UNL d   1       2.963   1.256   1.265  0.00  0.00     0.162 A 
ATOM      6  C5  UNL d   1       3.307   1.798   0.031  0.00  0.00     0.062 A 
ATOM      7  F   UNL d   1       4.463   1.448  -0.553  0.00  0.00    -0.097 F 
ATOM      8  F1  UNL d   1       3.801   0.387   1.850  0.00  0.00    -0.096 F 
ATOM      9  I   UNL d   1       1.244   0.805   3.728  0.00  0.00    -0.060 I 
ATOM     10  F2  UNL d   1      -0.246   2.887   1.807  0.00  0.00    -0.096 F 
ATOM     11  F3  UNL d   1       0.443   3.931  -0.595  0.00  0.00    -0.097 F 
ATOM     12  F4  UNL d   1       2.793   3.220  -1.785  0.00  0.00    -0.092 F 
ENDROOT
TORSDOF 0
ENDMDL
