MODEL 1
REMARK minimizedAffinity 14.023778
REMARK minimizedRMSD -1
REMARK  0 active torsions:
REMARK  status: ('A' for Active; 'I' for Inactive)
ROOT
ATOM      1  C   UNL d   1       4.019   0.669   0.467  0.00  0.00     0.124 A 
ATOM      2  C1  UNL d   1       4.180  -0.471   1.244  0.00  0.00     0.062 A 
ATOM      3  C2  UNL d   1       3.616  -0.537   2.514  0.00  0.00     0.162 A 
ATOM      4  C3  UNL d   1       2.884   0.538   3.016  0.00  0.00    -0.034 A 
ATOM      5  C4  UNL d   1       2.727   1.681   2.230  0.00  0.00     0.162 A 
ATOM      6  C5  UNL d   1       3.293   1.743   0.961  0.00  0.00     0.062 A 
ATOM      7  F   UNL d   1       3.136   2.845   0.213  0.00  0.00    -0.097 F 
ATOM      8  F1  UNL d   1       2.029   2.734   2.682  0.00  0.00    -0.096 F 
ATOM      9  I   UNL d   1       2.038   0.442   4.916  0.00  0.00    -0.060 I 
ATOM     10  F2  UNL d   1       3.787  -1.651   3.242  0.00  0.00    -0.096 F 
ATOM     11  F3  UNL d   1       4.882  -1.510   0.769  0.00  0.00    -0.097 F 
ATOM     12  F4  UNL d   1       4.564   0.731  -0.754  0.00  0.00    -0.092 F 
ENDROOT
TORSDOF 0
ENDMDL
