MODEL 1
REMARK minimizedAffinity 1.84966671
REMARK minimizedRMSD -1
REMARK  0 active torsions:
REMARK  status: ('A' for Active; 'I' for Inactive)
ROOT
ATOM      1  C   UNL d   1       1.708  -5.987  -0.233  0.00  0.00     0.124 A 
ATOM      2  C1  UNL d   1       1.735  -5.981  -1.620  0.00  0.00     0.062 A 
ATOM      3  C2  UNL d   1       2.951  -5.981  -2.297  0.00  0.00     0.162 A 
ATOM      4  C3  UNL d   1       4.152  -5.988  -1.587  0.00  0.00    -0.034 A 
ATOM      5  C4  UNL d   1       4.117  -5.993  -0.191  0.00  0.00     0.162 A 
ATOM      6  C5  UNL d   1       2.898  -5.993   0.481  0.00  0.00     0.062 A 
ATOM      7  F   UNL d   1       2.874  -5.999   1.821  0.00  0.00    -0.097 F 
ATOM      8  F1  UNL d   1       5.252  -6.000   0.523  0.00  0.00    -0.096 F 
ATOM      9  I   UNL d   1       5.973  -5.988  -2.594  0.00  0.00    -0.060 I 
ATOM     10  F2  UNL d   1       2.947  -5.975  -3.638  0.00  0.00    -0.096 F 
ATOM     11  F3  UNL d   1       0.586  -5.974  -2.312  0.00  0.00    -0.097 F 
ATOM     12  F4  UNL d   1       0.536  -5.986   0.416  0.00  0.00    -0.092 F 
ENDROOT
TORSDOF 0
ENDMDL
