MODEL 1
REMARK minimizedAffinity 4.02307606
REMARK minimizedRMSD -1
REMARK  0 active torsions:
REMARK  status: ('A' for Active; 'I' for Inactive)
ROOT
ATOM      1  C   UNL d   1       3.697  -5.788  -4.496  0.00  0.00     0.124 A 
ATOM      2  C1  UNL d   1       4.606  -5.865  -3.450  0.00  0.00     0.062 A 
ATOM      3  C2  UNL d   1       4.156  -5.925  -2.134  0.00  0.00     0.162 A 
ATOM      4  C3  UNL d   1       2.790  -5.910  -1.856  0.00  0.00    -0.034 A 
ATOM      5  C4  UNL d   1       1.881  -5.832  -2.913  0.00  0.00     0.162 A 
ATOM      6  C5  UNL d   1       2.336  -5.772  -4.227  0.00  0.00     0.062 A 
ATOM      7  F   UNL d   1       1.456  -5.698  -5.236  0.00  0.00    -0.097 F 
ATOM      8  F1  UNL d   1       0.560  -5.815  -2.682  0.00  0.00    -0.096 F 
ATOM      9  I   UNL d   1       2.113  -5.999   0.110  0.00  0.00    -0.060 I 
ATOM     10  F2  UNL d   1       5.058  -5.998  -1.143  0.00  0.00    -0.096 F 
ATOM     11  F3  UNL d   1       5.922  -5.880  -3.707  0.00  0.00    -0.097 F 
ATOM     12  F4  UNL d   1       4.133  -5.730  -5.761  0.00  0.00    -0.092 F 
ENDROOT
TORSDOF 0
ENDMDL
