MODEL 1
REMARK minimizedAffinity 9.36849117
REMARK minimizedRMSD -1
REMARK  0 active torsions:
REMARK  status: ('A' for Active; 'I' for Inactive)
ROOT
ATOM      1  C   UNL d   1      -0.257  -1.163   1.712  0.00  0.00     0.124 A 
ATOM      2  C1  UNL d   1      -0.894   0.036   1.423  0.00  0.00     0.062 A 
ATOM      3  C2  UNL d   1      -0.146   1.179   1.155  0.00  0.00     0.162 A 
ATOM      4  C3  UNL d   1       1.248   1.128   1.172  0.00  0.00    -0.034 A 
ATOM      5  C4  UNL d   1       1.881  -0.081   1.464  0.00  0.00     0.162 A 
ATOM      6  C5  UNL d   1       1.130  -1.221   1.732  0.00  0.00     0.062 A 
ATOM      7  F   UNL d   1       1.747  -2.378   2.010  0.00  0.00    -0.097 F 
ATOM      8  F1  UNL d   1       3.220  -0.165   1.489  0.00  0.00    -0.096 F 
ATOM      9  I   UNL d   1       2.369   2.835   0.771  0.00  0.00    -0.060 I 
ATOM     10  F2  UNL d   1      -0.788   2.324   0.879  0.00  0.00    -0.096 F 
ATOM     11  F3  UNL d   1      -2.233   0.094   1.404  0.00  0.00    -0.097 F 
ATOM     12  F4  UNL d   1      -0.979  -2.261   1.971  0.00  0.00    -0.092 F 
ENDROOT
TORSDOF 0
ENDMDL
