MODEL 1
REMARK minimizedAffinity 10.9565802
REMARK minimizedRMSD -1
REMARK  0 active torsions:
REMARK  status: ('A' for Active; 'I' for Inactive)
ROOT
ATOM      1  C   UNL d   1       0.405   2.104   0.481  0.00  0.00     0.124 A 
ATOM      2  C1  UNL d   1      -0.424   1.032   0.781  0.00  0.00     0.062 A 
ATOM      3  C2  UNL d   1      -0.077  -0.255   0.380  0.00  0.00     0.162 A 
ATOM      4  C3  UNL d   1       1.106  -0.477  -0.326  0.00  0.00    -0.034 A 
ATOM      5  C4  UNL d   1       1.934   0.607  -0.625  0.00  0.00     0.162 A 
ATOM      6  C5  UNL d   1       1.582   1.891  -0.221  0.00  0.00     0.062 A 
ATOM      7  F   UNL d   1       2.384   2.926  -0.512  0.00  0.00    -0.097 F 
ATOM      8  F1  UNL d   1       3.078   0.429  -1.302  0.00  0.00    -0.096 F 
ATOM      9  I   UNL d   1       1.629  -2.399  -0.929  0.00  0.00    -0.060 I 
ATOM     10  F2  UNL d   1      -0.896  -1.272   0.683  0.00  0.00    -0.096 F 
ATOM     11  F3  UNL d   1      -1.562   1.235   1.459  0.00  0.00    -0.097 F 
ATOM     12  F4  UNL d   1       0.068   3.341   0.868  0.00  0.00    -0.092 F 
ENDROOT
TORSDOF 0
ENDMDL
