MODEL 1
REMARK minimizedAffinity 4.18547487
REMARK minimizedRMSD -1
REMARK  0 active torsions:
REMARK  status: ('A' for Active; 'I' for Inactive)
ROOT
ATOM      1  C   UNL d   1       2.809  -4.714  -5.965  0.00  0.00     0.124 A 
ATOM      2  C1  UNL d   1       4.179  -4.486  -5.960  0.00  0.00     0.062 A 
ATOM      3  C2  UNL d   1       4.672  -3.185  -5.958  0.00  0.00     0.162 A 
ATOM      4  C3  UNL d   1       3.796  -2.100  -5.958  0.00  0.00    -0.034 A 
ATOM      5  C4  UNL d   1       2.420  -2.336  -5.963  0.00  0.00     0.162 A 
ATOM      6  C5  UNL d   1       1.932  -3.639  -5.966  0.00  0.00     0.062 A 
ATOM      7  F   UNL d   1       0.608  -3.857  -5.970  0.00  0.00    -0.097 F 
ATOM      8  F1  UNL d   1       1.549  -1.316  -5.964  0.00  0.00    -0.096 F 
ATOM      9  I   UNL d   1       4.530  -0.152  -5.954  0.00  0.00    -0.060 I 
ATOM     10  F2  UNL d   1       6.000  -2.995  -5.953  0.00  0.00    -0.096 F 
ATOM     11  F3  UNL d   1       5.029  -5.523  -5.960  0.00  0.00    -0.097 F 
ATOM     12  F4  UNL d   1       2.337  -5.967  -5.968  0.00  0.00    -0.092 F 
ENDROOT
TORSDOF 0
ENDMDL
