MODEL 1
REMARK minimizedAffinity 19.4451141
REMARK minimizedRMSD -1
REMARK  0 active torsions:
REMARK  status: ('A' for Active; 'I' for Inactive)
ROOT
ATOM      1  C   UNL d   1       1.074  -0.058   0.732  0.00  0.00     0.124 A 
ATOM      2  C1  UNL d   1       0.341   1.000   0.211  0.00  0.00     0.062 A 
ATOM      3  C2  UNL d   1      -0.364   0.844  -0.978  0.00  0.00     0.162 A 
ATOM      4  C3  UNL d   1      -0.342  -0.376  -1.655  0.00  0.00    -0.034 A 
ATOM      5  C4  UNL d   1       0.397  -1.435  -1.126  0.00  0.00     0.162 A 
ATOM      6  C5  UNL d   1       1.101  -1.274   0.063  0.00  0.00     0.062 A 
ATOM      7  F   UNL d   1       1.808  -2.297   0.565  0.00  0.00    -0.097 F 
ATOM      8  F1  UNL d   1       0.440  -2.621  -1.751  0.00  0.00    -0.096 F 
ATOM      9  I   UNL d   1      -1.396  -0.613  -3.434  0.00  0.00    -0.060 I 
ATOM     10  F2  UNL d   1      -1.063   1.883  -1.459  0.00  0.00    -0.096 F 
ATOM     11  F3  UNL d   1       0.314   2.176   0.855  0.00  0.00    -0.097 F 
ATOM     12  F4  UNL d   1       1.753   0.095   1.876  0.00  0.00    -0.092 F 
ENDROOT
TORSDOF 0
ENDMDL
