MODEL 1
REMARK minimizedAffinity 10.3716841
REMARK minimizedRMSD -1
REMARK  0 active torsions:
REMARK  status: ('A' for Active; 'I' for Inactive)
ROOT
ATOM      1  C   UNL d   1       1.980   0.364   1.161  0.00  0.00     0.124 A 
ATOM      2  C1  UNL d   1       1.423   1.593   0.834  0.00  0.00     0.062 A 
ATOM      3  C2  UNL d   1       0.615   1.718  -0.292  0.00  0.00     0.162 A 
ATOM      4  C3  UNL d   1       0.356   0.610  -1.099  0.00  0.00    -0.034 A 
ATOM      5  C4  UNL d   1       0.920  -0.622  -0.765  0.00  0.00     0.162 A 
ATOM      6  C5  UNL d   1       1.728  -0.742   0.362  0.00  0.00     0.062 A 
ATOM      7  F   UNL d   1       2.264  -1.930   0.676  0.00  0.00    -0.097 F 
ATOM      8  F1  UNL d   1       0.692  -1.707  -1.519  0.00  0.00    -0.096 F 
ATOM      9  I   UNL d   1      -0.852   0.793  -2.784  0.00  0.00    -0.060 I 
ATOM     10  F2  UNL d   1       0.091   2.918  -0.584  0.00  0.00    -0.096 F 
ATOM     11  F3  UNL d   1       1.666   2.663   1.605  0.00  0.00    -0.097 F 
ATOM     12  F4  UNL d   1       2.758   0.246   2.244  0.00  0.00    -0.092 F 
ENDROOT
TORSDOF 0
ENDMDL
