MODEL 1
REMARK minimizedAffinity 1.74413538
REMARK minimizedRMSD -1
REMARK  0 active torsions:
REMARK  status: ('A' for Active; 'I' for Inactive)
ROOT
ATOM      1  C   UNL d   1      -1.541  -2.548  -4.325  0.00  0.00     0.172 C 
ATOM      2  N   UNL d   1      -2.207  -2.639  -3.047  0.00  0.00    -0.070 N 
ATOM      3  C1  UNL d   1      -1.896  -1.911  -1.930  0.00  0.00    -0.004 A 
ATOM      4  C2  UNL d   1      -2.760  -2.288  -0.925  0.00  0.00    -0.047 A 
ATOM      5  C3  UNL d   1      -3.620  -3.279  -1.456  0.00  0.00    -0.047 A 
ATOM      6  C4  UNL d   1      -3.256  -3.477  -2.771  0.00  0.00    -0.004 A 
ENDROOT
TORSDOF 0
ENDMDL
