MODEL 1
REMARK minimizedAffinity 0.320837706
REMARK minimizedRMSD -1
REMARK  0 active torsions:
REMARK  status: ('A' for Active; 'I' for Inactive)
ROOT
ATOM      1  C   UNL d   1       4.129   2.972  -3.790  0.00  0.00     0.172 C 
ATOM      2  N   UNL d   1       3.565   4.126  -4.448  0.00  0.00    -0.070 N 
ATOM      3  C1  UNL d   1       4.267   5.065  -5.156  0.00  0.00    -0.004 A 
ATOM      4  C2  UNL d   1       3.369   6.000  -5.624  0.00  0.00    -0.047 A 
ATOM      5  C3  UNL d   1       2.083   5.610  -5.182  0.00  0.00    -0.047 A 
ATOM      6  C4  UNL d   1       2.233   4.447  -4.457  0.00  0.00    -0.004 A 
ENDROOT
TORSDOF 0
ENDMDL
