MODEL 1
REMARK minimizedAffinity 6.36667681
REMARK minimizedRMSD -1
REMARK  0 active torsions:
REMARK  status: ('A' for Active; 'I' for Inactive)
ROOT
ATOM      1  C   UNL d   1      -5.659  -0.147   3.317  0.00  0.00     0.172 C 
ATOM      2  N   UNL d   1      -5.000   1.135   3.236  0.00  0.00    -0.070 N 
ATOM      3  C1  UNL d   1      -5.567   2.345   3.535  0.00  0.00    -0.004 A 
ATOM      4  C2  UNL d   1      -4.614   3.320   3.332  0.00  0.00    -0.047 A 
ATOM      5  C3  UNL d   1      -3.434   2.673   2.896  0.00  0.00    -0.047 A 
ATOM      6  C4  UNL d   1      -3.700   1.321   2.845  0.00  0.00    -0.004 A 
ENDROOT
TORSDOF 0
ENDMDL
