MODEL 1
REMARK minimizedAffinity 3.16850686
REMARK minimizedRMSD -1
REMARK  0 active torsions:
REMARK  status: ('A' for Active; 'I' for Inactive)
ROOT
ATOM      1  C   UNL d   1       3.329   0.411   0.952  0.00  0.00     0.172 C 
ATOM      2  N   UNL d   1       2.213   1.168   1.468  0.00  0.00    -0.070 N 
ATOM      3  C1  UNL d   1       2.020   2.514   1.309  0.00  0.00    -0.004 A 
ATOM      4  C2  UNL d   1       0.844   2.850   1.945  0.00  0.00    -0.047 A 
ATOM      5  C3  UNL d   1       0.313   1.664   2.506  0.00  0.00    -0.047 A 
ATOM      6  C4  UNL d   1       1.180   0.638   2.195  0.00  0.00    -0.004 A 
ENDROOT
TORSDOF 0
ENDMDL
