MODEL 1
REMARK minimizedAffinity 5.33111334
REMARK minimizedRMSD -1
REMARK  0 active torsions:
REMARK  status: ('A' for Active; 'I' for Inactive)
ROOT
ATOM      1  C   UNL d   1       3.354   2.910  -3.605  0.00  0.00     0.172 C 
ATOM      2  N   UNL d   1       2.788   3.976  -4.399  0.00  0.00    -0.070 N 
ATOM      3  C1  UNL d   1       2.954   5.316  -4.171  0.00  0.00    -0.004 A 
ATOM      4  C2  UNL d   1       2.259   5.999  -5.145  0.00  0.00    -0.047 A 
ATOM      5  C3  UNL d   1       1.654   5.036  -5.987  0.00  0.00    -0.047 A 
ATOM      6  C4  UNL d   1       1.998   3.792  -5.502  0.00  0.00    -0.004 A 
ENDROOT
TORSDOF 0
ENDMDL
