MODEL 1
REMARK minimizedAffinity 10.7179327
REMARK minimizedRMSD -1
REMARK  0 active torsions:
REMARK  status: ('A' for Active; 'I' for Inactive)
ROOT
ATOM      1  C   UNL d   1       2.014   0.350   1.427  0.00  0.00     0.172 C 
ATOM      2  N   UNL d   1       3.384  -0.104   1.388  0.00  0.00    -0.070 N 
ATOM      3  C1  UNL d   1       4.179  -0.337   2.478  0.00  0.00    -0.004 A 
ATOM      4  C2  UNL d   1       5.410  -0.756   2.021  0.00  0.00    -0.047 A 
ATOM      5  C3  UNL d   1       5.353  -0.774   0.607  0.00  0.00    -0.047 A 
ATOM      6  C4  UNL d   1       4.087  -0.366   0.242  0.00  0.00    -0.004 A 
ENDROOT
TORSDOF 0
ENDMDL
