MODEL 1
REMARK minimizedAffinity 8.2253294
REMARK minimizedRMSD -1
REMARK  0 active torsions:
REMARK  status: ('A' for Active; 'I' for Inactive)
ROOT
ATOM      1  C   UNL d   1      -3.742   0.575   3.370  0.00  0.00     0.172 C 
ATOM      2  N   UNL d   1      -4.368  -0.397   4.235  0.00  0.00    -0.070 N 
ATOM      3  C1  UNL d   1      -4.572  -1.718   3.936  0.00  0.00    -0.004 A 
ATOM      4  C2  UNL d   1      -5.193  -2.305   5.017  0.00  0.00    -0.047 A 
ATOM      5  C3  UNL d   1      -5.370  -1.302   6.000  0.00  0.00    -0.047 A 
ATOM      6  C4  UNL d   1      -4.850  -0.131   5.490  0.00  0.00    -0.004 A 
ENDROOT
TORSDOF 0
ENDMDL
