MODEL 1
REMARK minimizedAffinity -2.90794849
REMARK minimizedRMSD -1
REMARK  0 active torsions:
REMARK  status: ('A' for Active; 'I' for Inactive)
ROOT
ATOM      1  C   UNL d   1       3.937   5.515  -5.990  0.00  0.00     0.172 C 
ATOM      2  N   UNL d   1       4.467   4.546  -5.060  0.00  0.00    -0.070 N 
ATOM      3  C1  UNL d   1       3.744   3.572  -4.423  0.00  0.00    -0.004 A 
ATOM      4  C2  UNL d   1       4.611   2.857  -3.625  0.00  0.00    -0.047 A 
ATOM      5  C3  UNL d   1       5.899   3.421  -3.787  0.00  0.00    -0.047 A 
ATOM      6  C4  UNL d   1       5.781   4.465  -4.681  0.00  0.00    -0.004 A 
ENDROOT
TORSDOF 0
ENDMDL
