MODEL 1
REMARK minimizedAffinity 2.226161
REMARK minimizedRMSD -1
REMARK  0 active torsions:
REMARK  status: ('A' for Active; 'I' for Inactive)
ROOT
ATOM      1  C   UNL d   1       2.211   4.623  -4.575  0.00  0.00     0.172 C 
ATOM      2  N   UNL d   1       3.271   3.702  -4.234  0.00  0.00    -0.070 N 
ATOM      3  C1  UNL d   1       4.187   3.875  -3.231  0.00  0.00    -0.004 A 
ATOM      4  C2  UNL d   1       5.023   2.780  -3.231  0.00  0.00    -0.047 A 
ATOM      5  C3  UNL d   1       4.596   1.920  -4.270  0.00  0.00    -0.047 A 
ATOM      6  C4  UNL d   1       3.510   2.515  -4.875  0.00  0.00    -0.004 A 
ENDROOT
TORSDOF 0
ENDMDL
