MODEL 1
REMARK minimizedAffinity 6.38756657
REMARK minimizedRMSD -1
REMARK  0 active torsions:
REMARK  status: ('A' for Active; 'I' for Inactive)
ROOT
ATOM      1  C   UNL d   1      -1.577  -5.616   2.124  0.00  0.00     0.172 C 
ATOM      2  N   UNL d   1      -1.400  -4.200   1.905  0.00  0.00    -0.070 N 
ATOM      3  C1  UNL d   1      -1.437  -3.570   0.690  0.00  0.00    -0.004 A 
ATOM      4  C2  UNL d   1      -1.225  -2.225   0.905  0.00  0.00    -0.047 A 
ATOM      5  C3  UNL d   1      -1.054  -2.041   2.298  0.00  0.00    -0.047 A 
ATOM      6  C4  UNL d   1      -1.166  -3.280   2.893  0.00  0.00    -0.004 A 
ENDROOT
TORSDOF 0
ENDMDL
