MODEL 1
REMARK minimizedAffinity 3.06433964
REMARK minimizedRMSD -1
REMARK  0 active torsions:
REMARK  status: ('A' for Active; 'I' for Inactive)
ROOT
ATOM      1  C   UNL d   1       2.297   2.183  -2.672  0.00  0.00     0.172 C 
ATOM      2  N   UNL d   1       2.462   1.612  -1.356  0.00  0.00    -0.070 N 
ATOM      3  C1  UNL d   1       3.389   0.667  -1.006  0.00  0.00    -0.004 A 
ATOM      4  C2  UNL d   1       3.222   0.387   0.333  0.00  0.00    -0.047 A 
ATOM      5  C3  UNL d   1       2.156   1.190   0.803  0.00  0.00    -0.047 A 
ATOM      6  C4  UNL d   1       1.704   1.939  -0.263  0.00  0.00    -0.004 A 
ENDROOT
TORSDOF 0
ENDMDL
