MODEL 1
REMARK minimizedAffinity 4.52289724
REMARK minimizedRMSD -1
REMARK  0 active torsions:
REMARK  status: ('A' for Active; 'I' for Inactive)
ROOT
ATOM      1  C   UNL d   1      -4.341   2.792   3.397  0.00  0.00     0.172 C 
ATOM      2  N   UNL d   1      -4.864   4.094   3.737  0.00  0.00    -0.070 N 
ATOM      3  C1  UNL d   1      -5.749   4.820   2.986  0.00  0.00    -0.004 A 
ATOM      4  C2  UNL d   1      -5.999   6.000   3.652  0.00  0.00    -0.047 A 
ATOM      5  C3  UNL d   1      -5.238   5.983   4.845  0.00  0.00    -0.047 A 
ATOM      6  C4  UNL d   1      -4.544   4.792   4.872  0.00  0.00    -0.004 A 
ENDROOT
TORSDOF 0
ENDMDL
