MODEL 1
REMARK minimizedAffinity 3.12615132
REMARK minimizedRMSD -1
REMARK  0 active torsions:
REMARK  status: ('A' for Active; 'I' for Inactive)
ROOT
ATOM      1  C   UNL d   1       3.482   1.970  -1.014  0.00  0.00     0.172 C 
ATOM      2  N   UNL d   1       2.740   1.538   0.147  0.00  0.00    -0.070 N 
ATOM      3  C1  UNL d   1       1.786   2.271   0.803  0.00  0.00    -0.004 A 
ATOM      4  C2  UNL d   1       1.317   1.511   1.852  0.00  0.00    -0.047 A 
ATOM      5  C3  UNL d   1       2.013   0.279   1.827  0.00  0.00    -0.047 A 
ATOM      6  C4  UNL d   1       2.888   0.323   0.762  0.00  0.00    -0.004 A 
ENDROOT
TORSDOF 0
ENDMDL
