MODEL 1
REMARK minimizedAffinity -1.27265525
REMARK minimizedRMSD -1
REMARK  0 active torsions:
REMARK  status: ('A' for Active; 'I' for Inactive)
ROOT
ATOM      1  C   UNL d   1       2.392   3.416  -5.624  0.00  0.00     0.172 C 
ATOM      2  N   UNL d   1       3.783   3.130  -5.361  0.00  0.00    -0.070 N 
ATOM      3  C1  UNL d   1       4.253   2.228  -4.444  0.00  0.00    -0.004 A 
ATOM      4  C2  UNL d   1       5.630   2.250  -4.499  0.00  0.00    -0.047 A 
ATOM      5  C3  UNL d   1       6.000   3.198  -5.482  0.00  0.00    -0.047 A 
ATOM      6  C4  UNL d   1       4.837   3.728  -6.000  0.00  0.00    -0.004 A 
ENDROOT
TORSDOF 0
ENDMDL
