MODEL 1
REMARK minimizedAffinity 0.855036259
REMARK minimizedRMSD -1
REMARK  0 active torsions:
REMARK  status: ('A' for Active; 'I' for Inactive)
ROOT
ATOM      1  C   UNL d   1       5.993   5.452  -5.301  0.00  0.00     0.172 C 
ATOM      2  N   UNL d   1       5.995   4.279  -4.460  0.00  0.00    -0.070 N 
ATOM      3  C1  UNL d   1       5.997   4.279  -3.090  0.00  0.00    -0.004 A 
ATOM      4  C2  UNL d   1       5.997   2.967  -2.668  0.00  0.00    -0.047 A 
ATOM      5  C3  UNL d   1       5.996   2.150  -3.824  0.00  0.00    -0.047 A 
ATOM      6  C4  UNL d   1       5.994   2.988  -4.919  0.00  0.00    -0.004 A 
ENDROOT
TORSDOF 0
ENDMDL
