MODEL 1
REMARK minimizedAffinity 0.88225925
REMARK minimizedRMSD -1
REMARK  0 active torsions:
REMARK  status: ('A' for Active; 'I' for Inactive)
ROOT
ATOM      1  C   UNL d   1       5.914   4.059  -5.999  0.00  0.00     0.172 C 
ATOM      2  N   UNL d   1       5.379   3.253  -4.926  0.00  0.00    -0.070 N 
ATOM      3  C1  UNL d   1       6.000   2.999  -3.733  0.00  0.00    -0.004 A 
ATOM      4  C2  UNL d   1       5.166   2.195  -2.986  0.00  0.00    -0.047 A 
ATOM      5  C3  UNL d   1       4.004   1.958  -3.758  0.00  0.00    -0.047 A 
ATOM      6  C4  UNL d   1       4.162   2.625  -4.955  0.00  0.00    -0.004 A 
ENDROOT
TORSDOF 0
ENDMDL
