MODEL 1
REMARK minimizedAffinity -2.15413475
REMARK minimizedRMSD -1
REMARK  0 active torsions:
REMARK  status: ('A' for Active; 'I' for Inactive)
ROOT
ATOM      1  C   UNL d   1       2.593   6.000  -5.978  0.00  0.00     0.172 C 
ATOM      2  N   UNL d   1       3.154   4.939  -5.174  0.00  0.00    -0.070 N 
ATOM      3  C1  UNL d   1       4.386   4.955  -4.577  0.00  0.00    -0.004 A 
ATOM      4  C2  UNL d   1       4.545   3.763  -3.905  0.00  0.00    -0.047 A 
ATOM      5  C3  UNL d   1       3.368   3.003  -4.106  0.00  0.00    -0.047 A 
ATOM      6  C4  UNL d   1       2.524   3.755  -4.895  0.00  0.00    -0.004 A 
ENDROOT
TORSDOF 0
ENDMDL
