MODEL 1
REMARK minimizedAffinity 12.3326836
REMARK minimizedRMSD -1
REMARK  0 active torsions:
REMARK  status: ('A' for Active; 'I' for Inactive)
ROOT
ATOM      1  N1  IND d   1       2.556   1.898   0.704  0.00  0.00    -0.196 N 
ATOM      2  C2  IND d   1       1.814   0.798   0.375  0.00  0.00     0.054 A 
ATOM      3  C3  IND d   1       2.531  -0.330   0.574  0.00  0.00    -0.031 A 
ATOM      4  C4  IND d   1       4.906  -0.612   1.528  0.00  0.00     0.051 A 
ATOM      5  C5  IND d   1       5.994   0.106   1.938  0.00  0.00    -0.031 A 
ATOM      6  C6  IND d   1       5.991   1.486   1.961  0.00  0.00     0.015 A 
ATOM      7  C7  IND d   1       4.890   2.202   1.583  0.00  0.00    -0.016 A 
ATOM      8  C8  IND d   1       3.786   1.476   1.159  0.00  0.00    -0.047 A 
ATOM      9  C9  IND d   1       3.798   0.077   1.094  0.00  0.00    -0.096 A 
ATOM     10  HN1 IND d   1       2.298   2.715   0.637  0.00  0.00     0.298 HD
ENDROOT
TORSDOF 0
ENDMDL
