MODEL 1
REMARK minimizedAffinity 22.992445
REMARK minimizedRMSD -1
REMARK  0 active torsions:
REMARK  status: ('A' for Active; 'I' for Inactive)
ROOT
ATOM      1  N1  IND d   1      -3.206  -2.436  -2.534  0.00  0.00    -0.196 N 
ATOM      2  C2  IND d   1      -2.671  -2.876  -3.712  0.00  0.00     0.054 A 
ATOM      3  C3  IND d   1      -1.415  -3.337  -3.515  0.00  0.00    -0.031 A 
ATOM      4  C4  IND d   1      -0.079  -3.557  -1.326  0.00  0.00     0.051 A 
ATOM      5  C5  IND d   1      -0.135  -3.254   0.005  0.00  0.00    -0.031 A 
ATOM      6  C6  IND d   1      -1.241  -2.653   0.570  0.00  0.00     0.015 A 
ATOM      7  C7  IND d   1      -2.341  -2.341  -0.176  0.00  0.00    -0.016 A 
ATOM      8  C8  IND d   1      -2.285  -2.642  -1.530  0.00  0.00    -0.047 A 
ATOM      9  C9  IND d   1      -1.149  -3.213  -2.117  0.00  0.00    -0.096 A 
ATOM     10  HN1 IND d   1      -3.987  -2.089  -2.436  0.00  0.00     0.298 HD
ENDROOT
TORSDOF 0
ENDMDL
