MODEL 1
REMARK minimizedAffinity 8.63753319
REMARK minimizedRMSD -1
REMARK  0 active torsions:
REMARK  status: ('A' for Active; 'I' for Inactive)
ROOT
ATOM      1  N1  IND d   1      -4.858  -4.842  -4.254  0.00  0.00    -0.196 N 
ATOM      2  C2  IND d   1      -5.189  -5.285  -3.004  0.00  0.00     0.054 A 
ATOM      3  C3  IND d   1      -4.187  -5.028  -2.134  0.00  0.00    -0.031 A 
ATOM      4  C4  IND d   1      -1.958  -3.799  -2.522  0.00  0.00     0.051 A 
ATOM      5  C5  IND d   1      -1.192  -3.242  -3.508  0.00  0.00    -0.031 A 
ATOM      6  C6  IND d   1      -1.619  -3.187  -4.819  0.00  0.00     0.015 A 
ATOM      7  C7  IND d   1      -2.838  -3.678  -5.192  0.00  0.00    -0.016 A 
ATOM      8  C8  IND d   1      -3.615  -4.250  -4.195  0.00  0.00    -0.047 A 
ATOM      9  C9  IND d   1      -3.170  -4.348  -2.871  0.00  0.00    -0.096 A 
ATOM     10  HN1 IND d   1      -5.345  -4.919  -4.959  0.00  0.00     0.298 HD
ENDROOT
TORSDOF 0
ENDMDL
