MODEL 1
REMARK minimizedAffinity 6.13883352
REMARK minimizedRMSD -1
REMARK  0 active torsions:
REMARK  status: ('A' for Active; 'I' for Inactive)
ROOT
ATOM      1  N1  IND d   1      -3.428  -3.469  -1.862  0.00  0.00    -0.196 N 
ATOM      2  C2  IND d   1      -3.163  -2.544  -2.833  0.00  0.00     0.054 A 
ATOM      3  C3  IND d   1      -2.150  -1.735  -2.448  0.00  0.00    -0.031 A 
ATOM      4  C4  IND d   1      -0.716  -1.814  -0.311  0.00  0.00     0.051 A 
ATOM      5  C5  IND d   1      -0.605  -2.459   0.888  0.00  0.00    -0.031 A 
ATOM      6  C6  IND d   1      -1.444  -3.497   1.238  0.00  0.00     0.015 A 
ATOM      7  C7  IND d   1      -2.423  -3.938   0.393  0.00  0.00    -0.016 A 
ATOM      8  C8  IND d   1      -2.544  -3.280  -0.823  0.00  0.00    -0.047 A 
ATOM      9  C9  IND d   1      -1.723  -2.198  -1.166  0.00  0.00    -0.096 A 
ATOM     10  HN1 IND d   1      -4.044  -4.068  -1.895  0.00  0.00     0.298 HD
ENDROOT
TORSDOF 0
ENDMDL
