MODEL 1
REMARK minimizedAffinity 6.30089378
REMARK minimizedRMSD -1
REMARK  0 active torsions:
REMARK  status: ('A' for Active; 'I' for Inactive)
ROOT
ATOM      1  N1  IND d   1       2.813  -0.565   3.459  0.00  0.00    -0.196 N 
ATOM      2  C2  IND d   1       1.737   0.089   3.992  0.00  0.00     0.054 A 
ATOM      3  C3  IND d   1       1.124   0.835   3.046  0.00  0.00    -0.031 A 
ATOM      4  C4  IND d   1       1.654   1.050   0.536  0.00  0.00     0.051 A 
ATOM      5  C5  IND d   1       2.566   0.671  -0.409  0.00  0.00    -0.031 A 
ATOM      6  C6  IND d   1       3.627  -0.158  -0.107  0.00  0.00     0.015 A 
ATOM      7  C7  IND d   1       3.809  -0.651   1.154  0.00  0.00    -0.016 A 
ATOM      8  C8  IND d   1       2.889  -0.263   2.117  0.00  0.00    -0.047 A 
ATOM      9  C9  IND d   1       1.835   0.613   1.827  0.00  0.00    -0.096 A 
ATOM     10  HN1 IND d   1       3.351  -1.079   3.890  0.00  0.00     0.298 HD
ENDROOT
TORSDOF 0
ENDMDL
