MODEL 1
REMARK minimizedAffinity 8.69895267
REMARK minimizedRMSD -1
REMARK  0 active torsions:
REMARK  status: ('A' for Active; 'I' for Inactive)
ROOT
ATOM      1  N1  IND d   1       2.085  -0.370   3.638  0.00  0.00    -0.196 N 
ATOM      2  C2  IND d   1       1.001   0.379   4.004  0.00  0.00     0.054 A 
ATOM      3  C3  IND d   1       0.706   1.281   3.041  0.00  0.00    -0.031 A 
ATOM      4  C4  IND d   1       1.804   1.634   0.739  0.00  0.00     0.051 A 
ATOM      5  C5  IND d   1       2.853   1.214  -0.030  0.00  0.00    -0.031 A 
ATOM      6  C6  IND d   1       3.715   0.222   0.392  0.00  0.00     0.015 A 
ATOM      7  C7  IND d   1       3.553  -0.397   1.599  0.00  0.00    -0.016 A 
ATOM      8  C8  IND d   1       2.493   0.032   2.385  0.00  0.00    -0.047 A 
ATOM      9  C9  IND d   1       1.640   1.067   1.981  0.00  0.00    -0.096 A 
ATOM     10  HN1 IND d   1       2.450  -0.989   4.111  0.00  0.00     0.298 HD
ENDROOT
TORSDOF 0
ENDMDL
