MODEL 1
REMARK minimizedAffinity 9.1317234
REMARK minimizedRMSD -1
REMARK  0 active torsions:
REMARK  status: ('A' for Active; 'I' for Inactive)
ROOT
ATOM      1  N1  IND d   1       3.753  -1.392   0.489  0.00  0.00    -0.196 N 
ATOM      2  C2  IND d   1       4.894  -1.361  -0.262  0.00  0.00     0.054 A 
ATOM      3  C3  IND d   1       5.204  -0.088  -0.596  0.00  0.00    -0.031 A 
ATOM      4  C4  IND d   1       4.035   2.107   0.069  0.00  0.00     0.051 A 
ATOM      5  C5  IND d   1       2.931   2.586   0.717  0.00  0.00    -0.031 A 
ATOM      6  C6  IND d   1       2.028   1.747   1.338  0.00  0.00     0.015 A 
ATOM      7  C7  IND d   1       2.202   0.392   1.343  0.00  0.00    -0.016 A 
ATOM      8  C8  IND d   1       3.318  -0.099   0.679  0.00  0.00    -0.047 A 
ATOM      9  C9  IND d   1       4.215   0.745   0.011  0.00  0.00    -0.096 A 
ATOM     10  HN1 IND d   1       3.371  -2.100   0.793  0.00  0.00     0.298 HD
ENDROOT
TORSDOF 0
ENDMDL
