MODEL 1
REMARK minimizedAffinity 1.22851527
REMARK minimizedRMSD -1
REMARK  0 active torsions:
REMARK  status: ('A' for Active; 'I' for Inactive)
ROOT
ATOM      1  N1  IND d   1       2.326  -0.896   3.426  0.00  0.00    -0.196 N 
ATOM      2  C2  IND d   1       1.412  -0.041   3.976  0.00  0.00     0.054 A 
ATOM      3  C3  IND d   1       1.178   0.997   3.141  0.00  0.00    -0.031 A 
ATOM      4  C4  IND d   1       2.106   1.439   0.781  0.00  0.00     0.051 A 
ATOM      5  C5  IND d   1       3.001   0.957  -0.133  0.00  0.00    -0.031 A 
ATOM      6  C6  IND d   1       3.730  -0.192   0.097  0.00  0.00     0.015 A 
ATOM      7  C7  IND d   1       3.581  -0.911   1.249  0.00  0.00    -0.016 A 
ATOM      8  C8  IND d   1       2.678  -0.421   2.182  0.00  0.00    -0.047 A 
ATOM      9  C9  IND d   1       1.967   0.767   1.972  0.00  0.00    -0.096 A 
ATOM     10  HN1 IND d   1       2.629  -1.611   3.795  0.00  0.00     0.298 HD
ENDROOT
TORSDOF 0
ENDMDL
