MODEL 1
REMARK minimizedAffinity 14.25986
REMARK minimizedRMSD -1
REMARK  0 active torsions:
REMARK  status: ('A' for Active; 'I' for Inactive)
ROOT
ATOM      1  N1  IND d   1      -3.877   4.511   5.418  0.00  0.00    -0.196 N 
ATOM      2  C2  IND d   1      -4.997   5.043   5.994  0.00  0.00     0.054 A 
ATOM      3  C3  IND d   1      -6.000   4.136   5.999  0.00  0.00    -0.031 A 
ATOM      4  C4  IND d   1      -5.993   1.687   5.208  0.00  0.00     0.051 A 
ATOM      5  C5  IND d   1      -5.212   0.761   4.576  0.00  0.00    -0.031 A 
ATOM      6  C6  IND d   1      -3.918   1.042   4.187  0.00  0.00     0.015 A 
ATOM      7  C7  IND d   1      -3.351   2.262   4.427  0.00  0.00    -0.016 A 
ATOM      8  C8  IND d   1      -4.145   3.207   5.062  0.00  0.00    -0.047 A 
ATOM      9  C9  IND d   1      -5.473   2.941   5.421  0.00  0.00    -0.096 A 
ATOM     10  HN1 IND d   1      -3.131   4.921   5.298  0.00  0.00     0.298 HD
ENDROOT
TORSDOF 0
ENDMDL
