MODEL 1
REMARK minimizedAffinity 0.844029069
REMARK minimizedRMSD -1
REMARK  0 active torsions:
REMARK  status: ('A' for Active; 'I' for Inactive)
ROOT
ATOM      1  N1  IND d   1       2.013  -0.788   3.321  0.00  0.00    -0.196 N 
ATOM      2  C2  IND d   1       1.165  -0.041   4.090  0.00  0.00     0.054 A 
ATOM      3  C3  IND d   1       0.927   1.154   3.503  0.00  0.00    -0.031 A 
ATOM      4  C4  IND d   1       1.743   2.051   1.232  0.00  0.00     0.051 A 
ATOM      5  C5  IND d   1       2.567   1.744   0.186  0.00  0.00    -0.031 A 
ATOM      6  C6  IND d   1       3.261   0.553   0.129  0.00  0.00     0.015 A 
ATOM      7  C7  IND d   1       3.147  -0.386   1.115  0.00  0.00    -0.016 A 
ATOM      8  C8  IND d   1       2.316  -0.075   2.182  0.00  0.00    -0.047 A 
ATOM      9  C9  IND d   1       1.642   1.150   2.266  0.00  0.00    -0.096 A 
ATOM     10  HN1 IND d   1       2.307  -1.572   3.516  0.00  0.00     0.298 HD
ENDROOT
TORSDOF 0
ENDMDL
