MODEL 1
REMARK minimizedAffinity 4.5252223
REMARK minimizedRMSD -1
REMARK  0 active torsions:
REMARK  status: ('A' for Active; 'I' for Inactive)
ROOT
ATOM      1  N1  IND d   1      -4.044   3.042   3.924  0.00  0.00    -0.196 N 
ATOM      2  C2  IND d   1      -4.159   3.802   5.054  0.00  0.00     0.054 A 
ATOM      3  C3  IND d   1      -4.859   3.136   6.000  0.00  0.00    -0.031 A 
ATOM      4  C4  IND d   1      -5.821   0.749   5.944  0.00  0.00     0.051 A 
ATOM      5  C5  IND d   1      -6.000  -0.321   5.113  0.00  0.00    -0.031 A 
ATOM      6  C6  IND d   1      -5.523  -0.327   3.818  0.00  0.00     0.015 A 
ATOM      7  C7  IND d   1      -4.837   0.739   3.307  0.00  0.00    -0.016 A 
ATOM      8  C8  IND d   1      -4.661   1.831   4.146  0.00  0.00    -0.047 A 
ATOM      9  C9  IND d   1      -5.179   1.858   5.447  0.00  0.00    -0.096 A 
ATOM     10  HN1 IND d   1      -3.652   3.281   3.197  0.00  0.00     0.298 HD
ENDROOT
TORSDOF 0
ENDMDL
