MODEL 1
REMARK minimizedAffinity 13.0331831
REMARK minimizedRMSD -1
REMARK  0 active torsions:
REMARK  status: ('A' for Active; 'I' for Inactive)
ROOT
ATOM      1  N1  IND d   1      -4.662   4.826   5.813  0.00  0.00    -0.196 N 
ATOM      2  C2  IND d   1      -5.320   5.999   5.567  0.00  0.00     0.054 A 
ATOM      3  C3  IND d   1      -5.848   5.990   4.322  0.00  0.00    -0.031 A 
ATOM      4  C4  IND d   1      -5.843   4.116   2.557  0.00  0.00     0.051 A 
ATOM      5  C5  IND d   1      -5.336   2.872   2.309  0.00  0.00    -0.031 A 
ATOM      6  C6  IND d   1      -4.566   2.200   3.236  0.00  0.00     0.015 A 
ATOM      7  C7  IND d   1      -4.281   2.746   4.455  0.00  0.00    -0.016 A 
ATOM      8  C8  IND d   1      -4.788   4.013   4.708  0.00  0.00    -0.047 A 
ATOM      9  C9  IND d   1      -5.535   4.717   3.755  0.00  0.00    -0.096 A 
ATOM     10  HN1 IND d   1      -4.240   4.630   6.536  0.00  0.00     0.298 HD
ENDROOT
TORSDOF 0
ENDMDL
