MODEL 1
REMARK minimizedAffinity 6.43601465
REMARK minimizedRMSD -1
REMARK  0 active torsions:
REMARK  status: ('A' for Active; 'I' for Inactive)
ROOT
ATOM      1  N1  IND d   1      -1.410  -4.421   1.657  0.00  0.00    -0.196 N 
ATOM      2  C2  IND d   1      -2.122  -5.582   1.779  0.00  0.00     0.054 A 
ATOM      3  C3  IND d   1      -3.012  -5.696   0.768  0.00  0.00    -0.031 A 
ATOM      4  C4  IND d   1      -3.401  -4.147  -1.252  0.00  0.00     0.051 A 
ATOM      5  C5  IND d   1      -3.016  -2.946  -1.777  0.00  0.00    -0.031 A 
ATOM      6  C6  IND d   1      -2.055  -2.160  -1.174  0.00  0.00     0.015 A 
ATOM      7  C7  IND d   1      -1.432  -2.554  -0.024  0.00  0.00    -0.016 A 
ATOM      8  C8  IND d   1      -1.825  -3.770   0.517  0.00  0.00    -0.047 A 
ATOM      9  C9  IND d   1      -2.830  -4.552  -0.068  0.00  0.00    -0.096 A 
ATOM     10  HN1 IND d   1      -0.805  -4.144   2.202  0.00  0.00     0.298 HD
ENDROOT
TORSDOF 0
ENDMDL
