MODEL 1
REMARK minimizedAffinity 3.82073569
REMARK minimizedRMSD -1
REMARK  0 active torsions:
REMARK  status: ('A' for Active; 'I' for Inactive)
ROOT
ATOM      1  N1  IND d   1       4.559  -0.916   1.184  0.00  0.00    -0.196 N 
ATOM      2  C2  IND d   1       4.421  -0.742  -0.165  0.00  0.00     0.054 A 
ATOM      3  C3  IND d   1       3.346   0.034  -0.432  0.00  0.00    -0.031 A 
ATOM      4  C4  IND d   1       1.732   1.207   1.195  0.00  0.00     0.051 A 
ATOM      5  C5  IND d   1       1.432   1.315   2.523  0.00  0.00    -0.031 A 
ATOM      6  C6  IND d   1       2.176   0.675   3.493  0.00  0.00     0.015 A 
ATOM      7  C7  IND d   1       3.259  -0.092   3.170  0.00  0.00    -0.016 A 
ATOM      8  C8  IND d   1       3.562  -0.210   1.821  0.00  0.00    -0.047 A 
ATOM      9  C9  IND d   1       2.785   0.403   0.829  0.00  0.00    -0.096 A 
ATOM     10  HN1 IND d   1       5.166  -1.388   1.569  0.00  0.00     0.298 HD
ENDROOT
TORSDOF 0
ENDMDL
