MODEL 1
REMARK minimizedAffinity 13.4083366
REMARK minimizedRMSD -1
REMARK  0 active torsions:
REMARK  status: ('A' for Active; 'I' for Inactive)
ROOT
ATOM      1  N1  IND d   1      -2.777  -2.833  -0.317  0.00  0.00    -0.196 N 
ATOM      2  C2  IND d   1      -1.624  -2.117  -0.158  0.00  0.00     0.054 A 
ATOM      3  C3  IND d   1      -0.799  -2.740   0.714  0.00  0.00    -0.031 A 
ATOM      4  C4  IND d   1      -1.097  -4.994   1.921  0.00  0.00     0.051 A 
ATOM      5  C5  IND d   1      -2.003  -5.998   2.120  0.00  0.00    -0.031 A 
ATOM      6  C6  IND d   1      -3.238  -5.999   1.503  0.00  0.00     0.015 A 
ATOM      7  C7  IND d   1      -3.609  -4.998   0.651  0.00  0.00    -0.016 A 
ATOM      8  C8  IND d   1      -2.694  -3.974   0.451  0.00  0.00    -0.047 A 
ATOM      9  C9  IND d   1      -1.457  -3.946   1.108  0.00  0.00    -0.096 A 
ATOM     10  HN1 IND d   1      -3.443  -2.609  -0.812  0.00  0.00     0.298 HD
ENDROOT
TORSDOF 0
ENDMDL
