MODEL 1
REMARK minimizedAffinity 22.132843
REMARK minimizedRMSD -1
REMARK  0 active torsions:
REMARK  status: ('A' for Active; 'I' for Inactive)
ROOT
ATOM      1  N1  IND d   1      -0.735  -5.337   2.076  0.00  0.00    -0.196 N 
ATOM      2  C2  IND d   1      -1.908  -6.000   2.306  0.00  0.00     0.054 A 
ATOM      3  C3  IND d   1      -2.943  -5.333   1.747  0.00  0.00    -0.031 A 
ATOM      4  C4  IND d   1      -2.928  -3.189   0.322  0.00  0.00     0.051 A 
ATOM      5  C5  IND d   1      -2.098  -2.202  -0.130  0.00  0.00    -0.031 A 
ATOM      6  C6  IND d   1      -0.743  -2.211   0.133  0.00  0.00     0.015 A 
ATOM      7  C7  IND d   1      -0.164  -3.218   0.851  0.00  0.00    -0.016 A 
ATOM      8  C8  IND d   1      -1.005  -4.218   1.318  0.00  0.00    -0.047 A 
ATOM      9  C9  IND d   1      -2.387  -4.192   1.091  0.00  0.00    -0.096 A 
ATOM     10  HN1 IND d   1       0.041  -5.578   2.357  0.00  0.00     0.298 HD
ENDROOT
TORSDOF 0
ENDMDL
