MODEL 1
REMARK minimizedAffinity 4.67086506
REMARK minimizedRMSD -1
REMARK  0 active torsions:
REMARK  status: ('A' for Active; 'I' for Inactive)
ROOT
ATOM      1  N1  IND d   1      -0.578  -4.279  -3.236  0.00  0.00    -0.196 N 
ATOM      2  C2  IND d   1      -1.559  -4.070  -4.165  0.00  0.00     0.054 A 
ATOM      3  C3  IND d   1      -2.580  -3.370  -3.622  0.00  0.00    -0.031 A 
ATOM      4  C4  IND d   1      -2.806  -2.376  -1.258  0.00  0.00     0.051 A 
ATOM      5  C5  IND d   1      -2.182  -2.334  -0.043  0.00  0.00    -0.031 A 
ATOM      6  C6  IND d   1      -0.966  -2.948   0.174  0.00  0.00     0.015 A 
ATOM      7  C7  IND d   1      -0.320  -3.620  -0.825  0.00  0.00    -0.016 A 
ATOM      8  C8  IND d   1      -0.954  -3.671  -2.058  0.00  0.00    -0.047 A 
ATOM      9  C9  IND d   1      -2.208  -3.086  -2.272  0.00  0.00    -0.096 A 
ATOM     10  HN1 IND d   1       0.151  -4.715  -3.366  0.00  0.00     0.298 HD
ENDROOT
TORSDOF 0
ENDMDL
