MODEL 1
REMARK minimizedAffinity 13.5802565
REMARK minimizedRMSD -1
REMARK  0 active torsions:
REMARK  status: ('A' for Active; 'I' for Inactive)
ROOT
ATOM      1  N1  IND d   1      -4.656   4.933   5.313  0.00  0.00    -0.196 N 
ATOM      2  C2  IND d   1      -5.498   5.993   5.124  0.00  0.00     0.054 A 
ATOM      3  C3  IND d   1      -6.000   5.978   3.869  0.00  0.00    -0.031 A 
ATOM      4  C4  IND d   1      -5.654   4.251   1.991  0.00  0.00     0.051 A 
ATOM      5  C5  IND d   1      -4.942   3.127   1.679  0.00  0.00    -0.031 A 
ATOM      6  C6  IND d   1      -4.083   2.534   2.581  0.00  0.00     0.015 A 
ATOM      7  C7  IND d   1      -3.912   3.039   3.839  0.00  0.00    -0.016 A 
ATOM      8  C8  IND d   1      -4.628   4.184   4.157  0.00  0.00    -0.047 A 
ATOM      9  C9  IND d   1      -5.469   4.815   3.231  0.00  0.00    -0.096 A 
ATOM     10  HN1 IND d   1      -4.218   4.763   6.033  0.00  0.00     0.298 HD
ENDROOT
TORSDOF 0
ENDMDL
