MODEL 1
REMARK minimizedAffinity 4.83982325
REMARK minimizedRMSD -1
REMARK  0 active torsions:
REMARK  status: ('A' for Active; 'I' for Inactive)
ROOT
ATOM      1  C   UNL d   1      -1.416   1.611   1.599  0.00  0.00     0.078 C 
ATOM      2  C1  UNL d   1      -0.687   2.135   0.397  0.00  0.00    -0.077 A 
ATOM      3  C2  UNL d   1      -0.071   1.263  -0.509  0.00  0.00    -0.001 A 
ATOM      4  C3  UNL d   1       0.612   1.765  -1.618  0.00  0.00     0.003 A 
ATOM      5  C4  UNL d   1       0.686   3.140  -1.831  0.00  0.00    -0.005 A 
ATOM      6  C5  UNL d   1       0.077   4.015  -0.933  0.00  0.00     0.003 A 
ATOM      7  C6  UNL d   1      -0.606   3.515   0.176  0.00  0.00    -0.001 A 
ENDROOT
TORSDOF 0
ENDMDL
