MODEL 1
REMARK minimizedAffinity -3.90297127
REMARK minimizedRMSD -1
REMARK  0 active torsions:
REMARK  status: ('A' for Active; 'I' for Inactive)
ROOT
ATOM      1  C   UNL d   1      -1.665   1.380   2.472  0.00  0.00     0.078 C 
ATOM      2  C1  UNL d   1      -1.529   2.357   1.342  0.00  0.00    -0.077 A 
ATOM      3  C2  UNL d   1      -2.519   3.317   1.095  0.00  0.00    -0.001 A 
ATOM      4  C3  UNL d   1      -2.383   4.213   0.034  0.00  0.00     0.003 A 
ATOM      5  C4  UNL d   1      -1.261   4.159  -0.789  0.00  0.00    -0.005 A 
ATOM      6  C5  UNL d   1      -0.272   3.206  -0.553  0.00  0.00     0.003 A 
ATOM      7  C6  UNL d   1      -0.405   2.309   0.508  0.00  0.00    -0.001 A 
ENDROOT
TORSDOF 0
ENDMDL
