MODEL 1
REMARK minimizedAffinity 1.77428317
REMARK minimizedRMSD -1
REMARK  0 active torsions:
REMARK  status: ('A' for Active; 'I' for Inactive)
ROOT
ATOM      1  C   UNL d   1       1.823  -0.300   0.169  0.00  0.00     0.078 C 
ATOM      2  C1  UNL d   1       2.982  -1.244   0.046  0.00  0.00    -0.077 A 
ATOM      3  C2  UNL d   1       4.293  -0.764  -0.074  0.00  0.00    -0.001 A 
ATOM      4  C3  UNL d   1       5.361  -1.654  -0.198  0.00  0.00     0.003 A 
ATOM      5  C4  UNL d   1       5.130  -3.028  -0.204  0.00  0.00    -0.005 A 
ATOM      6  C5  UNL d   1       3.829  -3.514  -0.088  0.00  0.00     0.003 A 
ATOM      7  C6  UNL d   1       2.760  -2.626   0.036  0.00  0.00    -0.001 A 
ENDROOT
TORSDOF 0
ENDMDL
