MODEL 1
REMARK minimizedAffinity 2.50908494
REMARK minimizedRMSD -1
REMARK  0 active torsions:
REMARK  status: ('A' for Active; 'I' for Inactive)
ROOT
ATOM      1  C   UNL d   1      -1.030   1.727   1.306  0.00  0.00     0.078 C 
ATOM      2  C1  UNL d   1      -0.422   2.101  -0.012  0.00  0.00    -0.077 A 
ATOM      3  C2  UNL d   1       0.205   1.141  -0.816  0.00  0.00    -0.001 A 
ATOM      4  C3  UNL d   1       0.775   1.506  -2.037  0.00  0.00     0.003 A 
ATOM      5  C4  UNL d   1       0.725   2.831  -2.465  0.00  0.00    -0.005 A 
ATOM      6  C5  UNL d   1       0.105   3.794  -1.670  0.00  0.00     0.003 A 
ATOM      7  C6  UNL d   1      -0.465   3.431  -0.449  0.00  0.00    -0.001 A 
ENDROOT
TORSDOF 0
ENDMDL
