MODEL 1
REMARK minimizedAffinity -0.0864407867
REMARK minimizedRMSD -1
REMARK  0 active torsions:
REMARK  status: ('A' for Active; 'I' for Inactive)
ROOT
ATOM      1  C   UNL d   1       0.473   0.906  -1.268  0.00  0.00     0.078 C 
ATOM      2  C1  UNL d   1       0.022   1.898  -0.239  0.00  0.00    -0.077 A 
ATOM      3  C2  UNL d   1       0.304   3.262  -0.380  0.00  0.00    -0.001 A 
ATOM      4  C3  UNL d   1      -0.114   4.174   0.591  0.00  0.00     0.003 A 
ATOM      5  C4  UNL d   1      -0.815   3.731   1.711  0.00  0.00    -0.005 A 
ATOM      6  C5  UNL d   1      -1.098   2.375   1.861  0.00  0.00     0.003 A 
ATOM      7  C6  UNL d   1      -0.681   1.462   0.891  0.00  0.00    -0.001 A 
ENDROOT
TORSDOF 0
ENDMDL
