MODEL 1
REMARK minimizedAffinity -3.17852712
REMARK minimizedRMSD -1
REMARK  0 active torsions:
REMARK  status: ('A' for Active; 'I' for Inactive)
ROOT
ATOM      1  C   UNL d   1       0.766   0.387  -1.206  0.00  0.00     0.078 C 
ATOM      2  C1  UNL d   1       0.432   1.725  -0.617  0.00  0.00    -0.077 A 
ATOM      3  C2  UNL d   1      -0.303   1.827   0.570  0.00  0.00    -0.001 A 
ATOM      4  C3  UNL d   1      -0.615   3.079   1.101  0.00  0.00     0.003 A 
ATOM      5  C4  UNL d   1      -0.197   4.239   0.451  0.00  0.00    -0.005 A 
ATOM      6  C5  UNL d   1       0.534   4.147  -0.731  0.00  0.00     0.003 A 
ATOM      7  C6  UNL d   1       0.847   2.896  -1.264  0.00  0.00    -0.001 A 
ENDROOT
TORSDOF 0
ENDMDL
