MODEL 1
REMARK minimizedAffinity 2.47001076
REMARK minimizedRMSD -1
REMARK  0 active torsions:
REMARK  status: ('A' for Active; 'I' for Inactive)
ROOT
ATOM      1  C   UNL d   1      -0.719   2.484  -0.074  0.00  0.00     0.078 C 
ATOM      2  C1  UNL d   1      -0.389   1.224  -0.817  0.00  0.00    -0.077 A 
ATOM      3  C2  UNL d   1       0.877   0.635  -0.711  0.00  0.00    -0.001 A 
ATOM      4  C3  UNL d   1       1.174  -0.533  -1.416  0.00  0.00     0.003 A 
ATOM      5  C4  UNL d   1       0.210  -1.121  -2.233  0.00  0.00    -0.005 A 
ATOM      6  C5  UNL d   1      -1.052  -0.541  -2.346  0.00  0.00     0.003 A 
ATOM      7  C6  UNL d   1      -1.350   0.627  -1.642  0.00  0.00    -0.001 A 
ENDROOT
TORSDOF 0
ENDMDL
