MODEL 1
REMARK minimizedAffinity -0.329335362
REMARK minimizedRMSD -1
REMARK  0 active torsions:
REMARK  status: ('A' for Active; 'I' for Inactive)
ROOT
ATOM      1  C   UNL d   1      -1.893   1.525   2.402  0.00  0.00     0.078 C 
ATOM      2  C1  UNL d   1      -1.093   2.295   1.395  0.00  0.00    -0.077 A 
ATOM      3  C2  UNL d   1      -0.619   3.581   1.681  0.00  0.00    -0.001 A 
ATOM      4  C3  UNL d   1       0.117   4.291   0.730  0.00  0.00     0.003 A 
ATOM      5  C4  UNL d   1       0.383   3.723  -0.514  0.00  0.00    -0.005 A 
ATOM      6  C5  UNL d   1      -0.087   2.445  -0.809  0.00  0.00     0.003 A 
ATOM      7  C6  UNL d   1      -0.822   1.734   0.141  0.00  0.00    -0.001 A 
ENDROOT
TORSDOF 0
ENDMDL
