MODEL 1
REMARK minimizedAffinity -0.46025306
REMARK minimizedRMSD -1
REMARK  0 active torsions:
REMARK  status: ('A' for Active; 'I' for Inactive)
ROOT
ATOM      1  C   UNL d   1       0.864   1.717  -1.709  0.00  0.00     0.078 C 
ATOM      2  C1  UNL d   1       0.005   2.091  -0.537  0.00  0.00    -0.077 A 
ATOM      3  C2  UNL d   1      -0.381   3.419  -0.321  0.00  0.00    -0.001 A 
ATOM      4  C3  UNL d   1      -1.172   3.753   0.780  0.00  0.00     0.003 A 
ATOM      5  C4  UNL d   1      -1.583   2.765   1.673  0.00  0.00    -0.005 A 
ATOM      6  C5  UNL d   1      -1.201   1.441   1.466  0.00  0.00     0.003 A 
ATOM      7  C6  UNL d   1      -0.410   1.105   0.367  0.00  0.00    -0.001 A 
ENDROOT
TORSDOF 0
ENDMDL
