MODEL 1
REMARK minimizedAffinity -2.3030448
REMARK minimizedRMSD -1
REMARK  0 active torsions:
REMARK  status: ('A' for Active; 'I' for Inactive)
ROOT
ATOM      1  C   UNL d   1      -1.741   1.877   2.277  0.00  0.00     0.078 C 
ATOM      2  C1  UNL d   1      -1.124   2.347   0.993  0.00  0.00    -0.077 A 
ATOM      3  C2  UNL d   1      -0.887   3.708   0.763  0.00  0.00    -0.001 A 
ATOM      4  C3  UNL d   1      -0.321   4.132  -0.440  0.00  0.00     0.003 A 
ATOM      5  C4  UNL d   1       0.012   3.202  -1.423  0.00  0.00    -0.005 A 
ATOM      6  C5  UNL d   1      -0.222   1.846  -1.204  0.00  0.00     0.003 A 
ATOM      7  C6  UNL d   1      -0.788   1.420  -0.002  0.00  0.00    -0.001 A 
ENDROOT
TORSDOF 0
ENDMDL
