MODEL 1
REMARK minimizedAffinity 3.56729198
REMARK minimizedRMSD -1
REMARK  0 active torsions:
REMARK  status: ('A' for Active; 'I' for Inactive)
ROOT
ATOM      1  C   UNL d   1       0.762  -6.000  -1.111  0.00  0.00     0.078 C 
ATOM      2  C1  UNL d   1       2.075  -5.289  -1.255  0.00  0.00    -0.077 A 
ATOM      3  C2  UNL d   1       3.216  -5.966  -1.702  0.00  0.00    -0.001 A 
ATOM      4  C3  UNL d   1       4.434  -5.294  -1.822  0.00  0.00     0.003 A 
ATOM      5  C4  UNL d   1       4.522  -3.942  -1.495  0.00  0.00    -0.005 A 
ATOM      6  C5  UNL d   1       3.392  -3.261  -1.046  0.00  0.00     0.003 A 
ATOM      7  C6  UNL d   1       2.174  -3.931  -0.926  0.00  0.00    -0.001 A 
ENDROOT
TORSDOF 0
ENDMDL
