MODEL 1
REMARK minimizedAffinity 1.96212435
REMARK minimizedRMSD -1
REMARK  0 active torsions:
REMARK  status: ('A' for Active; 'I' for Inactive)
ROOT
ATOM      1  C   UNL d   1       1.007   0.444  -1.486  0.00  0.00     0.078 C 
ATOM      2  C1  UNL d   1       0.301   1.574  -0.797  0.00  0.00    -0.077 A 
ATOM      3  C2  UNL d   1      -0.334   1.383   0.436  0.00  0.00    -0.001 A 
ATOM      4  C3  UNL d   1      -0.996   2.441   1.061  0.00  0.00     0.003 A 
ATOM      5  C4  UNL d   1      -1.029   3.698   0.460  0.00  0.00    -0.005 A 
ATOM      6  C5  UNL d   1      -0.402   3.897  -0.768  0.00  0.00     0.003 A 
ATOM      7  C6  UNL d   1       0.260   2.840  -1.394  0.00  0.00    -0.001 A 
ENDROOT
TORSDOF 0
ENDMDL
