MODEL 1
REMARK minimizedAffinity 6.1787405
REMARK minimizedRMSD -1
REMARK  0 active torsions:
REMARK  status: ('A' for Active; 'I' for Inactive)
ROOT
ATOM      1  C   UNL d   1      -1.366  -1.741   3.486  0.00  0.00     0.078 C 
ATOM      2  C1  UNL d   1      -0.992  -0.318   3.198  0.00  0.00    -0.077 A 
ATOM      3  C2  UNL d   1      -1.827   0.508   2.436  0.00  0.00    -0.001 A 
ATOM      4  C3  UNL d   1      -1.461   1.828   2.168  0.00  0.00     0.003 A 
ATOM      5  C4  UNL d   1      -0.259   2.334   2.657  0.00  0.00    -0.005 A 
ATOM      6  C5  UNL d   1       0.580   1.519   3.415  0.00  0.00     0.003 A 
ATOM      7  C6  UNL d   1       0.216   0.199   3.684  0.00  0.00    -0.001 A 
ENDROOT
TORSDOF 0
ENDMDL
