MODEL 1
REMARK minimizedAffinity 5.82251883
REMARK minimizedRMSD -1
REMARK  0 active torsions:
REMARK  status: ('A' for Active; 'I' for Inactive)
ROOT
ATOM      1  C   UNL d   1      -1.534  -2.158   3.759  0.00  0.00     0.078 C 
ATOM      2  C1  UNL d   1      -1.136  -0.916   3.019  0.00  0.00    -0.077 A 
ATOM      3  C2  UNL d   1      -2.085   0.055   2.676  0.00  0.00    -0.001 A 
ATOM      4  C3  UNL d   1      -1.701   1.201   1.978  0.00  0.00     0.003 A 
ATOM      5  C4  UNL d   1      -0.368   1.388   1.617  0.00  0.00    -0.005 A 
ATOM      6  C5  UNL d   1       0.583   0.426   1.952  0.00  0.00     0.003 A 
ATOM      7  C6  UNL d   1       0.201  -0.721   2.649  0.00  0.00    -0.001 A 
ENDROOT
TORSDOF 0
ENDMDL
