MODEL 1
REMARK minimizedAffinity 21.0698681
REMARK minimizedRMSD -1
REMARK  0 active torsions:
REMARK  status: ('A' for Active; 'I' for Inactive)
ROOT
ATOM      1  C   UNL d   1       2.308  -0.769  -0.965  0.00  0.00     0.023 A 
ATOM      2  C1  UNL d   1       2.161  -1.130  -2.304  0.00  0.00     0.003 A 
ATOM      3  C2  UNL d   1       1.104  -1.955  -2.694  0.00  0.00     0.048 A 
ATOM      4  C3  UNL d   1       0.196  -2.414  -1.740  0.00  0.00     0.023 A 
ATOM      5  C4  UNL d   1       0.339  -2.054  -0.399  0.00  0.00     0.048 A 
ATOM      6  C5  UNL d   1       1.398  -1.230  -0.013  0.00  0.00     0.003 A 
ATOM      7  I   UNL d   1      -1.378  -3.641  -2.319  0.00  0.00    -0.146 I 
ENDROOT
TORSDOF 0
ENDMDL
