MODEL 1
REMARK minimizedAffinity 11.9466429
REMARK minimizedRMSD -1
REMARK  0 active torsions:
REMARK  status: ('A' for Active; 'I' for Inactive)
ROOT
ATOM      1  C   UNL d   1       0.032  -2.784  -1.843  0.00  0.00     0.023 A 
ATOM      2  C1  UNL d   1       0.598  -3.023  -0.591  0.00  0.00     0.003 A 
ATOM      3  C2  UNL d   1       1.493  -2.103  -0.040  0.00  0.00     0.048 A 
ATOM      4  C3  UNL d   1       1.817  -0.946  -0.747  0.00  0.00     0.023 A 
ATOM      5  C4  UNL d   1       1.253  -0.702  -2.000  0.00  0.00     0.048 A 
ATOM      6  C5  UNL d   1       0.360  -1.625  -2.547  0.00  0.00     0.003 A 
ATOM      7  I   UNL d   1       3.149   0.425   0.071  0.00  0.00    -0.146 I 
ENDROOT
TORSDOF 0
ENDMDL
