MODEL 1
REMARK minimizedAffinity 14.715682
REMARK minimizedRMSD -1
REMARK  0 active torsions:
REMARK  status: ('A' for Active; 'I' for Inactive)
ROOT
ATOM      1  C   UNL d   1      -4.495  -0.506   3.001  0.00  0.00     0.023 A 
ATOM      2  C1  UNL d   1      -4.163  -0.960   4.278  0.00  0.00     0.003 A 
ATOM      3  C2  UNL d   1      -3.424  -0.147   5.139  0.00  0.00     0.048 A 
ATOM      4  C3  UNL d   1      -3.021   1.119   4.718  0.00  0.00     0.023 A 
ATOM      5  C4  UNL d   1      -3.352   1.579   3.443  0.00  0.00     0.048 A 
ATOM      6  C5  UNL d   1      -4.090   0.762   2.584  0.00  0.00     0.003 A 
ATOM      7  I   UNL d   1      -1.920   2.332   5.999  0.00  0.00    -0.146 I 
ENDROOT
TORSDOF 0
ENDMDL
