MODEL 1
REMARK minimizedAffinity 18.8259258
REMARK minimizedRMSD -1
REMARK  0 active torsions:
REMARK  status: ('A' for Active; 'I' for Inactive)
ROOT
ATOM      1  C   UNL d   1      -5.498   4.728  -6.000  0.00  0.00     0.023 A 
ATOM      2  C1  UNL d   1      -4.343   5.489  -5.818  0.00  0.00     0.003 A 
ATOM      3  C2  UNL d   1      -3.120   4.858  -5.584  0.00  0.00     0.048 A 
ATOM      4  C3  UNL d   1      -3.058   3.466  -5.534  0.00  0.00     0.023 A 
ATOM      5  C4  UNL d   1      -4.211   2.701  -5.716  0.00  0.00     0.048 A 
ATOM      6  C5  UNL d   1      -5.432   3.336  -5.949  0.00  0.00     0.003 A 
ATOM      7  I   UNL d   1      -1.238   2.524  -5.186  0.00  0.00    -0.146 I 
ENDROOT
TORSDOF 0
ENDMDL
