MODEL 1
REMARK minimizedAffinity 12.8023968
REMARK minimizedRMSD -1
REMARK  0 active torsions:
REMARK  status: ('A' for Active; 'I' for Inactive)
ROOT
ATOM      1  C   UNL d   1       1.389  -2.813  -1.195  0.00  0.00     0.023 A 
ATOM      2  C1  UNL d   1       2.692  -2.799  -0.698  0.00  0.00     0.003 A 
ATOM      3  C2  UNL d   1       3.404  -1.600  -0.634  0.00  0.00     0.048 A 
ATOM      4  C3  UNL d   1       2.806  -0.417  -1.069  0.00  0.00     0.023 A 
ATOM      5  C4  UNL d   1       1.502  -0.426  -1.567  0.00  0.00     0.048 A 
ATOM      6  C5  UNL d   1       0.795  -1.628  -1.629  0.00  0.00     0.003 A 
ATOM      7  I   UNL d   1       3.864   1.370  -0.975  0.00  0.00    -0.146 I 
ENDROOT
TORSDOF 0
ENDMDL
