MODEL 1
REMARK minimizedAffinity 2.34789586
REMARK minimizedRMSD -1
REMARK  0 active torsions:
REMARK  status: ('A' for Active; 'I' for Inactive)
ROOT
ATOM      1  C   UNL d   1      -4.461  -0.833   3.414  0.00  0.00     0.023 A 
ATOM      2  C1  UNL d   1      -3.744   0.346   3.211  0.00  0.00     0.003 A 
ATOM      3  C2  UNL d   1      -4.055   1.490   3.949  0.00  0.00     0.048 A 
ATOM      4  C3  UNL d   1      -5.084   1.448   4.889  0.00  0.00     0.023 A 
ATOM      5  C4  UNL d   1      -5.803   0.270   5.096  0.00  0.00     0.048 A 
ATOM      6  C5  UNL d   1      -5.490  -0.871   4.355  0.00  0.00     0.003 A 
ATOM      7  I   UNL d   1      -5.548   3.149   5.989  0.00  0.00    -0.146 I 
ENDROOT
TORSDOF 0
ENDMDL
