MODEL 1
REMARK minimizedAffinity 12.7772932
REMARK minimizedRMSD -1
REMARK  0 active torsions:
REMARK  status: ('A' for Active; 'I' for Inactive)
ROOT
ATOM      1  C   UNL d   1       2.609  -3.430  -1.717  0.00  0.00     0.023 A 
ATOM      2  C1  UNL d   1       1.615  -2.484  -1.969  0.00  0.00     0.003 A 
ATOM      3  C2  UNL d   1       1.811  -1.150  -1.605  0.00  0.00     0.048 A 
ATOM      4  C3  UNL d   1       3.003  -0.769  -0.990  0.00  0.00     0.023 A 
ATOM      5  C4  UNL d   1       4.001  -1.712  -0.737  0.00  0.00     0.048 A 
ATOM      6  C5  UNL d   1       3.800  -3.045  -1.102  0.00  0.00     0.003 A 
ATOM      7  I   UNL d   1       3.297   1.216  -0.448  0.00  0.00    -0.146 I 
ENDROOT
TORSDOF 0
ENDMDL
