MODEL 1
REMARK minimizedAffinity 12.0108814
REMARK minimizedRMSD -1
REMARK  0 active torsions:
REMARK  status: ('A' for Active; 'I' for Inactive)
ROOT
ATOM      1  C   UNL d   1       0.494   4.935  -0.580  0.00  0.00     0.023 A 
ATOM      2  C1  UNL d   1       1.104   4.235  -1.622  0.00  0.00     0.003 A 
ATOM      3  C2  UNL d   1       1.987   3.191  -1.340  0.00  0.00     0.048 A 
ATOM      4  C3  UNL d   1       2.254   2.850  -0.015  0.00  0.00     0.023 A 
ATOM      5  C4  UNL d   1       1.645   3.546   1.031  0.00  0.00     0.048 A 
ATOM      6  C5  UNL d   1       0.764   4.591   0.744  0.00  0.00     0.003 A 
ATOM      7  I   UNL d   1       3.567   1.295   0.407  0.00  0.00    -0.146 I 
ENDROOT
TORSDOF 0
ENDMDL
