MODEL 1
REMARK minimizedAffinity 0.735905349
REMARK minimizedRMSD -1
REMARK  0 active torsions:
REMARK  status: ('A' for Active; 'I' for Inactive)
ROOT
ATOM      1  C   UNL d   1       3.049  -5.998  -2.011  0.00  0.00     0.023 A 
ATOM      2  C1  UNL d   1       3.876  -5.209  -1.211  0.00  0.00     0.003 A 
ATOM      3  C2  UNL d   1       3.581  -3.858  -1.019  0.00  0.00     0.048 A 
ATOM      4  C3  UNL d   1       2.457  -3.302  -1.629  0.00  0.00     0.023 A 
ATOM      5  C4  UNL d   1       1.627  -4.087  -2.430  0.00  0.00     0.048 A 
ATOM      6  C5  UNL d   1       1.926  -5.438  -2.620  0.00  0.00     0.003 A 
ATOM      7  I   UNL d   1       2.016  -1.291  -1.344  0.00  0.00    -0.146 I 
ENDROOT
TORSDOF 0
ENDMDL
