MODEL 1
REMARK minimizedAffinity 3.14892101
REMARK minimizedRMSD -1
REMARK  0 active torsions:
REMARK  status: ('A' for Active; 'I' for Inactive)
ROOT
ATOM      1  C   UNL d   1      -5.762  -3.830  -6.000  0.00  0.00     0.023 A 
ATOM      2  C1  UNL d   1      -5.080  -3.061  -5.057  0.00  0.00     0.003 A 
ATOM      3  C2  UNL d   1      -4.296  -3.682  -4.083  0.00  0.00     0.048 A 
ATOM      4  C3  UNL d   1      -4.197  -5.073  -4.058  0.00  0.00     0.023 A 
ATOM      5  C4  UNL d   1      -4.877  -5.847  -5.000  0.00  0.00     0.048 A 
ATOM      6  C5  UNL d   1      -5.660  -5.221  -5.972  0.00  0.00     0.003 A 
ATOM      7  I   UNL d   1      -3.030  -6.000  -2.609  0.00  0.00    -0.146 I 
ENDROOT
TORSDOF 0
ENDMDL
