MODEL 1
REMARK minimizedAffinity 10.9577875
REMARK minimizedRMSD -1
REMARK  0 active torsions:
REMARK  status: ('A' for Active; 'I' for Inactive)
ROOT
ATOM      1  C   UNL d   1       1.251   0.607   4.331  0.00  0.00     0.023 A 
ATOM      2  C1  UNL d   1       0.862   0.343   3.018  0.00  0.00     0.003 A 
ATOM      3  C2  UNL d   1      -0.467   0.525   2.632  0.00  0.00     0.048 A 
ATOM      4  C3  UNL d   1      -1.403   0.972   3.564  0.00  0.00     0.023 A 
ATOM      5  C4  UNL d   1      -1.019   1.238   4.879  0.00  0.00     0.048 A 
ATOM      6  C5  UNL d   1       0.311   1.054   5.261  0.00  0.00     0.003 A 
ATOM      7  I   UNL d   1      -3.382   1.244   2.991  0.00  0.00    -0.146 I 
ENDROOT
TORSDOF 0
ENDMDL
