MODEL 1
REMARK minimizedAffinity 20.2195911
REMARK minimizedRMSD -1
REMARK  0 active torsions:
REMARK  status: ('A' for Active; 'I' for Inactive)
ROOT
ATOM      1  C   UNL d   1      -2.714  -2.631  -3.180  0.00  0.00     0.023 A 
ATOM      2  C1  UNL d   1      -1.706  -3.549  -2.882  0.00  0.00     0.003 A 
ATOM      3  C2  UNL d   1      -0.545  -3.127  -2.232  0.00  0.00     0.048 A 
ATOM      4  C3  UNL d   1      -0.398  -1.786  -1.880  0.00  0.00     0.023 A 
ATOM      5  C4  UNL d   1      -1.404  -0.864  -2.175  0.00  0.00     0.048 A 
ATOM      6  C5  UNL d   1      -2.563  -1.290  -2.827  0.00  0.00     0.003 A 
ATOM      7  I   UNL d   1       1.329  -1.155  -0.912  0.00  0.00    -0.146 I 
ENDROOT
TORSDOF 0
ENDMDL
