MODEL 1
REMARK minimizedAffinity 9.89975452
REMARK minimizedRMSD -1
REMARK  0 active torsions:
REMARK  status: ('A' for Active; 'I' for Inactive)
ROOT
ATOM      1  C   UNL d   1      -2.877  -3.102  -3.863  0.00  0.00     0.023 A 
ATOM      2  C1  UNL d   1      -2.371  -4.105  -3.036  0.00  0.00     0.003 A 
ATOM      3  C2  UNL d   1      -1.282  -3.841  -2.202  0.00  0.00     0.048 A 
ATOM      4  C3  UNL d   1      -0.706  -2.571  -2.199  0.00  0.00     0.023 A 
ATOM      5  C4  UNL d   1      -1.210  -1.564  -3.024  0.00  0.00     0.048 A 
ATOM      6  C5  UNL d   1      -2.298  -1.833  -3.856  0.00  0.00     0.003 A 
ATOM      7  I   UNL d   1       0.914  -2.176  -0.958  0.00  0.00    -0.146 I 
ENDROOT
TORSDOF 0
ENDMDL
