MODEL 1
REMARK minimizedAffinity 14.815897
REMARK minimizedRMSD -1
REMARK  0 active torsions:
REMARK  status: ('A' for Active; 'I' for Inactive)
ROOT
ATOM      1  C   UNL d   1      -2.991   2.492  -5.993  0.00  0.00     0.023 A 
ATOM      2  C1  UNL d   1      -3.272   1.125  -6.000  0.00  0.00     0.003 A 
ATOM      3  C2  UNL d   1      -2.861   0.321  -4.934  0.00  0.00     0.048 A 
ATOM      4  C3  UNL d   1      -2.171   0.890  -3.865  0.00  0.00     0.023 A 
ATOM      5  C4  UNL d   1      -1.888   2.257  -3.853  0.00  0.00     0.048 A 
ATOM      6  C5  UNL d   1      -2.300   3.057  -4.921  0.00  0.00     0.003 A 
ATOM      7  I   UNL d   1      -1.558  -0.304  -2.278  0.00  0.00    -0.146 I 
ENDROOT
TORSDOF 0
ENDMDL
