MODEL 1
REMARK minimizedAffinity 7.06893158
REMARK minimizedRMSD -1
REMARK  0 active torsions:
REMARK  status: ('A' for Active; 'I' for Inactive)
ROOT
ATOM      1  C   UNL d   1      -1.627   2.792   3.952  0.00  0.00     0.023 A 
ATOM      2  C1  UNL d   1      -1.249   1.676   3.206  0.00  0.00     0.003 A 
ATOM      3  C2  UNL d   1      -2.208   0.739   2.815  0.00  0.00     0.048 A 
ATOM      4  C3  UNL d   1      -3.543   0.925   3.172  0.00  0.00     0.023 A 
ATOM      5  C4  UNL d   1      -3.926   2.041   3.918  0.00  0.00     0.048 A 
ATOM      6  C5  UNL d   1      -2.963   2.975   4.308  0.00  0.00     0.003 A 
ATOM      7  I   UNL d   1      -4.972  -0.468   2.591  0.00  0.00    -0.146 I 
ENDROOT
TORSDOF 0
ENDMDL
