MODEL 1
REMARK minimizedAffinity -2.52954435
REMARK minimizedRMSD -1
REMARK  0 active torsions:
REMARK  status: ('A' for Active; 'I' for Inactive)
ROOT
ATOM      1  C   UNL d   1       1.347   1.792  -1.590  0.00  0.00     0.023 A 
ATOM      2  C1  UNL d   1       1.215   0.789  -2.551  0.00  0.00     0.003 A 
ATOM      3  C2  UNL d   1       0.764  -0.479  -2.180  0.00  0.00     0.048 A 
ATOM      4  C3  UNL d   1       0.445  -0.738  -0.848  0.00  0.00     0.023 A 
ATOM      5  C4  UNL d   1       0.574   0.263   0.117  0.00  0.00     0.048 A 
ATOM      6  C5  UNL d   1       1.027   1.529  -0.258  0.00  0.00     0.003 A 
ATOM      7  I   UNL d   1      -0.228  -2.625  -0.294  0.00  0.00    -0.146 I 
ENDROOT
TORSDOF 0
ENDMDL
