MODEL 1
REMARK minimizedAffinity -1.91330421
REMARK minimizedRMSD -1
REMARK  0 active torsions:
REMARK  status: ('A' for Active; 'I' for Inactive)
ROOT
ATOM      1  O1  BZF d   1       2.972   5.929   2.020  0.00  0.00    -0.204 OA
ATOM      2  C2  BZF d   1       4.354   5.926   2.025  0.00  0.00     0.174 A 
ATOM      3  C3  BZF d   1       4.828   5.997   3.286  0.00  0.00    -0.012 A 
ATOM      4  C3A BZF d   1       3.670   5.955   4.126  0.00  0.00    -0.107 A 
ATOM      5  C4  BZF d   1       3.491   5.975   5.480  0.00  0.00     0.055 A 
ATOM      6  C5  BZF d   1       2.228   5.994   5.979  0.00  0.00    -0.016 A 
ATOM      7  C6  BZF d   1       1.121   6.000   5.154  0.00  0.00     0.022 A 
ATOM      8  C7  BZF d   1       1.248   5.976   3.805  0.00  0.00     0.029 A 
ATOM      9  C7A BZF d   1       2.524   5.922   3.298  0.00  0.00     0.058 A 
ENDROOT
TORSDOF 0
ENDMDL
