MODEL 1
REMARK minimizedAffinity 1.98784375
REMARK minimizedRMSD -1
REMARK  0 active torsions:
REMARK  status: ('A' for Active; 'I' for Inactive)
ROOT
ATOM      1  O1  BZF d   1       4.382   4.797   3.606  0.00  0.00    -0.204 OA
ATOM      2  C2  BZF d   1       4.134   4.866   2.249  0.00  0.00     0.174 A 
ATOM      3  C3  BZF d   1       2.858   5.235   2.015  0.00  0.00    -0.012 A 
ATOM      4  C3A BZF d   1       2.299   5.497   3.305  0.00  0.00    -0.107 A 
ATOM      5  C4  BZF d   1       1.069   5.914   3.729  0.00  0.00     0.055 A 
ATOM      6  C5  BZF d   1       0.824   6.000   5.063  0.00  0.00    -0.016 A 
ATOM      7  C6  BZF d   1       1.782   5.672   5.999  0.00  0.00     0.022 A 
ATOM      8  C7  BZF d   1       3.018   5.258   5.628  0.00  0.00     0.029 A 
ATOM      9  C7A BZF d   1       3.279   5.202   4.281  0.00  0.00     0.058 A 
ENDROOT
TORSDOF 0
ENDMDL
