MODEL 1
REMARK minimizedAffinity 10.6595898
REMARK minimizedRMSD -1
REMARK  0 active torsions:
REMARK  status: ('A' for Active; 'I' for Inactive)
ROOT
ATOM      1  O1  BZF d   1      -2.613  -0.528  -0.681  0.00  0.00    -0.204 OA
ATOM      2  C2  BZF d   1      -3.512  -0.340   0.351  0.00  0.00     0.174 A 
ATOM      3  C3  BZF d   1      -2.874  -0.297   1.539  0.00  0.00    -0.012 A 
ATOM      4  C3A BZF d   1      -1.481  -0.377   1.221  0.00  0.00    -0.107 A 
ATOM      5  C4  BZF d   1      -0.344  -0.367   1.977  0.00  0.00     0.055 A 
ATOM      6  C5  BZF d   1       0.857  -0.536   1.364  0.00  0.00    -0.016 A 
ATOM      7  C6  BZF d   1       0.958  -0.722   0.001  0.00  0.00     0.022 A 
ATOM      8  C7  BZF d   1      -0.142  -0.734  -0.791  0.00  0.00     0.029 A 
ATOM      9  C7A BZF d   1      -1.355  -0.531  -0.179  0.00  0.00     0.058 A 
ENDROOT
TORSDOF 0
ENDMDL
