MODEL 1
REMARK minimizedAffinity 1.26350844
REMARK minimizedRMSD -1
REMARK  0 active torsions:
REMARK  status: ('A' for Active; 'I' for Inactive)
ROOT
ATOM      1  O1  BZF d   1       0.717   4.537   4.848  0.00  0.00    -0.204 OA
ATOM      2  C2  BZF d   1       0.864   5.334   5.966  0.00  0.00     0.174 A 
ATOM      3  C3  BZF d   1       2.041   5.990   5.935  0.00  0.00    -0.012 A 
ATOM      4  C3A BZF d   1       2.629   5.648   4.676  0.00  0.00    -0.107 A 
ATOM      5  C4  BZF d   1       3.795   6.000   4.057  0.00  0.00     0.055 A 
ATOM      6  C5  BZF d   1       4.106   5.433   2.862  0.00  0.00    -0.016 A 
ATOM      7  C6  BZF d   1       3.278   4.508   2.260  0.00  0.00     0.022 A 
ATOM      8  C7  BZF d   1       2.109   4.131   2.833  0.00  0.00     0.029 A 
ATOM      9  C7A BZF d   1       1.776   4.727   4.025  0.00  0.00     0.058 A 
ENDROOT
TORSDOF 0
ENDMDL
