MODEL 1
REMARK minimizedAffinity 4.69164515
REMARK minimizedRMSD -1
REMARK  0 active torsions:
REMARK  status: ('A' for Active; 'I' for Inactive)
ROOT
ATOM      1  O1  BZF d   1      -1.900  -0.945   0.590  0.00  0.00    -0.204 OA
ATOM      2  C2  BZF d   1      -2.402  -0.780   1.866  0.00  0.00     0.174 A 
ATOM      3  C3  BZF d   1      -1.401  -0.684   2.765  0.00  0.00    -0.012 A 
ATOM      4  C3A BZF d   1      -0.197  -0.703   1.992  0.00  0.00    -0.107 A 
ATOM      5  C4  BZF d   1       1.127  -0.624   2.314  0.00  0.00     0.055 A 
ATOM      6  C5  BZF d   1       2.055  -0.746   1.329  0.00  0.00    -0.016 A 
ATOM      7  C6  BZF d   1       1.695  -0.954   0.014  0.00  0.00     0.022 A 
ATOM      8  C7  BZF d   1       0.393  -1.034  -0.355  0.00  0.00     0.029 A 
ATOM      9  C7A BZF d   1      -0.547  -0.878   0.633  0.00  0.00     0.058 A 
ENDROOT
TORSDOF 0
ENDMDL
