MODEL 1
REMARK minimizedAffinity 1.2370491
REMARK minimizedRMSD -1
REMARK  0 active torsions:
REMARK  status: ('A' for Active; 'I' for Inactive)
ROOT
ATOM      1  O1  BZF d   1       2.029  -3.799   1.763  0.00  0.00    -0.204 OA
ATOM      2  C2  BZF d   1       2.953  -4.146   0.796  0.00  0.00     0.174 A 
ATOM      3  C3  BZF d   1       2.868  -3.319  -0.266  0.00  0.00    -0.012 A 
ATOM      4  C3A BZF d   1       1.889  -2.341   0.096  0.00  0.00    -0.107 A 
ATOM      5  C4  BZF d   1       1.377  -1.245  -0.538  0.00  0.00     0.055 A 
ATOM      6  C5  BZF d   1       0.379  -0.542   0.059  0.00  0.00    -0.016 A 
ATOM      7  C6  BZF d   1      -0.134  -0.909   1.286  0.00  0.00     0.022 A 
ATOM      8  C7  BZF d   1       0.345  -1.986   1.956  0.00  0.00     0.029 A 
ATOM      9  C7A BZF d   1       1.376  -2.679   1.370  0.00  0.00     0.058 A 
ENDROOT
TORSDOF 0
ENDMDL
