MODEL 1
REMARK minimizedAffinity -1.26180005
REMARK minimizedRMSD -1
REMARK  0 active torsions:
REMARK  status: ('A' for Active; 'I' for Inactive)
ROOT
ATOM      1  O1  BZF d   1       2.693   5.943   1.969  0.00  0.00    -0.204 OA
ATOM      2  C2  BZF d   1       4.055   5.938   1.743  0.00  0.00     0.174 A 
ATOM      3  C3  BZF d   1       4.734   6.000   2.906  0.00  0.00    -0.012 A 
ATOM      4  C3A BZF d   1       3.734   5.953   3.928  0.00  0.00    -0.107 A 
ATOM      5  C4  BZF d   1       3.785   5.964   5.293  0.00  0.00     0.055 A 
ATOM      6  C5  BZF d   1       2.623   5.982   5.997  0.00  0.00    -0.016 A 
ATOM      7  C6  BZF d   1       1.394   5.995   5.370  0.00  0.00     0.022 A 
ATOM      8  C7  BZF d   1       1.293   5.980   4.019  0.00  0.00     0.029 A 
ATOM      9  C7A BZF d   1       2.465   5.928   3.305  0.00  0.00     0.058 A 
ENDROOT
TORSDOF 0
ENDMDL
