MODEL 1
REMARK minimizedAffinity 1.78689229
REMARK minimizedRMSD -1
REMARK  0 active torsions:
REMARK  status: ('A' for Active; 'I' for Inactive)
ROOT
ATOM      1  O1  BZF d   1       0.410   5.946   3.848  0.00  0.00    -0.204 OA
ATOM      2  C2  BZF d   1       0.144   5.904   5.203  0.00  0.00     0.174 A 
ATOM      3  C3  BZF d   1       1.288   5.843   5.914  0.00  0.00    -0.012 A 
ATOM      4  C3A BZF d   1       2.338   5.940   4.946  0.00  0.00    -0.107 A 
ATOM      5  C4  BZF d   1       3.700   5.953   5.037  0.00  0.00     0.055 A 
ATOM      6  C5  BZF d   1       4.438   5.985   3.896  0.00  0.00    -0.016 A 
ATOM      7  C6  BZF d   1       3.847   5.999   2.650  0.00  0.00     0.022 A 
ATOM      8  C7  BZF d   1       2.499   5.992   2.509  0.00  0.00     0.029 A 
ATOM      9  C7A BZF d   1       1.751   5.993   3.661  0.00  0.00     0.058 A 
ENDROOT
TORSDOF 0
ENDMDL
