MODEL 1
REMARK minimizedAffinity 4.17588663
REMARK minimizedRMSD -1
REMARK  0 active torsions:
REMARK  status: ('A' for Active; 'I' for Inactive)
ROOT
ATOM      1  C   UNL d   1      -3.729  -5.966   4.864  0.00  0.00     0.077 C 
ATOM      2  C1  UNL d   1      -4.455  -4.983   3.995  0.00  0.00    -0.074 A 
ATOM      3  C2  UNL d   1      -5.324  -5.417   2.990  0.00  0.00    -0.005 A 
ATOM      4  C3  UNL d   1      -6.000  -4.490   2.196  0.00  0.00     0.006 A 
ATOM      5  C4  UNL d   1      -5.813  -3.122   2.399  0.00  0.00    -0.005 A 
ATOM      6  C5  UNL d   1      -4.948  -2.670   3.400  0.00  0.00    -0.074 A 
ATOM      7  C6  UNL d   1      -4.744  -1.203   3.638  0.00  0.00     0.077 C 
ATOM      8  C7  UNL d   1      -4.279  -3.607   4.199  0.00  0.00    -0.001 A 
ENDROOT
TORSDOF 0
ENDMDL
