MODEL 1
REMARK minimizedAffinity 0.503628373
REMARK minimizedRMSD -1
REMARK  0 active torsions:
REMARK  status: ('A' for Active; 'I' for Inactive)
ROOT
ATOM      1  C   UNL d   1       1.738  -1.810  -2.110  0.00  0.00     0.077 C 
ATOM      2  C1  UNL d   1       2.518  -3.090  -2.173  0.00  0.00    -0.074 A 
ATOM      3  C2  UNL d   1       2.413  -3.942  -3.277  0.00  0.00    -0.005 A 
ATOM      4  C3  UNL d   1       3.152  -5.124  -3.326  0.00  0.00     0.006 A 
ATOM      5  C4  UNL d   1       4.002  -5.465  -2.273  0.00  0.00    -0.005 A 
ATOM      6  C5  UNL d   1       4.120  -4.625  -1.161  0.00  0.00    -0.074 A 
ATOM      7  C6  UNL d   1       5.037  -4.972  -0.025  0.00  0.00     0.077 C 
ATOM      8  C7  UNL d   1       3.380  -3.436  -1.123  0.00  0.00    -0.001 A 
ENDROOT
TORSDOF 0
ENDMDL
