MODEL 1
REMARK minimizedAffinity 5.86839914
REMARK minimizedRMSD -1
REMARK  0 active torsions:
REMARK  status: ('A' for Active; 'I' for Inactive)
ROOT
ATOM      1  C   UNL d   1       3.730  -3.927  -4.578  0.00  0.00     0.077 C 
ATOM      2  C1  UNL d   1       3.327  -4.498  -3.251  0.00  0.00    -0.074 A 
ATOM      3  C2  UNL d   1       2.326  -5.471  -3.162  0.00  0.00    -0.005 A 
ATOM      4  C3  UNL d   1       1.968  -6.000  -1.922  0.00  0.00     0.006 A 
ATOM      5  C4  UNL d   1       2.606  -5.562  -0.761  0.00  0.00    -0.005 A 
ATOM      6  C5  UNL d   1       3.610  -4.591  -0.831  0.00  0.00    -0.074 A 
ATOM      7  C6  UNL d   1       4.313  -4.117   0.407  0.00  0.00     0.077 C 
ATOM      8  C7  UNL d   1       3.969  -4.069  -2.081  0.00  0.00    -0.001 A 
ENDROOT
TORSDOF 0
ENDMDL
