MODEL 1
REMARK minimizedAffinity 9.08216
REMARK minimizedRMSD -1
REMARK  0 active torsions:
REMARK  status: ('A' for Active; 'I' for Inactive)
ROOT
ATOM      1  C   UNL d   1       5.064  -5.963   0.241  0.00  0.00     0.077 C 
ATOM      2  C1  UNL d   1       4.114  -5.163  -0.600  0.00  0.00    -0.074 A 
ATOM      3  C2  UNL d   1       3.356  -4.128  -0.042  0.00  0.00    -0.005 A 
ATOM      4  C3  UNL d   1       2.485  -3.386  -0.840  0.00  0.00     0.006 A 
ATOM      5  C4  UNL d   1       2.362  -3.671  -2.200  0.00  0.00    -0.005 A 
ATOM      6  C5  UNL d   1       3.113  -4.701  -2.776  0.00  0.00    -0.074 A 
ATOM      7  C6  UNL d   1       3.000  -5.014  -4.238  0.00  0.00     0.077 C 
ATOM      8  C7  UNL d   1       3.992  -5.437  -1.969  0.00  0.00    -0.001 A 
ENDROOT
TORSDOF 0
ENDMDL
