MODEL 1
REMARK minimizedAffinity 0.197958335
REMARK minimizedRMSD -1
REMARK  0 active torsions:
REMARK  status: ('A' for Active; 'I' for Inactive)
ROOT
ATOM      1  C   UNL d   1       4.051  -4.708   0.021  0.00  0.00     0.077 C 
ATOM      2  C1  UNL d   1       3.856  -4.505  -1.452  0.00  0.00    -0.074 A 
ATOM      3  C2  UNL d   1       2.648  -4.013  -1.957  0.00  0.00    -0.005 A 
ATOM      4  C3  UNL d   1       2.485  -3.821  -3.329  0.00  0.00     0.006 A 
ATOM      5  C4  UNL d   1       3.526  -4.119  -4.209  0.00  0.00    -0.005 A 
ATOM      6  C5  UNL d   1       4.742  -4.611  -3.722  0.00  0.00    -0.074 A 
ATOM      7  C6  UNL d   1       5.875  -4.927  -4.653  0.00  0.00     0.077 C 
ATOM      8  C7  UNL d   1       4.900  -4.795  -2.342  0.00  0.00    -0.001 A 
ENDROOT
TORSDOF 0
ENDMDL
