MODEL 1
REMARK minimizedAffinity 5.28944206
REMARK minimizedRMSD -1
REMARK  0 active torsions:
REMARK  status: ('A' for Active; 'I' for Inactive)
ROOT
ATOM      1  C   UNL d   1       1.416  -2.245  -2.590  0.00  0.00     0.077 C 
ATOM      2  C1  UNL d   1       2.402  -3.367  -2.460  0.00  0.00    -0.074 A 
ATOM      3  C2  UNL d   1       2.724  -4.173  -3.557  0.00  0.00    -0.005 A 
ATOM      4  C3  UNL d   1       3.650  -5.207  -3.424  0.00  0.00     0.006 A 
ATOM      5  C4  UNL d   1       4.263  -5.446  -2.193  0.00  0.00    -0.005 A 
ATOM      6  C5  UNL d   1       3.955  -4.651  -1.085  0.00  0.00    -0.074 A 
ATOM      7  C6  UNL d   1       4.613  -4.888   0.242  0.00  0.00     0.077 C 
ATOM      8  C7  UNL d   1       3.029  -3.609  -1.229  0.00  0.00    -0.001 A 
ENDROOT
TORSDOF 0
ENDMDL
