MODEL 1
REMARK minimizedAffinity 11.6738968
REMARK minimizedRMSD -1
REMARK  0 active torsions:
REMARK  status: ('A' for Active; 'I' for Inactive)
ROOT
ATOM      1  C   UNL d   1      -3.773  -4.386   4.461  0.00  0.00     0.077 C 
ATOM      2  C1  UNL d   1      -4.318  -3.345   3.530  0.00  0.00    -0.074 A 
ATOM      3  C2  UNL d   1      -5.500  -3.567   2.816  0.00  0.00    -0.005 A 
ATOM      4  C3  UNL d   1      -6.000  -2.585   1.960  0.00  0.00     0.006 A 
ATOM      5  C4  UNL d   1      -5.324  -1.373   1.811  0.00  0.00    -0.005 A 
ATOM      6  C5  UNL d   1      -4.141  -1.133   2.517  0.00  0.00    -0.074 A 
ATOM      7  C6  UNL d   1      -3.408   0.168   2.375  0.00  0.00     0.077 C 
ATOM      8  C7  UNL d   1      -3.649  -2.122   3.380  0.00  0.00    -0.001 A 
ENDROOT
TORSDOF 0
ENDMDL
