MODEL 1
REMARK minimizedAffinity 3.9205966
REMARK minimizedRMSD -1
REMARK  0 active torsions:
REMARK  status: ('A' for Active; 'I' for Inactive)
ROOT
ATOM      1  C   UNL d   1       1.396  -2.340  -2.576  0.00  0.00     0.077 C 
ATOM      2  C1  UNL d   1       2.478  -3.371  -2.445  0.00  0.00    -0.074 A 
ATOM      3  C2  UNL d   1       3.212  -3.788  -3.560  0.00  0.00    -0.005 A 
ATOM      4  C3  UNL d   1       4.222  -4.741  -3.421  0.00  0.00     0.006 A 
ATOM      5  C4  UNL d   1       4.506  -5.285  -2.168  0.00  0.00    -0.005 A 
ATOM      6  C5  UNL d   1       3.783  -4.880  -1.042  0.00  0.00    -0.074 A 
ATOM      7  C6  UNL d   1       4.082  -5.449   0.314  0.00  0.00     0.077 C 
ATOM      8  C7  UNL d   1       2.775  -3.918  -1.188  0.00  0.00    -0.001 A 
ENDROOT
TORSDOF 0
ENDMDL
