MODEL 1
REMARK minimizedAffinity 5.68063402
REMARK minimizedRMSD -1
REMARK  0 active torsions:
REMARK  status: ('A' for Active; 'I' for Inactive)
ROOT
ATOM      1  C   UNL d   1       4.898  -4.014  -5.101  0.00  0.00     0.077 C 
ATOM      2  C1  UNL d   1       3.980  -3.988  -3.916  0.00  0.00    -0.074 A 
ATOM      3  C2  UNL d   1       2.730  -3.365  -3.989  0.00  0.00    -0.005 A 
ATOM      4  C3  UNL d   1       1.883  -3.356  -2.880  0.00  0.00     0.006 A 
ATOM      5  C4  UNL d   1       2.277  -3.969  -1.690  0.00  0.00    -0.005 A 
ATOM      6  C5  UNL d   1       3.523  -4.598  -1.599  0.00  0.00    -0.074 A 
ATOM      7  C6  UNL d   1       3.957  -5.270  -0.330  0.00  0.00     0.077 C 
ATOM      8  C7  UNL d   1       4.365  -4.608  -2.719  0.00  0.00    -0.001 A 
ENDROOT
TORSDOF 0
ENDMDL
