MODEL 1
REMARK minimizedAffinity 6.50127888
REMARK minimizedRMSD -1
REMARK  0 active torsions:
REMARK  status: ('A' for Active; 'I' for Inactive)
ROOT
ATOM      1  C   UNL d   1       0.633  -4.145  -3.367  0.00  0.00     0.077 C 
ATOM      2  C1  UNL d   1       2.070  -4.452  -3.066  0.00  0.00    -0.074 A 
ATOM      3  C2  UNL d   1       3.017  -4.533  -4.092  0.00  0.00    -0.005 A 
ATOM      4  C3  UNL d   1       4.352  -4.809  -3.796  0.00  0.00     0.006 A 
ATOM      5  C4  UNL d   1       4.752  -5.007  -2.474  0.00  0.00    -0.005 A 
ATOM      6  C5  UNL d   1       3.819  -4.929  -1.435  0.00  0.00    -0.074 A 
ATOM      7  C6  UNL d   1       4.234  -5.130  -0.008  0.00  0.00     0.077 C 
ATOM      8  C7  UNL d   1       2.481  -4.644  -1.740  0.00  0.00    -0.001 A 
ENDROOT
TORSDOF 0
ENDMDL
