MODEL 1
REMARK minimizedAffinity -2.23727322
REMARK minimizedRMSD -1
REMARK  0 active torsions:
REMARK  status: ('A' for Active; 'I' for Inactive)
ROOT
ATOM      1  C   UNL d   1       1.136  -2.192  -2.966  0.00  0.00     0.077 C 
ATOM      2  C1  UNL d   1       2.312  -3.088  -2.714  0.00  0.00    -0.074 A 
ATOM      3  C2  UNL d   1       3.099  -3.555  -3.771  0.00  0.00    -0.005 A 
ATOM      4  C3  UNL d   1       4.196  -4.381  -3.520  0.00  0.00     0.006 A 
ATOM      5  C4  UNL d   1       4.515  -4.746  -2.212  0.00  0.00    -0.005 A 
ATOM      6  C5  UNL d   1       3.740  -4.288  -1.142  0.00  0.00    -0.074 A 
ATOM      7  C6  UNL d   1       4.075  -4.663   0.270  0.00  0.00     0.077 C 
ATOM      8  C7  UNL d   1       2.644  -3.454  -1.402  0.00  0.00    -0.001 A 
ENDROOT
TORSDOF 0
ENDMDL
