MODEL 1
REMARK minimizedAffinity 0.412343591
REMARK minimizedRMSD -1
REMARK  0 active torsions:
REMARK  status: ('A' for Active; 'I' for Inactive)
ROOT
ATOM      1  C   UNL d   1       1.812  -2.299  -3.388  0.00  0.00     0.077 C 
ATOM      2  C1  UNL d   1       2.356  -3.553  -2.770  0.00  0.00    -0.074 A 
ATOM      3  C2  UNL d   1       1.981  -4.812  -3.251  0.00  0.00    -0.005 A 
ATOM      4  C3  UNL d   1       2.502  -5.969  -2.673  0.00  0.00     0.006 A 
ATOM      5  C4  UNL d   1       3.402  -5.880  -1.610  0.00  0.00    -0.005 A 
ATOM      6  C5  UNL d   1       3.789  -4.630  -1.117  0.00  0.00    -0.074 A 
ATOM      7  C6  UNL d   1       4.762  -4.515   0.019  0.00  0.00     0.077 C 
ATOM      8  C7  UNL d   1       3.266  -3.471  -1.707  0.00  0.00    -0.001 A 
ENDROOT
TORSDOF 0
ENDMDL
