MODEL 1
REMARK minimizedAffinity 16.6131687
REMARK minimizedRMSD -1
REMARK  0 active torsions:
REMARK  status: ('A' for Active; 'I' for Inactive)
ROOT
ATOM      1  C   UNL d   1       0.079   5.829   1.854  0.00  0.00     0.077 C 
ATOM      2  C1  UNL d   1       0.747   5.149   0.696  0.00  0.00    -0.074 A 
ATOM      3  C2  UNL d   1       0.858   5.785  -0.544  0.00  0.00    -0.005 A 
ATOM      4  C3  UNL d   1       1.490   5.143  -1.609  0.00  0.00     0.006 A 
ATOM      5  C4  UNL d   1       2.016   3.861  -1.445  0.00  0.00    -0.005 A 
ATOM      6  C5  UNL d   1       1.915   3.210  -0.212  0.00  0.00    -0.074 A 
ATOM      7  C6  UNL d   1       2.483   1.836  -0.015  0.00  0.00     0.077 C 
ATOM      8  C7  UNL d   1       1.284   3.864   0.856  0.00  0.00    -0.001 A 
ENDROOT
TORSDOF 0
ENDMDL
