MODEL 1
REMARK minimizedAffinity 6.13365173
REMARK minimizedRMSD -1
REMARK  0 active torsions:
REMARK  status: ('A' for Active; 'I' for Inactive)
ROOT
ATOM      1  C   UNL d   1      -1.038  -4.313  -5.157  0.00  0.00     0.077 C 
ATOM      2  C1  UNL d   1      -2.506  -4.271  -5.458  0.00  0.00    -0.074 A 
ATOM      3  C2  UNL d   1      -3.229  -5.448  -5.680  0.00  0.00    -0.005 A 
ATOM      4  C3  UNL d   1      -4.596  -5.393  -5.949  0.00  0.00     0.006 A 
ATOM      5  C4  UNL d   1      -5.254  -4.163  -6.000  0.00  0.00    -0.005 A 
ATOM      6  C5  UNL d   1      -4.548  -2.976  -5.780  0.00  0.00    -0.074 A 
ATOM      7  C6  UNL d   1      -5.242  -1.647  -5.820  0.00  0.00     0.077 C 
ATOM      8  C7  UNL d   1      -3.176  -3.040  -5.503  0.00  0.00    -0.001 A 
ENDROOT
TORSDOF 0
ENDMDL
