MODEL 1
REMARK minimizedAffinity 15.8594599
REMARK minimizedRMSD -1
REMARK  0 active torsions:
REMARK  status: ('A' for Active; 'I' for Inactive)
ROOT
ATOM      1  C   UNL d   1      -5.008  -5.972  -5.994  0.00  0.00     0.077 C 
ATOM      2  C1  UNL d   1      -4.249  -4.752  -5.563  0.00  0.00    -0.074 A 
ATOM      3  C2  UNL d   1      -4.628  -3.478  -5.999  0.00  0.00    -0.005 A 
ATOM      4  C3  UNL d   1      -3.919  -2.352  -5.582  0.00  0.00     0.006 A 
ATOM      5  C4  UNL d   1      -2.825  -2.488  -4.727  0.00  0.00    -0.005 A 
ATOM      6  C5  UNL d   1      -2.431  -3.753  -4.280  0.00  0.00    -0.074 A 
ATOM      7  C6  UNL d   1      -1.264  -3.916  -3.352  0.00  0.00     0.077 C 
ATOM      8  C7  UNL d   1      -3.154  -4.880  -4.697  0.00  0.00    -0.001 A 
ENDROOT
TORSDOF 0
ENDMDL
