MODEL 1
REMARK minimizedAffinity -2.92248034
REMARK minimizedRMSD -1
REMARK  0 active torsions:
REMARK  status: ('A' for Active; 'I' for Inactive)
ROOT
ATOM      1  C1  BNZ d   1      -0.659   0.912   1.120  0.00  0.00     0.000 A 
ATOM      2  C2  BNZ d   1      -0.139  -0.316   0.808  0.00  0.00     0.000 A 
ATOM      3  C3  BNZ d   1       0.259  -0.604  -0.468  0.00  0.00     0.000 A 
ATOM      4  C4  BNZ d   1       0.100   0.321  -1.436  0.00  0.00     0.000 A 
ATOM      5  C5  BNZ d   1      -0.431   1.560  -1.139  0.00  0.00     0.000 A 
ATOM      6  C6  BNZ d   1      -0.794   1.860   0.154  0.00  0.00     0.000 A 
ENDROOT
TORSDOF 0
ENDMDL
