MODEL 1
REMARK minimizedAffinity -4.07684278
REMARK minimizedRMSD -1
REMARK  0 active torsions:
REMARK  status: ('A' for Active; 'I' for Inactive)
ROOT
ATOM      1  C1  BNZ d   1      -0.443   1.763   1.985  0.00  0.00     0.000 A 
ATOM      2  C2  BNZ d   1      -0.048   0.488   1.678  0.00  0.00     0.000 A 
ATOM      3  C3  BNZ d   1      -0.075   0.038   0.388  0.00  0.00     0.000 A 
ATOM      4  C4  BNZ d   1      -0.535   0.848  -0.587  0.00  0.00     0.000 A 
ATOM      5  C5  BNZ d   1      -0.945   2.133  -0.293  0.00  0.00     0.000 A 
ATOM      6  C6  BNZ d   1      -0.880   2.596   1.002  0.00  0.00     0.000 A 
ENDROOT
TORSDOF 0
ENDMDL
