MODEL 1
REMARK minimizedAffinity -3.80227399
REMARK minimizedRMSD -1
REMARK  0 active torsions:
REMARK  status: ('A' for Active; 'I' for Inactive)
ROOT
ATOM      1  C1  BNZ d   1       0.686  -0.396  -0.516  0.00  0.00     0.000 A 
ATOM      2  C2  BNZ d   1       0.702   0.629  -1.424  0.00  0.00     0.000 A 
ATOM      3  C3  BNZ d   1      -0.176   1.671  -1.319  0.00  0.00     0.000 A 
ATOM      4  C4  BNZ d   1      -1.094   1.668  -0.331  0.00  0.00     0.000 A 
ATOM      5  C5  BNZ d   1      -1.129   0.637   0.587  0.00  0.00     0.000 A 
ATOM      6  C6  BNZ d   1      -0.218  -0.391   0.501  0.00  0.00     0.000 A 
ENDROOT
TORSDOF 0
ENDMDL
