MODEL 1
REMARK minimizedAffinity -3.43982601
REMARK minimizedRMSD -1
REMARK  0 active torsions:
REMARK  status: ('A' for Active; 'I' for Inactive)
ROOT
ATOM      1  C1  BNZ d   1       0.765  -1.700  -0.433  0.00  0.00     0.000 A 
ATOM      2  C2  BNZ d   1       1.062  -3.012  -0.177  0.00  0.00     0.000 A 
ATOM      3  C3  BNZ d   1       0.297  -4.018  -0.699  0.00  0.00     0.000 A 
ATOM      4  C4  BNZ d   1      -0.785  -3.710  -1.442  0.00  0.00     0.000 A 
ATOM      5  C5  BNZ d   1      -1.103  -2.392  -1.702  0.00  0.00     0.000 A 
ATOM      6  C6  BNZ d   1      -0.309  -1.383  -1.207  0.00  0.00     0.000 A 
ENDROOT
TORSDOF 0
ENDMDL
