MODEL 1
REMARK minimizedAffinity -3.9105587
REMARK minimizedRMSD -1
REMARK  0 active torsions:
REMARK  status: ('A' for Active; 'I' for Inactive)
ROOT
ATOM      1  C1  BNZ d   1       0.700   0.301   1.125  0.00  0.00     0.000 A 
ATOM      2  C2  BNZ d   1      -0.004   1.413   1.505  0.00  0.00     0.000 A 
ATOM      3  C3  BNZ d   1      -0.660   2.176   0.580  0.00  0.00     0.000 A 
ATOM      4  C4  BNZ d   1      -0.579   1.849  -0.726  0.00  0.00     0.000 A 
ATOM      5  C5  BNZ d   1       0.134   0.737  -1.126  0.00  0.00     0.000 A 
ATOM      6  C6  BNZ d   1       0.761  -0.051  -0.188  0.00  0.00     0.000 A 
ENDROOT
TORSDOF 0
ENDMDL
