MODEL 1
REMARK minimizedAffinity -5.23824215
REMARK minimizedRMSD -1
REMARK  0 active torsions:
REMARK  status: ('A' for Active; 'I' for Inactive)
ROOT
ATOM      1  C1  BNZ d   1       0.466   0.020   0.824  0.00  0.00     0.000 A 
ATOM      2  C2  BNZ d   1      -0.280   1.102   1.208  0.00  0.00     0.000 A 
ATOM      3  C3  BNZ d   1      -0.889   1.898   0.279  0.00  0.00     0.000 A 
ATOM      4  C4  BNZ d   1      -0.717   1.636  -1.033  0.00  0.00     0.000 A 
ATOM      5  C5  BNZ d   1       0.040   0.554  -1.437  0.00  0.00     0.000 A 
ATOM      6  C6  BNZ d   1       0.619  -0.268  -0.497  0.00  0.00     0.000 A 
ENDROOT
TORSDOF 0
ENDMDL
