MODEL 1
REMARK minimizedAffinity -5.39216661
REMARK minimizedRMSD -1
REMARK  3 active torsions:
REMARK  status: ('A' for Active; 'I' for Inactive)
REMARK    1  A    between atoms: C3'_2  and  C2'_3 
REMARK    2  A    between atoms: C2'_3  and  C1'_4 
REMARK    3  A    between atoms: C1'_4  and  C1_5 
ROOT
ATOM      1  C1  N4B d   1       1.215   0.443  -1.222  0.00  0.00    -0.075 A 
ATOM      2  C2  N4B d   1       0.865   0.681   0.125  0.00  0.00     0.002 A 
ATOM      3  C3  N4B d   1       0.801   1.967   0.601  0.00  0.00     0.002 A 
ATOM      4  C4  N4B d   1       1.099   3.026  -0.243  0.00  0.00    -0.004 A 
ATOM      5  C5  N4B d   1       1.411   2.790  -1.550  0.00  0.00     0.002 A 
ATOM      6  C6  N4B d   1       1.475   1.502  -2.043  0.00  0.00     0.002 A 
ENDROOT
BRANCH   1   7
ATOM      7  C1' N4B d   1       1.382  -0.950  -1.766  0.00  0.00     0.057 C 
BRANCH   7   8
ATOM      8  C2' N4B d   1       1.952  -1.849  -0.672  0.00  0.00     0.009 C 
BRANCH   8   9
ATOM      9  C3' N4B d   1       1.012  -2.992  -0.329  0.00  0.00     0.004 C 
ATOM     10  C4' N4B d   1      -0.140  -3.102  -1.283  0.00  0.00     0.003 C 
ENDBRANCH   8   9
ENDBRANCH   7   8
ENDBRANCH   1   7
TORSDOF 3
ENDMDL
