MODEL 1
REMARK minimizedAffinity 3.16565394
REMARK minimizedRMSD -1
REMARK  3 active torsions:
REMARK  status: ('A' for Active; 'I' for Inactive)
REMARK    1  A    between atoms: C3'_2  and  C2'_3 
REMARK    2  A    between atoms: C2'_3  and  C1'_4 
REMARK    3  A    between atoms: C1'_4  and  C1_5 
ROOT
ATOM      1  C1  N4B d   1       1.531   2.249  -1.455  0.00  0.00    -0.075 A 
ATOM      2  C2  N4B d   1       2.278   1.294  -2.179  0.00  0.00     0.002 A 
ATOM      3  C3  N4B d   1       2.267  -0.023  -1.792  0.00  0.00     0.002 A 
ATOM      4  C4  N4B d   1       1.536  -0.405  -0.677  0.00  0.00    -0.004 A 
ATOM      5  C5  N4B d   1       0.796   0.519   0.002  0.00  0.00     0.002 A 
ATOM      6  C6  N4B d   1       0.794   1.846  -0.378  0.00  0.00     0.002 A 
ENDROOT
BRANCH   1   7
ATOM      7  C1' N4B d   1       1.579   3.715  -1.788  0.00  0.00     0.057 C 
BRANCH   7   8
ATOM      8  C2' N4B d   1       1.536   4.525  -0.496  0.00  0.00     0.009 C 
BRANCH   8   9
ATOM      9  C3' N4B d   1       2.153   5.902  -0.667  0.00  0.00     0.004 C 
ATOM     10  C4' N4B d   1       3.035   5.997  -1.877  0.00  0.00     0.003 C 
ENDBRANCH   8   9
ENDBRANCH   7   8
ENDBRANCH   1   7
TORSDOF 3
ENDMDL
