MODEL 1
REMARK minimizedAffinity 2.21550608
REMARK minimizedRMSD -1
REMARK  3 active torsions:
REMARK  status: ('A' for Active; 'I' for Inactive)
REMARK    1  A    between atoms: C3'_2  and  C2'_3 
REMARK    2  A    between atoms: C2'_3  and  C1'_4 
REMARK    3  A    between atoms: C1'_4  and  C1_5 
ROOT
ATOM      1  C1  N4B d   1       0.968   2.386  -1.526  0.00  0.00    -0.075 A 
ATOM      2  C2  N4B d   1       1.102   3.632  -2.177  0.00  0.00     0.002 A 
ATOM      3  C3  N4B d   1       1.496   4.739  -1.467  0.00  0.00     0.002 A 
ATOM      4  C4  N4B d   1       1.742   4.630  -0.107  0.00  0.00    -0.004 A 
ATOM      5  C5  N4B d   1       1.634   3.418   0.510  0.00  0.00     0.002 A 
ATOM      6  C6  N4B d   1       1.243   2.296  -0.192  0.00  0.00     0.002 A 
ENDROOT
BRANCH   1   7
ATOM      7  C1' N4B d   1       0.457   1.166  -2.242  0.00  0.00     0.057 C 
BRANCH   7   8
ATOM      8  C2' N4B d   1       0.986  -0.083  -1.543  0.00  0.00     0.009 C 
BRANCH   8   9
ATOM      9  C3' N4B d   1       0.404  -1.355  -2.136  0.00  0.00     0.004 C 
ATOM     10  C4' N4B d   1       0.292  -2.464  -1.133  0.00  0.00     0.003 C 
ENDBRANCH   8   9
ENDBRANCH   7   8
ENDBRANCH   1   7
TORSDOF 3
ENDMDL
