MODEL 1
REMARK minimizedAffinity 0.0228527319
REMARK minimizedRMSD -1
REMARK  3 active torsions:
REMARK  status: ('A' for Active; 'I' for Inactive)
REMARK    1  A    between atoms: C3'_2  and  C2'_3 
REMARK    2  A    between atoms: C2'_3  and  C1'_4 
REMARK    3  A    between atoms: C1'_4  and  C1_5 
ROOT
ATOM      1  C1  N4B d   1       1.346   2.485   0.101  0.00  0.00    -0.075 A 
ATOM      2  C2  N4B d   1       1.560   2.351  -1.288  0.00  0.00     0.002 A 
ATOM      3  C3  N4B d   1       1.556   1.105  -1.866  0.00  0.00     0.002 A 
ATOM      4  C4  N4B d   1       1.361  -0.017  -1.076  0.00  0.00    -0.004 A 
ATOM      5  C5  N4B d   1       1.130   0.123   0.262  0.00  0.00     0.002 A 
ATOM      6  C6  N4B d   1       1.127   1.369   0.855  0.00  0.00     0.002 A 
ENDROOT
BRANCH   1   7
ATOM      7  C1' N4B d   1       1.427   3.819   0.792  0.00  0.00     0.057 C 
BRANCH   7   8
ATOM      8  C2' N4B d   1       1.126   4.924  -0.217  0.00  0.00     0.009 C 
BRANCH   8   9
ATOM      9  C3' N4B d   1       2.212   5.986  -0.237  0.00  0.00     0.004 C 
ATOM     10  C4' N4B d   1       2.991   5.995  -1.518  0.00  0.00     0.003 C 
ENDBRANCH   8   9
ENDBRANCH   7   8
ENDBRANCH   1   7
TORSDOF 3
ENDMDL
