MODEL 1
REMARK minimizedAffinity 0.68807435
REMARK minimizedRMSD -1
REMARK  3 active torsions:
REMARK  status: ('A' for Active; 'I' for Inactive)
REMARK    1  A    between atoms: C3'_2  and  C2'_3 
REMARK    2  A    between atoms: C2'_3  and  C1'_4 
REMARK    3  A    between atoms: C1'_4  and  C1_5 
ROOT
ATOM      1  C1  N4B d   1       1.231   2.306  -0.842  0.00  0.00    -0.075 A 
ATOM      2  C2  N4B d   1       1.181   1.878   0.503  0.00  0.00     0.002 A 
ATOM      3  C3  N4B d   1       1.147   0.536   0.795  0.00  0.00     0.002 A 
ATOM      4  C4  N4B d   1       1.143  -0.391  -0.236  0.00  0.00    -0.004 A 
ATOM      5  C5  N4B d   1       1.217   0.030  -1.532  0.00  0.00     0.002 A 
ATOM      6  C6  N4B d   1       1.256   1.375  -1.840  0.00  0.00     0.002 A 
ENDROOT
BRANCH   1   7
ATOM      7  C1' N4B d   1       1.183   3.763  -1.214  0.00  0.00     0.057 C 
BRANCH   7   8
ATOM      8  C2' N4B d   1       1.589   4.601  -0.006  0.00  0.00     0.009 C 
BRANCH   8   9
ATOM      9  C3' N4B d   1       2.030   5.999  -0.407  0.00  0.00     0.004 C 
ATOM     10  C4' N4B d   1       2.953   6.000  -1.589  0.00  0.00     0.003 C 
ENDBRANCH   8   9
ENDBRANCH   7   8
ENDBRANCH   1   7
TORSDOF 3
ENDMDL
