MODEL 1
REMARK minimizedAffinity 5.70114231
REMARK minimizedRMSD -1
REMARK  3 active torsions:
REMARK  status: ('A' for Active; 'I' for Inactive)
REMARK    1  A    between atoms: C3'_2  and  C2'_3 
REMARK    2  A    between atoms: C2'_3  and  C1'_4 
REMARK    3  A    between atoms: C1'_4  and  C1_5 
ROOT
ATOM      1  C1  N4B d   1       1.500   1.721  -0.708  0.00  0.00    -0.075 A 
ATOM      2  C2  N4B d   1       1.545   2.125   0.644  0.00  0.00     0.002 A 
ATOM      3  C3  N4B d   1       1.183   3.404   0.990  0.00  0.00     0.002 A 
ATOM      4  C4  N4B d   1       0.794   4.298   0.004  0.00  0.00    -0.004 A 
ATOM      5  C5  N4B d   1       0.729   3.891  -1.297  0.00  0.00     0.002 A 
ATOM      6  C6  N4B d   1       1.086   2.608  -1.659  0.00  0.00     0.002 A 
ENDROOT
BRANCH   1   7
ATOM      7  C1' N4B d   1       1.968   0.360  -1.146  0.00  0.00     0.057 C 
BRANCH   7   8
ATOM      8  C2' N4B d   1       2.324  -0.468   0.086  0.00  0.00     0.009 C 
BRANCH   8   9
ATOM      9  C3' N4B d   1       3.825  -0.631   0.247  0.00  0.00     0.004 C 
ATOM     10  C4' N4B d   1       4.254  -2.068   0.275  0.00  0.00     0.003 C 
ENDBRANCH   8   9
ENDBRANCH   7   8
ENDBRANCH   1   7
TORSDOF 3
ENDMDL
