MODEL 1
REMARK minimizedAffinity -0.39927879
REMARK minimizedRMSD -1
REMARK  3 active torsions:
REMARK  status: ('A' for Active; 'I' for Inactive)
REMARK    1  A    between atoms: C3'_2  and  C2'_3 
REMARK    2  A    between atoms: C2'_3  and  C1'_4 
REMARK    3  A    between atoms: C1'_4  and  C1_5 
ROOT
ATOM      1  C1  N4B d   1       0.343   1.460   0.855  0.00  0.00    -0.075 A 
ATOM      2  C2  N4B d   1       1.079   0.307   1.208  0.00  0.00     0.002 A 
ATOM      3  C3  N4B d   1       1.609  -0.495   0.227  0.00  0.00     0.002 A 
ATOM      4  C4  N4B d   1       1.402  -0.177  -1.106  0.00  0.00    -0.004 A 
ATOM      5  C5  N4B d   1       0.712   0.953  -1.438  0.00  0.00     0.002 A 
ATOM      6  C6  N4B d   1       0.177   1.770  -0.464  0.00  0.00     0.002 A 
ENDROOT
BRANCH   1   7
ATOM      7  C1' N4B d   1      -0.329   2.320   1.890  0.00  0.00     0.057 C 
BRANCH   7   8
ATOM      8  C2' N4B d   1      -1.841   2.151   1.776  0.00  0.00     0.009 C 
BRANCH   8   9
ATOM      9  C3' N4B d   1      -2.548   2.470   3.083  0.00  0.00     0.004 C 
ATOM     10  C4' N4B d   1      -2.172   1.531   4.190  0.00  0.00     0.003 C 
ENDBRANCH   8   9
ENDBRANCH   7   8
ENDBRANCH   1   7
TORSDOF 3
ENDMDL
