MODEL 1
REMARK minimizedAffinity -1.10289717
REMARK minimizedRMSD -1
REMARK  3 active torsions:
REMARK  status: ('A' for Active; 'I' for Inactive)
REMARK    1  A    between atoms: C3'_2  and  C2'_3 
REMARK    2  A    between atoms: C2'_3  and  C1'_4 
REMARK    3  A    between atoms: C1'_4  and  C1_5 
ROOT
ATOM      1  C1  N4B d   1       1.615   0.356  -0.450  0.00  0.00    -0.075 A 
ATOM      2  C2  N4B d   1       1.036   1.226   0.501  0.00  0.00     0.002 A 
ATOM      3  C3  N4B d   1       0.700   2.508   0.143  0.00  0.00     0.002 A 
ATOM      4  C4  N4B d   1       0.950   2.948  -1.148  0.00  0.00    -0.004 A 
ATOM      5  C5  N4B d   1       1.486   2.094  -2.067  0.00  0.00     0.002 A 
ATOM      6  C6  N4B d   1       1.824   0.801  -1.723  0.00  0.00     0.002 A 
ENDROOT
BRANCH   1   7
ATOM      7  C1' N4B d   1       2.078  -1.027  -0.083  0.00  0.00     0.057 C 
BRANCH   7   8
ATOM      8  C2' N4B d   1       3.420  -0.932   0.635  0.00  0.00     0.009 C 
BRANCH   8   9
ATOM      9  C3' N4B d   1       4.360  -2.056   0.235  0.00  0.00     0.004 C 
ATOM     10  C4' N4B d   1       3.738  -3.413   0.383  0.00  0.00     0.003 C 
ENDBRANCH   8   9
ENDBRANCH   7   8
ENDBRANCH   1   7
TORSDOF 3
ENDMDL
