MODEL 1
REMARK minimizedAffinity -3.22772408
REMARK minimizedRMSD -1
REMARK  2 active torsions:
REMARK  status: ('A' for Active; 'I' for Inactive)
REMARK    1  A    between atoms: C2'_3  and  C1'_4 
REMARK    2  A    between atoms: C1'_4  and  C1_5 
ROOT
ATOM      1  C1  I4B d   1       0.320   0.231   0.586  0.00  0.00    -0.075 A 
ATOM      2  C2  I4B d   1       1.648   0.328   0.250  0.00  0.00     0.003 A 
ATOM      3  C3  I4B d   1       2.511  -0.780   0.432  0.00  0.00     0.002 A 
ATOM      4  C4  I4B d   1       2.020  -1.940   0.995  0.00  0.00    -0.004 A 
ATOM      5  C5  I4B d   1       0.669  -2.043   1.314  0.00  0.00     0.002 A 
ATOM      6  C6  I4B d   1      -0.189  -0.956   1.097  0.00  0.00     0.003 A 
ENDROOT
BRANCH   1   7
ATOM      7  C1' I4B d   1      -0.556   1.431   0.413  0.00  0.00     0.060 C 
BRANCH   7   8
ATOM      8  C2' I4B d   1      -0.694   1.697  -1.073  0.00  0.00    -0.013 C 
ATOM      9  C4' I4B d   1      -2.109   1.473  -1.538  0.00  0.00     0.013 C 
ATOM     10  C3' I4B d   1      -0.255   3.107  -1.333  0.00  0.00     0.013 C 
ENDBRANCH   7   8
ENDBRANCH   1   7
TORSDOF 2
ENDMDL
