MODEL 1
REMARK minimizedAffinity -6.28707933
REMARK minimizedRMSD -1
REMARK  2 active torsions:
REMARK  status: ('A' for Active; 'I' for Inactive)
REMARK    1  A    between atoms: C2'_3  and  C1'_4 
REMARK    2  A    between atoms: C1'_4  and  C1_5 
ROOT
ATOM      1  C1  I4B d   1       0.067   0.846  -1.091  0.00  0.00    -0.075 A 
ATOM      2  C2  I4B d   1      -1.150   1.297  -0.644  0.00  0.00     0.003 A 
ATOM      3  C3  I4B d   1      -2.153   1.676  -1.568  0.00  0.00     0.002 A 
ATOM      4  C4  I4B d   1      -1.882   1.636  -2.920  0.00  0.00    -0.004 A 
ATOM      5  C5  I4B d   1      -0.656   1.157  -3.373  0.00  0.00     0.002 A 
ATOM      6  C6  I4B d   1       0.320   0.747  -2.453  0.00  0.00     0.003 A 
ENDROOT
BRANCH   1   7
ATOM      7  C1' I4B d   1       1.115   0.485  -0.088  0.00  0.00     0.060 C 
BRANCH   7   8
ATOM      8  C2' I4B d   1       1.233  -1.026  -0.059  0.00  0.00    -0.013 C 
ATOM      9  C4' I4B d   1       2.654  -1.457   0.195  0.00  0.00     0.013 C 
ATOM     10  C3' I4B d   1       0.312  -1.542   1.007  0.00  0.00     0.013 C 
ENDBRANCH   7   8
ENDBRANCH   1   7
TORSDOF 2
ENDMDL
