MODEL 1
REMARK minimizedAffinity -5.27823162
REMARK minimizedRMSD -1
REMARK  2 active torsions:
REMARK  status: ('A' for Active; 'I' for Inactive)
REMARK    1  A    between atoms: C2'_3  and  C1'_4 
REMARK    2  A    between atoms: C1'_4  and  C1_5 
ROOT
ATOM      1  C1  I4B d   1      -0.371   0.213  -0.058  0.00  0.00    -0.075 A 
ATOM      2  C2  I4B d   1      -0.521  -0.192  -1.360  0.00  0.00     0.003 A 
ATOM      3  C3  I4B d   1      -1.270   0.594  -2.270  0.00  0.00     0.002 A 
ATOM      4  C4  I4B d   1      -1.889   1.744  -1.824  0.00  0.00    -0.004 A 
ATOM      5  C5  I4B d   1      -1.718   2.165  -0.509  0.00  0.00     0.002 A 
ATOM      6  C6  I4B d   1      -0.944   1.401   0.378  0.00  0.00     0.003 A 
ENDROOT
BRANCH   1   7
ATOM      7  C1' I4B d   1       0.398  -0.658   0.884  0.00  0.00     0.060 C 
BRANCH   7   8
ATOM      8  C2' I4B d   1       1.295  -1.558   0.059  0.00  0.00    -0.013 C 
ATOM      9  C4' I4B d   1       2.733  -1.119   0.142  0.00  0.00     0.013 C 
ATOM     10  C3' I4B d   1       1.129  -2.962   0.560  0.00  0.00     0.013 C 
ENDBRANCH   7   8
ENDBRANCH   1   7
TORSDOF 2
ENDMDL
