MODEL 1
REMARK minimizedAffinity -5.33660889
REMARK minimizedRMSD -1
REMARK  2 active torsions:
REMARK  status: ('A' for Active; 'I' for Inactive)
REMARK    1  A    between atoms: C2'_3  and  C1'_4 
REMARK    2  A    between atoms: C1'_4  and  C1_5 
ROOT
ATOM      1  C1  I4B d   1       0.498   0.180   0.514  0.00  0.00    -0.075 A 
ATOM      2  C2  I4B d   1      -0.129  -0.816   1.222  0.00  0.00     0.003 A 
ATOM      3  C3  I4B d   1       0.627  -1.870   1.790  0.00  0.00     0.002 A 
ATOM      4  C4  I4B d   1       1.991  -1.916   1.586  0.00  0.00    -0.004 A 
ATOM      5  C5  I4B d   1       2.627  -0.893   0.888  0.00  0.00     0.002 A 
ATOM      6  C6  I4B d   1       1.878   0.168   0.359  0.00  0.00     0.003 A 
ENDROOT
BRANCH   1   7
ATOM      7  C1' I4B d   1      -0.334   1.260  -0.101  0.00  0.00     0.060 C 
BRANCH   7   8
ATOM      8  C2' I4B d   1      -0.425   0.990  -1.589  0.00  0.00    -0.013 C 
ATOM      9  C4' I4B d   1      -0.652  -0.473  -1.864  0.00  0.00     0.013 C 
ATOM     10  C3' I4B d   1      -1.540   1.825  -2.144  0.00  0.00     0.013 C 
ENDBRANCH   7   8
ENDBRANCH   1   7
TORSDOF 2
ENDMDL
