MODEL 1
REMARK minimizedAffinity -1.51564252
REMARK minimizedRMSD -1
REMARK  2 active torsions:
REMARK  status: ('A' for Active; 'I' for Inactive)
REMARK    1  A    between atoms: C2'_3  and  C1'_4 
REMARK    2  A    between atoms: C1'_4  and  C1_5 
ROOT
ATOM      1  C1  I4B d   1      -0.000  -0.323  -1.144  0.00  0.00    -0.075 A 
ATOM      2  C2  I4B d   1       0.005  -0.120   0.214  0.00  0.00     0.003 A 
ATOM      3  C3  I4B d   1       1.222  -0.159   0.936  0.00  0.00     0.002 A 
ATOM      4  C4  I4B d   1       2.396  -0.453   0.273  0.00  0.00    -0.004 A 
ATOM      5  C5  I4B d   1       2.392  -0.636  -1.107  0.00  0.00     0.002 A 
ATOM      6  C6  I4B d   1       1.188  -0.558  -1.822  0.00  0.00     0.003 A 
ENDROOT
BRANCH   1   7
ATOM      7  C1' I4B d   1      -1.308  -0.307  -1.870  0.00  0.00     0.060 C 
BRANCH   7   8
ATOM      8  C2' I4B d   1      -1.393   0.990  -2.650  0.00  0.00    -0.013 C 
ATOM      9  C4' I4B d   1      -1.884   0.751  -4.053  0.00  0.00     0.013 C 
ATOM     10  C3' I4B d   1      -2.308   1.917  -1.907  0.00  0.00     0.013 C 
ENDBRANCH   7   8
ENDBRANCH   1   7
TORSDOF 2
ENDMDL
