MODEL 1
REMARK minimizedAffinity -5.3409996
REMARK minimizedRMSD -1
REMARK  2 active torsions:
REMARK  status: ('A' for Active; 'I' for Inactive)
REMARK    1  A    between atoms: C2'_3  and  C1'_4 
REMARK    2  A    between atoms: C1'_4  and  C1_5 
ROOT
ATOM      1  C1  I4B d   1       0.929  -0.273   0.210  0.00  0.00    -0.075 A 
ATOM      2  C2  I4B d   1       2.063  -1.046   0.180  0.00  0.00     0.003 A 
ATOM      3  C3  I4B d   1       2.284  -2.027   1.178  0.00  0.00     0.002 A 
ATOM      4  C4  I4B d   1       1.376  -2.165   2.208  0.00  0.00    -0.004 A 
ATOM      5  C5  I4B d   1       0.216  -1.396   2.223  0.00  0.00     0.002 A 
ATOM      6  C6  I4B d   1      -0.016  -0.453   1.212  0.00  0.00     0.003 A 
ENDROOT
BRANCH   1   7
ATOM      7  C1' I4B d   1       0.744   0.775  -0.841  0.00  0.00     0.060 C 
BRANCH   7   8
ATOM      8  C2' I4B d   1      -0.740   1.054  -0.965  0.00  0.00    -0.013 C 
ATOM      9  C4' I4B d   1      -1.167   2.158  -0.033  0.00  0.00     0.013 C 
ATOM     10  C3' I4B d   1      -1.027   1.411  -2.393  0.00  0.00     0.013 C 
ENDBRANCH   7   8
ENDBRANCH   1   7
TORSDOF 2
ENDMDL
