MODEL 1
REMARK minimizedAffinity -6.40991497
REMARK minimizedRMSD -1
REMARK  2 active torsions:
REMARK  status: ('A' for Active; 'I' for Inactive)
REMARK    1  A    between atoms: C2'_3  and  C1'_4 
REMARK    2  A    between atoms: C1'_4  and  C1_5 
ROOT
ATOM      1  C1  I4B d   1       0.053  -0.153  -0.004  0.00  0.00    -0.075 A 
ATOM      2  C2  I4B d   1       1.394  -0.341  -0.227  0.00  0.00     0.003 A 
ATOM      3  C3  I4B d   1       2.061  -1.457   0.334  0.00  0.00     0.002 A 
ATOM      4  C4  I4B d   1       1.363  -2.326   1.148  0.00  0.00    -0.004 A 
ATOM      5  C5  I4B d   1      -0.001  -2.147   1.355  0.00  0.00     0.002 A 
ATOM      6  C6  I4B d   1      -0.664  -1.061   0.765  0.00  0.00     0.003 A 
ENDROOT
BRANCH   1   7
ATOM      7  C1' I4B d   1      -0.613   1.054  -0.585  0.00  0.00     0.060 C 
BRANCH   7   8
ATOM      8  C2' I4B d   1      -1.471   0.600  -1.748  0.00  0.00    -0.013 C 
ATOM      9  C4' I4B d   1      -2.907   1.016  -1.561  0.00  0.00     0.013 C 
ATOM     10  C3' I4B d   1      -0.897   1.185  -3.003  0.00  0.00     0.013 C 
ENDBRANCH   7   8
ENDBRANCH   1   7
TORSDOF 2
ENDMDL
