MODEL 1
REMARK minimizedAffinity -4.78821325
REMARK minimizedRMSD -1
REMARK  2 active torsions:
REMARK  status: ('A' for Active; 'I' for Inactive)
REMARK    1  A    between atoms: C2'_3  and  C1'_4 
REMARK    2  A    between atoms: C1'_4  and  C1_5 
ROOT
ATOM      1  C1  I4B d   1      -0.542   1.159  -1.408  0.00  0.00    -0.075 A 
ATOM      2  C2  I4B d   1      -1.887   1.409  -1.298  0.00  0.00     0.003 A 
ATOM      3  C3  I4B d   1      -2.628   1.830  -2.429  0.00  0.00     0.002 A 
ATOM      4  C4  I4B d   1      -1.979   2.035  -3.630  0.00  0.00    -0.004 A 
ATOM      5  C5  I4B d   1      -0.619   1.758  -3.744  0.00  0.00     0.002 A 
ATOM      6  C6  I4B d   1       0.102   1.306  -2.630  0.00  0.00     0.003 A 
ENDROOT
BRANCH   1   7
ATOM      7  C1' I4B d   1       0.217   0.748  -0.186  0.00  0.00     0.060 C 
BRANCH   7   8
ATOM      8  C2' I4B d   1      -0.235  -0.647   0.196  0.00  0.00    -0.013 C 
ATOM      9  C4' I4B d   1       0.924  -1.609   0.214  0.00  0.00     0.013 C 
ATOM     10  C3' I4B d   1      -0.894  -0.568   1.541  0.00  0.00     0.013 C 
ENDBRANCH   7   8
ENDBRANCH   1   7
TORSDOF 2
ENDMDL
