MODEL 1
REMARK minimizedAffinity -5.17329121
REMARK minimizedRMSD -1
REMARK  2 active torsions:
REMARK  status: ('A' for Active; 'I' for Inactive)
REMARK    1  A    between atoms: C2'_3  and  C1'_4 
REMARK    2  A    between atoms: C1'_4  and  C1_5 
ROOT
ATOM      1  C1  I4B d   1       0.031   0.397  -0.132  0.00  0.00    -0.075 A 
ATOM      2  C2  I4B d   1      -0.642  -0.544   0.606  0.00  0.00     0.003 A 
ATOM      3  C3  I4B d   1       0.042  -1.675   1.114  0.00  0.00     0.002 A 
ATOM      4  C4  I4B d   1       1.378  -1.850   0.819  0.00  0.00    -0.004 A 
ATOM      5  C5  I4B d   1       2.064  -0.883   0.089  0.00  0.00     0.002 A 
ATOM      6  C6  I4B d   1       1.390   0.253  -0.380  0.00  0.00     0.003 A 
ENDROOT
BRANCH   1   7
ATOM      7  C1' I4B d   1      -0.730   1.562  -0.681  0.00  0.00     0.060 C 
BRANCH   7   8
ATOM      8  C2' I4B d   1      -1.524   1.079  -1.878  0.00  0.00    -0.013 C 
ATOM      9  C4' I4B d   1      -2.892   1.709  -1.915  0.00  0.00     0.013 C 
ATOM     10  C3' I4B d   1      -0.743   1.407  -3.115  0.00  0.00     0.013 C 
ENDBRANCH   7   8
ENDBRANCH   1   7
TORSDOF 2
ENDMDL
