MODEL 1
REMARK minimizedAffinity -5.34263849
REMARK minimizedRMSD -1
REMARK  2 active torsions:
REMARK  status: ('A' for Active; 'I' for Inactive)
REMARK    1  A    between atoms: C2'_3  and  C1'_4 
REMARK    2  A    between atoms: C1'_4  and  C1_5 
ROOT
ATOM      1  C1  I4B d   1      -0.118  -0.175   0.087  0.00  0.00    -0.075 A 
ATOM      2  C2  I4B d   1      -0.668  -1.349   0.537  0.00  0.00     0.003 A 
ATOM      3  C3  I4B d   1      -1.658  -1.331   1.549  0.00  0.00     0.002 A 
ATOM      4  C4  I4B d   1      -2.031  -0.129   2.114  0.00  0.00    -0.004 A 
ATOM      5  C5  I4B d   1      -1.489   1.063   1.640  0.00  0.00     0.002 A 
ATOM      6  C6  I4B d   1      -0.536   1.041   0.612  0.00  0.00     0.003 A 
ENDROOT
BRANCH   1   7
ATOM      7  C1' I4B d   1       0.950  -0.233  -0.959  0.00  0.00     0.060 C 
BRANCH   7   8
ATOM      8  C2' I4B d   1       2.283  -0.004  -0.277  0.00  0.00    -0.013 C 
ATOM      9  C4' I4B d   1       2.647  -1.164   0.613  0.00  0.00     0.013 C 
ATOM     10  C3' I4B d   1       3.318   0.205  -1.343  0.00  0.00     0.013 C 
ENDBRANCH   7   8
ENDBRANCH   1   7
TORSDOF 2
ENDMDL
