MODEL 1
REMARK minimizedAffinity -6.25201273
REMARK minimizedRMSD -1
REMARK  3 active torsions:
REMARK  status: ('A' for Active; 'I' for Inactive)
REMARK    1  A    between atoms: C3'_2  and  C2'_3 
REMARK    2  A    between atoms: C2'_3  and  C1'_4 
REMARK    3  A    between atoms: C1'_4  and  C1_5 
ROOT
ATOM      1  C1  N4B d   1      -0.686  -0.439  -0.232  0.00  0.00    -0.075 A 
ATOM      2  C2  N4B d   1      -1.902  -0.376  -0.947  0.00  0.00     0.002 A 
ATOM      3  C3  N4B d   1      -2.971  -1.144  -0.554  0.00  0.00     0.002 A 
ATOM      4  C4  N4B d   1      -2.841  -1.993   0.534  0.00  0.00    -0.004 A 
ATOM      5  C5  N4B d   1      -1.671  -2.030   1.235  0.00  0.00     0.002 A 
ATOM      6  C6  N4B d   1      -0.590  -1.260   0.854  0.00  0.00     0.002 A 
ENDROOT
BRANCH   1   7
ATOM      7  C1' N4B d   1       0.536   0.317  -0.676  0.00  0.00     0.057 C 
BRANCH   7   8
ATOM      8  C2' N4B d   1       1.550   0.344   0.465  0.00  0.00     0.009 C 
BRANCH   8   9
ATOM      9  C3' N4B d   1       2.246   1.690   0.575  0.00  0.00     0.004 C 
ATOM     10  C4' N4B d   1       2.241   2.234   1.972  0.00  0.00     0.003 C 
ENDBRANCH   8   9
ENDBRANCH   7   8
ENDBRANCH   1   7
TORSDOF 3
ENDMDL
