MODEL 1
REMARK minimizedAffinity -4.38102388
REMARK minimizedRMSD -1
REMARK  3 active torsions:
REMARK  status: ('A' for Active; 'I' for Inactive)
REMARK    1  A    between atoms: C3'_2  and  C2'_3 
REMARK    2  A    between atoms: C2'_3  and  C1'_4 
REMARK    3  A    between atoms: C1'_4  and  C1_5 
ROOT
ATOM      1  C1  N4B d   1       0.017  -0.021   0.430  0.00  0.00    -0.075 A 
ATOM      2  C2  N4B d   1      -0.629  -0.643   1.521  0.00  0.00     0.002 A 
ATOM      3  C3  N4B d   1      -1.944  -1.024   1.413  0.00  0.00     0.002 A 
ATOM      4  C4  N4B d   1      -2.636  -0.777   0.236  0.00  0.00    -0.004 A 
ATOM      5  C5  N4B d   1      -1.997  -0.199  -0.821  0.00  0.00     0.002 A 
ATOM      6  C6  N4B d   1      -0.674   0.186  -0.728  0.00  0.00     0.002 A 
ENDROOT
BRANCH   1   7
ATOM      7  C1' N4B d   1       1.428   0.491   0.531  0.00  0.00     0.057 C 
BRANCH   7   8
ATOM      8  C2' N4B d   1       1.524   1.470   1.697  0.00  0.00     0.009 C 
BRANCH   8   9
ATOM      9  C3' N4B d   1       2.764   2.342   1.606  0.00  0.00     0.004 C 
ATOM     10  C4' N4B d   1       2.521   3.622   0.863  0.00  0.00     0.003 C 
ENDBRANCH   8   9
ENDBRANCH   7   8
ENDBRANCH   1   7
TORSDOF 3
ENDMDL
