MODEL 1
REMARK minimizedAffinity -6.45161533
REMARK minimizedRMSD -1
REMARK  3 active torsions:
REMARK  status: ('A' for Active; 'I' for Inactive)
REMARK    1  A    between atoms: C3'_2  and  C2'_3 
REMARK    2  A    between atoms: C2'_3  and  C1'_4 
REMARK    3  A    between atoms: C1'_4  and  C1_5 
ROOT
ATOM      1  C1  N4B d   1      -0.272  -0.443   0.112  0.00  0.00    -0.075 A 
ATOM      2  C2  N4B d   1      -1.283  -1.153   0.796  0.00  0.00     0.002 A 
ATOM      3  C3  N4B d   1      -2.539  -1.258   0.249  0.00  0.00     0.002 A 
ATOM      4  C4  N4B d   1      -2.810  -0.647  -0.967  0.00  0.00    -0.004 A 
ATOM      5  C5  N4B d   1      -1.821   0.016  -1.633  0.00  0.00     0.002 A 
ATOM      6  C6  N4B d   1      -0.553   0.125  -1.097  0.00  0.00     0.002 A 
ENDROOT
BRANCH   1   7
ATOM      7  C1' N4B d   1       1.091  -0.229   0.711  0.00  0.00     0.057 C 
BRANCH   7   8
ATOM      8  C2' N4B d   1       1.520   1.216   0.477  0.00  0.00     0.009 C 
BRANCH   8   9
ATOM      9  C3' N4B d   1       2.362   1.752   1.622  0.00  0.00     0.004 C 
ATOM     10  C4' N4B d   1       3.205   2.926   1.223  0.00  0.00     0.003 C 
ENDBRANCH   8   9
ENDBRANCH   7   8
ENDBRANCH   1   7
TORSDOF 3
ENDMDL
