MODEL 1
REMARK minimizedAffinity -4.39869404
REMARK minimizedRMSD -1
REMARK  3 active torsions:
REMARK  status: ('A' for Active; 'I' for Inactive)
REMARK    1  A    between atoms: C3'_2  and  C2'_3 
REMARK    2  A    between atoms: C2'_3  and  C1'_4 
REMARK    3  A    between atoms: C1'_4  and  C1_5 
ROOT
ATOM      1  C1  N4B d   1       0.016   0.081  -0.238  0.00  0.00    -0.075 A 
ATOM      2  C2  N4B d   1      -0.621  -0.597   0.825  0.00  0.00     0.002 A 
ATOM      3  C3  N4B d   1      -1.947  -0.939   0.725  0.00  0.00     0.002 A 
ATOM      4  C4  N4B d   1      -2.659  -0.598  -0.416  0.00  0.00    -0.004 A 
ATOM      5  C5  N4B d   1      -2.030   0.035  -1.448  0.00  0.00     0.002 A 
ATOM      6  C6  N4B d   1      -0.696   0.381  -1.362  0.00  0.00     0.002 A 
ENDROOT
BRANCH   1   7
ATOM      7  C1' N4B d   1       1.442   0.551  -0.139  0.00  0.00     0.057 C 
BRANCH   7   8
ATOM      8  C2' N4B d   1       1.652   1.231   1.211  0.00  0.00     0.009 C 
BRANCH   8   9
ATOM      9  C3' N4B d   1       2.710   2.319   1.140  0.00  0.00     0.004 C 
ATOM     10  C4' N4B d   1       2.322   3.449   0.233  0.00  0.00     0.003 C 
ENDBRANCH   8   9
ENDBRANCH   7   8
ENDBRANCH   1   7
TORSDOF 3
ENDMDL
