MODEL 1
REMARK minimizedAffinity -5.7967968
REMARK minimizedRMSD -1
REMARK  3 active torsions:
REMARK  status: ('A' for Active; 'I' for Inactive)
REMARK    1  A    between atoms: C3'_2  and  C2'_3 
REMARK    2  A    between atoms: C2'_3  and  C1'_4 
REMARK    3  A    between atoms: C1'_4  and  C1_5 
ROOT
ATOM      1  C1  N4B d   1      -0.670  -0.608  -0.122  0.00  0.00    -0.075 A 
ATOM      2  C2  N4B d   1      -1.939  -0.665  -0.739  0.00  0.00     0.002 A 
ATOM      3  C3  N4B d   1      -2.872  -1.575  -0.307  0.00  0.00     0.002 A 
ATOM      4  C4  N4B d   1      -2.553  -2.447   0.724  0.00  0.00    -0.004 A 
ATOM      5  C5  N4B d   1      -1.334  -2.367   1.332  0.00  0.00     0.002 A 
ATOM      6  C6  N4B d   1      -0.388  -1.455   0.910  0.00  0.00     0.002 A 
ENDROOT
BRANCH   1   7
ATOM      7  C1' N4B d   1       0.413   0.312  -0.618  0.00  0.00     0.057 C 
BRANCH   7   8
ATOM      8  C2' N4B d   1       1.608   0.232   0.327  0.00  0.00     0.009 C 
BRANCH   8   9
ATOM      9  C3' N4B d   1       2.550   1.411   0.153  0.00  0.00     0.004 C 
ATOM     10  C4' N4B d   1       2.657   2.257   1.387  0.00  0.00     0.003 C 
ENDBRANCH   8   9
ENDBRANCH   7   8
ENDBRANCH   1   7
TORSDOF 3
ENDMDL
