MODEL 1
REMARK minimizedAffinity -5.1341095
REMARK minimizedRMSD -1
REMARK  3 active torsions:
REMARK  status: ('A' for Active; 'I' for Inactive)
REMARK    1  A    between atoms: C3'_2  and  C2'_3 
REMARK    2  A    between atoms: C2'_3  and  C1'_4 
REMARK    3  A    between atoms: C1'_4  and  C1_5 
ROOT
ATOM      1  C1  N4B d   1      -0.926  -0.498   0.258  0.00  0.00    -0.075 A 
ATOM      2  C2  N4B d   1      -1.975  -0.599  -0.682  0.00  0.00     0.002 A 
ATOM      3  C3  N4B d   1      -2.866  -1.642  -0.608  0.00  0.00     0.002 A 
ATOM      4  C4  N4B d   1      -2.717  -2.602   0.382  0.00  0.00    -0.004 A 
ATOM      5  C5  N4B d   1      -1.716  -2.483   1.302  0.00  0.00     0.002 A 
ATOM      6  C6  N4B d   1      -0.816  -1.438   1.241  0.00  0.00     0.002 A 
ENDROOT
BRANCH   1   7
ATOM      7  C1' N4B d   1       0.123   0.576   0.165  0.00  0.00     0.057 C 
BRANCH   7   8
ATOM      8  C2' N4B d   1       1.491  -0.032   0.462  0.00  0.00     0.009 C 
BRANCH   8   9
ATOM      9  C3' N4B d   1       2.575   1.027   0.556  0.00  0.00     0.004 C 
ATOM     10  C4' N4B d   1       2.398   1.938   1.734  0.00  0.00     0.003 C 
ENDBRANCH   8   9
ENDBRANCH   7   8
ENDBRANCH   1   7
TORSDOF 3
ENDMDL
