MODEL 1
REMARK minimizedAffinity -5.35719395
REMARK minimizedRMSD -1
REMARK  3 active torsions:
REMARK  status: ('A' for Active; 'I' for Inactive)
REMARK    1  A    between atoms: C3'_2  and  C2'_3 
REMARK    2  A    between atoms: C2'_3  and  C1'_4 
REMARK    3  A    between atoms: C1'_4  and  C1_5 
ROOT
ATOM      1  C1  N4B d   1      -0.314  -0.773   0.057  0.00  0.00    -0.075 A 
ATOM      2  C2  N4B d   1      -1.203  -0.216  -0.890  0.00  0.00     0.002 A 
ATOM      3  C3  N4B d   1      -2.518  -0.611  -0.912  0.00  0.00     0.002 A 
ATOM      4  C4  N4B d   1      -2.961  -1.570  -0.013  0.00  0.00    -0.004 A 
ATOM      5  C5  N4B d   1      -2.103  -2.083   0.915  0.00  0.00     0.002 A 
ATOM      6  C6  N4B d   1      -0.779  -1.693   0.951  0.00  0.00     0.002 A 
ENDROOT
BRANCH   1   7
ATOM      7  C1' N4B d   1       1.152  -0.436   0.064  0.00  0.00     0.057 C 
BRANCH   7   8
ATOM      8  C2' N4B d   1       1.317   1.081   0.049  0.00  0.00     0.009 C 
BRANCH   8   9
ATOM      9  C3' N4B d   1       1.844   1.608   1.373  0.00  0.00     0.004 C 
ATOM     10  C4' N4B d   1       2.449   2.974   1.254  0.00  0.00     0.003 C 
ENDBRANCH   8   9
ENDBRANCH   7   8
ENDBRANCH   1   7
TORSDOF 3
ENDMDL
