MODEL 1
REMARK minimizedAffinity -4.14454222
REMARK minimizedRMSD -1
REMARK  3 active torsions:
REMARK  status: ('A' for Active; 'I' for Inactive)
REMARK    1  A    between atoms: C3'_2  and  C2'_3 
REMARK    2  A    between atoms: C2'_3  and  C1'_4 
REMARK    3  A    between atoms: C1'_4  and  C1_5 
ROOT
ATOM      1  C1  N4B d   1      -0.418  -0.661   0.245  0.00  0.00    -0.075 A 
ATOM      2  C2  N4B d   1      -1.696  -0.830  -0.333  0.00  0.00     0.002 A 
ATOM      3  C3  N4B d   1      -2.578  -1.735   0.205  0.00  0.00     0.002 A 
ATOM      4  C4  N4B d   1      -2.199  -2.492   1.304  0.00  0.00    -0.004 A 
ATOM      5  C5  N4B d   1      -0.973  -2.304   1.871  0.00  0.00     0.002 A 
ATOM      6  C6  N4B d   1      -0.078  -1.395   1.344  0.00  0.00     0.002 A 
ENDROOT
BRANCH   1   7
ATOM      7  C1' N4B d   1       0.611   0.254  -0.360  0.00  0.00     0.057 C 
BRANCH   7   8
ATOM      8  C2' N4B d   1       1.922   0.110   0.408  0.00  0.00     0.009 C 
BRANCH   8   9
ATOM      9  C3' N4B d   1       2.826   1.316   0.221  0.00  0.00     0.004 C 
ATOM     10  C4' N4B d   1       3.012   2.105   1.482  0.00  0.00     0.003 C 
ENDBRANCH   8   9
ENDBRANCH   7   8
ENDBRANCH   1   7
TORSDOF 3
ENDMDL
