MODEL 1
REMARK minimizedAffinity 0.748627067
REMARK minimizedRMSD -1
REMARK  1 active torsions:
REMARK  status: ('A' for Active; 'I' for Inactive)
REMARK    1  A    between atoms: C1_2  and  C2_3 
ROOT
ATOM      1  C2  UNL d   1       3.624   4.249   4.160  0.00  0.00    -0.081 A 
ATOM      2  C3  UNL d   1       3.081   3.687   5.322  0.00  0.00     0.006 A 
ATOM      3  C4  UNL d   1       1.959   4.258   5.927  0.00  0.00     0.002 A 
ATOM      4  C5  UNL d   1       1.357   5.394   5.377  0.00  0.00    -0.080 A 
ATOM      5  C6  UNL d   1       0.133   5.999   5.999  0.00  0.00     0.076 C 
ATOM      6  C7  UNL d   1       1.909   5.966   4.226  0.00  0.00     0.002 A 
ATOM      7  C8  UNL d   1       3.032   5.396   3.621  0.00  0.00     0.006 A 
ENDROOT
BRANCH   1   8
ATOM      8  C1  UNL d   1       4.795   3.598   3.469  0.00  0.00     0.054 C 
ATOM      9  C   UNL d   1       5.119   2.245   4.086  0.00  0.00     0.018 C 
ENDBRANCH   1   8
TORSDOF 1
ENDMDL
