MODEL 1
REMARK minimizedAffinity 2.44256043
REMARK minimizedRMSD -1
REMARK  1 active torsions:
REMARK  status: ('A' for Active; 'I' for Inactive)
REMARK    1  A    between atoms: C1_2  and  C2_3 
ROOT
ATOM      1  C2  UNL d   1       3.707   4.814   4.983  0.00  0.00    -0.081 A 
ATOM      2  C3  UNL d   1       3.274   5.560   3.880  0.00  0.00     0.006 A 
ATOM      3  C4  UNL d   1       1.933   5.932   3.760  0.00  0.00     0.002 A 
ATOM      4  C5  UNL d   1       1.005   5.571   4.742  0.00  0.00    -0.080 A 
ATOM      5  C6  UNL d   1      -0.432   5.990   4.640  0.00  0.00     0.076 C 
ATOM      6  C7  UNL d   1       1.434   4.811   5.835  0.00  0.00     0.002 A 
ATOM      7  C8  UNL d   1       2.775   4.438   5.956  0.00  0.00     0.006 A 
ENDROOT
BRANCH   1   8
ATOM      8  C1  UNL d   1       5.164   4.467   5.149  0.00  0.00     0.054 C 
ATOM      9  C   UNL d   1       5.887   5.505   5.996  0.00  0.00     0.018 C 
ENDBRANCH   1   8
TORSDOF 1
ENDMDL
