MODEL 1
REMARK minimizedAffinity -4.38334703
REMARK minimizedRMSD -1
REMARK  1 active torsions:
REMARK  status: ('A' for Active; 'I' for Inactive)
REMARK    1  A    between atoms: C1_2  and  C2_3 
ROOT
ATOM      1  C2  UNL d   1       3.011   4.062   3.991  0.00  0.00    -0.081 A 
ATOM      2  C3  UNL d   1       2.157   4.915   3.282  0.00  0.00     0.006 A 
ATOM      3  C4  UNL d   1       1.080   5.532   3.924  0.00  0.00     0.002 A 
ATOM      4  C5  UNL d   1       0.845   5.313   5.286  0.00  0.00    -0.080 A 
ATOM      5  C6  UNL d   1      -0.289   5.993   5.994  0.00  0.00     0.076 C 
ATOM      6  C7  UNL d   1       1.689   4.447   5.990  0.00  0.00     0.002 A 
ATOM      7  C8  UNL d   1       2.765   3.829   5.349  0.00  0.00     0.006 A 
ENDROOT
BRANCH   1   8
ATOM      8  C1  UNL d   1       4.211   3.447   3.317  0.00  0.00     0.054 C 
ATOM      9  C   UNL d   1       5.249   4.502   2.963  0.00  0.00     0.018 C 
ENDBRANCH   1   8
TORSDOF 1
ENDMDL
