MODEL 1
REMARK minimizedAffinity 1.97118092
REMARK minimizedRMSD -1
REMARK  1 active torsions:
REMARK  status: ('A' for Active; 'I' for Inactive)
REMARK    1  A    between atoms: C1_2  and  C2_3 
ROOT
ATOM      1  C2  UNL d   1       4.143   2.011   0.567  0.00  0.00    -0.081 A 
ATOM      2  C3  UNL d   1       3.331   1.049   1.179  0.00  0.00     0.006 A 
ATOM      3  C4  UNL d   1       2.835  -0.031   0.444  0.00  0.00     0.002 A 
ATOM      4  C5  UNL d   1       3.151  -0.171  -0.912  0.00  0.00    -0.080 A 
ATOM      5  C6  UNL d   1       2.650  -1.342  -1.705  0.00  0.00     0.076 C 
ATOM      6  C7  UNL d   1       3.948   0.800  -1.528  0.00  0.00     0.002 A 
ATOM      7  C8  UNL d   1       4.442   1.880  -0.794  0.00  0.00     0.006 A 
ENDROOT
BRANCH   1   8
ATOM      8  C1  UNL d   1       4.731   3.141   1.372  0.00  0.00     0.054 C 
ATOM      9  C   UNL d   1       4.209   3.133   2.801  0.00  0.00     0.018 C 
ENDBRANCH   1   8
TORSDOF 1
ENDMDL
