MODEL 1
REMARK minimizedAffinity 10.7699432
REMARK minimizedRMSD -1
REMARK  1 active torsions:
REMARK  status: ('A' for Active; 'I' for Inactive)
REMARK    1  A    between atoms: C1_2  and  C2_3 
ROOT
ATOM      1  C2  UNL d   1      -4.208   2.941   2.344  0.00  0.00    -0.081 A 
ATOM      2  C3  UNL d   1      -3.121   2.576   1.539  0.00  0.00     0.006 A 
ATOM      3  C4  UNL d   1      -3.244   1.541   0.609  0.00  0.00     0.002 A 
ATOM      4  C5  UNL d   1      -4.456   0.859   0.463  0.00  0.00    -0.080 A 
ATOM      5  C6  UNL d   1      -4.610  -0.234  -0.553  0.00  0.00     0.076 C 
ATOM      6  C7  UNL d   1      -5.537   1.211   1.278  0.00  0.00     0.002 A 
ATOM      7  C8  UNL d   1      -5.415   2.246   2.209  0.00  0.00     0.006 A 
ENDROOT
BRANCH   1   8
ATOM      8  C1  UNL d   1      -4.098   4.099   3.302  0.00  0.00     0.054 C 
ATOM      9  C   UNL d   1      -5.452   4.453   3.900  0.00  0.00     0.018 C 
ENDBRANCH   1   8
TORSDOF 1
ENDMDL
