MODEL 1
REMARK minimizedAffinity 6.2569294
REMARK minimizedRMSD -1
REMARK  1 active torsions:
REMARK  status: ('A' for Active; 'I' for Inactive)
REMARK    1  A    between atoms: C1_2  and  C2_3 
ROOT
ATOM      1  C2  UNL d   1      -3.151   0.357  -0.767  0.00  0.00    -0.081 A 
ATOM      2  C3  UNL d   1      -4.444   0.528  -0.256  0.00  0.00     0.006 A 
ATOM      3  C4  UNL d   1      -4.665   1.355   0.848  0.00  0.00     0.002 A 
ATOM      4  C5  UNL d   1      -3.601   2.031   1.454  0.00  0.00    -0.080 A 
ATOM      5  C6  UNL d   1      -3.829   2.945   2.621  0.00  0.00     0.076 C 
ATOM      6  C7  UNL d   1      -2.307   1.846   0.955  0.00  0.00     0.002 A 
ATOM      7  C8  UNL d   1      -2.084   1.019  -0.149  0.00  0.00     0.006 A 
ENDROOT
BRANCH   1   8
ATOM      8  C1  UNL d   1      -2.918  -0.483  -1.996  0.00  0.00     0.054 C 
ATOM      9  C   UNL d   1      -2.097   0.271  -3.034  0.00  0.00     0.018 C 
ENDBRANCH   1   8
TORSDOF 1
ENDMDL
