MODEL 1
REMARK minimizedAffinity 9.20314312
REMARK minimizedRMSD -1
REMARK  1 active torsions:
REMARK  status: ('A' for Active; 'I' for Inactive)
REMARK    1  A    between atoms: C1_2  and  C2_3 
ROOT
ATOM      1  C2  UNL d   1       2.213  -1.609  -1.141  0.00  0.00    -0.081 A 
ATOM      2  C3  UNL d   1       1.152  -0.956  -1.781  0.00  0.00     0.006 A 
ATOM      3  C4  UNL d   1       0.930   0.407  -1.573  0.00  0.00     0.002 A 
ATOM      4  C5  UNL d   1       1.769   1.142  -0.728  0.00  0.00    -0.080 A 
ATOM      5  C6  UNL d   1       1.560   2.612  -0.520  0.00  0.00     0.076 C 
ATOM      6  C7  UNL d   1       2.819   0.487  -0.075  0.00  0.00     0.002 A 
ATOM      7  C8  UNL d   1       3.040  -0.877  -0.282  0.00  0.00     0.006 A 
ENDROOT
BRANCH   1   8
ATOM      8  C1  UNL d   1       2.494  -3.064  -1.413  0.00  0.00     0.054 C 
ATOM      9  C   UNL d   1       1.301  -3.936  -1.047  0.00  0.00     0.018 C 
ENDBRANCH   1   8
TORSDOF 1
ENDMDL
