MODEL 1
REMARK minimizedAffinity -5.06592321
REMARK minimizedRMSD -1
REMARK  1 active torsions:
REMARK  status: ('A' for Active; 'I' for Inactive)
REMARK    1  A    between atoms: C1_2  and  C2_3 
ROOT
ATOM      1  C2  UNL d   1       3.418   4.471   4.635  0.00  0.00    -0.081 A 
ATOM      2  C3  UNL d   1       2.544   3.623   5.325  0.00  0.00     0.006 A 
ATOM      3  C4  UNL d   1       1.167   3.863   5.313  0.00  0.00     0.002 A 
ATOM      4  C5  UNL d   1       0.642   4.949   4.604  0.00  0.00    -0.080 A 
ATOM      5  C6  UNL d   1      -0.836   5.200   4.558  0.00  0.00     0.076 C 
ATOM      6  C7  UNL d   1       1.517   5.806   3.929  0.00  0.00     0.002 A 
ATOM      7  C8  UNL d   1       2.893   5.568   3.941  0.00  0.00     0.006 A 
ENDROOT
BRANCH   1   8
ATOM      8  C1  UNL d   1       4.896   4.179   4.592  0.00  0.00     0.054 C 
ATOM      9  C   UNL d   1       5.270   3.075   5.572  0.00  0.00     0.018 C 
ENDBRANCH   1   8
TORSDOF 1
ENDMDL
