MODEL 1
REMARK minimizedAffinity -5.14546204
REMARK minimizedRMSD -1
REMARK  1 active torsions:
REMARK  status: ('A' for Active; 'I' for Inactive)
REMARK    1  A    between atoms: C1_2  and  C2_3 
ROOT
ATOM      1  C2  UNL d   1       1.597   4.878   4.598  0.00  0.00    -0.081 A 
ATOM      2  C3  UNL d   1       2.907   4.689   4.140  0.00  0.00     0.006 A 
ATOM      3  C4  UNL d   1       3.670   3.613   4.600  0.00  0.00     0.002 A 
ATOM      4  C5  UNL d   1       3.134   2.705   5.520  0.00  0.00    -0.080 A 
ATOM      5  C6  UNL d   1       3.933   1.529   5.999  0.00  0.00     0.076 C 
ATOM      6  C7  UNL d   1       1.832   2.904   5.991  0.00  0.00     0.002 A 
ATOM      7  C8  UNL d   1       1.069   3.979   5.531  0.00  0.00     0.006 A 
ENDROOT
BRANCH   1   8
ATOM      8  C1  UNL d   1       0.749   5.999   4.054  0.00  0.00     0.054 C 
ATOM      9  C   UNL d   1      -0.715   5.815   4.425  0.00  0.00     0.018 C 
ENDBRANCH   1   8
TORSDOF 1
ENDMDL
