MODEL 1
REMARK minimizedAffinity 1.85285139
REMARK minimizedRMSD -1
REMARK  1 active torsions:
REMARK  status: ('A' for Active; 'I' for Inactive)
REMARK    1  A    between atoms: C1_2  and  C2_3 
ROOT
ATOM      1  C2  UNL d   1       2.463  -0.648  -0.111  0.00  0.00    -0.081 A 
ATOM      2  C3  UNL d   1       2.085   0.700  -0.069  0.00  0.00     0.006 A 
ATOM      3  C4  UNL d   1       2.992   1.701  -0.426  0.00  0.00     0.002 A 
ATOM      4  C5  UNL d   1       4.288   1.370  -0.838  0.00  0.00    -0.080 A 
ATOM      5  C6  UNL d   1       5.262   2.433  -1.252  0.00  0.00     0.076 C 
ATOM      6  C7  UNL d   1       4.671   0.025  -0.863  0.00  0.00     0.002 A 
ATOM      7  C8  UNL d   1       3.764  -0.976  -0.506  0.00  0.00     0.006 A 
ENDROOT
BRANCH   1   8
ATOM      8  C1  UNL d   1       1.467  -1.733   0.211  0.00  0.00     0.054 C 
ATOM      9  C   UNL d   1       1.040  -2.482  -1.043  0.00  0.00     0.018 C 
ENDBRANCH   1   8
TORSDOF 1
ENDMDL
