MODEL 1
REMARK minimizedAffinity 7.70224714
REMARK minimizedRMSD -1
REMARK  1 active torsions:
REMARK  status: ('A' for Active; 'I' for Inactive)
REMARK    1  A    between atoms: C1_2  and  C2_3 
ROOT
ATOM      1  C2  UNL d   1      -0.202  -1.012   0.764  0.00  0.00    -0.081 A 
ATOM      2  C3  UNL d   1      -0.284  -1.852  -0.353  0.00  0.00     0.006 A 
ATOM      3  C4  UNL d   1       0.875  -2.284  -1.001  0.00  0.00     0.002 A 
ATOM      4  C5  UNL d   1       2.135  -1.889  -0.540  0.00  0.00    -0.080 A 
ATOM      5  C6  UNL d   1       3.389  -2.369  -1.208  0.00  0.00     0.076 C 
ATOM      6  C7  UNL d   1       2.217  -1.035   0.566  0.00  0.00     0.002 A 
ATOM      7  C8  UNL d   1       1.058  -0.603   1.214  0.00  0.00     0.006 A 
ENDROOT
BRANCH   1   8
ATOM      8  C1  UNL d   1      -1.448  -0.597   1.504  0.00  0.00     0.054 C 
ATOM      9  C   UNL d   1      -2.590  -1.573   1.256  0.00  0.00     0.018 C 
ENDBRANCH   1   8
TORSDOF 1
ENDMDL
