MODEL 1
REMARK minimizedAffinity -3.98729229
REMARK minimizedRMSD -1
REMARK  0 active torsions:
REMARK  status: ('A' for Active; 'I' for Inactive)
ROOT
ATOM      1  C   UNL d   1       1.641   1.826   0.072  0.00  0.00     0.078 C 
ATOM      2  C1  UNL d   1       1.681   0.468   0.706  0.00  0.00    -0.077 A 
ATOM      3  C2  UNL d   1       0.534  -0.333   0.769  0.00  0.00    -0.001 A 
ATOM      4  C3  UNL d   1       0.583  -1.591   1.372  0.00  0.00     0.003 A 
ATOM      5  C4  UNL d   1       1.777  -2.059   1.917  0.00  0.00    -0.005 A 
ATOM      6  C5  UNL d   1       2.923  -1.268   1.862  0.00  0.00     0.003 A 
ATOM      7  C6  UNL d   1       2.876  -0.010   1.259  0.00  0.00    -0.001 A 
ENDROOT
TORSDOF 0
ENDMDL
