MODEL 1
REMARK minimizedAffinity 2.23399448
REMARK minimizedRMSD -1
REMARK  0 active torsions:
REMARK  status: ('A' for Active; 'I' for Inactive)
ROOT
ATOM      1  C   UNL d   1      -2.979  -0.572  -2.550  0.00  0.00     0.078 C 
ATOM      2  C1  UNL d   1      -1.760  -1.135  -1.881  0.00  0.00    -0.077 A 
ATOM      3  C2  UNL d   1      -0.678  -1.608  -2.634  0.00  0.00    -0.001 A 
ATOM      4  C3  UNL d   1       0.445  -2.139  -1.998  0.00  0.00     0.003 A 
ATOM      5  C4  UNL d   1       0.498  -2.202  -0.607  0.00  0.00    -0.005 A 
ATOM      6  C5  UNL d   1      -0.575  -1.735   0.150  0.00  0.00     0.003 A 
ATOM      7  C6  UNL d   1      -1.699  -1.205  -0.484  0.00  0.00    -0.001 A 
ENDROOT
TORSDOF 0
ENDMDL
