MODEL 1
REMARK minimizedAffinity 9.55136395
REMARK minimizedRMSD -1
REMARK  0 active torsions:
REMARK  status: ('A' for Active; 'I' for Inactive)
ROOT
ATOM      1  C   UNL d   1       2.150  -0.754   2.938  0.00  0.00     0.078 C 
ATOM      2  C1  UNL d   1       2.383   0.340   1.940  0.00  0.00    -0.077 A 
ATOM      3  C2  UNL d   1       1.625   1.517   1.971  0.00  0.00    -0.001 A 
ATOM      4  C3  UNL d   1       1.846   2.524   1.029  0.00  0.00     0.003 A 
ATOM      5  C4  UNL d   1       2.824   2.363   0.050  0.00  0.00    -0.005 A 
ATOM      6  C5  UNL d   1       3.582   1.194   0.010  0.00  0.00     0.003 A 
ATOM      7  C6  UNL d   1       3.362   0.187   0.951  0.00  0.00    -0.001 A 
ENDROOT
TORSDOF 0
ENDMDL
