MODEL 1
REMARK minimizedAffinity 6.02942705
REMARK minimizedRMSD -1
REMARK  0 active torsions:
REMARK  status: ('A' for Active; 'I' for Inactive)
ROOT
ATOM      1  C   UNL d   1       2.384   1.808   0.826  0.00  0.00     0.078 C 
ATOM      2  C1  UNL d   1       2.071   0.551   1.583  0.00  0.00    -0.077 A 
ATOM      3  C2  UNL d   1       2.767   0.222   2.753  0.00  0.00    -0.001 A 
ATOM      4  C3  UNL d   1       2.472  -0.955   3.442  0.00  0.00     0.003 A 
ATOM      5  C4  UNL d   1       1.481  -1.814   2.969  0.00  0.00    -0.005 A 
ATOM      6  C5  UNL d   1       0.785  -1.495   1.804  0.00  0.00     0.003 A 
ATOM      7  C6  UNL d   1       1.079  -0.318   1.114  0.00  0.00    -0.001 A 
ENDROOT
TORSDOF 0
ENDMDL
