MODEL 1
REMARK minimizedAffinity -1.13557291
REMARK minimizedRMSD -1
REMARK  0 active torsions:
REMARK  status: ('A' for Active; 'I' for Inactive)
ROOT
ATOM      1  C   UNL d   1      -0.533  -1.487   1.066  0.00  0.00     0.078 C 
ATOM      2  C1  UNL d   1       0.671  -0.600   1.173  0.00  0.00    -0.077 A 
ATOM      3  C2  UNL d   1       1.603  -0.769   2.204  0.00  0.00    -0.001 A 
ATOM      4  C3  UNL d   1       2.714   0.071   2.297  0.00  0.00     0.003 A 
ATOM      5  C4  UNL d   1       2.903   1.087   1.363  0.00  0.00    -0.005 A 
ATOM      6  C5  UNL d   1       1.980   1.265   0.334  0.00  0.00     0.003 A 
ATOM      7  C6  UNL d   1       0.868   0.426   0.240  0.00  0.00    -0.001 A 
ENDROOT
TORSDOF 0
ENDMDL
