MODEL 1
REMARK minimizedAffinity 8.08435917
REMARK minimizedRMSD -1
REMARK  0 active torsions:
REMARK  status: ('A' for Active; 'I' for Inactive)
ROOT
ATOM      1  C   UNL d   1       3.015   0.174   3.039  0.00  0.00     0.078 C 
ATOM      2  C1  UNL d   1       2.087  -0.962   2.730  0.00  0.00    -0.077 A 
ATOM      3  C2  UNL d   1       2.054  -2.106   3.537  0.00  0.00    -0.001 A 
ATOM      4  C3  UNL d   1       1.191  -3.160   3.233  0.00  0.00     0.003 A 
ATOM      5  C4  UNL d   1       0.355  -3.081   2.120  0.00  0.00    -0.005 A 
ATOM      6  C5  UNL d   1       0.383  -1.948   1.310  0.00  0.00     0.003 A 
ATOM      7  C6  UNL d   1       1.245  -0.893   1.613  0.00  0.00    -0.001 A 
ENDROOT
TORSDOF 0
ENDMDL
