MODEL 1
REMARK minimizedAffinity -0.462536246
REMARK minimizedRMSD -1
REMARK  0 active torsions:
REMARK  status: ('A' for Active; 'I' for Inactive)
ROOT
ATOM      1  C   UNL d   1       2.240   0.802   3.440  0.00  0.00     0.078 C 
ATOM      2  C1  UNL d   1       1.506  -0.252   2.666  0.00  0.00    -0.077 A 
ATOM      3  C2  UNL d   1       0.825   0.064   1.484  0.00  0.00    -0.001 A 
ATOM      4  C3  UNL d   1       0.138  -0.926   0.779  0.00  0.00     0.003 A 
ATOM      5  C4  UNL d   1       0.125  -2.237   1.249  0.00  0.00    -0.005 A 
ATOM      6  C5  UNL d   1       0.798  -2.561   2.425  0.00  0.00     0.003 A 
ATOM      7  C6  UNL d   1       1.485  -1.573   3.132  0.00  0.00    -0.001 A 
ENDROOT
TORSDOF 0
ENDMDL
