MODEL 1
REMARK minimizedAffinity 0.602877021
REMARK minimizedRMSD -1
REMARK  0 active torsions:
REMARK  status: ('A' for Active; 'I' for Inactive)
ROOT
ATOM      1  C   UNL d   1      -3.743   2.551   2.457  0.00  0.00     0.172 C 
ATOM      2  N   UNL d   1      -2.882   1.411   2.247  0.00  0.00    -0.070 N 
ATOM      3  C1  UNL d   1      -1.978   1.271   1.228  0.00  0.00    -0.004 A 
ATOM      4  C2  UNL d   1      -1.356   0.050   1.380  0.00  0.00    -0.047 A 
ATOM      5  C3  UNL d   1      -1.906  -0.565   2.530  0.00  0.00    -0.047 A 
ATOM      6  C4  UNL d   1      -2.848   0.300   3.047  0.00  0.00    -0.004 A 
ENDROOT
TORSDOF 0
ENDMDL
