MODEL 1
REMARK minimizedAffinity 7.31687546
REMARK minimizedRMSD -1
REMARK  0 active torsions:
REMARK  status: ('A' for Active; 'I' for Inactive)
ROOT
ATOM      1  C   UNL d   1      -0.936   0.693  -5.862  0.00  0.00     0.172 C 
ATOM      2  N   UNL d   1      -0.002  -0.154  -5.157  0.00  0.00    -0.070 N 
ATOM      3  C1  UNL d   1      -0.058  -1.521  -5.091  0.00  0.00    -0.004 A 
ATOM      4  C2  UNL d   1       1.007  -1.950  -4.329  0.00  0.00    -0.047 A 
ATOM      5  C3  UNL d   1       1.727  -0.801  -3.922  0.00  0.00    -0.047 A 
ATOM      6  C4  UNL d   1       1.080   0.297  -4.449  0.00  0.00    -0.004 A 
ENDROOT
TORSDOF 0
ENDMDL
