MODEL 1
REMARK minimizedAffinity 3.19461036
REMARK minimizedRMSD -1
REMARK  0 active torsions:
REMARK  status: ('A' for Active; 'I' for Inactive)
ROOT
ATOM      1  C   UNL d   1      -0.875   1.250   0.346  0.00  0.00     0.172 C 
ATOM      2  N   UNL d   1      -1.780   0.945   1.429  0.00  0.00    -0.070 N 
ATOM      3  C1  UNL d   1      -2.700   1.805   1.966  0.00  0.00    -0.004 A 
ATOM      4  C2  UNL d   1      -3.363   1.138   2.973  0.00  0.00    -0.047 A 
ATOM      5  C3  UNL d   1      -2.822  -0.168   3.045  0.00  0.00    -0.047 A 
ATOM      6  C4  UNL d   1      -1.843  -0.260   2.077  0.00  0.00    -0.004 A 
ENDROOT
TORSDOF 0
ENDMDL
