MODEL 1
REMARK minimizedAffinity 3.28040886
REMARK minimizedRMSD -1
REMARK  0 active torsions:
REMARK  status: ('A' for Active; 'I' for Inactive)
ROOT
ATOM      1  C   UNL d   1       1.831   2.573  -2.664  0.00  0.00     0.172 C 
ATOM      2  N   UNL d   1       2.701   3.303  -3.556  0.00  0.00    -0.070 N 
ATOM      3  C1  UNL d   1       3.456   2.756  -4.559  0.00  0.00    -0.004 A 
ATOM      4  C2  UNL d   1       4.142   3.779  -5.176  0.00  0.00    -0.047 A 
ATOM      5  C3  UNL d   1       3.788   4.982  -4.521  0.00  0.00    -0.047 A 
ATOM      6  C4  UNL d   1       2.894   4.658  -3.522  0.00  0.00    -0.004 A 
ENDROOT
TORSDOF 0
ENDMDL
