MODEL 1
REMARK minimizedAffinity 3.23651004
REMARK minimizedRMSD -1
REMARK  0 active torsions:
REMARK  status: ('A' for Active; 'I' for Inactive)
ROOT
ATOM      1  C   UNL d   1       2.566   1.805  -5.998  0.00  0.00     0.172 C 
ATOM      2  N   UNL d   1       1.732   0.728  -5.520  0.00  0.00    -0.070 N 
ATOM      3  C1  UNL d   1       0.423   0.519  -5.862  0.00  0.00    -0.004 A 
ATOM      4  C2  UNL d   1      -0.013  -0.607  -5.197  0.00  0.00    -0.047 A 
ATOM      5  C3  UNL d   1       1.071  -1.091  -4.428  0.00  0.00    -0.047 A 
ATOM      6  C4  UNL d   1       2.139  -0.246  -4.646  0.00  0.00    -0.004 A 
ENDROOT
TORSDOF 0
ENDMDL
