MODEL 1
REMARK minimizedAffinity 3.29628706
REMARK minimizedRMSD -1
REMARK  0 active torsions:
REMARK  status: ('A' for Active; 'I' for Inactive)
ROOT
ATOM      1  C   UNL d   1      -2.972  -1.549   5.589  0.00  0.00     0.172 C 
ATOM      2  N   UNL d   1      -2.290  -1.122   4.390  0.00  0.00    -0.070 N 
ATOM      3  C1  UNL d   1      -2.859  -0.439   3.348  0.00  0.00    -0.004 A 
ATOM      4  C2  UNL d   1      -1.880  -0.219   2.403  0.00  0.00    -0.047 A 
ATOM      5  C3  UNL d   1      -0.682  -0.791   2.894  0.00  0.00    -0.047 A 
ATOM      6  C4  UNL d   1      -0.964  -1.343   4.125  0.00  0.00    -0.004 A 
ENDROOT
TORSDOF 0
ENDMDL
