MODEL 1
REMARK minimizedAffinity 6.02268648
REMARK minimizedRMSD -1
REMARK  0 active torsions:
REMARK  status: ('A' for Active; 'I' for Inactive)
ROOT
ATOM      1  C   UNL d   1       4.458  -0.348  -6.000  0.00  0.00     0.172 C 
ATOM      2  N   UNL d   1       3.226  -0.372  -5.247  0.00  0.00    -0.070 N 
ATOM      3  C1  UNL d   1       2.993   0.298  -4.076  0.00  0.00    -0.004 A 
ATOM      4  C2  UNL d   1       1.703   0.017  -3.679  0.00  0.00    -0.047 A 
ATOM      5  C3  UNL d   1       1.142  -0.851  -4.645  0.00  0.00    -0.047 A 
ATOM      6  C4  UNL d   1       2.106  -1.076  -5.605  0.00  0.00    -0.004 A 
ENDROOT
TORSDOF 0
ENDMDL
