MODEL 1
REMARK minimizedAffinity 0.778602242
REMARK minimizedRMSD -1
REMARK  0 active torsions:
REMARK  status: ('A' for Active; 'I' for Inactive)
ROOT
ATOM      1  C   UNL d   1      -4.958  -3.630  -5.998  0.00  0.00     0.172 C 
ATOM      2  N   UNL d   1      -5.250  -2.994  -4.735  0.00  0.00    -0.070 N 
ATOM      3  C1  UNL d   1      -5.737  -3.621  -3.619  0.00  0.00    -0.004 A 
ATOM      4  C2  UNL d   1      -5.879  -2.672  -2.629  0.00  0.00    -0.047 A 
ATOM      5  C3  UNL d   1      -5.463  -1.432  -3.169  0.00  0.00    -0.047 A 
ATOM      6  C4  UNL d   1      -5.079  -1.660  -4.474  0.00  0.00    -0.004 A 
ENDROOT
TORSDOF 0
ENDMDL
