MODEL 1
REMARK minimizedAffinity 8.29294491
REMARK minimizedRMSD -1
REMARK  0 active torsions:
REMARK  status: ('A' for Active; 'I' for Inactive)
ROOT
ATOM      1  C   UNL d   1       3.234   5.210  -4.867  0.00  0.00     0.172 C 
ATOM      2  N   UNL d   1       4.130   4.145  -5.253  0.00  0.00    -0.070 N 
ATOM      3  C1  UNL d   1       3.753   2.930  -5.760  0.00  0.00    -0.004 A 
ATOM      4  C2  UNL d   1       4.897   2.200  -6.000  0.00  0.00    -0.047 A 
ATOM      5  C3  UNL d   1       5.999   3.003  -5.623  0.00  0.00    -0.047 A 
ATOM      6  C4  UNL d   1       5.495   4.202  -5.164  0.00  0.00    -0.004 A 
ENDROOT
TORSDOF 0
ENDMDL
