MODEL 1
REMARK minimizedAffinity 8.609128
REMARK minimizedRMSD -1
REMARK  0 active torsions:
REMARK  status: ('A' for Active; 'I' for Inactive)
ROOT
ATOM      1  C   UNL d   1      -5.999  -0.785   0.749  0.00  0.00     0.172 C 
ATOM      2  N   UNL d   1      -5.029  -1.839   0.569  0.00  0.00    -0.070 N 
ATOM      3  C1  UNL d   1      -5.317  -3.163   0.368  0.00  0.00    -0.004 A 
ATOM      4  C2  UNL d   1      -4.123  -3.840   0.242  0.00  0.00    -0.047 A 
ATOM      5  C3  UNL d   1      -3.082  -2.891   0.373  0.00  0.00    -0.047 A 
ATOM      6  C4  UNL d   1      -3.671  -1.660   0.574  0.00  0.00    -0.004 A 
ENDROOT
TORSDOF 0
ENDMDL
