MODEL 1
REMARK minimizedAffinity 2.39152336
REMARK minimizedRMSD -1
REMARK  0 active torsions:
REMARK  status: ('A' for Active; 'I' for Inactive)
ROOT
ATOM      1  C   UNL d   1      -5.751   2.344   5.947  0.00  0.00     0.172 C 
ATOM      2  N   UNL d   1      -5.811   3.650   5.332  0.00  0.00    -0.070 N 
ATOM      3  C1  UNL d   1      -6.000   4.835   5.991  0.00  0.00    -0.004 A 
ATOM      4  C2  UNL d   1      -5.994   5.845   5.054  0.00  0.00    -0.047 A 
ATOM      5  C3  UNL d   1      -5.795   5.246   3.787  0.00  0.00    -0.047 A 
ATOM      6  C4  UNL d   1      -5.685   3.886   3.989  0.00  0.00    -0.004 A 
ENDROOT
TORSDOF 0
ENDMDL
