MODEL 1
REMARK minimizedAffinity 2.75538421
REMARK minimizedRMSD -1
REMARK  0 active torsions:
REMARK  status: ('A' for Active; 'I' for Inactive)
ROOT
ATOM      1  C   UNL d   1      -5.937   2.509   5.939  0.00  0.00     0.172 C 
ATOM      2  N   UNL d   1      -5.955   3.798   5.288  0.00  0.00    -0.070 N 
ATOM      3  C1  UNL d   1      -5.937   4.009   3.935  0.00  0.00    -0.004 A 
ATOM      4  C2  UNL d   1      -5.965   5.370   3.720  0.00  0.00    -0.047 A 
ATOM      5  C3  UNL d   1      -6.000   5.999   4.987  0.00  0.00    -0.047 A 
ATOM      6  C4  UNL d   1      -5.993   5.002   5.940  0.00  0.00    -0.004 A 
ENDROOT
TORSDOF 0
ENDMDL
