MODEL 1
REMARK minimizedAffinity 8.17667675
REMARK minimizedRMSD -1
REMARK  0 active torsions:
REMARK  status: ('A' for Active; 'I' for Inactive)
ROOT
ATOM      1  C   UNL d   1      -5.214   6.000   4.169  0.00  0.00     0.172 C 
ATOM      2  N   UNL d   1      -5.143   5.391   2.861  0.00  0.00    -0.070 N 
ATOM      3  C1  UNL d   1      -4.218   4.464   2.462  0.00  0.00    -0.004 A 
ATOM      4  C2  UNL d   1      -4.489   4.135   1.151  0.00  0.00    -0.047 A 
ATOM      5  C3  UNL d   1      -5.615   4.892   0.748  0.00  0.00    -0.047 A 
ATOM      6  C4  UNL d   1      -5.999   5.661   1.826  0.00  0.00    -0.004 A 
ENDROOT
TORSDOF 0
ENDMDL
