MODEL 1
REMARK minimizedAffinity 7.6817174
REMARK minimizedRMSD -1
REMARK  0 active torsions:
REMARK  status: ('A' for Active; 'I' for Inactive)
ROOT
ATOM      1  C   UNL d   1       3.976   2.342  -5.745  0.00  0.00     0.172 C 
ATOM      2  N   UNL d   1       3.397   1.453  -4.766  0.00  0.00    -0.070 N 
ATOM      3  C1  UNL d   1       2.889   0.207  -5.020  0.00  0.00    -0.004 A 
ATOM      4  C2  UNL d   1       2.434  -0.314  -3.828  0.00  0.00    -0.047 A 
ATOM      5  C3  UNL d   1       2.677   0.652  -2.823  0.00  0.00    -0.047 A 
ATOM      6  C4  UNL d   1       3.274   1.736  -3.431  0.00  0.00    -0.004 A 
ENDROOT
TORSDOF 0
ENDMDL
