MODEL 1
REMARK minimizedAffinity 4.08723307
REMARK minimizedRMSD -1
REMARK  0 active torsions:
REMARK  status: ('A' for Active; 'I' for Inactive)
ROOT
ATOM      1  C   UNL d   1      -5.001   4.264   2.520  0.00  0.00     0.172 C 
ATOM      2  N   UNL d   1      -5.322   4.500   3.908  0.00  0.00    -0.070 N 
ATOM      3  C1  UNL d   1      -5.832   3.573   4.777  0.00  0.00    -0.004 A 
ATOM      4  C2  UNL d   1      -5.998   4.188   6.000  0.00  0.00    -0.047 A 
ATOM      5  C3  UNL d   1      -5.573   5.531   5.859  0.00  0.00    -0.047 A 
ATOM      6  C4  UNL d   1      -5.160   5.697   4.554  0.00  0.00    -0.004 A 
ENDROOT
TORSDOF 0
ENDMDL
