MODEL 1
REMARK minimizedAffinity 4.01370716
REMARK minimizedRMSD -1
REMARK  0 active torsions:
REMARK  status: ('A' for Active; 'I' for Inactive)
ROOT
ATOM      1  C   UNL d   1       0.008   2.197   2.638  0.00  0.00     0.172 C 
ATOM      2  N   UNL d   1      -1.212   2.256   1.868  0.00  0.00    -0.070 N 
ATOM      3  C1  UNL d   1      -2.204   3.189   2.014  0.00  0.00    -0.004 A 
ATOM      4  C2  UNL d   1      -3.192   2.901   1.098  0.00  0.00    -0.047 A 
ATOM      5  C3  UNL d   1      -2.781   1.755   0.377  0.00  0.00    -0.047 A 
ATOM      6  C4  UNL d   1      -1.552   1.376   0.875  0.00  0.00    -0.004 A 
ENDROOT
TORSDOF 0
ENDMDL
