MODEL 1
REMARK minimizedAffinity 10.6711216
REMARK minimizedRMSD -1
REMARK  1 active torsions:
REMARK  status: ('A' for Active; 'I' for Inactive)
REMARK    1  A    between atoms: C1_2  and  C2_3 
ROOT
ATOM      1  C2  UNL d   1       2.859  -2.296  -0.831  0.00  0.00    -0.077 A 
ATOM      2  C3  UNL d   1       2.136  -2.619  -1.988  0.00  0.00     0.002 A 
ATOM      3  C4  UNL d   1       1.442  -1.629  -2.687  0.00  0.00     0.002 A 
ATOM      4  C5  UNL d   1       1.468  -0.310  -2.239  0.00  0.00    -0.004 A 
ATOM      5  C6  UNL d   1       2.183   0.021  -1.088  0.00  0.00     0.002 A 
ATOM      6  C7  UNL d   1       2.876  -0.967  -0.388  0.00  0.00     0.002 A 
ENDROOT
BRANCH   1   7
ATOM      7  C1  UNL d   1       3.648  -3.353  -0.104  0.00  0.00     0.055 C 
ATOM      8  C   UNL d   1       4.410  -4.242  -1.077  0.00  0.00     0.019 C 
ENDBRANCH   1   7
TORSDOF 1
ENDMDL
