MODEL 1
REMARK minimizedAffinity -3.67993164
REMARK minimizedRMSD -1
REMARK  1 active torsions:
REMARK  status: ('A' for Active; 'I' for Inactive)
REMARK    1  A    between atoms: C1_2  and  C2_3 
ROOT
ATOM      1  C2  UNL d   1      -5.789  -5.154   1.661  0.00  0.00    -0.077 A 
ATOM      2  C3  UNL d   1      -5.427  -5.852   2.821  0.00  0.00     0.002 A 
ATOM      3  C4  UNL d   1      -5.276  -5.176   4.034  0.00  0.00     0.002 A 
ATOM      4  C5  UNL d   1      -5.489  -3.801   4.098  0.00  0.00    -0.004 A 
ATOM      5  C6  UNL d   1      -5.847  -3.098   2.949  0.00  0.00     0.002 A 
ATOM      6  C7  UNL d   1      -5.997  -3.771   1.736  0.00  0.00     0.002 A 
ENDROOT
BRANCH   1   7
ATOM      7  C1  UNL d   1      -6.000  -5.889   0.363  0.00  0.00     0.055 C 
ATOM      8  C   UNL d   1      -4.705  -6.000  -0.428  0.00  0.00     0.019 C 
ENDBRANCH   1   7
TORSDOF 1
ENDMDL
