MODEL 1
REMARK minimizedAffinity 14.9340677
REMARK minimizedRMSD -1
REMARK  1 active torsions:
REMARK  status: ('A' for Active; 'I' for Inactive)
REMARK    1  A    between atoms: C1_2  and  C2_3 
ROOT
ATOM      1  C2  UNL d   1      -3.514   1.092   3.894  0.00  0.00    -0.077 A 
ATOM      2  C3  UNL d   1      -2.988   1.387   2.628  0.00  0.00     0.002 A 
ATOM      3  C4  UNL d   1      -2.850   0.381   1.669  0.00  0.00     0.002 A 
ATOM      4  C5  UNL d   1      -3.238  -0.924   1.964  0.00  0.00    -0.004 A 
ATOM      5  C6  UNL d   1      -3.760  -1.228   3.221  0.00  0.00     0.002 A 
ATOM      6  C7  UNL d   1      -3.898  -0.224   4.181  0.00  0.00     0.002 A 
ENDROOT
BRANCH   1   7
ATOM      7  C1  UNL d   1      -3.710   2.184   4.913  0.00  0.00     0.055 C 
ATOM      8  C   UNL d   1      -4.966   2.992   4.624  0.00  0.00     0.019 C 
ENDBRANCH   1   7
TORSDOF 1
ENDMDL
