MODEL 1
REMARK minimizedAffinity 18.3676052
REMARK minimizedRMSD -1
REMARK  1 active torsions:
REMARK  status: ('A' for Active; 'I' for Inactive)
REMARK    1  A    between atoms: C1_2  and  C2_3 
ROOT
ATOM      1  C2  UNL d   1      -2.411   1.836   3.533  0.00  0.00    -0.077 A 
ATOM      2  C3  UNL d   1      -1.056   2.172   3.667  0.00  0.00     0.002 A 
ATOM      3  C4  UNL d   1      -0.555   2.606   4.896  0.00  0.00     0.002 A 
ATOM      4  C5  UNL d   1      -1.400   2.705   5.999  0.00  0.00    -0.004 A 
ATOM      5  C6  UNL d   1      -2.749   2.375   5.875  0.00  0.00     0.002 A 
ATOM      6  C7  UNL d   1      -3.252   1.942   4.648  0.00  0.00     0.002 A 
ENDROOT
BRANCH   1   7
ATOM      7  C1  UNL d   1      -2.943   1.320   2.221  0.00  0.00     0.055 C 
ATOM      8  C   UNL d   1      -3.638  -0.023   2.396  0.00  0.00     0.019 C 
ENDBRANCH   1   7
TORSDOF 1
ENDMDL
