MODEL 1
REMARK minimizedAffinity 8.78280449
REMARK minimizedRMSD -1
REMARK  1 active torsions:
REMARK  status: ('A' for Active; 'I' for Inactive)
REMARK    1  A    between atoms: C1_2  and  C2_3 
ROOT
ATOM      1  C2  UNL d   1       4.170  -4.952  -2.530  0.00  0.00    -0.077 A 
ATOM      2  C3  UNL d   1       3.457  -5.999  -3.130  0.00  0.00     0.002 A 
ATOM      3  C4  UNL d   1       2.110  -5.838  -3.461  0.00  0.00     0.002 A 
ATOM      4  C5  UNL d   1       1.467  -4.630  -3.201  0.00  0.00    -0.004 A 
ATOM      5  C6  UNL d   1       2.167  -3.583  -2.603  0.00  0.00     0.002 A 
ATOM      6  C7  UNL d   1       3.512  -3.743  -2.270  0.00  0.00     0.002 A 
ENDROOT
BRANCH   1   7
ATOM      7  C1  UNL d   1       5.635  -5.107  -2.217  0.00  0.00     0.055 C 
ATOM      8  C   UNL d   1       5.881  -5.126  -0.715  0.00  0.00     0.019 C 
ENDBRANCH   1   7
TORSDOF 1
ENDMDL
