MODEL 1
REMARK minimizedAffinity -0.153198451
REMARK minimizedRMSD -1
REMARK  1 active torsions:
REMARK  status: ('A' for Active; 'I' for Inactive)
REMARK    1  A    between atoms: C1_2  and  C2_3 
ROOT
ATOM      1  C2  UNL d   1       3.578  -4.532  -1.264  0.00  0.00    -0.077 A 
ATOM      2  C3  UNL d   1       4.309  -4.799  -2.430  0.00  0.00     0.002 A 
ATOM      3  C4  UNL d   1       3.780  -4.482  -3.683  0.00  0.00     0.002 A 
ATOM      4  C5  UNL d   1       2.521  -3.894  -3.781  0.00  0.00    -0.004 A 
ATOM      5  C6  UNL d   1       1.786  -3.626  -2.628  0.00  0.00     0.002 A 
ATOM      6  C7  UNL d   1       2.312  -3.943  -1.374  0.00  0.00     0.002 A 
ENDROOT
BRANCH   1   7
ATOM      7  C1  UNL d   1       4.167  -4.827   0.091  0.00  0.00     0.055 C 
ATOM      8  C   UNL d   1       5.547  -4.206   0.242  0.00  0.00     0.019 C 
ENDBRANCH   1   7
TORSDOF 1
ENDMDL
