MODEL 1
REMARK minimizedAffinity 10.8907576
REMARK minimizedRMSD -1
REMARK  1 active torsions:
REMARK  status: ('A' for Active; 'I' for Inactive)
REMARK    1  A    between atoms: C1_2  and  C2_3 
ROOT
ATOM      1  C2  UNL d   1      -3.459  -0.813   4.325  0.00  0.00    -0.077 A 
ATOM      2  C3  UNL d   1      -3.168   0.269   5.168  0.00  0.00     0.002 A 
ATOM      3  C4  UNL d   1      -2.965   1.544   4.636  0.00  0.00     0.002 A 
ATOM      4  C5  UNL d   1      -3.056   1.749   3.261  0.00  0.00    -0.004 A 
ATOM      5  C6  UNL d   1      -3.344   0.680   2.414  0.00  0.00     0.002 A 
ATOM      6  C7  UNL d   1      -3.545  -0.596   2.944  0.00  0.00     0.002 A 
ENDROOT
BRANCH   1   7
ATOM      7  C1  UNL d   1      -3.727  -2.179   4.901  0.00  0.00     0.055 C 
ATOM      8  C   UNL d   1      -3.070  -3.270   4.067  0.00  0.00     0.019 C 
ENDBRANCH   1   7
TORSDOF 1
ENDMDL
