MODEL 1
REMARK minimizedAffinity 0.337685943
REMARK minimizedRMSD -1
REMARK  1 active torsions:
REMARK  status: ('A' for Active; 'I' for Inactive)
REMARK    1  A    between atoms: C1_2  and  C2_3 
ROOT
ATOM      1  C2  UNL d   1       3.539  -3.716  -1.221  0.00  0.00    -0.077 A 
ATOM      2  C3  UNL d   1       4.671  -4.423  -1.651  0.00  0.00     0.002 A 
ATOM      3  C4  UNL d   1       4.851  -4.712  -3.005  0.00  0.00     0.002 A 
ATOM      4  C5  UNL d   1       3.906  -4.296  -3.940  0.00  0.00    -0.004 A 
ATOM      5  C6  UNL d   1       2.775  -3.594  -3.522  0.00  0.00     0.002 A 
ATOM      6  C7  UNL d   1       2.593  -3.305  -2.169  0.00  0.00     0.002 A 
ENDROOT
BRANCH   1   7
ATOM      7  C1  UNL d   1       3.367  -3.360   0.232  0.00  0.00     0.055 C 
ATOM      8  C   UNL d   1       3.989  -2.008   0.548  0.00  0.00     0.019 C 
ENDBRANCH   1   7
TORSDOF 1
ENDMDL
