MODEL 1
REMARK minimizedAffinity 7.23102045
REMARK minimizedRMSD -1
REMARK  1 active torsions:
REMARK  status: ('A' for Active; 'I' for Inactive)
REMARK    1  A    between atoms: C1_2  and  C2_3 
ROOT
ATOM      1  C2  UNL d   1      -1.855  -5.992  -2.381  0.00  0.00    -0.077 A 
ATOM      2  C3  UNL d   1      -3.192  -5.996  -2.805  0.00  0.00     0.002 A 
ATOM      3  C4  UNL d   1      -4.229  -6.000  -1.871  0.00  0.00     0.002 A 
ATOM      4  C5  UNL d   1      -3.941  -5.995  -0.507  0.00  0.00    -0.004 A 
ATOM      5  C6  UNL d   1      -2.615  -5.992  -0.076  0.00  0.00     0.002 A 
ATOM      6  C7  UNL d   1      -1.577  -5.990  -1.008  0.00  0.00     0.002 A 
ENDROOT
BRANCH   1   7
ATOM      7  C1  UNL d   1      -0.735  -5.938  -3.387  0.00  0.00     0.055 C 
ATOM      8  C   UNL d   1       0.624  -5.982  -2.705  0.00  0.00     0.019 C 
ENDBRANCH   1   7
TORSDOF 1
ENDMDL
