MODEL 1
REMARK minimizedAffinity 5.64118862
REMARK minimizedRMSD -1
REMARK  1 active torsions:
REMARK  status: ('A' for Active; 'I' for Inactive)
REMARK    1  A    between atoms: C1_2  and  C2_3 
ROOT
ATOM      1  C2  UNL d   1      -3.529   0.324   3.744  0.00  0.00    -0.077 A 
ATOM      2  C3  UNL d   1      -3.897  -0.200   2.497  0.00  0.00     0.002 A 
ATOM      3  C4  UNL d   1      -4.279  -1.537   2.377  0.00  0.00     0.002 A 
ATOM      4  C5  UNL d   1      -4.301  -2.360   3.501  0.00  0.00    -0.004 A 
ATOM      5  C6  UNL d   1      -3.935  -1.850   4.745  0.00  0.00     0.002 A 
ATOM      6  C7  UNL d   1      -3.552  -0.513   4.867  0.00  0.00     0.002 A 
ENDROOT
BRANCH   1   7
ATOM      7  C1  UNL d   1      -3.163   1.779   3.884  0.00  0.00     0.055 C 
ATOM      8  C   UNL d   1      -4.004   2.460   4.954  0.00  0.00     0.019 C 
ENDBRANCH   1   7
TORSDOF 1
ENDMDL
