MODEL 1
REMARK minimizedAffinity 7.33115053
REMARK minimizedRMSD -1
REMARK  1 active torsions:
REMARK  status: ('A' for Active; 'I' for Inactive)
REMARK    1  A    between atoms: C1_2  and  C2_3 
ROOT
ATOM      1  C2  UNL d   1       1.809  -0.276  -2.465  0.00  0.00    -0.077 A 
ATOM      2  C3  UNL d   1       2.108  -0.451  -1.107  0.00  0.00     0.002 A 
ATOM      3  C4  UNL d   1       2.544  -1.690  -0.634  0.00  0.00     0.002 A 
ATOM      4  C5  UNL d   1       2.689  -2.761  -1.513  0.00  0.00    -0.004 A 
ATOM      5  C6  UNL d   1       2.392  -2.597  -2.866  0.00  0.00     0.002 A 
ATOM      6  C7  UNL d   1       1.955  -1.360  -3.340  0.00  0.00     0.002 A 
ENDROOT
BRANCH   1   7
ATOM      7  C1  UNL d   1       1.385   1.073  -2.986  0.00  0.00     0.055 C 
ATOM      8  C   UNL d   1       1.956   2.199  -2.135  0.00  0.00     0.019 C 
ENDBRANCH   1   7
TORSDOF 1
ENDMDL
