MODEL 1
REMARK minimizedAffinity 3.86889172
REMARK minimizedRMSD -1
REMARK  0 active torsions:
REMARK  status: ('A' for Active; 'I' for Inactive)
ROOT
ATOM      1  C2' OXE d   1      -0.537   1.213   0.115  0.00  0.00     0.078 C 
ATOM      2  C1' OXE d   1       0.252  -0.102   2.467  0.00  0.00     0.078 C 
ATOM      3  C1  OXE d   1       0.621   1.352   2.317  0.00  0.00    -0.078 A 
ATOM      4  C2  OXE d   1       0.272   1.976   1.143  0.00  0.00    -0.078 A 
ATOM      5  C3  OXE d   1       0.541   3.331   0.976  0.00  0.00     0.003 A 
ATOM      6  C4  OXE d   1       1.298   4.026   1.926  0.00  0.00    -0.002 A 
ATOM      7  C5  OXE d   1       1.698   3.400   3.111  0.00  0.00    -0.002 A 
ATOM      8  C6  OXE d   1       1.332   2.078   3.340  0.00  0.00     0.003 A 
ENDROOT
TORSDOF 0
ENDMDL
