MODEL 1
REMARK minimizedAffinity -2.75211692
REMARK minimizedRMSD -1
REMARK  0 active torsions:
REMARK  status: ('A' for Active; 'I' for Inactive)
ROOT
ATOM      1  C2' OXE d   1       1.113  -0.547   1.030  0.00  0.00     0.078 C 
ATOM      2  C1' OXE d   1      -0.459   0.552  -1.019  0.00  0.00     0.078 C 
ATOM      3  C1  OXE d   1      -0.452  -0.949  -0.865  0.00  0.00    -0.078 A 
ATOM      4  C2  OXE d   1       0.356  -1.481   0.110  0.00  0.00    -0.078 A 
ATOM      5  C3  OXE d   1       0.358  -2.855   0.330  0.00  0.00     0.003 A 
ATOM      6  C4  OXE d   1      -0.336  -3.712  -0.532  0.00  0.00    -0.002 A 
ATOM      7  C5  OXE d   1      -1.135  -3.193  -1.557  0.00  0.00    -0.002 A 
ATOM      8  C6  OXE d   1      -1.237  -1.815  -1.710  0.00  0.00     0.003 A 
ENDROOT
TORSDOF 0
ENDMDL
