MODEL 1
REMARK minimizedAffinity 9.76880455
REMARK minimizedRMSD -1
REMARK  0 active torsions:
REMARK  status: ('A' for Active; 'I' for Inactive)
ROOT
ATOM      1  C2' OXE d   1      -5.977  -2.680   2.152  0.00  0.00     0.078 C 
ATOM      2  C1' OXE d   1      -5.998  -4.220   4.499  0.00  0.00     0.078 C 
ATOM      3  C1  OXE d   1      -5.880  -2.724   4.641  0.00  0.00    -0.078 A 
ATOM      4  C2  OXE d   1      -5.824  -1.981   3.486  0.00  0.00    -0.078 A 
ATOM      5  C3  OXE d   1      -5.771  -0.592   3.561  0.00  0.00     0.003 A 
ATOM      6  C4  OXE d   1      -5.619   0.045   4.798  0.00  0.00    -0.002 A 
ATOM      7  C5  OXE d   1      -5.634  -0.695   5.985  0.00  0.00    -0.002 A 
ATOM      8  C6  OXE d   1      -5.806  -2.073   5.926  0.00  0.00     0.003 A 
ENDROOT
TORSDOF 0
ENDMDL
