MODEL 1
REMARK minimizedAffinity 3.574332
REMARK minimizedRMSD -1
REMARK  0 active torsions:
REMARK  status: ('A' for Active; 'I' for Inactive)
ROOT
ATOM      1  C2' OXE d   1       0.539   3.831   0.755  0.00  0.00     0.078 C 
ATOM      2  C1' OXE d   1      -0.178   1.553  -0.719  0.00  0.00     0.078 C 
ATOM      3  C1  OXE d   1       0.133   1.374   0.745  0.00  0.00    -0.078 A 
ATOM      4  C2  OXE d   1       0.529   2.486   1.449  0.00  0.00    -0.078 A 
ATOM      5  C3  OXE d   1       0.775   2.387   2.815  0.00  0.00     0.003 A 
ATOM      6  C4  OXE d   1       0.773   1.137   3.446  0.00  0.00    -0.002 A 
ATOM      7  C5  OXE d   1       0.411  -0.015   2.740  0.00  0.00    -0.002 A 
ATOM      8  C6  OXE d   1       0.048   0.092   1.402  0.00  0.00     0.003 A 
ENDROOT
TORSDOF 0
ENDMDL
