MODEL 1
REMARK minimizedAffinity 9.19441223
REMARK minimizedRMSD -1
REMARK  0 active torsions:
REMARK  status: ('A' for Active; 'I' for Inactive)
ROOT
ATOM      1  C2' OXE d   1       0.489   0.524   3.498  0.00  0.00     0.078 C 
ATOM      2  C1' OXE d   1      -0.340   1.414   0.968  0.00  0.00     0.078 C 
ATOM      3  C1  OXE d   1       0.564   2.317   1.770  0.00  0.00    -0.078 A 
ATOM      4  C2  OXE d   1       0.927   1.894   3.026  0.00  0.00    -0.078 A 
ATOM      5  C3  OXE d   1       1.803   2.663   3.786  0.00  0.00     0.003 A 
ATOM      6  C4  OXE d   1       2.194   3.933   3.347  0.00  0.00    -0.002 A 
ATOM      7  C5  OXE d   1       1.804   4.401   2.088  0.00  0.00    -0.002 A 
ATOM      8  C6  OXE d   1       1.025   3.588   1.271  0.00  0.00     0.003 A 
ENDROOT
TORSDOF 0
ENDMDL
