MODEL 1
REMARK minimizedAffinity 7.66561365
REMARK minimizedRMSD -1
REMARK  0 active torsions:
REMARK  status: ('A' for Active; 'I' for Inactive)
ROOT
ATOM      1  C2' OXE d   1       0.639  -2.103  -0.232  0.00  0.00     0.078 C 
ATOM      2  C1' OXE d   1      -0.369   0.293  -1.292  0.00  0.00     0.078 C 
ATOM      3  C1  OXE d   1       0.164   0.317   0.119  0.00  0.00    -0.078 A 
ATOM      4  C2  OXE d   1       0.612  -0.871   0.646  0.00  0.00    -0.078 A 
ATOM      5  C3  OXE d   1       1.164  -0.894   1.924  0.00  0.00     0.003 A 
ATOM      6  C4  OXE d   1       1.126   0.248   2.733  0.00  0.00    -0.002 A 
ATOM      7  C5  OXE d   1       0.637   1.459   2.229  0.00  0.00    -0.002 A 
ATOM      8  C6  OXE d   1       0.193   1.520   0.913  0.00  0.00     0.003 A 
ENDROOT
TORSDOF 0
ENDMDL
