MODEL 1
REMARK minimizedAffinity -0.204755291
REMARK minimizedRMSD -1
REMARK  0 active torsions:
REMARK  status: ('A' for Active; 'I' for Inactive)
ROOT
ATOM      1  C2' OXE d   1      -2.146   0.376  -1.882  0.00  0.00     0.078 C 
ATOM      2  C1' OXE d   1       0.559   0.626  -2.588  0.00  0.00     0.078 C 
ATOM      3  C1  OXE d   1       0.236   0.204  -1.176  0.00  0.00    -0.078 A 
ATOM      4  C2  OXE d   1      -1.090   0.130  -0.826  0.00  0.00    -0.078 A 
ATOM      5  C3  OXE d   1      -1.444  -0.307   0.448  0.00  0.00     0.003 A 
ATOM      6  C4  OXE d   1      -0.461  -0.523   1.421  0.00  0.00    -0.002 A 
ATOM      7  C5  OXE d   1       0.895  -0.415   1.097  0.00  0.00    -0.002 A 
ATOM      8  C6  OXE d   1       1.261  -0.094  -0.206  0.00  0.00     0.003 A 
ENDROOT
TORSDOF 0
ENDMDL
