MODEL 1
REMARK minimizedAffinity 7.20774126
REMARK minimizedRMSD -1
REMARK  2 active torsions:
REMARK  status: ('A' for Active; 'I' for Inactive)
REMARK    1  A    between atoms: C2'_3  and  C1'_4 
REMARK    2  A    between atoms: C1'_4  and  C1_5 
ROOT
ATOM      1  C1  I4B d   1       1.333   1.992   1.371  0.00  0.00    -0.075 A 
ATOM      2  C2  I4B d   1       2.459   2.776   1.399  0.00  0.00     0.003 A 
ATOM      3  C3  I4B d   1       3.569   2.458   0.579  0.00  0.00     0.002 A 
ATOM      4  C4  I4B d   1       3.530   1.327  -0.210  0.00  0.00    -0.004 A 
ATOM      5  C5  I4B d   1       2.378   0.546  -0.254  0.00  0.00     0.002 A 
ATOM      6  C6  I4B d   1       1.268   0.887   0.532  0.00  0.00     0.003 A 
ENDROOT
BRANCH   1   7
ATOM      7  C1' I4B d   1       0.191   2.337   2.274  0.00  0.00     0.060 C 
BRANCH   7   8
ATOM      8  C2' I4B d   1      -0.839   1.231   2.169  0.00  0.00    -0.013 C 
ATOM      9  C4' I4B d   1      -0.379  -0.012   2.884  0.00  0.00     0.013 C 
ATOM     10  C3' I4B d   1      -2.126   1.742   2.743  0.00  0.00     0.013 C 
ENDBRANCH   7   8
ENDBRANCH   1   7
TORSDOF 2
ENDMDL
