MODEL 1
REMARK minimizedAffinity 2.42492223
REMARK minimizedRMSD -1
REMARK  2 active torsions:
REMARK  status: ('A' for Active; 'I' for Inactive)
REMARK    1  A    between atoms: C2'_3  and  C1'_4 
REMARK    2  A    between atoms: C1'_4  and  C1_5 
ROOT
ATOM      1  C1  I4B d   1       2.570   0.636   0.673  0.00  0.00    -0.075 A 
ATOM      2  C2  I4B d   1       3.782   0.617   0.028  0.00  0.00     0.003 A 
ATOM      3  C3  I4B d   1       4.070  -0.396  -0.919  0.00  0.00     0.002 A 
ATOM      4  C4  I4B d   1       3.144  -1.392  -1.151  0.00  0.00    -0.004 A 
ATOM      5  C5  I4B d   1       1.907  -1.359  -0.514  0.00  0.00     0.002 A 
ATOM      6  C6  I4B d   1       1.613  -0.332   0.395  0.00  0.00     0.003 A 
ENDROOT
BRANCH   1   7
ATOM      7  C1' I4B d   1       2.311   1.701   1.691  0.00  0.00     0.060 C 
BRANCH   7   8
ATOM      8  C2' I4B d   1       0.938   2.282   1.420  0.00  0.00    -0.013 C 
ATOM      9  C4' I4B d   1       0.006   2.040   2.577  0.00  0.00     0.013 C 
ATOM     10  C3' I4B d   1       1.101   3.749   1.153  0.00  0.00     0.013 C 
ENDBRANCH   7   8
ENDBRANCH   1   7
TORSDOF 2
ENDMDL
