MODEL 1
REMARK minimizedAffinity 5.22400331
REMARK minimizedRMSD -1
REMARK  2 active torsions:
REMARK  status: ('A' for Active; 'I' for Inactive)
REMARK    1  A    between atoms: C2'_3  and  C1'_4 
REMARK    2  A    between atoms: C1'_4  and  C1_5 
ROOT
ATOM      1  C1  I4B d   1       1.086   1.486   1.457  0.00  0.00    -0.075 A 
ATOM      2  C2  I4B d   1       1.117   2.799   1.858  0.00  0.00     0.003 A 
ATOM      3  C3  I4B d   1      -0.012   3.378   2.487  0.00  0.00     0.002 A 
ATOM      4  C4  I4B d   1      -1.159   2.629   2.649  0.00  0.00    -0.004 A 
ATOM      5  C5  I4B d   1      -1.181   1.292   2.262  0.00  0.00     0.002 A 
ATOM      6  C6  I4B d   1      -0.047   0.713   1.673  0.00  0.00     0.003 A 
ENDROOT
BRANCH   1   7
ATOM      7  C1' I4B d   1       2.284   0.916   0.766  0.00  0.00     0.060 C 
BRANCH   7   8
ATOM      8  C2' I4B d   1       1.954   0.783  -0.707  0.00  0.00    -0.013 C 
ATOM      9  C4' I4B d   1       2.565   1.903  -1.506  0.00  0.00     0.013 C 
ATOM     10  C3' I4B d   1       2.454  -0.552  -1.174  0.00  0.00     0.013 C 
ENDBRANCH   7   8
ENDBRANCH   1   7
TORSDOF 2
ENDMDL
