MODEL 1
REMARK minimizedAffinity 7.7661109
REMARK minimizedRMSD -1
REMARK  2 active torsions:
REMARK  status: ('A' for Active; 'I' for Inactive)
REMARK    1  A    between atoms: C2'_3  and  C1'_4 
REMARK    2  A    between atoms: C1'_4  and  C1_5 
ROOT
ATOM      1  C1  I4B d   1       1.639   2.394   1.482  0.00  0.00    -0.075 A 
ATOM      2  C2  I4B d   1       1.398   1.283   2.251  0.00  0.00     0.003 A 
ATOM      3  C3  I4B d   1       0.121   1.079   2.829  0.00  0.00     0.002 A 
ATOM      4  C4  I4B d   1      -0.863   2.030   2.654  0.00  0.00    -0.004 A 
ATOM      5  C5  I4B d   1      -0.625   3.144   1.855  0.00  0.00     0.002 A 
ATOM      6  C6  I4B d   1       0.630   3.322   1.254  0.00  0.00     0.003 A 
ENDROOT
BRANCH   1   7
ATOM      7  C1' I4B d   1       3.008   2.594   0.914  0.00  0.00     0.060 C 
BRANCH   7   8
ATOM      8  C2' I4B d   1       3.118   1.759  -0.345  0.00  0.00    -0.013 C 
ATOM      9  C4' I4B d   1       4.094   0.627  -0.165  0.00  0.00     0.013 C 
ATOM     10  C3' I4B d   1       1.750   1.246  -0.682  0.00  0.00     0.013 C 
ENDBRANCH   7   8
ENDBRANCH   1   7
TORSDOF 2
ENDMDL
