MODEL 1
REMARK minimizedAffinity 10.10536
REMARK minimizedRMSD -1
REMARK  2 active torsions:
REMARK  status: ('A' for Active; 'I' for Inactive)
REMARK    1  A    between atoms: C2'_3  and  C1'_4 
REMARK    2  A    between atoms: C1'_4  and  C1_5 
ROOT
ATOM      1  C1  I4B d   1       1.800   0.791  -0.841  0.00  0.00    -0.075 A 
ATOM      2  C2  I4B d   1       1.604  -0.511  -1.227  0.00  0.00     0.003 A 
ATOM      3  C3  I4B d   1       1.027  -0.802  -2.487  0.00  0.00     0.002 A 
ATOM      4  C4  I4B d   1       0.617   0.233  -3.302  0.00  0.00    -0.004 A 
ATOM      5  C5  I4B d   1       0.837   1.553  -2.919  0.00  0.00     0.002 A 
ATOM      6  C6  I4B d   1       1.444   1.834  -1.686  0.00  0.00     0.003 A 
ENDROOT
BRANCH   1   7
ATOM      7  C1' I4B d   1       2.382   1.063   0.510  0.00  0.00     0.060 C 
BRANCH   7   8
ATOM      8  C2' I4B d   1       1.377   1.882   1.295  0.00  0.00    -0.013 C 
ATOM      9  C4' I4B d   1       1.147   1.297   2.663  0.00  0.00     0.013 C 
ATOM     10  C3' I4B d   1       1.895   3.286   1.386  0.00  0.00     0.013 C 
ENDBRANCH   7   8
ENDBRANCH   1   7
TORSDOF 2
ENDMDL
