MODEL 1
REMARK minimizedAffinity 11.896945
REMARK minimizedRMSD -1
REMARK  2 active torsions:
REMARK  status: ('A' for Active; 'I' for Inactive)
REMARK    1  A    between atoms: C2'_3  and  C1'_4 
REMARK    2  A    between atoms: C1'_4  and  C1_5 
ROOT
ATOM      1  C1  I4B d   1       1.827   1.121  -0.368  0.00  0.00    -0.075 A 
ATOM      2  C2  I4B d   1       1.657  -0.220  -0.129  0.00  0.00     0.003 A 
ATOM      3  C3  I4B d   1       0.886  -1.010  -1.015  0.00  0.00     0.002 A 
ATOM      4  C4  I4B d   1       0.264  -0.413  -2.092  0.00  0.00    -0.004 A 
ATOM      5  C5  I4B d   1       0.455   0.942  -2.346  0.00  0.00     0.002 A 
ATOM      6  C6  I4B d   1       1.252   1.712  -1.486  0.00  0.00     0.003 A 
ENDROOT
BRANCH   1   7
ATOM      7  C1' I4B d   1       2.621   1.933   0.606  0.00  0.00     0.060 C 
BRANCH   7   8
ATOM      8  C2' I4B d   1       1.661   2.503   1.630  0.00  0.00    -0.013 C 
ATOM      9  C4' I4B d   1       0.626   3.382   0.978  0.00  0.00     0.013 C 
ATOM     10  C3' I4B d   1       1.019   1.356   2.353  0.00  0.00     0.013 C 
ENDBRANCH   7   8
ENDBRANCH   1   7
TORSDOF 2
ENDMDL
