MODEL 1
REMARK minimizedAffinity -0.26983127
REMARK minimizedRMSD -1
REMARK  2 active torsions:
REMARK  status: ('A' for Active; 'I' for Inactive)
REMARK    1  A    between atoms: C2'_3  and  C1'_4 
REMARK    2  A    between atoms: C1'_4  and  C1_5 
ROOT
ATOM      1  C1  I4B d   1       0.747  -1.098   0.370  0.00  0.00    -0.075 A 
ATOM      2  C2  I4B d   1       1.107   0.012   1.094  0.00  0.00     0.003 A 
ATOM      3  C3  I4B d   1       2.229   0.783   0.704  0.00  0.00     0.002 A 
ATOM      4  C4  I4B d   1       2.986   0.384  -0.377  0.00  0.00    -0.004 A 
ATOM      5  C5  I4B d   1       2.606  -0.728  -1.123  0.00  0.00     0.002 A 
ATOM      6  C6  I4B d   1       1.472  -1.467  -0.755  0.00  0.00     0.003 A 
ENDROOT
BRANCH   1   7
ATOM      7  C1' I4B d   1      -0.424  -1.908   0.828  0.00  0.00     0.060 C 
BRANCH   7   8
ATOM      8  C2' I4B d   1      -0.317  -3.281   0.195  0.00  0.00    -0.013 C 
ATOM      9  C4' I4B d   1       0.440  -4.233   1.083  0.00  0.00     0.013 C 
ATOM     10  C3' I4B d   1      -1.707  -3.777  -0.070  0.00  0.00     0.013 C 
ENDBRANCH   7   8
ENDBRANCH   1   7
TORSDOF 2
ENDMDL
