MODEL 1
REMARK minimizedAffinity 16.6494904
REMARK minimizedRMSD -1
REMARK  2 active torsions:
REMARK  status: ('A' for Active; 'I' for Inactive)
REMARK    1  A    between atoms: C2'_3  and  C1'_4 
REMARK    2  A    between atoms: C1'_4  and  C1_5 
ROOT
ATOM      1  C1  I4B d   1      -4.018  -5.619  -3.364  0.00  0.00    -0.075 A 
ATOM      2  C2  I4B d   1      -3.336  -5.298  -2.217  0.00  0.00     0.003 A 
ATOM      3  C3  I4B d   1      -1.920  -5.310  -2.203  0.00  0.00     0.002 A 
ATOM      4  C4  I4B d   1      -1.232  -5.696  -3.336  0.00  0.00    -0.004 A 
ATOM      5  C5  I4B d   1      -1.926  -5.999  -4.504  0.00  0.00     0.002 A 
ATOM      6  C6  I4B d   1      -3.327  -5.948  -4.522  0.00  0.00     0.003 A 
ENDROOT
BRANCH   1   7
ATOM      7  C1' I4B d   1      -5.514  -5.627  -3.334  0.00  0.00     0.060 C 
BRANCH   7   8
ATOM      8  C2' I4B d   1      -6.000  -4.320  -3.925  0.00  0.00    -0.013 C 
ATOM      9  C4' I4B d   1      -5.378  -3.140  -3.224  0.00  0.00     0.013 C 
ATOM     10  C3' I4B d   1      -5.665  -4.319  -5.386  0.00  0.00     0.013 C 
ENDBRANCH   7   8
ENDBRANCH   1   7
TORSDOF 2
ENDMDL
