MODEL 1
REMARK minimizedAffinity 14.9077024
REMARK minimizedRMSD -1
REMARK  2 active torsions:
REMARK  status: ('A' for Active; 'I' for Inactive)
REMARK    1  A    between atoms: C2'_3  and  C1'_4 
REMARK    2  A    between atoms: C1'_4  and  C1_5 
ROOT
ATOM      1  C1  I4B d   1       1.587   1.376  -0.501  0.00  0.00    -0.075 A 
ATOM      2  C2  I4B d   1       2.063   0.089  -0.559  0.00  0.00     0.003 A 
ATOM      3  C3  I4B d   1       1.827  -0.707  -1.706  0.00  0.00     0.002 A 
ATOM      4  C4  I4B d   1       1.072  -0.198  -2.743  0.00  0.00    -0.004 A 
ATOM      5  C5  I4B d   1       0.610   1.114  -2.692  0.00  0.00     0.002 A 
ATOM      6  C6  I4B d   1       0.880   1.910  -1.570  0.00  0.00     0.003 A 
ENDROOT
BRANCH   1   7
ATOM      7  C1' I4B d   1       1.826   2.177   0.739  0.00  0.00     0.060 C 
BRANCH   7   8
ATOM      8  C2' I4B d   1       1.577   3.635   0.408  0.00  0.00    -0.013 C 
ATOM      9  C4' I4B d   1       0.196   4.062   0.831  0.00  0.00     0.013 C 
ATOM     10  C3' I4B d   1       2.631   4.452   1.094  0.00  0.00     0.013 C 
ENDBRANCH   7   8
ENDBRANCH   1   7
TORSDOF 2
ENDMDL
