MODEL 1
REMARK minimizedAffinity 10.6189232
REMARK minimizedRMSD -1
REMARK  2 active torsions:
REMARK  status: ('A' for Active; 'I' for Inactive)
REMARK    1  A    between atoms: C2'_3  and  C1'_4 
REMARK    2  A    between atoms: C1'_4  and  C1_5 
ROOT
ATOM      1  C1  I4B d   1      -1.472   1.702   2.694  0.00  0.00    -0.075 A 
ATOM      2  C2  I4B d   1      -1.040   2.885   2.148  0.00  0.00     0.003 A 
ATOM      3  C3  I4B d   1       0.338   3.094   1.896  0.00  0.00     0.002 A 
ATOM      4  C4  I4B d   1       1.248   2.119   2.250  0.00  0.00    -0.004 A 
ATOM      5  C5  I4B d   1       0.806   0.911   2.782  0.00  0.00     0.002 A 
ATOM      6  C6  I4B d   1      -0.563   0.696   2.994  0.00  0.00     0.003 A 
ENDROOT
BRANCH   1   7
ATOM      7  C1' I4B d   1      -2.930   1.529   2.977  0.00  0.00     0.060 C 
BRANCH   7   8
ATOM      8  C2' I4B d   1      -3.199   0.048   3.150  0.00  0.00    -0.013 C 
ATOM      9  C4' I4B d   1      -4.092  -0.210   4.335  0.00  0.00     0.013 C 
ATOM     10  C3' I4B d   1      -3.820  -0.461   1.883  0.00  0.00     0.013 C 
ENDBRANCH   7   8
ENDBRANCH   1   7
TORSDOF 2
ENDMDL
