MODEL 1
REMARK minimizedAffinity 6.70952749
REMARK minimizedRMSD -1
REMARK  2 active torsions:
REMARK  status: ('A' for Active; 'I' for Inactive)
REMARK    1  A    between atoms: C2'_3  and  C1'_4 
REMARK    2  A    between atoms: C1'_4  and  C1_5 
ROOT
ATOM      1  C1  I4B d   1       1.605   0.854  -0.820  0.00  0.00    -0.075 A 
ATOM      2  C2  I4B d   1       1.385  -0.442  -1.216  0.00  0.00     0.003 A 
ATOM      3  C3  I4B d   1       0.705  -0.712  -2.428  0.00  0.00     0.002 A 
ATOM      4  C4  I4B d   1       0.220   0.336  -3.183  0.00  0.00    -0.004 A 
ATOM      5  C5  I4B d   1       0.464   1.650  -2.792  0.00  0.00     0.002 A 
ATOM      6  C6  I4B d   1       1.171   1.911  -1.610  0.00  0.00     0.003 A 
ENDROOT
BRANCH   1   7
ATOM      7  C1' I4B d   1       2.297   1.103   0.482  0.00  0.00     0.060 C 
BRANCH   7   8
ATOM      8  C2' I4B d   1       1.280   1.668   1.452  0.00  0.00    -0.013 C 
ATOM      9  C4' I4B d   1       1.225   0.857   2.719  0.00  0.00     0.013 C 
ATOM     10  C3' I4B d   1       1.652   3.092   1.736  0.00  0.00     0.013 C 
ENDBRANCH   7   8
ENDBRANCH   1   7
TORSDOF 2
ENDMDL
