MODEL 1
REMARK minimizedAffinity 11.0193415
REMARK minimizedRMSD -1
REMARK  2 active torsions:
REMARK  status: ('A' for Active; 'I' for Inactive)
REMARK    1  A    between atoms: C2'_3  and  C1'_4 
REMARK    2  A    between atoms: C1'_4  and  C1_5 
ROOT
ATOM      1  C1  I4B d   1       1.869   2.283   1.388  0.00  0.00    -0.075 A 
ATOM      2  C2  I4B d   1       1.009   3.286   1.014  0.00  0.00     0.003 A 
ATOM      3  C3  I4B d   1      -0.222   3.458   1.692  0.00  0.00     0.002 A 
ATOM      4  C4  I4B d   1      -0.574   2.580   2.697  0.00  0.00    -0.004 A 
ATOM      5  C5  I4B d   1       0.309   1.578   3.089  0.00  0.00     0.002 A 
ATOM      6  C6  I4B d   1       1.544   1.436   2.439  0.00  0.00     0.003 A 
ENDROOT
BRANCH   1   7
ATOM      7  C1' I4B d   1       3.146   2.109   0.629  0.00  0.00     0.060 C 
BRANCH   7   8
ATOM      8  C2' I4B d   1       3.319   0.632   0.339  0.00  0.00    -0.013 C 
ATOM      9  C4' I4B d   1       2.148   0.087  -0.436  0.00  0.00     0.013 C 
ATOM     10  C3' I4B d   1       4.600   0.457  -0.421  0.00  0.00     0.013 C 
ENDBRANCH   7   8
ENDBRANCH   1   7
TORSDOF 2
ENDMDL
