MODEL 1
REMARK minimizedAffinity -4.36688662
REMARK minimizedRMSD -1
REMARK  1 active torsions:
REMARK  status: ('A' for Active; 'I' for Inactive)
REMARK    1  A    between atoms: C1_2  and  C2_3 
ROOT
ATOM      1  C2  UNL d   1      -0.277   0.061  -0.221  0.00  0.00    -0.077 A 
ATOM      2  C3  UNL d   1      -0.979   1.271  -0.133  0.00  0.00     0.002 A 
ATOM      3  C4  UNL d   1      -1.001   1.989   1.064  0.00  0.00     0.002 A 
ATOM      4  C5  UNL d   1      -0.321   1.507   2.180  0.00  0.00    -0.004 A 
ATOM      5  C6  UNL d   1       0.378   0.303   2.104  0.00  0.00     0.002 A 
ATOM      6  C7  UNL d   1       0.401  -0.416   0.908  0.00  0.00     0.002 A 
ENDROOT
BRANCH   1   7
ATOM      7  C1  UNL d   1      -0.210  -0.690  -1.526  0.00  0.00     0.055 C 
ATOM      8  C   UNL d   1      -0.280  -2.194  -1.303  0.00  0.00     0.019 C 
ENDBRANCH   1   7
TORSDOF 1
ENDMDL
