MODEL 1
REMARK minimizedAffinity -4.21065617
REMARK minimizedRMSD -1
REMARK  1 active torsions:
REMARK  status: ('A' for Active; 'I' for Inactive)
REMARK    1  A    between atoms: C1_2  and  C2_3 
ROOT
ATOM      1  C2  UNL d   1      -0.707   0.724   0.010  0.00  0.00    -0.077 A 
ATOM      2  C3  UNL d   1      -0.106  -0.543   0.008  0.00  0.00     0.002 A 
ATOM      3  C4  UNL d   1       0.733  -0.925  -1.040  0.00  0.00     0.002 A 
ATOM      4  C5  UNL d   1       0.983  -0.045  -2.090  0.00  0.00    -0.004 A 
ATOM      5  C6  UNL d   1       0.389   1.216  -2.099  0.00  0.00     0.002 A 
ATOM      6  C7  UNL d   1      -0.452   1.599  -1.053  0.00  0.00     0.002 A 
ENDROOT
BRANCH   1   7
ATOM      7  C1  UNL d   1      -1.574   1.156   1.164  0.00  0.00     0.055 C 
ATOM      8  C   UNL d   1      -0.866   2.184   2.034  0.00  0.00     0.019 C 
ENDBRANCH   1   7
TORSDOF 1
ENDMDL
