MODEL 1
REMARK minimizedAffinity -4.56601667
REMARK minimizedRMSD -1
REMARK  1 active torsions:
REMARK  status: ('A' for Active; 'I' for Inactive)
REMARK    1  A    between atoms: C1_2  and  C2_3 
ROOT
ATOM      1  C2  UNL d   1      -0.090   0.716   0.679  0.00  0.00    -0.077 A 
ATOM      2  C3  UNL d   1      -0.148   1.661   1.713  0.00  0.00     0.002 A 
ATOM      3  C4  UNL d   1      -0.274   3.021   1.420  0.00  0.00     0.002 A 
ATOM      4  C5  UNL d   1      -0.348   3.446   0.096  0.00  0.00    -0.004 A 
ATOM      5  C6  UNL d   1      -0.289   2.514  -0.939  0.00  0.00     0.002 A 
ATOM      6  C7  UNL d   1      -0.162   1.155  -0.649  0.00  0.00     0.002 A 
ENDROOT
BRANCH   1   7
ATOM      7  C1  UNL d   1      -0.004  -0.755   0.993  0.00  0.00     0.055 C 
ATOM      8  C   UNL d   1       0.271  -1.573  -0.260  0.00  0.00     0.019 C 
ENDBRANCH   1   7
TORSDOF 1
ENDMDL
