MODEL 1
REMARK minimizedAffinity -5.47277212
REMARK minimizedRMSD -1
REMARK  1 active torsions:
REMARK  status: ('A' for Active; 'I' for Inactive)
REMARK    1  A    between atoms: C1_2  and  C2_3 
ROOT
ATOM      1  C2  UNL d   1      -0.799   2.135   0.186  0.00  0.00    -0.077 A 
ATOM      2  C3  UNL d   1      -0.688   2.231   1.581  0.00  0.00     0.002 A 
ATOM      3  C4  UNL d   1      -0.258   1.135   2.331  0.00  0.00     0.002 A 
ATOM      4  C5  UNL d   1       0.069  -0.062   1.697  0.00  0.00    -0.004 A 
ATOM      5  C6  UNL d   1      -0.040  -0.167   0.311  0.00  0.00     0.002 A 
ATOM      6  C7  UNL d   1      -0.471   0.926  -0.441  0.00  0.00     0.002 A 
ENDROOT
BRANCH   1   7
ATOM      7  C1  UNL d   1      -1.215   3.331  -0.630  0.00  0.00     0.055 C 
ATOM      8  C   UNL d   1      -0.588   3.300  -2.016  0.00  0.00     0.019 C 
ENDBRANCH   1   7
TORSDOF 1
ENDMDL
