MODEL 1
REMARK minimizedAffinity -5.34132767
REMARK minimizedRMSD -1
REMARK  1 active torsions:
REMARK  status: ('A' for Active; 'I' for Inactive)
REMARK    1  A    between atoms: C1_2  and  C2_3 
ROOT
ATOM      1  C2  UNL d   1      -0.325   0.379   0.221  0.00  0.00    -0.077 A 
ATOM      2  C3  UNL d   1      -1.018   1.372  -0.485  0.00  0.00     0.002 A 
ATOM      3  C4  UNL d   1      -1.409   2.550   0.155  0.00  0.00     0.002 A 
ATOM      4  C5  UNL d   1      -1.109   2.747   1.501  0.00  0.00    -0.004 A 
ATOM      5  C6  UNL d   1      -0.422   1.763   2.212  0.00  0.00     0.002 A 
ATOM      6  C7  UNL d   1      -0.031   0.585   1.575  0.00  0.00     0.002 A 
ENDROOT
BRANCH   1   7
ATOM      7  C1  UNL d   1       0.142  -0.871  -0.480  0.00  0.00     0.055 C 
ATOM      8  C   UNL d   1       1.152  -0.549  -1.571  0.00  0.00     0.019 C 
ENDBRANCH   1   7
TORSDOF 1
ENDMDL
