MODEL 1
REMARK minimizedAffinity -4.33173275
REMARK minimizedRMSD -1
REMARK  1 active torsions:
REMARK  status: ('A' for Active; 'I' for Inactive)
REMARK    1  A    between atoms: C1_2  and  C2_3 
ROOT
ATOM      1  C2  UNL d   1       0.331  -1.266  -0.515  0.00  0.00    -0.077 A 
ATOM      2  C3  UNL d   1       0.577  -1.040   0.847  0.00  0.00     0.002 A 
ATOM      3  C4  UNL d   1       0.149   0.142   1.454  0.00  0.00     0.002 A 
ATOM      4  C5  UNL d   1      -0.530   1.104   0.709  0.00  0.00    -0.004 A 
ATOM      5  C6  UNL d   1      -0.776   0.889  -0.646  0.00  0.00     0.002 A 
ATOM      6  C7  UNL d   1      -0.349  -0.291  -1.255  0.00  0.00     0.002 A 
ENDROOT
BRANCH   1   7
ATOM      7  C1  UNL d   1       0.748  -2.562  -1.161  0.00  0.00     0.055 C 
ATOM      8  C   UNL d   1      -0.461  -3.386  -1.580  0.00  0.00     0.019 C 
ENDBRANCH   1   7
TORSDOF 1
ENDMDL
