MODEL 1
REMARK minimizedAffinity -4.67235947
REMARK minimizedRMSD -1
REMARK  0 active torsions:
REMARK  status: ('A' for Active; 'I' for Inactive)
ROOT
ATOM      1  C   UNL d   1      -1.210   1.279   2.760  0.00  0.00     0.078 C 
ATOM      2  C1  UNL d   1      -0.402   0.591   1.701  0.00  0.00    -0.077 A 
ATOM      3  C2  UNL d   1      -0.948   0.318   0.441  0.00  0.00    -0.001 A 
ATOM      4  C3  UNL d   1      -0.188  -0.332  -0.533  0.00  0.00     0.003 A 
ATOM      5  C4  UNL d   1       1.124  -0.714  -0.256  0.00  0.00    -0.005 A 
ATOM      6  C5  UNL d   1       1.675  -0.448   0.995  0.00  0.00     0.003 A 
ATOM      7  C6  UNL d   1       0.916   0.201   1.970  0.00  0.00    -0.001 A 
ENDROOT
TORSDOF 0
ENDMDL
