MODEL 1
REMARK minimizedAffinity -2.19434166
REMARK minimizedRMSD -1
REMARK  0 active torsions:
REMARK  status: ('A' for Active; 'I' for Inactive)
ROOT
ATOM      1  C   UNL d   1       0.353  -0.869  -2.163  0.00  0.00     0.078 C 
ATOM      2  C1  UNL d   1       0.671  -0.480  -0.750  0.00  0.00    -0.077 A 
ATOM      3  C2  UNL d   1      -0.046   0.534  -0.102  0.00  0.00    -0.001 A 
ATOM      4  C3  UNL d   1       0.267   0.892   1.210  0.00  0.00     0.003 A 
ATOM      5  C4  UNL d   1       1.298   0.241   1.886  0.00  0.00    -0.005 A 
ATOM      6  C5  UNL d   1       2.018  -0.767   1.249  0.00  0.00     0.003 A 
ATOM      7  C6  UNL d   1       1.707  -1.126  -0.064  0.00  0.00    -0.001 A 
ENDROOT
TORSDOF 0
ENDMDL
