MODEL 1
REMARK minimizedAffinity -4.25865841
REMARK minimizedRMSD -1
REMARK  0 active torsions:
REMARK  status: ('A' for Active; 'I' for Inactive)
ROOT
ATOM      1  C   UNL d   1      -1.063   1.499   2.852  0.00  0.00     0.078 C 
ATOM      2  C1  UNL d   1      -0.694   0.782   1.587  0.00  0.00    -0.077 A 
ATOM      3  C2  UNL d   1      -1.677   0.361   0.684  0.00  0.00    -0.001 A 
ATOM      4  C3  UNL d   1      -1.319  -0.314  -0.484  0.00  0.00     0.003 A 
ATOM      5  C4  UNL d   1       0.022  -0.574  -0.760  0.00  0.00    -0.005 A 
ATOM      6  C5  UNL d   1       1.007  -0.160   0.134  0.00  0.00     0.003 A 
ATOM      7  C6  UNL d   1       0.651   0.515   1.303  0.00  0.00    -0.001 A 
ENDROOT
TORSDOF 0
ENDMDL
