MODEL 1
REMARK minimizedAffinity -4.99858665
REMARK minimizedRMSD -1
REMARK  0 active torsions:
REMARK  status: ('A' for Active; 'I' for Inactive)
ROOT
ATOM      1  C4' PXY d   1       0.088  -1.161   2.608  0.00  0.00     0.077 C 
ATOM      2  C1' PXY d   1       0.051   1.017  -2.746  0.00  0.00     0.077 C 
ATOM      3  C1  PXY d   1       0.074   0.447  -1.342  0.00  0.00    -0.082 A 
ATOM      4  C2  PXY d   1      -0.921  -0.323  -0.932  0.00  0.00     0.003 A 
ATOM      5  C3  PXY d   1      -0.932  -0.821   0.345  0.00  0.00     0.003 A 
ATOM      6  C4  PXY d   1       0.112  -0.572   1.195  0.00  0.00    -0.082 A 
ATOM      7  C5  PXY d   1       1.136   0.205   0.781  0.00  0.00     0.003 A 
ATOM      8  C6  PXY d   1       1.108   0.734  -0.506  0.00  0.00     0.003 A 
ENDROOT
TORSDOF 0
ENDMDL
