MODEL 1
REMARK minimizedAffinity 4.21557903
REMARK minimizedRMSD -1
REMARK  0 active torsions:
REMARK  status: ('A' for Active; 'I' for Inactive)
ROOT
ATOM      1  C4' PXY d   1       1.189  -2.769   1.001  0.00  0.00     0.077 C 
ATOM      2  C1' PXY d   1       2.963   2.721   1.362  0.00  0.00     0.077 C 
ATOM      3  C1  PXY d   1       2.496   1.281   1.280  0.00  0.00    -0.082 A 
ATOM      4  C2  PXY d   1       2.853   0.535   0.247  0.00  0.00     0.003 A 
ATOM      5  C3  PXY d   1       2.414  -0.760   0.142  0.00  0.00     0.003 A 
ATOM      6  C4  PXY d   1       1.644  -1.313   1.130  0.00  0.00    -0.082 A 
ATOM      7  C5  PXY d   1       1.285  -0.562   2.192  0.00  0.00     0.003 A 
ATOM      8  C6  PXY d   1       1.707   0.763   2.261  0.00  0.00     0.003 A 
ENDROOT
TORSDOF 0
ENDMDL
