MODEL 1
REMARK minimizedAffinity -1.79400909
REMARK minimizedRMSD -1
REMARK  0 active torsions:
REMARK  status: ('A' for Active; 'I' for Inactive)
ROOT
ATOM      1  C4' PXY d   1       2.278  -3.319   1.793  0.00  0.00     0.077 C 
ATOM      2  C1' PXY d   1       3.922   0.245  -2.451  0.00  0.00     0.077 C 
ATOM      3  C1  PXY d   1       3.500  -0.698  -1.341  0.00  0.00    -0.082 A 
ATOM      4  C2  PXY d   1       2.276  -0.618  -0.845  0.00  0.00     0.003 A 
ATOM      5  C3  PXY d   1       1.888  -1.442   0.180  0.00  0.00     0.003 A 
ATOM      6  C4  PXY d   1       2.744  -2.393   0.666  0.00  0.00    -0.082 A 
ATOM      7  C5  PXY d   1       3.991  -2.488   0.158  0.00  0.00     0.003 A 
ATOM      8  C6  PXY d   1       4.379  -1.615  -0.854  0.00  0.00     0.003 A 
ENDROOT
TORSDOF 0
ENDMDL
