MODEL 1
REMARK minimizedAffinity 3.82566881
REMARK minimizedRMSD -1
REMARK  0 active torsions:
REMARK  status: ('A' for Active; 'I' for Inactive)
ROOT
ATOM      1  C4' PXY d   1      -3.970   1.685  -5.983  0.00  0.00     0.077 C 
ATOM      2  C1' PXY d   1      -4.421  -1.918  -1.485  0.00  0.00     0.077 C 
ATOM      3  C1  PXY d   1      -4.294  -0.981  -2.670  0.00  0.00    -0.082 A 
ATOM      4  C2  PXY d   1      -4.646   0.288  -2.541  0.00  0.00     0.003 A 
ATOM      5  C3  PXY d   1      -4.568   1.142  -3.611  0.00  0.00     0.003 A 
ATOM      6  C4  PXY d   1      -4.073   0.705  -4.811  0.00  0.00    -0.082 A 
ATOM      7  C5  PXY d   1      -3.701  -0.585  -4.947  0.00  0.00     0.003 A 
ATOM      8  C6  PXY d   1      -3.827  -1.446  -3.861  0.00  0.00     0.003 A 
ENDROOT
TORSDOF 0
ENDMDL
