MODEL 1
REMARK minimizedAffinity -1.56859934
REMARK minimizedRMSD -1
REMARK  0 active torsions:
REMARK  status: ('A' for Active; 'I' for Inactive)
ROOT
ATOM      1  C4' PXY d   1      -1.748  -0.574  -2.704  0.00  0.00     0.077 C 
ATOM      2  C1' PXY d   1      -0.644  -0.759   2.968  0.00  0.00     0.077 C 
ATOM      3  C1  PXY d   1      -0.921  -0.709   1.478  0.00  0.00    -0.082 A 
ATOM      4  C2  PXY d   1      -2.125  -0.368   1.047  0.00  0.00     0.003 A 
ATOM      5  C3  PXY d   1      -2.401  -0.349  -0.296  0.00  0.00     0.003 A 
ATOM      6  C4  PXY d   1      -1.420  -0.629  -1.209  0.00  0.00    -0.082 A 
ATOM      7  C5  PXY d   1      -0.187  -0.967  -0.778  0.00  0.00     0.003 A 
ATOM      8  C6  PXY d   1       0.062  -1.021   0.591  0.00  0.00     0.003 A 
ENDROOT
TORSDOF 0
ENDMDL
