MODEL 1
REMARK minimizedAffinity 5.56397867
REMARK minimizedRMSD -1
REMARK  0 active torsions:
REMARK  status: ('A' for Active; 'I' for Inactive)
ROOT
ATOM      1  C   UNL d   1       1.425   1.763  -1.072  0.00  0.00    -0.002 A 
ATOM      2  C1  UNL d   1       1.738   1.447   0.242  0.00  0.00     0.010 A 
ATOM      3  C2  UNL d   1       1.443   0.184   0.758  0.00  0.00     0.041 A 
ATOM      4  C3  UNL d   1       0.824  -0.767  -0.078  0.00  0.00    -0.075 A 
ATOM      5  S   UNL d   1       0.370  -2.377   0.337  0.00  0.00     0.015 SA
ATOM      6  C4  UNL d   1      -0.249  -2.684  -1.221  0.00  0.00     0.022 A 
ATOM      7  C5  UNL d   1      -0.121  -1.595  -2.050  0.00  0.00     0.026 A 
ATOM      8  C6  UNL d   1       0.500  -0.472  -1.405  0.00  0.00    -0.082 A 
ATOM      9  C7  UNL d   1       0.811   0.818  -1.898  0.00  0.00     0.045 A 
ENDROOT
TORSDOF 0
ENDMDL
