MODEL 1
REMARK minimizedAffinity 11.6521788
REMARK minimizedRMSD -1
REMARK  0 active torsions:
REMARK  status: ('A' for Active; 'I' for Inactive)
ROOT
ATOM      1  C   UNL d   1      -0.156   0.652  -1.812  0.00  0.00    -0.002 A 
ATOM      2  C1  UNL d   1       0.915  -0.114  -2.251  0.00  0.00     0.010 A 
ATOM      3  C2  UNL d   1       2.058  -0.256  -1.461  0.00  0.00     0.041 A 
ATOM      4  C3  UNL d   1       2.105   0.388  -0.209  0.00  0.00    -0.075 A 
ATOM      5  S   UNL d   1       3.400   0.355   0.929  0.00  0.00     0.015 SA
ATOM      6  C4  UNL d   1       2.562   1.356   2.025  0.00  0.00     0.022 A 
ATOM      7  C5  UNL d   1       1.323   1.716   1.550  0.00  0.00     0.026 A 
ATOM      8  C6  UNL d   1       1.039   1.164   0.255  0.00  0.00    -0.082 A 
ATOM      9  C7  UNL d   1      -0.105   1.290  -0.570  0.00  0.00     0.045 A 
ENDROOT
TORSDOF 0
ENDMDL
