MODEL 1
REMARK minimizedAffinity 4.57846069
REMARK minimizedRMSD -1
REMARK  0 active torsions:
REMARK  status: ('A' for Active; 'I' for Inactive)
ROOT
ATOM      1  C   UNL d   1       1.808   2.261   1.658  0.00  0.00    -0.002 A 
ATOM      2  C1  UNL d   1       3.115   1.834   1.470  0.00  0.00     0.010 A 
ATOM      3  C2  UNL d   1       3.391   0.722   0.672  0.00  0.00     0.041 A 
ATOM      4  C3  UNL d   1       2.322   0.041   0.058  0.00  0.00    -0.075 A 
ATOM      5  S   UNL d   1       2.421  -1.345  -0.963  0.00  0.00     0.015 SA
ATOM      6  C4  UNL d   1       0.731  -1.403  -1.174  0.00  0.00     0.022 A 
ATOM      7  C5  UNL d   1       0.091  -0.397  -0.489  0.00  0.00     0.026 A 
ATOM      8  C6  UNL d   1       0.997   0.452   0.232  0.00  0.00    -0.082 A 
ATOM      9  C7  UNL d   1       0.750   1.582   1.048  0.00  0.00     0.045 A 
ENDROOT
TORSDOF 0
ENDMDL
