MODEL 1
REMARK minimizedAffinity 8.7138052
REMARK minimizedRMSD -1
REMARK  0 active torsions:
REMARK  status: ('A' for Active; 'I' for Inactive)
ROOT
ATOM      1  C   UNL d   1       1.890   0.370   1.875  0.00  0.00    -0.002 A 
ATOM      2  C1  UNL d   1       1.615   1.729   1.815  0.00  0.00     0.010 A 
ATOM      3  C2  UNL d   1       1.238   2.325   0.610  0.00  0.00     0.041 A 
ATOM      4  C3  UNL d   1       1.139   1.523  -0.545  0.00  0.00    -0.075 A 
ATOM      5  S   UNL d   1       0.693   2.035  -2.130  0.00  0.00     0.015 SA
ATOM      6  C4  UNL d   1       0.856   0.461  -2.764  0.00  0.00     0.022 A 
ATOM      7  C5  UNL d   1       1.240  -0.445  -1.804  0.00  0.00     0.026 A 
ATOM      8  C6  UNL d   1       1.409   0.152  -0.509  0.00  0.00    -0.082 A 
ATOM      9  C7  UNL d   1       1.790  -0.421   0.728  0.00  0.00     0.045 A 
ENDROOT
TORSDOF 0
ENDMDL
