MODEL 1
REMARK minimizedAffinity 8.92119408
REMARK minimizedRMSD -1
REMARK  0 active torsions:
REMARK  status: ('A' for Active; 'I' for Inactive)
ROOT
ATOM      1  C   UNL d   1       1.133  -0.330  -0.977  0.00  0.00    -0.002 A 
ATOM      2  C1  UNL d   1       1.051  -0.181   0.401  0.00  0.00     0.010 A 
ATOM      3  C2  UNL d   1       1.115   1.086   0.983  0.00  0.00     0.041 A 
ATOM      4  C3  UNL d   1       1.263   2.213   0.149  0.00  0.00    -0.075 A 
ATOM      5  S   UNL d   1       1.364   3.863   0.640  0.00  0.00     0.015 SA
ATOM      6  C4  UNL d   1       1.517   4.408  -0.968  0.00  0.00     0.022 A 
ATOM      7  C5  UNL d   1       1.494   3.371  -1.869  0.00  0.00     0.026 A 
ATOM      8  C6  UNL d   1       1.347   2.088  -1.240  0.00  0.00    -0.082 A 
ATOM      9  C7  UNL d   1       1.279   0.790  -1.800  0.00  0.00     0.045 A 
ENDROOT
TORSDOF 0
ENDMDL
