MODEL 1
REMARK minimizedAffinity 9.84122372
REMARK minimizedRMSD -1
REMARK  0 active torsions:
REMARK  status: ('A' for Active; 'I' for Inactive)
ROOT
ATOM      1  C   UNL d   1       0.837  -0.147  -2.103  0.00  0.00    -0.002 A 
ATOM      2  C1  UNL d   1       1.159   1.175  -2.377  0.00  0.00     0.010 A 
ATOM      3  C2  UNL d   1       1.434   2.068  -1.339  0.00  0.00     0.041 A 
ATOM      4  C3  UNL d   1       1.382   1.606  -0.010  0.00  0.00    -0.075 A 
ATOM      5  S   UNL d   1       1.683   2.519   1.421  0.00  0.00     0.015 SA
ATOM      6  C4  UNL d   1       1.393   1.175   2.429  0.00  0.00     0.022 A 
ATOM      7  C5  UNL d   1       1.073   0.049   1.708  0.00  0.00     0.026 A 
ATOM      8  C6  UNL d   1       1.062   0.279   0.291  0.00  0.00    -0.082 A 
ATOM      9  C7  UNL d   1       0.787  -0.602  -0.783  0.00  0.00     0.045 A 
ENDROOT
TORSDOF 0
ENDMDL
