MODEL 1
REMARK minimizedAffinity 10.2218084
REMARK minimizedRMSD -1
REMARK  0 active torsions:
REMARK  status: ('A' for Active; 'I' for Inactive)
ROOT
ATOM      1  C   UNL d   1       1.241  -0.239   1.324  0.00  0.00    -0.002 A 
ATOM      2  C1  UNL d   1       1.144   1.115   1.611  0.00  0.00     0.010 A 
ATOM      3  C2  UNL d   1       1.032   2.053   0.582  0.00  0.00     0.041 A 
ATOM      4  C3  UNL d   1       1.018   1.601  -0.753  0.00  0.00    -0.075 A 
ATOM      5  S   UNL d   1       0.888   2.567  -2.175  0.00  0.00     0.015 SA
ATOM      6  C4  UNL d   1       0.957   1.204  -3.196  0.00  0.00     0.022 A 
ATOM      7  C5  UNL d   1       1.077   0.033  -2.486  0.00  0.00     0.026 A 
ATOM      8  C6  UNL d   1       1.113   0.243  -1.066  0.00  0.00    -0.082 A 
ATOM      9  C7  UNL d   1       1.226  -0.683  -0.001  0.00  0.00     0.045 A 
ENDROOT
TORSDOF 0
ENDMDL
