MODEL 1
REMARK minimizedAffinity 0.536438167
REMARK minimizedRMSD -1
REMARK  0 active torsions:
REMARK  status: ('A' for Active; 'I' for Inactive)
ROOT
ATOM      1  C   UNL d   1       0.504   0.559  -1.467  0.00  0.00    -0.002 A 
ATOM      2  C1  UNL d   1      -0.053   1.421  -0.532  0.00  0.00     0.010 A 
ATOM      3  C2  UNL d   1       0.701   1.875   0.552  0.00  0.00     0.041 A 
ATOM      4  C3  UNL d   1       2.037   1.447   0.680  0.00  0.00    -0.075 A 
ATOM      5  S   UNL d   1       3.151   1.875   1.925  0.00  0.00     0.015 SA
ATOM      6  C4  UNL d   1       4.392   0.925   1.244  0.00  0.00     0.022 A 
ATOM      7  C5  UNL d   1       3.984   0.290   0.095  0.00  0.00     0.026 A 
ATOM      8  C6  UNL d   1       2.620   0.581  -0.250  0.00  0.00    -0.082 A 
ATOM      9  C7  UNL d   1       1.829   0.137  -1.337  0.00  0.00     0.045 A 
ENDROOT
TORSDOF 0
ENDMDL
