MODEL 1
REMARK minimizedAffinity 6.21980476
REMARK minimizedRMSD -1
REMARK  0 active torsions:
REMARK  status: ('A' for Active; 'I' for Inactive)
ROOT
ATOM      1  C   UNL d   1       0.720   1.882   0.238  0.00  0.00    -0.002 A 
ATOM      2  C1  UNL d   1       1.458   1.368   1.295  0.00  0.00     0.010 A 
ATOM      3  C2  UNL d   1       1.667  -0.008   1.412  0.00  0.00     0.041 A 
ATOM      4  C3  UNL d   1       1.119  -0.866   0.438  0.00  0.00    -0.075 A 
ATOM      5  S   UNL d   1       1.246  -2.584   0.377  0.00  0.00     0.015 SA
ATOM      6  C4  UNL d   1       0.326  -2.676  -1.054  0.00  0.00     0.022 A 
ATOM      7  C5  UNL d   1      -0.078  -1.435  -1.488  0.00  0.00     0.026 A 
ATOM      8  C6  UNL d   1       0.373  -0.372  -0.636  0.00  0.00    -0.082 A 
ATOM      9  C7  UNL d   1       0.178   1.028  -0.726  0.00  0.00     0.045 A 
ENDROOT
TORSDOF 0
ENDMDL
