MODEL 1
REMARK minimizedAffinity 4.88960791
REMARK minimizedRMSD -1
REMARK  0 active torsions:
REMARK  status: ('A' for Active; 'I' for Inactive)
ROOT
ATOM      1  N1  IND d   1      -2.283  -1.847   3.786  0.00  0.00    -0.196 N 
ATOM      2  C2  IND d   1      -1.137  -1.768   4.528  0.00  0.00     0.054 A 
ATOM      3  C3  IND d   1      -0.411  -0.689   4.159  0.00  0.00    -0.031 A 
ATOM      4  C4  IND d   1      -0.961   1.140   2.433  0.00  0.00     0.051 A 
ATOM      5  C5  IND d   1      -1.878   1.480   1.479  0.00  0.00    -0.031 A 
ATOM      6  C6  IND d   1      -3.002   0.714   1.242  0.00  0.00     0.015 A 
ATOM      7  C7  IND d   1      -3.256  -0.419   1.962  0.00  0.00    -0.016 A 
ATOM      8  C8  IND d   1      -2.323  -0.771   2.927  0.00  0.00    -0.047 A 
ATOM      9  C9  IND d   1      -1.160  -0.021   3.142  0.00  0.00    -0.096 A 
ATOM     10  HN1 IND d   1      -2.878  -2.464   3.846  0.00  0.00     0.298 HD
ENDROOT
TORSDOF 0
ENDMDL
