MODEL 1
REMARK minimizedAffinity 6.6307044
REMARK minimizedRMSD -1
REMARK  0 active torsions:
REMARK  status: ('A' for Active; 'I' for Inactive)
ROOT
ATOM      1  N1  IND d   1       0.516  -0.283   1.079  0.00  0.00    -0.196 N 
ATOM      2  C2  IND d   1       0.953  -0.808  -0.105  0.00  0.00     0.054 A 
ATOM      3  C3  IND d   1      -0.066  -0.883  -0.990  0.00  0.00    -0.031 A 
ATOM      4  C4  IND d   1      -2.508  -0.106  -0.744  0.00  0.00     0.051 A 
ATOM      5  C5  IND d   1      -3.389   0.403   0.168  0.00  0.00    -0.031 A 
ATOM      6  C6  IND d   1      -3.006   0.719   1.455  0.00  0.00     0.015 A 
ATOM      7  C7  IND d   1      -1.718   0.547   1.877  0.00  0.00    -0.016 A 
ATOM      8  C8  IND d   1      -0.822   0.023   0.956  0.00  0.00    -0.047 A 
ATOM      9  C9  IND d   1      -1.215  -0.339  -0.338  0.00  0.00    -0.096 A 
ATOM     10  HN1 IND d   1       0.996  -0.163   1.783  0.00  0.00     0.298 HD
ENDROOT
TORSDOF 0
ENDMDL
