MODEL 1
REMARK minimizedAffinity 9.45221424
REMARK minimizedRMSD -1
REMARK  0 active torsions:
REMARK  status: ('A' for Active; 'I' for Inactive)
ROOT
ATOM      1  N1  IND d   1      -0.172  -0.398   2.553  0.00  0.00    -0.196 N 
ATOM      2  C2  IND d   1      -0.981  -0.587   3.638  0.00  0.00     0.054 A 
ATOM      3  C3  IND d   1      -2.265  -0.304   3.322  0.00  0.00    -0.031 A 
ATOM      4  C4  IND d   1      -3.278   0.387   1.058  0.00  0.00     0.051 A 
ATOM      5  C5  IND d   1      -2.929   0.724  -0.220  0.00  0.00    -0.031 A 
ATOM      6  C6  IND d   1      -1.618   0.700  -0.648  0.00  0.00     0.015 A 
ATOM      7  C7  IND d   1      -0.602   0.327   0.186  0.00  0.00    -0.016 A 
ATOM      8  C8  IND d   1      -0.952  -0.009   1.486  0.00  0.00    -0.047 A 
ATOM      9  C9  IND d   1      -2.276   0.054   1.939  0.00  0.00    -0.096 A 
ATOM     10  HN1 IND d   1       0.681  -0.505   2.539  0.00  0.00     0.298 HD
ENDROOT
TORSDOF 0
ENDMDL
