MODEL 1
REMARK minimizedAffinity 5.61447382
REMARK minimizedRMSD -1
REMARK  0 active torsions:
REMARK  status: ('A' for Active; 'I' for Inactive)
ROOT
ATOM      1  N1  IND d   1       0.617  -1.189   3.358  0.00  0.00    -0.196 N 
ATOM      2  C2  IND d   1      -0.283  -1.247   4.386  0.00  0.00     0.054 A 
ATOM      3  C3  IND d   1      -1.509  -0.869   3.960  0.00  0.00    -0.031 A 
ATOM      4  C4  IND d   1      -2.289  -0.215   1.595  0.00  0.00     0.051 A 
ATOM      5  C5  IND d   1      -1.820   0.020   0.333  0.00  0.00    -0.031 A 
ATOM      6  C6  IND d   1      -0.489  -0.142   0.007  0.00  0.00     0.015 A 
ATOM      7  C7  IND d   1       0.425  -0.558   0.934  0.00  0.00    -0.016 A 
ATOM      8  C8  IND d   1      -0.046  -0.790   2.218  0.00  0.00    -0.047 A 
ATOM      9  C9  IND d   1      -1.388  -0.587   2.565  0.00  0.00    -0.096 A 
ATOM     10  HN1 IND d   1       1.455  -1.371   3.415  0.00  0.00     0.298 HD
ENDROOT
TORSDOF 0
ENDMDL
