MODEL 1
REMARK minimizedAffinity -0.463573575
REMARK minimizedRMSD -1
REMARK  0 active torsions:
REMARK  status: ('A' for Active; 'I' for Inactive)
ROOT
ATOM      1  N1  IND d   1      -0.421   1.955   2.680  0.00  0.00    -0.196 N 
ATOM      2  C2  IND d   1      -0.780   1.149   3.724  0.00  0.00     0.054 A 
ATOM      3  C3  IND d   1      -1.367   0.020   3.266  0.00  0.00    -0.031 A 
ATOM      4  C4  IND d   1      -1.751  -0.756   0.842  0.00  0.00     0.051 A 
ATOM      5  C5  IND d   1      -1.626  -0.342  -0.455  0.00  0.00    -0.031 A 
ATOM      6  C6  IND d   1      -1.079   0.883  -0.779  0.00  0.00     0.015 A 
ATOM      7  C7  IND d   1      -0.625   1.738   0.185  0.00  0.00    -0.016 A 
ATOM      8  C8  IND d   1      -0.757   1.324   1.502  0.00  0.00    -0.047 A 
ATOM      9  C9  IND d   1      -1.350   0.100   1.840  0.00  0.00    -0.096 A 
ATOM     10  HN1 IND d   1      -0.049   2.727   2.747  0.00  0.00     0.298 HD
ENDROOT
TORSDOF 0
ENDMDL
