MODEL 1
REMARK minimizedAffinity 0.797164261
REMARK minimizedRMSD -1
REMARK  0 active torsions:
REMARK  status: ('A' for Active; 'I' for Inactive)
ROOT
ATOM      1  N1  IND d   1       1.185  -0.897   2.512  0.00  0.00    -0.196 N 
ATOM      2  C2  IND d   1       0.816  -0.864   3.828  0.00  0.00     0.054 A 
ATOM      3  C3  IND d   1      -0.438  -0.373   3.952  0.00  0.00    -0.031 A 
ATOM      4  C4  IND d   1      -2.103   0.343   2.124  0.00  0.00     0.051 A 
ATOM      5  C5  IND d   1      -2.207   0.526   0.773  0.00  0.00    -0.031 A 
ATOM      6  C6  IND d   1      -1.165   0.235  -0.084  0.00  0.00     0.015 A 
ATOM      7  C7  IND d   1       0.020  -0.262   0.378  0.00  0.00    -0.016 A 
ATOM      8  C8  IND d   1       0.132  -0.443   1.749  0.00  0.00    -0.047 A 
ATOM      9  C9  IND d   1      -0.906  -0.110   2.629  0.00  0.00    -0.096 A 
ATOM     10  HN1 IND d   1       1.947  -1.159   2.211  0.00  0.00     0.298 HD
ENDROOT
TORSDOF 0
ENDMDL
