MODEL 1
REMARK minimizedAffinity 5.77009106
REMARK minimizedRMSD -1
REMARK  0 active torsions:
REMARK  status: ('A' for Active; 'I' for Inactive)
ROOT
ATOM      1  N1  IND d   1       0.502  -0.029   1.206  0.00  0.00    -0.196 N 
ATOM      2  C2  IND d   1       1.180  -0.322   0.056  0.00  0.00     0.054 A 
ATOM      3  C3  IND d   1       0.316  -0.664  -0.926  0.00  0.00    -0.031 A 
ATOM      4  C4  IND d   1      -2.258  -0.711  -0.895  0.00  0.00     0.051 A 
ATOM      5  C5  IND d   1      -3.328  -0.558  -0.060  0.00  0.00    -0.031 A 
ATOM      6  C6  IND d   1      -3.174  -0.211   1.267  0.00  0.00     0.015 A 
ATOM      7  C7  IND d   1      -1.938   0.007   1.807  0.00  0.00    -0.016 A 
ATOM      8  C8  IND d   1      -0.848  -0.154   0.963  0.00  0.00    -0.047 A 
ATOM      9  C9  IND d   1      -0.997  -0.547  -0.373  0.00  0.00    -0.096 A 
ATOM     10  HN1 IND d   1       0.859   0.195   1.956  0.00  0.00     0.298 HD
ENDROOT
TORSDOF 0
ENDMDL
