MODEL 1
REMARK minimizedAffinity -1.10645318
REMARK minimizedRMSD -1
REMARK  1 active torsions:
REMARK  status: ('A' for Active; 'I' for Inactive)
REMARK    1  A    between atoms: N_2  and  C1_3 
ROOT
ATOM      1  C1  UNL d   1      -0.164   0.009  -0.032  0.00  0.00     0.143 A 
ATOM      2  C2  UNL d   1       0.756   1.062  -0.080  0.00  0.00    -0.057 A 
ATOM      3  C3  UNL d   1       2.070   0.859  -0.519  0.00  0.00     0.033 A 
ATOM      4  C4  UNL d   1       2.497  -0.411  -0.891  0.00  0.00    -0.042 A 
ATOM      5  C5  UNL d   1       1.607  -1.478  -0.827  0.00  0.00     0.033 A 
ATOM      6  C6  UNL d   1       0.294  -1.267  -0.395  0.00  0.00    -0.057 A 
ENDROOT
BRANCH   1   7
ATOM      7  N   UNL d   1      -1.455   0.127   0.488  0.00  0.00    -0.732 N 
ATOM      8  C   UNL d   1      -1.661   0.496   1.872  0.00  0.00     0.284 C 
ATOM      9  H3  UNL d   1      -2.096   0.576  -0.162  0.00  0.00     0.395 HD
ENDBRANCH   1   7
TORSDOF 1
ENDMDL
