MODEL 1
REMARK minimizedAffinity -2.76312184
REMARK minimizedRMSD -1
REMARK  1 active torsions:
REMARK  status: ('A' for Active; 'I' for Inactive)
REMARK    1  A    between atoms: N_2  and  C1_3 
ROOT
ATOM      1  C1  UNL d   1       0.058   0.216  -0.000  0.00  0.00     0.143 A 
ATOM      2  C2  UNL d   1       1.142   1.002  -0.406  0.00  0.00    -0.057 A 
ATOM      3  C3  UNL d   1       2.287   0.426  -0.969  0.00  0.00     0.033 A 
ATOM      4  C4  UNL d   1       2.380  -0.954  -1.111  0.00  0.00    -0.042 A 
ATOM      5  C5  UNL d   1       1.326  -1.758  -0.692  0.00  0.00     0.033 A 
ATOM      6  C6  UNL d   1       0.182  -1.176  -0.136  0.00  0.00    -0.057 A 
ENDROOT
BRANCH   1   7
ATOM      7  N   UNL d   1      -1.066   0.720   0.657  0.00  0.00    -0.732 N 
ATOM      8  C   UNL d   1      -1.467   0.192   1.943  0.00  0.00     0.284 C 
ATOM      9  H3  UNL d   1      -1.139   1.732   0.582  0.00  0.00     0.395 HD
ENDBRANCH   1   7
TORSDOF 1
ENDMDL
