MODEL 1
REMARK minimizedAffinity -3.54289794
REMARK minimizedRMSD -1
REMARK  1 active torsions:
REMARK  status: ('A' for Active; 'I' for Inactive)
REMARK    1  A    between atoms: N_2  and  C1_3 
ROOT
ATOM      1  C1  UNL d   1       0.852   0.755  -0.539  0.00  0.00     0.143 A 
ATOM      2  C2  UNL d   1       2.028   1.508  -0.447  0.00  0.00    -0.057 A 
ATOM      3  C3  UNL d   1       3.284   0.921  -0.647  0.00  0.00     0.033 A 
ATOM      4  C4  UNL d   1       3.387  -0.440  -0.916  0.00  0.00    -0.042 A 
ATOM      5  C5  UNL d   1       2.234  -1.212  -0.988  0.00  0.00     0.033 A 
ATOM      6  C6  UNL d   1       0.983  -0.620  -0.793  0.00  0.00    -0.057 A 
ENDROOT
BRANCH   1   7
ATOM      7  N   UNL d   1      -0.419   1.259  -0.254  0.00  0.00    -0.732 N 
ATOM      8  C   UNL d   1      -1.456   0.393   0.265  0.00  0.00     0.284 C 
ATOM      9  H3  UNL d   1      -0.383   2.175   0.187  0.00  0.00     0.395 HD
ENDBRANCH   1   7
TORSDOF 1
ENDMDL
