MODEL 1
REMARK minimizedAffinity -4.07709694
REMARK minimizedRMSD -1
REMARK  1 active torsions:
REMARK  status: ('A' for Active; 'I' for Inactive)
REMARK    1  A    between atoms: N_2  and  C1_3 
ROOT
ATOM      1  C1  UNL d   1      -0.038   0.047   0.023  0.00  0.00     0.143 A 
ATOM      2  C2  UNL d   1       0.107  -1.342   0.111  0.00  0.00    -0.057 A 
ATOM      3  C3  UNL d   1       1.292  -1.974  -0.284  0.00  0.00     0.033 A 
ATOM      4  C4  UNL d   1       2.346  -1.229  -0.803  0.00  0.00    -0.042 A 
ATOM      5  C5  UNL d   1       2.214   0.150  -0.923  0.00  0.00     0.033 A 
ATOM      6  C6  UNL d   1       1.031   0.777  -0.521  0.00  0.00    -0.057 A 
ENDROOT
BRANCH   1   7
ATOM      7  N   UNL d   1      -1.227   0.724   0.306  0.00  0.00    -0.732 N 
ATOM      8  C   UNL d   1      -1.737   0.783   1.659  0.00  0.00     0.284 C 
ATOM      9  H3  UNL d   1      -1.307   1.600  -0.206  0.00  0.00     0.395 HD
ENDBRANCH   1   7
TORSDOF 1
ENDMDL
