MODEL 1
REMARK minimizedAffinity -3.71735144
REMARK minimizedRMSD -1
REMARK  1 active torsions:
REMARK  status: ('A' for Active; 'I' for Inactive)
REMARK    1  A    between atoms: N_2  and  C1_3 
ROOT
ATOM      1  C1  UNL d   1      -0.184   0.005  -0.082  0.00  0.00     0.143 A 
ATOM      2  C2  UNL d   1       0.999   0.736  -0.242  0.00  0.00    -0.057 A 
ATOM      3  C3  UNL d   1       2.212   0.101  -0.530  0.00  0.00     0.033 A 
ATOM      4  C4  UNL d   1       2.270  -1.285  -0.635  0.00  0.00    -0.042 A 
ATOM      5  C5  UNL d   1       1.113  -2.034  -0.456  0.00  0.00     0.033 A 
ATOM      6  C6  UNL d   1      -0.097  -1.393  -0.175  0.00  0.00    -0.057 A 
ENDROOT
BRANCH   1   7
ATOM      7  N   UNL d   1      -1.402   0.571   0.302  0.00  0.00    -0.732 N 
ATOM      8  C   UNL d   1      -1.606   1.028   1.660  0.00  0.00     0.284 C 
ATOM      9  H3  UNL d   1      -1.783   1.192  -0.407  0.00  0.00     0.395 HD
ENDBRANCH   1   7
TORSDOF 1
ENDMDL
