MODEL 1
REMARK minimizedAffinity -3.69104815
REMARK minimizedRMSD -1
REMARK  1 active torsions:
REMARK  status: ('A' for Active; 'I' for Inactive)
REMARK    1  A    between atoms: N_2  and  C1_3 
ROOT
ATOM      1  C1  UNL d   1      -0.206   0.064   0.048  0.00  0.00     0.143 A 
ATOM      2  C2  UNL d   1       0.207  -1.236   0.358  0.00  0.00    -0.057 A 
ATOM      3  C3  UNL d   1       1.328  -1.808  -0.256  0.00  0.00     0.033 A 
ATOM      4  C4  UNL d   1       2.041  -1.098  -1.216  0.00  0.00    -0.042 A 
ATOM      5  C5  UNL d   1       1.634   0.187  -1.558  0.00  0.00     0.033 A 
ATOM      6  C6  UNL d   1       0.518   0.755  -0.937  0.00  0.00    -0.057 A 
ENDROOT
BRANCH   1   7
ATOM      7  N   UNL d   1      -1.369   0.652   0.551  0.00  0.00    -0.732 N 
ATOM      8  C   UNL d   1      -1.650   0.632   1.970  0.00  0.00     0.284 C 
ATOM      9  H3  UNL d   1      -1.585   1.536   0.096  0.00  0.00     0.395 HD
ENDBRANCH   1   7
TORSDOF 1
ENDMDL
