MODEL 1
REMARK minimizedAffinity -4.08138323
REMARK minimizedRMSD -1
REMARK  1 active torsions:
REMARK  status: ('A' for Active; 'I' for Inactive)
REMARK    1  A    between atoms: N_2  and  C1_3 
ROOT
ATOM      1  C1  UNL d   1       0.088   0.097   0.221  0.00  0.00     0.143 A 
ATOM      2  C2  UNL d   1       0.351  -1.272   0.336  0.00  0.00    -0.057 A 
ATOM      3  C3  UNL d   1       1.612  -1.798   0.030  0.00  0.00     0.033 A 
ATOM      4  C4  UNL d   1       2.628  -0.964  -0.426  0.00  0.00    -0.042 A 
ATOM      5  C5  UNL d   1       2.381   0.397  -0.572  0.00  0.00     0.033 A 
ATOM      6  C6  UNL d   1       1.122   0.917  -0.259  0.00  0.00    -0.057 A 
ENDROOT
BRANCH   1   7
ATOM      7  N   UNL d   1      -1.173   0.666   0.415  0.00  0.00    -0.732 N 
ATOM      8  C   UNL d   1      -1.668   0.924   1.751  0.00  0.00     0.284 C 
ATOM      9  H3  UNL d   1      -1.372   1.408  -0.252  0.00  0.00     0.395 HD
ENDBRANCH   1   7
TORSDOF 1
ENDMDL
