MODEL 1
REMARK minimizedAffinity -2.53561378
REMARK minimizedRMSD -1
REMARK  1 active torsions:
REMARK  status: ('A' for Active; 'I' for Inactive)
REMARK    1  A    between atoms: N_2  and  C1_3 
ROOT
ATOM      1  C1  UNL d   1       1.319  -0.705  -0.623  0.00  0.00     0.143 A 
ATOM      2  C2  UNL d   1       1.170   0.686  -0.575  0.00  0.00    -0.057 A 
ATOM      3  C3  UNL d   1      -0.001   1.273  -0.081  0.00  0.00     0.033 A 
ATOM      4  C4  UNL d   1      -1.058   0.478   0.349  0.00  0.00    -0.042 A 
ATOM      5  C5  UNL d   1      -0.942  -0.906   0.287  0.00  0.00     0.033 A 
ATOM      6  C6  UNL d   1       0.233  -1.487  -0.202  0.00  0.00    -0.057 A 
ENDROOT
BRANCH   1   7
ATOM      7  N   UNL d   1       2.419  -1.349  -1.195  0.00  0.00    -0.732 N 
ATOM      8  C   UNL d   1       3.642  -0.624  -1.461  0.00  0.00     0.284 C 
ATOM      9  H3  UNL d   1       2.563  -2.282  -0.815  0.00  0.00     0.395 HD
ENDBRANCH   1   7
TORSDOF 1
ENDMDL
