MODEL 1
REMARK minimizedAffinity -4.35523319
REMARK minimizedRMSD -1
REMARK  1 active torsions:
REMARK  status: ('A' for Active; 'I' for Inactive)
REMARK    1  A    between atoms: N_2  and  C1_3 
ROOT
ATOM      1  C1  UNL d   1       0.116  -0.363   0.256  0.00  0.00     0.143 A 
ATOM      2  C2  UNL d   1       0.482  -1.666  -0.100  0.00  0.00    -0.057 A 
ATOM      3  C3  UNL d   1       1.607  -1.912  -0.895  0.00  0.00     0.033 A 
ATOM      4  C4  UNL d   1       2.372  -0.854  -1.375  0.00  0.00    -0.042 A 
ATOM      5  C5  UNL d   1       2.013   0.450  -1.055  0.00  0.00     0.033 A 
ATOM      6  C6  UNL d   1       0.891   0.689  -0.255  0.00  0.00    -0.057 A 
ENDROOT
BRANCH   1   7
ATOM      7  N   UNL d   1      -1.048  -0.048   0.962  0.00  0.00    -0.732 N 
ATOM      8  C   UNL d   1      -0.994   0.814   2.123  0.00  0.00     0.284 C 
ATOM      9  H3  UNL d   1      -1.838   0.132   0.347  0.00  0.00     0.395 HD
ENDBRANCH   1   7
TORSDOF 1
ENDMDL
