MODEL 1
REMARK minimizedAffinity -0.306019664
REMARK minimizedRMSD -1
REMARK  1 active torsions:
REMARK  status: ('A' for Active; 'I' for Inactive)
REMARK    1  A    between atoms: N_2  and  C1_3 
ROOT
ATOM      1  C1  UNL d   1       1.242  -0.902  -0.720  0.00  0.00     0.143 A 
ATOM      2  C2  UNL d   1       0.914   0.447  -0.888  0.00  0.00    -0.057 A 
ATOM      3  C3  UNL d   1      -0.176   1.018  -0.219  0.00  0.00     0.033 A 
ATOM      4  C4  UNL d   1      -0.978   0.238   0.609  0.00  0.00    -0.042 A 
ATOM      5  C5  UNL d   1      -0.685  -1.112   0.770  0.00  0.00     0.033 A 
ATOM      6  C6  UNL d   1       0.410  -1.673   0.105  0.00  0.00    -0.057 A 
ENDROOT
BRANCH   1   7
ATOM      7  N   UNL d   1       2.254  -1.550  -1.433  0.00  0.00    -0.732 N 
ATOM      8  C   UNL d   1       1.931  -2.562  -2.416  0.00  0.00     0.284 C 
ATOM      9  H3  UNL d   1       2.996  -0.916  -1.719  0.00  0.00     0.395 HD
ENDBRANCH   1   7
TORSDOF 1
ENDMDL
