MODEL 1
REMARK minimizedAffinity -5.10662031
REMARK minimizedRMSD -1
REMARK  1 active torsions:
REMARK  status: ('A' for Active; 'I' for Inactive)
REMARK    1  A    between atoms: N_2  and  C1_3 
ROOT
ATOM      1  C1  UNL d   1      -0.121  -0.047   0.049  0.00  0.00     0.143 A 
ATOM      2  C2  UNL d   1       0.325  -1.352  -0.182  0.00  0.00    -0.057 A 
ATOM      3  C3  UNL d   1       1.563  -1.600  -0.789  0.00  0.00     0.033 A 
ATOM      4  C4  UNL d   1       2.365  -0.542  -1.203  0.00  0.00    -0.042 A 
ATOM      5  C5  UNL d   1       1.930   0.764  -1.006  0.00  0.00     0.033 A 
ATOM      6  C6  UNL d   1       0.697   1.005  -0.394  0.00  0.00    -0.057 A 
ENDROOT
BRANCH   1   7
ATOM      7  N   UNL d   1      -1.385   0.265   0.557  0.00  0.00    -0.732 N 
ATOM      8  C   UNL d   1      -1.521   0.942   1.829  0.00  0.00     0.284 C 
ATOM      9  H3  UNL d   1      -2.021   0.600  -0.162  0.00  0.00     0.395 HD
ENDBRANCH   1   7
TORSDOF 1
ENDMDL
