MODEL 1
REMARK minimizedAffinity -4.62208033
REMARK minimizedRMSD -1
REMARK  1 active torsions:
REMARK  status: ('A' for Active; 'I' for Inactive)
REMARK    1  A    between atoms: N_2  and  C1_3 
ROOT
ATOM      1  C1  UNL d   1       0.055  -0.126  -0.323  0.00  0.00     0.143 A 
ATOM      2  C2  UNL d   1       1.141   0.639  -0.763  0.00  0.00    -0.057 A 
ATOM      3  C3  UNL d   1       2.402   0.063  -0.960  0.00  0.00     0.033 A 
ATOM      4  C4  UNL d   1       2.607  -1.286  -0.693  0.00  0.00    -0.042 A 
ATOM      5  C5  UNL d   1       1.548  -2.060  -0.232  0.00  0.00     0.033 A 
ATOM      6  C6  UNL d   1       0.290  -1.481  -0.042  0.00  0.00    -0.057 A 
ENDROOT
BRANCH   1   7
ATOM      7  N   UNL d   1      -1.198   0.408  -0.013  0.00  0.00    -0.732 N 
ATOM      8  C   UNL d   1      -1.626   0.533   1.363  0.00  0.00     0.284 C 
ATOM      9  H3  UNL d   1      -1.434   1.208  -0.597  0.00  0.00     0.395 HD
ENDBRANCH   1   7
TORSDOF 1
ENDMDL
