MODEL 1
REMARK minimizedAffinity -4.1817584
REMARK minimizedRMSD -1
REMARK  1 active torsions:
REMARK  status: ('A' for Active; 'I' for Inactive)
REMARK    1  A    between atoms: N_2  and  C1_3 
ROOT
ATOM      1  C1  UNL d   1       0.645  -0.202  -0.102  0.00  0.00     0.143 A 
ATOM      2  C2  UNL d   1       1.808   0.572  -0.031  0.00  0.00    -0.057 A 
ATOM      3  C3  UNL d   1       2.876   0.359  -0.912  0.00  0.00     0.033 A 
ATOM      4  C4  UNL d   1       2.809  -0.653  -1.863  0.00  0.00    -0.042 A 
ATOM      5  C5  UNL d   1       1.673  -1.451  -1.935  0.00  0.00     0.033 A 
ATOM      6  C6  UNL d   1       0.607  -1.230  -1.057  0.00  0.00    -0.057 A 
ENDROOT
BRANCH   1   7
ATOM      7  N   UNL d   1      -0.410  -0.104   0.809  0.00  0.00    -0.732 N 
ATOM      8  C   UNL d   1      -1.590   0.671   0.491  0.00  0.00     0.284 C 
ATOM      9  H3  UNL d   1      -0.607  -0.989   1.272  0.00  0.00     0.395 HD
ENDBRANCH   1   7
TORSDOF 1
ENDMDL
