MODEL 1
REMARK minimizedAffinity -4.53380871
REMARK minimizedRMSD -1
REMARK  1 active torsions:
REMARK  status: ('A' for Active; 'I' for Inactive)
REMARK    1  A    between atoms: N_2  and  C1_3 
ROOT
ATOM      1  C1  UNL d   1      -0.129   0.239  -0.287  0.00  0.00     0.143 A 
ATOM      2  C2  UNL d   1       1.014   1.019  -0.493  0.00  0.00    -0.057 A 
ATOM      3  C3  UNL d   1       2.251   0.432  -0.782  0.00  0.00     0.033 A 
ATOM      4  C4  UNL d   1       2.374  -0.953  -0.841  0.00  0.00    -0.042 A 
ATOM      5  C5  UNL d   1       1.257  -1.749  -0.615  0.00  0.00     0.033 A 
ATOM      6  C6  UNL d   1       0.022  -1.156  -0.333  0.00  0.00    -0.057 A 
ENDROOT
BRANCH   1   7
ATOM      7  N   UNL d   1      -1.366   0.759   0.101  0.00  0.00    -0.732 N 
ATOM      8  C   UNL d   1      -1.748   0.790   1.497  0.00  0.00     0.284 C 
ATOM      9  H3  UNL d   1      -1.614   1.599  -0.416  0.00  0.00     0.395 HD
ENDBRANCH   1   7
TORSDOF 1
ENDMDL
