MODEL 1
REMARK minimizedAffinity -2.74980712
REMARK minimizedRMSD -1
REMARK  1 active torsions:
REMARK  status: ('A' for Active; 'I' for Inactive)
REMARK    1  A    between atoms: N_2  and  C1_3 
ROOT
ATOM      1  C1  UNL d   1      -0.372  -0.334  -0.080  0.00  0.00     0.143 A 
ATOM      2  C2  UNL d   1       0.381   0.539  -0.874  0.00  0.00    -0.057 A 
ATOM      3  C3  UNL d   1       1.689   0.223  -1.259  0.00  0.00     0.033 A 
ATOM      4  C4  UNL d   1       2.280  -0.962  -0.832  0.00  0.00    -0.042 A 
ATOM      5  C5  UNL d   1       1.559  -1.832  -0.023  0.00  0.00     0.033 A 
ATOM      6  C6  UNL d   1       0.251  -1.514   0.354  0.00  0.00    -0.057 A 
ENDROOT
BRANCH   1   7
ATOM      7  N   UNL d   1      -1.642  -0.032   0.418  0.00  0.00    -0.732 N 
ATOM      8  C   UNL d   1      -1.807   0.452   1.772  0.00  0.00     0.284 C 
ATOM      9  H3  UNL d   1      -2.225   0.443  -0.268  0.00  0.00     0.395 HD
ENDBRANCH   1   7
TORSDOF 1
ENDMDL
