MODEL 1
REMARK minimizedAffinity -4.09703302
REMARK minimizedRMSD -1
REMARK  1 active torsions:
REMARK  status: ('A' for Active; 'I' for Inactive)
REMARK    1  A    between atoms: N_2  and  C1_3 
ROOT
ATOM      1  C1  UNL d   1       0.185   0.213  -0.068  0.00  0.00     0.143 A 
ATOM      2  C2  UNL d   1       1.334   0.976  -0.299  0.00  0.00    -0.057 A 
ATOM      3  C3  UNL d   1       2.574   0.369  -0.534  0.00  0.00     0.033 A 
ATOM      4  C4  UNL d   1       2.691  -1.017  -0.512  0.00  0.00    -0.042 A 
ATOM      5  C5  UNL d   1       1.567  -1.795  -0.260  0.00  0.00     0.033 A 
ATOM      6  C6  UNL d   1       0.331  -1.183  -0.033  0.00  0.00    -0.057 A 
ENDROOT
BRANCH   1   7
ATOM      7  N   UNL d   1      -1.056   0.758   0.270  0.00  0.00    -0.732 N 
ATOM      8  C   UNL d   1      -1.489   0.808   1.650  0.00  0.00     0.284 C 
ATOM      9  H3  UNL d   1      -1.269   1.599  -0.263  0.00  0.00     0.395 HD
ENDBRANCH   1   7
TORSDOF 1
ENDMDL
