MODEL 1
REMARK minimizedAffinity -3.70889091
REMARK minimizedRMSD -1
REMARK  1 active torsions:
REMARK  status: ('A' for Active; 'I' for Inactive)
REMARK    1  A    between atoms: N_2  and  C1_3 
ROOT
ATOM      1  C1  UNL d   1       0.736  -0.504  -0.215  0.00  0.00     0.143 A 
ATOM      2  C2  UNL d   1       1.701   0.426   0.186  0.00  0.00    -0.057 A 
ATOM      3  C3  UNL d   1       2.922   0.543  -0.490  0.00  0.00     0.033 A 
ATOM      4  C4  UNL d   1       3.212  -0.292  -1.563  0.00  0.00    -0.042 A 
ATOM      5  C5  UNL d   1       2.279  -1.242  -1.963  0.00  0.00     0.033 A 
ATOM      6  C6  UNL d   1       1.059  -1.349  -1.289  0.00  0.00    -0.057 A 
ENDROOT
BRANCH   1   7
ATOM      7  N   UNL d   1      -0.455  -0.736   0.476  0.00  0.00    -0.732 N 
ATOM      8  C   UNL d   1      -1.282   0.369   0.912  0.00  0.00     0.284 C 
ATOM      9  H3  UNL d   1      -0.978  -1.522   0.097  0.00  0.00     0.395 HD
ENDBRANCH   1   7
TORSDOF 1
ENDMDL
