MODEL 1
REMARK minimizedAffinity -2.28007436
REMARK minimizedRMSD -1
REMARK  2 active torsions:
REMARK  status: ('A' for Active; 'I' for Inactive)
REMARK    1  A    between atoms: C2'_3  and  C1'_4 
REMARK    2  A    between atoms: C1'_4  and  C1_5 
ROOT
ATOM      1  C1  I4B d   1       0.458  -0.106  -0.332  0.00  0.00    -0.075 A 
ATOM      2  C2  I4B d   1      -0.002  -0.525   0.892  0.00  0.00     0.003 A 
ATOM      3  C3  I4B d   1      -0.072  -1.907   1.192  0.00  0.00     0.002 A 
ATOM      4  C4  I4B d   1       0.277  -2.830   0.229  0.00  0.00    -0.004 A 
ATOM      5  C5  I4B d   1       0.765  -2.404  -1.003  0.00  0.00     0.002 A 
ATOM      6  C6  I4B d   1       0.868  -1.034  -1.282  0.00  0.00     0.003 A 
ENDROOT
BRANCH   1   7
ATOM      7  C1' I4B d   1       0.489   1.360  -0.628  0.00  0.00     0.060 C 
BRANCH   7   8
ATOM      8  C2' I4B d   1       0.815   1.532  -2.098  0.00  0.00    -0.013 C 
ATOM      9  C4' I4B d   1      -0.314   2.206  -2.831  0.00  0.00     0.013 C 
ATOM     10  C3' I4B d   1       2.080   2.331  -2.200  0.00  0.00     0.013 C 
ENDBRANCH   7   8
ENDBRANCH   1   7
TORSDOF 2
ENDMDL
