MODEL 1
REMARK minimizedAffinity -1.93195462
REMARK minimizedRMSD -1
REMARK  2 active torsions:
REMARK  status: ('A' for Active; 'I' for Inactive)
REMARK    1  A    between atoms: C2'_3  and  C1'_4 
REMARK    2  A    between atoms: C1'_4  and  C1_5 
ROOT
ATOM      1  C1  I4B d   1       0.536   0.271  -0.167  0.00  0.00    -0.075 A 
ATOM      2  C2  I4B d   1       1.528  -0.672  -0.266  0.00  0.00     0.003 A 
ATOM      3  C3  I4B d   1       1.271  -2.017   0.094  0.00  0.00     0.002 A 
ATOM      4  C4  I4B d   1       0.031  -2.362   0.593  0.00  0.00    -0.004 A 
ATOM      5  C5  I4B d   1      -0.980  -1.409   0.671  0.00  0.00     0.002 A 
ATOM      6  C6  I4B d   1      -0.731  -0.087   0.277  0.00  0.00     0.003 A 
ENDROOT
BRANCH   1   7
ATOM      7  C1' I4B d   1       0.851   1.689  -0.524  0.00  0.00     0.060 C 
BRANCH   7   8
ATOM      8  C2' I4B d   1       1.442   1.698  -1.919  0.00  0.00    -0.013 C 
ATOM      9  C4' I4B d   1       0.537   2.409  -2.890  0.00  0.00     0.013 C 
ATOM     10  C3' I4B d   1       2.786   2.360  -1.848  0.00  0.00     0.013 C 
ENDBRANCH   7   8
ENDBRANCH   1   7
TORSDOF 2
ENDMDL
