MODEL 1
REMARK minimizedAffinity -5.99261856
REMARK minimizedRMSD -1
REMARK  2 active torsions:
REMARK  status: ('A' for Active; 'I' for Inactive)
REMARK    1  A    between atoms: C2'_3  and  C1'_4 
REMARK    2  A    between atoms: C1'_4  and  C1_5 
ROOT
ATOM      1  C1  I4B d   1      -0.848  -0.936   0.004  0.00  0.00    -0.075 A 
ATOM      2  C2  I4B d   1      -0.507  -2.080   0.681  0.00  0.00     0.003 A 
ATOM      3  C3  I4B d   1      -1.310  -2.541   1.752  0.00  0.00     0.002 A 
ATOM      4  C4  I4B d   1      -2.410  -1.804   2.142  0.00  0.00    -0.004 A 
ATOM      5  C5  I4B d   1      -2.767  -0.656   1.440  0.00  0.00     0.002 A 
ATOM      6  C6  I4B d   1      -1.988  -0.226   0.356  0.00  0.00     0.003 A 
ENDROOT
BRANCH   1   7
ATOM      7  C1' I4B d   1       0.042  -0.460  -1.101  0.00  0.00     0.060 C 
BRANCH   7   8
ATOM      8  C2' I4B d   1       0.160   1.047  -0.989  0.00  0.00    -0.013 C 
ATOM      9  C4' I4B d   1       0.852   1.446   0.287  0.00  0.00     0.013 C 
ATOM     10  C3' I4B d   1       0.909   1.543  -2.190  0.00  0.00     0.013 C 
ENDBRANCH   7   8
ENDBRANCH   1   7
TORSDOF 2
ENDMDL
