MODEL 1
REMARK minimizedAffinity -2.33600569
REMARK minimizedRMSD -1
REMARK  2 active torsions:
REMARK  status: ('A' for Active; 'I' for Inactive)
REMARK    1  A    between atoms: C2'_3  and  C1'_4 
REMARK    2  A    between atoms: C1'_4  and  C1_5 
ROOT
ATOM      1  C1  I4B d   1       0.436   0.771   0.035  0.00  0.00    -0.075 A 
ATOM      2  C2  I4B d   1      -0.866   0.367   0.201  0.00  0.00     0.003 A 
ATOM      3  C3  I4B d   1      -1.156  -0.966   0.577  0.00  0.00     0.002 A 
ATOM      4  C4  I4B d   1      -0.124  -1.870   0.727  0.00  0.00    -0.004 A 
ATOM      5  C5  I4B d   1       1.196  -1.454   0.580  0.00  0.00     0.002 A 
ATOM      6  C6  I4B d   1       1.479  -0.122   0.244  0.00  0.00     0.003 A 
ENDROOT
BRANCH   1   7
ATOM      7  C1' I4B d   1       0.705   2.178  -0.395  0.00  0.00     0.060 C 
BRANCH   7   8
ATOM      8  C2' I4B d   1       1.372   2.131  -1.755  0.00  0.00    -0.013 C 
ATOM      9  C4' I4B d   1       0.465   2.679  -2.826  0.00  0.00     0.013 C 
ATOM     10  C3' I4B d   1       2.647   2.915  -1.673  0.00  0.00     0.013 C 
ENDBRANCH   7   8
ENDBRANCH   1   7
TORSDOF 2
ENDMDL
