MODEL 1
REMARK minimizedAffinity -2.15907073
REMARK minimizedRMSD -1
REMARK  2 active torsions:
REMARK  status: ('A' for Active; 'I' for Inactive)
REMARK    1  A    between atoms: C2'_3  and  C1'_4 
REMARK    2  A    between atoms: C1'_4  and  C1_5 
ROOT
ATOM      1  C1  I4B d   1       1.041   1.318  -0.919  0.00  0.00    -0.075 A 
ATOM      2  C2  I4B d   1      -0.039   1.539  -1.737  0.00  0.00     0.003 A 
ATOM      3  C3  I4B d   1       0.132   2.198  -2.979  0.00  0.00     0.002 A 
ATOM      4  C4  I4B d   1       1.382   2.660  -3.337  0.00  0.00    -0.004 A 
ATOM      5  C5  I4B d   1       2.479   2.414  -2.517  0.00  0.00     0.002 A 
ATOM      6  C6  I4B d   1       2.310   1.728  -1.305  0.00  0.00     0.003 A 
ENDROOT
BRANCH   1   7
ATOM      7  C1' I4B d   1       0.819   0.649   0.401  0.00  0.00     0.060 C 
BRANCH   7   8
ATOM      8  C2' I4B d   1      -0.153  -0.494   0.187  0.00  0.00    -0.013 C 
ATOM      9  C4' I4B d   1       0.527  -1.827   0.358  0.00  0.00     0.013 C 
ATOM     10  C3' I4B d   1      -1.280  -0.332   1.163  0.00  0.00     0.013 C 
ENDBRANCH   7   8
ENDBRANCH   1   7
TORSDOF 2
ENDMDL
