MODEL 1
REMARK minimizedAffinity -1.47470081
REMARK minimizedRMSD -1
REMARK  2 active torsions:
REMARK  status: ('A' for Active; 'I' for Inactive)
REMARK    1  A    between atoms: C2'_3  and  C1'_4 
REMARK    2  A    between atoms: C1'_4  and  C1_5 
ROOT
ATOM      1  C1  I4B d   1       0.952   1.109  -1.098  0.00  0.00    -0.075 A 
ATOM      2  C2  I4B d   1       2.206   1.635  -1.282  0.00  0.00     0.003 A 
ATOM      3  C3  I4B d   1       2.586   2.147  -2.547  0.00  0.00     0.002 A 
ATOM      4  C4  I4B d   1       1.703   2.067  -3.605  0.00  0.00    -0.004 A 
ATOM      5  C5  I4B d   1       0.424   1.555  -3.410  0.00  0.00     0.002 A 
ATOM      6  C6  I4B d   1       0.041   1.084  -2.146  0.00  0.00     0.003 A 
ENDROOT
BRANCH   1   7
ATOM      7  C1' I4B d   1       0.596   0.547   0.242  0.00  0.00     0.060 C 
BRANCH   7   8
ATOM      8  C2' I4B d   1      -0.382  -0.590   0.027  0.00  0.00    -0.013 C 
ATOM      9  C4' I4B d   1       0.318  -1.822  -0.484  0.00  0.00     0.013 C 
ATOM     10  C3' I4B d   1      -1.072  -0.860   1.330  0.00  0.00     0.013 C 
ENDBRANCH   7   8
ENDBRANCH   1   7
TORSDOF 2
ENDMDL
