MODEL 1
REMARK minimizedAffinity -4.31623459
REMARK minimizedRMSD -1
REMARK  2 active torsions:
REMARK  status: ('A' for Active; 'I' for Inactive)
REMARK    1  A    between atoms: C2'_3  and  C1'_4 
REMARK    2  A    between atoms: C1'_4  and  C1_5 
ROOT
ATOM      1  C1  I4B d   1       0.047   0.292  -0.336  0.00  0.00    -0.075 A 
ATOM      2  C2  I4B d   1       0.189  -0.593  -1.374  0.00  0.00     0.003 A 
ATOM      3  C3  I4B d   1      -0.032  -1.977  -1.167  0.00  0.00     0.002 A 
ATOM      4  C4  I4B d   1      -0.341  -2.433   0.098  0.00  0.00    -0.004 A 
ATOM      5  C5  I4B d   1      -0.507  -1.531   1.145  0.00  0.00     0.002 A 
ATOM      6  C6  I4B d   1      -0.324  -0.158   0.925  0.00  0.00     0.003 A 
ENDROOT
BRANCH   1   7
ATOM      7  C1' I4B d   1       0.319   1.742  -0.582  0.00  0.00     0.060 C 
BRANCH   7   8
ATOM      8  C2' I4B d   1       0.948   1.872  -1.955  0.00  0.00    -0.013 C 
ATOM      9  C4' I4B d   1       0.139   2.782  -2.841  0.00  0.00     0.013 C 
ATOM     10  C3' I4B d   1       2.344   2.390  -1.777  0.00  0.00     0.013 C 
ENDBRANCH   7   8
ENDBRANCH   1   7
TORSDOF 2
ENDMDL
