MODEL 1
REMARK minimizedAffinity -4.05540228
REMARK minimizedRMSD -1
REMARK  2 active torsions:
REMARK  status: ('A' for Active; 'I' for Inactive)
REMARK    1  A    between atoms: C2'_3  and  C1'_4 
REMARK    2  A    between atoms: C1'_4  and  C1_5 
ROOT
ATOM      1  C1  I4B d   1      -0.665  -0.785   0.464  0.00  0.00    -0.075 A 
ATOM      2  C2  I4B d   1      -1.798  -1.002   1.208  0.00  0.00     0.003 A 
ATOM      3  C3  I4B d   1      -1.801  -1.976   2.236  0.00  0.00     0.002 A 
ATOM      4  C4  I4B d   1      -0.672  -2.740   2.451  0.00  0.00    -0.004 A 
ATOM      5  C5  I4B d   1       0.484  -2.502   1.712  0.00  0.00     0.002 A 
ATOM      6  C6  I4B d   1       0.491  -1.511   0.721  0.00  0.00     0.003 A 
ENDROOT
BRANCH   1   7
ATOM      7  C1' I4B d   1      -0.707   0.228  -0.635  0.00  0.00     0.060 C 
BRANCH   7   8
ATOM      8  C2' I4B d   1       0.373   1.256  -0.365  0.00  0.00    -0.013 C 
ATOM      9  C4' I4B d   1       0.809   1.936  -1.636  0.00  0.00     0.013 C 
ATOM     10  C3' I4B d   1      -0.169   2.247   0.621  0.00  0.00     0.013 C 
ENDBRANCH   7   8
ENDBRANCH   1   7
TORSDOF 2
ENDMDL
