MODEL 1
REMARK minimizedAffinity -2.54286122
REMARK minimizedRMSD -1
REMARK  2 active torsions:
REMARK  status: ('A' for Active; 'I' for Inactive)
REMARK    1  A    between atoms: C2'_3  and  C1'_4 
REMARK    2  A    between atoms: C1'_4  and  C1_5 
ROOT
ATOM      1  C1  I4B d   1       0.428   0.597  -0.630  0.00  0.00    -0.075 A 
ATOM      2  C2  I4B d   1      -0.392  -0.389  -1.119  0.00  0.00     0.003 A 
ATOM      3  C3  I4B d   1      -0.289  -1.712  -0.626  0.00  0.00     0.002 A 
ATOM      4  C4  I4B d   1       0.675  -2.014   0.314  0.00  0.00    -0.004 A 
ATOM      5  C5  I4B d   1       1.491  -1.009   0.825  0.00  0.00     0.002 A 
ATOM      6  C6  I4B d   1       1.359   0.307   0.360  0.00  0.00     0.003 A 
ENDROOT
BRANCH   1   7
ATOM      7  C1' I4B d   1       0.315   1.976  -1.197  0.00  0.00     0.060 C 
BRANCH   7   8
ATOM      8  C2' I4B d   1       1.111   2.018  -2.485  0.00  0.00    -0.013 C 
ATOM      9  C4' I4B d   1       0.357   2.743  -3.569  0.00  0.00     0.013 C 
ATOM     10  C3' I4B d   1       2.422   2.687  -2.198  0.00  0.00     0.013 C 
ENDBRANCH   7   8
ENDBRANCH   1   7
TORSDOF 2
ENDMDL
