MODEL 1
REMARK minimizedAffinity -4.61108208
REMARK minimizedRMSD -1
REMARK  2 active torsions:
REMARK  status: ('A' for Active; 'I' for Inactive)
REMARK    1  A    between atoms: C2'_3  and  C1'_4 
REMARK    2  A    between atoms: C1'_4  and  C1_5 
ROOT
ATOM      1  C1  I4B d   1       0.509   1.303  -1.973  0.00  0.00    -0.075 A 
ATOM      2  C2  I4B d   1       1.358   2.338  -2.275  0.00  0.00     0.003 A 
ATOM      3  C3  I4B d   1       1.668   2.635  -3.624  0.00  0.00     0.002 A 
ATOM      4  C4  I4B d   1       1.151   1.844  -4.630  0.00  0.00    -0.004 A 
ATOM      5  C5  I4B d   1       0.272   0.809  -4.323  0.00  0.00     0.002 A 
ATOM      6  C6  I4B d   1      -0.061   0.544  -2.987  0.00  0.00     0.003 A 
ENDROOT
BRANCH   1   7
ATOM      7  C1' I4B d   1       0.229   0.996  -0.535  0.00  0.00     0.060 C 
BRANCH   7   8
ATOM      8  C2' I4B d   1       0.160  -0.510  -0.384  0.00  0.00    -0.013 C 
ATOM      9  C4' I4B d   1       1.458  -1.065   0.140  0.00  0.00     0.013 C 
ATOM     10  C3' I4B d   1      -0.978  -0.831   0.538  0.00  0.00     0.013 C 
ENDBRANCH   7   8
ENDBRANCH   1   7
TORSDOF 2
ENDMDL
