MODEL 1
REMARK minimizedAffinity -5.71598387
REMARK minimizedRMSD -1
REMARK  2 active torsions:
REMARK  status: ('A' for Active; 'I' for Inactive)
REMARK    1  A    between atoms: C2'_3  and  C1'_4 
REMARK    2  A    between atoms: C1'_4  and  C1_5 
ROOT
ATOM      1  C1  I4B d   1      -0.025   0.449   0.366  0.00  0.00    -0.075 A 
ATOM      2  C2  I4B d   1       0.835  -0.590   0.111  0.00  0.00     0.003 A 
ATOM      3  C3  I4B d   1       0.557  -1.885   0.613  0.00  0.00     0.002 A 
ATOM      4  C4  I4B d   1      -0.558  -2.083   1.401  0.00  0.00    -0.004 A 
ATOM      5  C5  I4B d   1      -1.441  -1.034   1.639  0.00  0.00     0.002 A 
ATOM      6  C6  I4B d   1      -1.180   0.237   1.108  0.00  0.00     0.003 A 
ENDROOT
BRANCH   1   7
ATOM      7  C1' I4B d   1       0.317   1.810  -0.151  0.00  0.00     0.060 C 
BRANCH   7   8
ATOM      8  C2' I4B d   1       0.987   1.643  -1.500  0.00  0.00    -0.013 C 
ATOM      9  C4' I4B d   1       0.049   2.000  -2.623  0.00  0.00     0.013 C 
ATOM     10  C3' I4B d   1       2.210   2.510  -1.520  0.00  0.00     0.013 C 
ENDBRANCH   7   8
ENDBRANCH   1   7
TORSDOF 2
ENDMDL
