MODEL 1
REMARK minimizedAffinity -2.40233755
REMARK minimizedRMSD -1
REMARK  2 active torsions:
REMARK  status: ('A' for Active; 'I' for Inactive)
REMARK    1  A    between atoms: C2'_3  and  C1'_4 
REMARK    2  A    between atoms: C1'_4  and  C1_5 
ROOT
ATOM      1  C1  I4B d   1       0.230  -0.916  -0.268  0.00  0.00    -0.075 A 
ATOM      2  C2  I4B d   1       1.331  -1.012   0.545  0.00  0.00     0.003 A 
ATOM      3  C3  I4B d   1       1.326  -1.899   1.649  0.00  0.00     0.002 A 
ATOM      4  C4  I4B d   1       0.189  -2.629   1.930  0.00  0.00    -0.004 A 
ATOM      5  C5  I4B d   1      -0.918  -2.547   1.091  0.00  0.00     0.002 A 
ATOM      6  C6  I4B d   1      -0.894  -1.695  -0.023  0.00  0.00     0.003 A 
ENDROOT
BRANCH   1   7
ATOM      7  C1' I4B d   1       0.256   0.055  -1.406  0.00  0.00     0.060 C 
BRANCH   7   8
ATOM      8  C2' I4B d   1       0.896   1.336  -0.911  0.00  0.00    -0.013 C 
ATOM      9  C4' I4B d   1       1.116   2.307  -2.041  0.00  0.00     0.013 C 
ATOM     10  C3' I4B d   1       0.002   1.923   0.141  0.00  0.00     0.013 C 
ENDBRANCH   7   8
ENDBRANCH   1   7
TORSDOF 2
ENDMDL
