MODEL 1
REMARK minimizedAffinity -3.84000063
REMARK minimizedRMSD -1
REMARK  2 active torsions:
REMARK  status: ('A' for Active; 'I' for Inactive)
REMARK    1  A    between atoms: C2'_3  and  C1'_4 
REMARK    2  A    between atoms: C1'_4  and  C1_5 
ROOT
ATOM      1  C1  I4B d   1       0.857   1.507  -1.654  0.00  0.00    -0.075 A 
ATOM      2  C2  I4B d   1      -0.205   1.970  -2.391  0.00  0.00     0.003 A 
ATOM      3  C3  I4B d   1      -0.055   2.220  -3.777  0.00  0.00     0.002 A 
ATOM      4  C4  I4B d   1       1.179   2.045  -4.370  0.00  0.00    -0.004 A 
ATOM      5  C5  I4B d   1       2.248   1.554  -3.625  0.00  0.00     0.002 A 
ATOM      6  C6  I4B d   1       2.083   1.272  -2.262  0.00  0.00     0.003 A 
ENDROOT
BRANCH   1   7
ATOM      7  C1' I4B d   1       0.672   1.285  -0.186  0.00  0.00     0.060 C 
BRANCH   7   8
ATOM      8  C2' I4B d   1      -0.152   0.026  -0.005  0.00  0.00    -0.013 C 
ATOM      9  C4' I4B d   1       0.711  -1.137   0.407  0.00  0.00     0.013 C 
ATOM     10  C3' I4B d   1      -1.208   0.308   1.022  0.00  0.00     0.013 C 
ENDBRANCH   7   8
ENDBRANCH   1   7
TORSDOF 2
ENDMDL
