MODEL 1
REMARK minimizedAffinity -2.76184726
REMARK minimizedRMSD -1
REMARK  0 active torsions:
REMARK  status: ('A' for Active; 'I' for Inactive)
ROOT
ATOM      1  C   UNL d   1      -3.061  -1.091  -0.386  0.00  0.00     0.023 A 
ATOM      2  C1  UNL d   1      -2.226  -0.717  -1.439  0.00  0.00     0.003 A 
ATOM      3  C2  UNL d   1      -0.910  -0.327  -1.184  0.00  0.00     0.048 A 
ATOM      4  C3  UNL d   1      -0.435  -0.314   0.127  0.00  0.00     0.023 A 
ATOM      5  C4  UNL d   1      -1.267  -0.688   1.184  0.00  0.00     0.048 A 
ATOM      6  C5  UNL d   1      -2.582  -1.076   0.924  0.00  0.00     0.003 A 
ATOM      7  I   UNL d   1       1.523   0.267   0.510  0.00  0.00    -0.146 I 
ENDROOT
TORSDOF 0
ENDMDL
