MODEL 1
REMARK minimizedAffinity -0.87308532
REMARK minimizedRMSD -1
REMARK  0 active torsions:
REMARK  status: ('A' for Active; 'I' for Inactive)
ROOT
ATOM      1  C   UNL d   1      -1.075  -0.732   0.488  0.00  0.00     0.023 A 
ATOM      2  C1  UNL d   1      -1.753   0.397   0.948  0.00  0.00     0.003 A 
ATOM      3  C2  UNL d   1      -1.050   1.573   1.220  0.00  0.00     0.048 A 
ATOM      4  C3  UNL d   1       0.331   1.612   1.030  0.00  0.00     0.023 A 
ATOM      5  C4  UNL d   1       1.013   0.485   0.569  0.00  0.00     0.048 A 
ATOM      6  C5  UNL d   1       0.306  -0.688   0.299  0.00  0.00     0.003 A 
ATOM      7  I   UNL d   1       1.380   3.360   1.434  0.00  0.00    -0.146 I 
ENDROOT
TORSDOF 0
ENDMDL
