MODEL 1
REMARK minimizedAffinity -2.04594803
REMARK minimizedRMSD -1
REMARK  0 active torsions:
REMARK  status: ('A' for Active; 'I' for Inactive)
ROOT
ATOM      1  C   UNL d   1      -3.109  -1.602  -0.309  0.00  0.00     0.023 A 
ATOM      2  C1  UNL d   1      -2.511  -0.934  -1.377  0.00  0.00     0.003 A 
ATOM      3  C2  UNL d   1      -1.311  -0.245  -1.188  0.00  0.00     0.048 A 
ATOM      4  C3  UNL d   1      -0.715  -0.228   0.072  0.00  0.00     0.023 A 
ATOM      5  C4  UNL d   1      -1.310  -0.896   1.144  0.00  0.00     0.048 A 
ATOM      6  C5  UNL d   1      -2.509  -1.583   0.950  0.00  0.00     0.003 A 
ATOM      7  I   UNL d   1       1.071   0.797   0.357  0.00  0.00    -0.146 I 
ENDROOT
TORSDOF 0
ENDMDL
