MODEL 1
REMARK minimizedAffinity -0.993537724
REMARK minimizedRMSD -1
REMARK  0 active torsions:
REMARK  status: ('A' for Active; 'I' for Inactive)
ROOT
ATOM      1  C   UNL d   1       2.981   3.537   1.114  0.00  0.00     0.023 A 
ATOM      2  C1  UNL d   1       2.226   2.978   2.145  0.00  0.00     0.003 A 
ATOM      3  C2  UNL d   1       1.401   1.880   1.891  0.00  0.00     0.048 A 
ATOM      4  C3  UNL d   1       1.337   1.346   0.605  0.00  0.00     0.023 A 
ATOM      5  C4  UNL d   1       2.091   1.902  -0.430  0.00  0.00     0.048 A 
ATOM      6  C5  UNL d   1       2.914   3.000  -0.172  0.00  0.00     0.003 A 
ATOM      7  I   UNL d   1       0.110  -0.288   0.225  0.00  0.00    -0.146 I 
ENDROOT
TORSDOF 0
ENDMDL
