MODEL 1
REMARK minimizedAffinity 0.43212074
REMARK minimizedRMSD -1
REMARK  0 active torsions:
REMARK  status: ('A' for Active; 'I' for Inactive)
ROOT
ATOM      1  C   UNL d   1      -2.295  -1.411   0.750  0.00  0.00     0.023 A 
ATOM      2  C1  UNL d   1      -2.312  -0.340  -0.144  0.00  0.00     0.003 A 
ATOM      3  C2  UNL d   1      -1.175   0.455  -0.305  0.00  0.00     0.048 A 
ATOM      4  C3  UNL d   1      -0.025   0.173   0.431  0.00  0.00     0.023 A 
ATOM      5  C4  UNL d   1      -0.003  -0.898   1.326  0.00  0.00     0.048 A 
ATOM      6  C5  UNL d   1      -1.142  -1.689   1.484  0.00  0.00     0.003 A 
ATOM      7  I   UNL d   1       1.668   1.355   0.193  0.00  0.00    -0.146 I 
ENDROOT
TORSDOF 0
ENDMDL
