MODEL 1
REMARK minimizedAffinity -2.31562471
REMARK minimizedRMSD -1
REMARK  0 active torsions:
REMARK  status: ('A' for Active; 'I' for Inactive)
ROOT
ATOM      1  C   UNL d   1       3.755   1.821  -0.642  0.00  0.00     0.023 A 
ATOM      2  C1  UNL d   1       3.094   2.238   0.514  0.00  0.00     0.003 A 
ATOM      3  C2  UNL d   1       1.974   1.539   0.969  0.00  0.00     0.048 A 
ATOM      4  C3  UNL d   1       1.521   0.424   0.265  0.00  0.00     0.023 A 
ATOM      5  C4  UNL d   1       2.180   0.003  -0.891  0.00  0.00     0.048 A 
ATOM      6  C5  UNL d   1       3.299   0.705  -1.343  0.00  0.00     0.003 A 
ATOM      7  I   UNL d   1      -0.146  -0.617   0.942  0.00  0.00    -0.146 I 
ENDROOT
TORSDOF 0
ENDMDL
