MODEL 1
REMARK minimizedAffinity 0.409407139
REMARK minimizedRMSD -1
REMARK  0 active torsions:
REMARK  status: ('A' for Active; 'I' for Inactive)
ROOT
ATOM      1  C   UNL d   1       2.858   4.042   1.630  0.00  0.00     0.023 A 
ATOM      2  C1  UNL d   1       2.647   3.181   2.707  0.00  0.00     0.003 A 
ATOM      3  C2  UNL d   1       1.974   1.972   2.515  0.00  0.00     0.048 A 
ATOM      4  C3  UNL d   1       1.516   1.631   1.243  0.00  0.00     0.023 A 
ATOM      5  C4  UNL d   1       1.725   2.489   0.163  0.00  0.00     0.048 A 
ATOM      6  C5  UNL d   1       2.397   3.697   0.360  0.00  0.00     0.003 A 
ATOM      7  I   UNL d   1       0.515  -0.168   0.955  0.00  0.00    -0.146 I 
ENDROOT
TORSDOF 0
ENDMDL
