MODEL 1
REMARK minimizedAffinity -4.6497283
REMARK minimizedRMSD -1
REMARK  0 active torsions:
REMARK  status: ('A' for Active; 'I' for Inactive)
ROOT
ATOM      1  C   UNL d   1       2.377  -0.081  -2.368  0.00  0.00     0.023 A 
ATOM      2  C1  UNL d   1       2.515  -0.178  -0.984  0.00  0.00     0.003 A 
ATOM      3  C2  UNL d   1       1.386  -0.125  -0.163  0.00  0.00     0.048 A 
ATOM      4  C3  UNL d   1       0.123   0.025  -0.734  0.00  0.00     0.023 A 
ATOM      5  C4  UNL d   1      -0.020   0.121  -2.119  0.00  0.00     0.048 A 
ATOM      6  C5  UNL d   1       1.111   0.069  -2.935  0.00  0.00     0.003 A 
ATOM      7  I   UNL d   1      -1.558   0.104   0.486  0.00  0.00    -0.146 I 
ENDROOT
TORSDOF 0
ENDMDL
