MODEL 1
REMARK minimizedAffinity -3.86188626
REMARK minimizedRMSD -1
REMARK  0 active torsions:
REMARK  status: ('A' for Active; 'I' for Inactive)
ROOT
ATOM      1  C   UNL d   1      -0.975   0.046   0.072  0.00  0.00     0.023 A 
ATOM      2  C1  UNL d   1       0.350  -0.182   0.443  0.00  0.00     0.003 A 
ATOM      3  C2  UNL d   1       1.315  -0.440  -0.533  0.00  0.00     0.048 A 
ATOM      4  C3  UNL d   1       0.948  -0.468  -1.878  0.00  0.00     0.023 A 
ATOM      5  C4  UNL d   1      -0.376  -0.239  -2.254  0.00  0.00     0.048 A 
ATOM      6  C5  UNL d   1      -1.338   0.017  -1.274  0.00  0.00     0.003 A 
ATOM      7  I   UNL d   1       2.383  -0.852  -3.332  0.00  0.00    -0.146 I 
ENDROOT
TORSDOF 0
ENDMDL
