MODEL 1
REMARK minimizedAffinity -5.16901636
REMARK minimizedRMSD -1
REMARK  0 active torsions:
REMARK  status: ('A' for Active; 'I' for Inactive)
ROOT
ATOM      1  C   UNL d   1       1.159   0.012  -5.177  0.00  0.00     0.023 A 
ATOM      2  C1  UNL d   1       0.114   0.780  -4.664  0.00  0.00     0.003 A 
ATOM      3  C2  UNL d   1      -0.122   0.811  -3.288  0.00  0.00     0.048 A 
ATOM      4  C3  UNL d   1       0.693   0.072  -2.430  0.00  0.00     0.023 A 
ATOM      5  C4  UNL d   1       1.741  -0.697  -2.939  0.00  0.00     0.048 A 
ATOM      6  C5  UNL d   1       1.972  -0.726  -4.315  0.00  0.00     0.003 A 
ATOM      7  I   UNL d   1       0.345   0.117  -0.381  0.00  0.00    -0.146 I 
ENDROOT
TORSDOF 0
ENDMDL
