MODEL 1
REMARK minimizedAffinity -4.21352386
REMARK minimizedRMSD -1
REMARK  0 active torsions:
REMARK  status: ('A' for Active; 'I' for Inactive)
ROOT
ATOM      1  C   UNL d   1      -3.282  -0.466  -0.368  0.00  0.00     0.023 A 
ATOM      2  C1  UNL d   1      -2.146   0.030  -1.008  0.00  0.00     0.003 A 
ATOM      3  C2  UNL d   1      -0.875  -0.276  -0.516  0.00  0.00     0.048 A 
ATOM      4  C3  UNL d   1      -0.748  -1.079   0.617  0.00  0.00     0.023 A 
ATOM      5  C4  UNL d   1      -1.882  -1.578   1.260  0.00  0.00     0.048 A 
ATOM      6  C5  UNL d   1      -3.150  -1.269   0.764  0.00  0.00     0.003 A 
ATOM      7  I   UNL d   1       1.142  -1.535   1.352  0.00  0.00    -0.146 I 
ENDROOT
TORSDOF 0
ENDMDL
