MODEL 1
REMARK minimizedAffinity -2.79757333
REMARK minimizedRMSD -1
REMARK  0 active torsions:
REMARK  status: ('A' for Active; 'I' for Inactive)
ROOT
ATOM      1  C   UNL d   1      -2.442  -2.030   0.689  0.00  0.00     0.023 A 
ATOM      2  C1  UNL d   1      -1.401  -2.258   1.589  0.00  0.00     0.003 A 
ATOM      3  C2  UNL d   1      -0.294  -1.407   1.610  0.00  0.00     0.048 A 
ATOM      4  C3  UNL d   1      -0.236  -0.328   0.728  0.00  0.00     0.023 A 
ATOM      5  C4  UNL d   1      -1.275  -0.095  -0.174  0.00  0.00     0.048 A 
ATOM      6  C5  UNL d   1      -2.379  -0.950  -0.191  0.00  0.00     0.003 A 
ATOM      7  I   UNL d   1       1.410   0.941   0.757  0.00  0.00    -0.146 I 
ENDROOT
TORSDOF 0
ENDMDL
