MODEL 1
REMARK minimizedAffinity -4.2022872
REMARK minimizedRMSD -1
REMARK  0 active torsions:
REMARK  status: ('A' for Active; 'I' for Inactive)
ROOT
ATOM      1  C   UNL d   1      -2.679  -1.130  -0.751  0.00  0.00     0.023 A 
ATOM      2  C1  UNL d   1      -1.727  -0.686  -1.670  0.00  0.00     0.003 A 
ATOM      3  C2  UNL d   1      -0.550  -0.084  -1.221  0.00  0.00     0.048 A 
ATOM      4  C3  UNL d   1      -0.330   0.069   0.147  0.00  0.00     0.023 A 
ATOM      5  C4  UNL d   1      -1.279  -0.374   1.070  0.00  0.00     0.048 A 
ATOM      6  C5  UNL d   1      -2.455  -0.974   0.616  0.00  0.00     0.003 A 
ATOM      7  I   UNL d   1       1.422   0.964   0.817  0.00  0.00    -0.146 I 
ENDROOT
TORSDOF 0
ENDMDL
