MODEL 1
REMARK minimizedAffinity 5.27253723
REMARK minimizedRMSD -1
REMARK  3 active torsions:
REMARK  status: ('A' for Active; 'I' for Inactive)
REMARK    1  A    between atoms: C3'_2  and  C2'_3 
REMARK    2  A    between atoms: C2'_3  and  C1'_4 
REMARK    3  A    between atoms: C1'_4  and  C1_5 
ROOT
ATOM      1  C1  N4B d   1       4.549   1.245   1.823  0.00  0.00    -0.075 A 
ATOM      2  C2  N4B d   1       3.561   2.104   1.294  0.00  0.00     0.002 A 
ATOM      3  C3  N4B d   1       3.818   2.826   0.155  0.00  0.00     0.002 A 
ATOM      4  C4  N4B d   1       5.057   2.721  -0.459  0.00  0.00    -0.004 A 
ATOM      5  C5  N4B d   1       5.997   1.869   0.044  0.00  0.00     0.002 A 
ATOM      6  C6  N4B d   1       5.751   1.134   1.186  0.00  0.00     0.002 A 
ENDROOT
BRANCH   1   7
ATOM      7  C1' N4B d   1       4.345   0.500   3.114  0.00  0.00     0.057 C 
BRANCH   7   8
ATOM      8  C2' N4B d   1       3.459   1.333   4.038  0.00  0.00     0.009 C 
BRANCH   8   9
ATOM      9  C3' N4B d   1       4.262   2.355   4.824  0.00  0.00     0.004 C 
ATOM     10  C4' N4B d   1       3.510   2.903   6.000  0.00  0.00     0.003 C 
ENDBRANCH   8   9
ENDBRANCH   7   8
ENDBRANCH   1   7
TORSDOF 3
ENDMDL
