MODEL 1
REMARK minimizedAffinity 15.4841127
REMARK minimizedRMSD -1
REMARK  3 active torsions:
REMARK  status: ('A' for Active; 'I' for Inactive)
REMARK    1  A    between atoms: C3'_2  and  C2'_3 
REMARK    2  A    between atoms: C2'_3  and  C1'_4 
REMARK    3  A    between atoms: C1'_4  and  C1_5 
ROOT
ATOM      1  C1  N4B d   1      -2.295   3.080  -5.370  0.00  0.00    -0.075 A 
ATOM      2  C2  N4B d   1      -2.477   2.036  -4.437  0.00  0.00     0.002 A 
ATOM      3  C3  N4B d   1      -1.390   1.355  -3.948  0.00  0.00     0.002 A 
ATOM      4  C4  N4B d   1      -0.118   1.686  -4.390  0.00  0.00    -0.004 A 
ATOM      5  C5  N4B d   1       0.052   2.713  -5.272  0.00  0.00     0.002 A 
ATOM      6  C6  N4B d   1      -1.032   3.409  -5.769  0.00  0.00     0.002 A 
ENDROOT
BRANCH   1   7
ATOM      7  C1' N4B d   1      -3.459   3.797  -5.998  0.00  0.00     0.057 C 
BRANCH   7   8
ATOM      8  C2' N4B d   1      -4.724   2.967  -5.798  0.00  0.00     0.009 C 
BRANCH   8   9
ATOM      9  C3' N4B d   1      -5.983   3.794  -5.997  0.00  0.00     0.004 C 
ATOM     10  C4' N4B d   1      -5.831   5.208  -5.521  0.00  0.00     0.003 C 
ENDBRANCH   8   9
ENDBRANCH   7   8
ENDBRANCH   1   7
TORSDOF 3
ENDMDL
