MODEL 1
REMARK minimizedAffinity 12.420187
REMARK minimizedRMSD -1
REMARK  3 active torsions:
REMARK  status: ('A' for Active; 'I' for Inactive)
REMARK    1  A    between atoms: C3'_2  and  C2'_3 
REMARK    2  A    between atoms: C2'_3  and  C1'_4 
REMARK    3  A    between atoms: C1'_4  and  C1_5 
ROOT
ATOM      1  C1  N4B d   1      -2.601  -0.226   1.719  0.00  0.00    -0.075 A 
ATOM      2  C2  N4B d   1      -2.541   1.107   2.180  0.00  0.00     0.002 A 
ATOM      3  C3  N4B d   1      -2.531   1.368   3.529  0.00  0.00     0.002 A 
ATOM      4  C4  N4B d   1      -2.600   0.317   4.431  0.00  0.00    -0.004 A 
ATOM      5  C5  N4B d   1      -2.632  -0.970   3.978  0.00  0.00     0.002 A 
ATOM      6  C6  N4B d   1      -2.639  -1.246   2.625  0.00  0.00     0.002 A 
ENDROOT
BRANCH   1   7
ATOM      7  C1' N4B d   1      -2.700  -0.557   0.255  0.00  0.00     0.057 C 
BRANCH   7   8
ATOM      8  C2' N4B d   1      -1.862  -1.798  -0.036  0.00  0.00     0.009 C 
BRANCH   8   9
ATOM      9  C3' N4B d   1      -1.212  -1.735  -1.408  0.00  0.00     0.004 C 
ATOM     10  C4' N4B d   1      -2.043  -0.991  -2.410  0.00  0.00     0.003 C 
ENDBRANCH   8   9
ENDBRANCH   7   8
ENDBRANCH   1   7
TORSDOF 3
ENDMDL
