MODEL 1
REMARK minimizedAffinity 7.49899292
REMARK minimizedRMSD -1
REMARK  3 active torsions:
REMARK  status: ('A' for Active; 'I' for Inactive)
REMARK    1  A    between atoms: C3'_2  and  C2'_3 
REMARK    2  A    between atoms: C2'_3  and  C1'_4 
REMARK    3  A    between atoms: C1'_4  and  C1_5 
ROOT
ATOM      1  C1  N4B d   1      -5.296   5.588  -1.510  0.00  0.00    -0.075 A 
ATOM      2  C2  N4B d   1      -5.985   5.834  -2.718  0.00  0.00     0.002 A 
ATOM      3  C3  N4B d   1      -5.292   5.901  -3.902  0.00  0.00     0.002 A 
ATOM      4  C4  N4B d   1      -3.915   5.744  -3.900  0.00  0.00    -0.004 A 
ATOM      5  C5  N4B d   1      -3.260   5.481  -2.732  0.00  0.00     0.002 A 
ATOM      6  C6  N4B d   1      -3.944   5.408  -1.535  0.00  0.00     0.002 A 
ENDROOT
BRANCH   1   7
ATOM      7  C1' N4B d   1      -5.999   5.592  -0.180  0.00  0.00     0.057 C 
BRANCH   7   8
ATOM      8  C2' N4B d   1      -5.813   4.233   0.489  0.00  0.00     0.009 C 
BRANCH   8   9
ATOM      9  C3' N4B d   1      -4.455   3.628   0.176  0.00  0.00     0.004 C 
ATOM     10  C4' N4B d   1      -3.825   2.969   1.367  0.00  0.00     0.003 C 
ENDBRANCH   8   9
ENDBRANCH   7   8
ENDBRANCH   1   7
TORSDOF 3
ENDMDL
