MODEL 1
REMARK minimizedAffinity 10.6787128
REMARK minimizedRMSD -1
REMARK  3 active torsions:
REMARK  status: ('A' for Active; 'I' for Inactive)
REMARK    1  A    between atoms: C3'_2  and  C2'_3 
REMARK    2  A    between atoms: C2'_3  and  C1'_4 
REMARK    3  A    between atoms: C1'_4  and  C1_5 
ROOT
ATOM      1  C1  N4B d   1       4.719   2.457   1.469  0.00  0.00    -0.075 A 
ATOM      2  C2  N4B d   1       4.379   2.592   2.833  0.00  0.00     0.002 A 
ATOM      3  C3  N4B d   1       4.856   1.689   3.752  0.00  0.00     0.002 A 
ATOM      4  C4  N4B d   1       5.655   0.638   3.329  0.00  0.00    -0.004 A 
ATOM      5  C5  N4B d   1       6.000   0.529   2.013  0.00  0.00     0.002 A 
ATOM      6  C6  N4B d   1       5.531   1.431   1.080  0.00  0.00     0.002 A 
ENDROOT
BRANCH   1   7
ATOM      7  C1' N4B d   1       4.152   3.369   0.415  0.00  0.00     0.057 C 
BRANCH   7   8
ATOM      8  C2' N4B d   1       5.292   4.136  -0.249  0.00  0.00     0.009 C 
BRANCH   8   9
ATOM      9  C3' N4B d   1       5.167   5.635  -0.038  0.00  0.00     0.004 C 
ATOM     10  C4' N4B d   1       4.882   5.999   1.389  0.00  0.00     0.003 C 
ENDBRANCH   8   9
ENDBRANCH   7   8
ENDBRANCH   1   7
TORSDOF 3
ENDMDL
