MODEL 1
REMARK minimizedAffinity 17.1962547
REMARK minimizedRMSD -1
REMARK  3 active torsions:
REMARK  status: ('A' for Active; 'I' for Inactive)
REMARK    1  A    between atoms: C3'_2  and  C2'_3 
REMARK    2  A    between atoms: C2'_3  and  C1'_4 
REMARK    3  A    between atoms: C1'_4  and  C1_5 
ROOT
ATOM      1  C1  N4B d   1       4.280   2.506   2.422  0.00  0.00    -0.075 A 
ATOM      2  C2  N4B d   1       5.234   1.474   2.285  0.00  0.00     0.002 A 
ATOM      3  C3  N4B d   1       5.947   1.348   1.117  0.00  0.00     0.002 A 
ATOM      4  C4  N4B d   1       5.709   2.227   0.071  0.00  0.00    -0.004 A 
ATOM      5  C5  N4B d   1       4.803   3.236   0.221  0.00  0.00     0.002 A 
ATOM      6  C6  N4B d   1       4.083   3.377   1.390  0.00  0.00     0.002 A 
ENDROOT
BRANCH   1   7
ATOM      7  C1' N4B d   1       3.416   2.631   3.647  0.00  0.00     0.057 C 
BRANCH   7   8
ATOM      8  C2' N4B d   1       4.284   3.048   4.831  0.00  0.00     0.009 C 
BRANCH   8   9
ATOM      9  C3' N4B d   1       3.454   3.610   5.973  0.00  0.00     0.004 C 
ATOM     10  C4' N4B d   1       3.440   5.110   5.997  0.00  0.00     0.003 C 
ENDBRANCH   8   9
ENDBRANCH   7   8
ENDBRANCH   1   7
TORSDOF 3
ENDMDL
