MODEL 1
REMARK minimizedAffinity 8.33025932
REMARK minimizedRMSD -1
REMARK  3 active torsions:
REMARK  status: ('A' for Active; 'I' for Inactive)
REMARK    1  A    between atoms: C3'_2  and  C2'_3 
REMARK    2  A    between atoms: C2'_3  and  C1'_4 
REMARK    3  A    between atoms: C1'_4  and  C1_5 
ROOT
ATOM      1  C1  N4B d   1      -1.631  -2.783   1.387  0.00  0.00    -0.075 A 
ATOM      2  C2  N4B d   1      -1.464  -3.861   0.491  0.00  0.00     0.002 A 
ATOM      3  C3  N4B d   1      -1.688  -3.679  -0.851  0.00  0.00     0.002 A 
ATOM      4  C4  N4B d   1      -2.098  -2.439  -1.316  0.00  0.00    -0.004 A 
ATOM      5  C5  N4B d   1      -2.232  -1.396  -0.448  0.00  0.00     0.002 A 
ATOM      6  C6  N4B d   1      -2.006  -1.563   0.904  0.00  0.00     0.002 A 
ENDROOT
BRANCH   1   7
ATOM      7  C1' N4B d   1      -1.481  -2.955   2.874  0.00  0.00     0.057 C 
BRANCH   7   8
ATOM      8  C2' N4B d   1      -2.399  -1.968   3.588  0.00  0.00     0.009 C 
BRANCH   8   9
ATOM      9  C3' N4B d   1      -1.629  -1.041   4.512  0.00  0.00     0.004 C 
ATOM     10  C4' N4B d   1      -2.165   0.360   4.509  0.00  0.00     0.003 C 
ENDBRANCH   8   9
ENDBRANCH   7   8
ENDBRANCH   1   7
TORSDOF 3
ENDMDL
