MODEL 1
REMARK minimizedAffinity 13.7199345
REMARK minimizedRMSD -1
REMARK  3 active torsions:
REMARK  status: ('A' for Active; 'I' for Inactive)
REMARK    1  A    between atoms: C3'_2  and  C2'_3 
REMARK    2  A    between atoms: C2'_3  and  C1'_4 
REMARK    3  A    between atoms: C1'_4  and  C1_5 
ROOT
ATOM      1  C1  N4B d   1       4.710   3.537   0.796  0.00  0.00    -0.075 A 
ATOM      2  C2  N4B d   1       4.401   4.729   1.489  0.00  0.00     0.002 A 
ATOM      3  C3  N4B d   1       4.902   5.929   1.048  0.00  0.00     0.002 A 
ATOM      4  C4  N4B d   1       5.726   5.960  -0.067  0.00  0.00    -0.004 A 
ATOM      5  C5  N4B d   1       5.999   4.808  -0.745  0.00  0.00     0.002 A 
ATOM      6  C6  N4B d   1       5.499   3.595  -0.316  0.00  0.00     0.002 A 
ENDROOT
BRANCH   1   7
ATOM      7  C1' N4B d   1       4.256   2.191   1.290  0.00  0.00     0.057 C 
BRANCH   7   8
ATOM      8  C2' N4B d   1       4.663   2.030   2.752  0.00  0.00     0.009 C 
BRANCH   8   9
ATOM      9  C3' N4B d   1       5.998   1.320   2.895  0.00  0.00     0.004 C 
ATOM     10  C4' N4B d   1       5.874  -0.026   3.545  0.00  0.00     0.003 C 
ENDBRANCH   8   9
ENDBRANCH   7   8
ENDBRANCH   1   7
TORSDOF 3
ENDMDL
