MODEL 1
REMARK minimizedAffinity 10.6521406
REMARK minimizedRMSD -1
REMARK  3 active torsions:
REMARK  status: ('A' for Active; 'I' for Inactive)
REMARK    1  A    between atoms: C3'_2  and  C2'_3 
REMARK    2  A    between atoms: C2'_3  and  C1'_4 
REMARK    3  A    between atoms: C1'_4  and  C1_5 
ROOT
ATOM      1  C1  N4B d   1      -3.632  -0.305   5.910  0.00  0.00    -0.075 A 
ATOM      2  C2  N4B d   1      -3.283   1.063   5.928  0.00  0.00     0.002 A 
ATOM      3  C3  N4B d   1      -4.265   2.022   5.978  0.00  0.00     0.002 A 
ATOM      4  C4  N4B d   1      -5.598   1.638   5.991  0.00  0.00    -0.004 A 
ATOM      5  C5  N4B d   1      -5.926   0.314   5.999  0.00  0.00     0.002 A 
ATOM      6  C6  N4B d   1      -4.950  -0.660   5.953  0.00  0.00     0.002 A 
ENDROOT
BRANCH   1   7
ATOM      7  C1' N4B d   1      -2.597  -1.388   5.769  0.00  0.00     0.057 C 
BRANCH   7   8
ATOM      8  C2' N4B d   1      -2.206  -1.518   4.300  0.00  0.00     0.009 C 
BRANCH   8   9
ATOM      9  C3' N4B d   1      -3.068  -2.533   3.570  0.00  0.00     0.004 C 
ATOM     10  C4' N4B d   1      -2.826  -2.543   2.090  0.00  0.00     0.003 C 
ENDBRANCH   8   9
ENDBRANCH   7   8
ENDBRANCH   1   7
TORSDOF 3
ENDMDL
