MODEL 1
REMARK minimizedAffinity 10.4390097
REMARK minimizedRMSD -1
REMARK  3 active torsions:
REMARK  status: ('A' for Active; 'I' for Inactive)
REMARK    1  A    between atoms: C3'_2  and  C2'_3 
REMARK    2  A    between atoms: C2'_3  and  C1'_4 
REMARK    3  A    between atoms: C1'_4  and  C1_5 
ROOT
ATOM      1  C1  N4B d   1      -0.964  -2.826   0.206  0.00  0.00    -0.075 A 
ATOM      2  C2  N4B d   1      -1.047  -2.077  -0.989  0.00  0.00     0.002 A 
ATOM      3  C3  N4B d   1      -2.127  -1.259  -1.213  0.00  0.00     0.002 A 
ATOM      4  C4  N4B d   1      -3.140  -1.187  -0.269  0.00  0.00    -0.004 A 
ATOM      5  C5  N4B d   1      -3.041  -1.894   0.894  0.00  0.00     0.002 A 
ATOM      6  C6  N4B d   1      -1.959  -2.717   1.134  0.00  0.00     0.002 A 
ENDROOT
BRANCH   1   7
ATOM      7  C1' N4B d   1       0.155  -3.799   0.457  0.00  0.00     0.057 C 
BRANCH   7   8
ATOM      8  C2' N4B d   1      -0.436  -5.159   0.819  0.00  0.00     0.009 C 
BRANCH   8   9
ATOM      9  C3' N4B d   1      -0.729  -5.997  -0.413  0.00  0.00     0.004 C 
ATOM     10  C4' N4B d   1      -0.245  -5.357  -1.680  0.00  0.00     0.003 C 
ENDBRANCH   8   9
ENDBRANCH   7   8
ENDBRANCH   1   7
TORSDOF 3
ENDMDL
