MODEL 1
REMARK minimizedAffinity 12.515625
REMARK minimizedRMSD -1
REMARK  0 active torsions:
REMARK  status: ('A' for Active; 'I' for Inactive)
ROOT
ATOM      1  C   UNL d   1      -3.188   0.789   1.714  0.00  0.00     0.020 A 
ATOM      2  C1  UNL d   1      -2.618  -0.037   0.746  0.00  0.00     0.020 A 
ATOM      3  C2  UNL d   1      -1.559  -0.881   1.084  0.00  0.00     0.034 A 
ATOM      4  C3  UNL d   1      -1.066  -0.902   2.394  0.00  0.00     0.017 A 
ATOM      5  C4  UNL d   1      -1.638  -0.072   3.365  0.00  0.00     0.017 A 
ATOM      6  C5  UNL d   1      -2.699   0.772   3.021  0.00  0.00     0.034 A 
ATOM      7 Cl   UNL d   1      -1.084  -0.042   5.002  0.00  0.00    -0.070 Cl
ATOM      8 Cl1  UNL d   1       0.246  -1.971   2.742  0.00  0.00    -0.070 Cl
ENDROOT
TORSDOF 0
ENDMDL
