MODEL 1
REMARK minimizedAffinity 16.202549
REMARK minimizedRMSD -1
REMARK  0 active torsions:
REMARK  status: ('A' for Active; 'I' for Inactive)
ROOT
ATOM      1  C   UNL d   1      -1.243  -1.509   2.336  0.00  0.00     0.020 A 
ATOM      2  C1  UNL d   1      -0.677  -0.955   3.483  0.00  0.00     0.020 A 
ATOM      3  C2  UNL d   1      -1.274   0.151   4.092  0.00  0.00     0.034 A 
ATOM      4  C3  UNL d   1      -2.442   0.705   3.555  0.00  0.00     0.017 A 
ATOM      5  C4  UNL d   1      -3.009   0.148   2.403  0.00  0.00     0.017 A 
ATOM      6  C5  UNL d   1      -2.406  -0.959   1.797  0.00  0.00     0.034 A 
ATOM      7 Cl   UNL d   1      -4.448   0.776   1.681  0.00  0.00    -0.070 Cl
ATOM      8 Cl1  UNL d   1      -3.127   2.071   4.360  0.00  0.00    -0.070 Cl
ENDROOT
TORSDOF 0
ENDMDL
