MODEL 1
REMARK minimizedAffinity 6.11661053
REMARK minimizedRMSD -1
REMARK  0 active torsions:
REMARK  status: ('A' for Active; 'I' for Inactive)
ROOT
ATOM      1  C   UNL d   1       6.000   4.471  -1.370  0.00  0.00     0.020 A 
ATOM      2  C1  UNL d   1       5.230   5.633  -1.411  0.00  0.00     0.020 A 
ATOM      3  C2  UNL d   1       4.460   6.000  -0.306  0.00  0.00     0.034 A 
ATOM      4  C3  UNL d   1       4.458   5.204   0.846  0.00  0.00     0.017 A 
ATOM      5  C4  UNL d   1       5.231   4.038   0.886  0.00  0.00     0.017 A 
ATOM      6  C5  UNL d   1       6.000   3.676  -0.224  0.00  0.00     0.034 A 
ATOM      7 Cl   UNL d   1       5.279   3.005   2.271  0.00  0.00    -0.070 Cl
ATOM      8 Cl1  UNL d   1       3.482   5.718   2.176  0.00  0.00    -0.070 Cl
ENDROOT
TORSDOF 0
ENDMDL
