MODEL 1
REMARK minimizedAffinity 21.6938381
REMARK minimizedRMSD -1
REMARK  0 active torsions:
REMARK  status: ('A' for Active; 'I' for Inactive)
ROOT
ATOM      1  C   UNL d   1       2.215  -5.477  -2.944  0.00  0.00     0.020 A 
ATOM      2  C1  UNL d   1       2.461  -5.929  -4.240  0.00  0.00     0.020 A 
ATOM      3  C2  UNL d   1       1.419  -5.989  -5.168  0.00  0.00     0.034 A 
ATOM      4  C3  UNL d   1       0.126  -5.596  -4.801  0.00  0.00     0.017 A 
ATOM      5  C4  UNL d   1      -0.119  -5.143  -3.500  0.00  0.00     0.017 A 
ATOM      6  C5  UNL d   1       0.928  -5.085  -2.575  0.00  0.00     0.034 A 
ATOM      7 Cl   UNL d   1      -1.687  -4.641  -2.973  0.00  0.00    -0.070 Cl
ATOM      8 Cl1  UNL d   1      -1.114  -5.696  -6.000  0.00  0.00    -0.070 Cl
ENDROOT
TORSDOF 0
ENDMDL
