MODEL 1
REMARK minimizedAffinity 12.1701736
REMARK minimizedRMSD -1
REMARK  0 active torsions:
REMARK  status: ('A' for Active; 'I' for Inactive)
ROOT
ATOM      1  C   UNL d   1      -3.987   2.211   4.855  0.00  0.00     0.020 A 
ATOM      2  C1  UNL d   1      -2.664   1.924   5.192  0.00  0.00     0.020 A 
ATOM      3  C2  UNL d   1      -1.882   1.140   4.341  0.00  0.00     0.034 A 
ATOM      4  C3  UNL d   1      -2.421   0.641   3.150  0.00  0.00     0.017 A 
ATOM      5  C4  UNL d   1      -3.748   0.929   2.813  0.00  0.00     0.017 A 
ATOM      6  C5  UNL d   1      -4.527   1.715   3.668  0.00  0.00     0.034 A 
ATOM      7 Cl   UNL d   1      -4.483   0.349   1.360  0.00  0.00    -0.070 Cl
ATOM      8 Cl1  UNL d   1      -1.396  -0.321   2.145  0.00  0.00    -0.070 Cl
ENDROOT
TORSDOF 0
ENDMDL
