MODEL 1
REMARK minimizedAffinity 16.9362869
REMARK minimizedRMSD -1
REMARK  0 active torsions:
REMARK  status: ('A' for Active; 'I' for Inactive)
ROOT
ATOM      1  C   UNL d   1      -1.831   0.711   4.242  0.00  0.00     0.020 A 
ATOM      2  C1  UNL d   1      -3.040   1.403   4.192  0.00  0.00     0.020 A 
ATOM      3  C2  UNL d   1      -3.986   1.087   3.214  0.00  0.00     0.034 A 
ATOM      4  C3  UNL d   1      -3.725   0.076   2.283  0.00  0.00     0.017 A 
ATOM      5  C4  UNL d   1      -2.511  -0.619   2.334  0.00  0.00     0.017 A 
ATOM      6  C5  UNL d   1      -1.567  -0.298   3.315  0.00  0.00     0.034 A 
ATOM      7 Cl   UNL d   1      -2.117  -1.879   1.218  0.00  0.00    -0.070 Cl
ATOM      8 Cl1  UNL d   1      -4.940  -0.262   1.102  0.00  0.00    -0.070 Cl
ENDROOT
TORSDOF 0
ENDMDL
