MODEL 1
REMARK minimizedAffinity 7.48248434
REMARK minimizedRMSD -1
REMARK  0 active torsions:
REMARK  status: ('A' for Active; 'I' for Inactive)
ROOT
ATOM      1  C   UNL d   1      -1.765   0.833   4.147  0.00  0.00     0.020 A 
ATOM      2  C1  UNL d   1      -0.644   0.683   4.962  0.00  0.00     0.020 A 
ATOM      3  C2  UNL d   1       0.309  -0.295   4.665  0.00  0.00     0.034 A 
ATOM      4  C3  UNL d   1       0.142  -1.125   3.551  0.00  0.00     0.017 A 
ATOM      5  C4  UNL d   1      -0.984  -0.973   2.734  0.00  0.00     0.017 A 
ATOM      6  C5  UNL d   1      -1.935   0.007   3.035  0.00  0.00     0.034 A 
ATOM      7 Cl   UNL d   1      -1.259  -1.960   1.342  0.00  0.00    -0.070 Cl
ATOM      8 Cl1  UNL d   1       1.359  -2.312   3.244  0.00  0.00    -0.070 Cl
ENDROOT
TORSDOF 0
ENDMDL
