MODEL 1
REMARK minimizedAffinity 10.8313541
REMARK minimizedRMSD -1
REMARK  0 active torsions:
REMARK  status: ('A' for Active; 'I' for Inactive)
ROOT
ATOM      1  C   UNL d   1      -3.839   1.391   3.987  0.00  0.00     0.020 A 
ATOM      2  C1  UNL d   1      -2.490   1.067   4.129  0.00  0.00     0.020 A 
ATOM      3  C2  UNL d   1      -1.906   0.121   3.284  0.00  0.00     0.034 A 
ATOM      4  C3  UNL d   1      -2.672  -0.505   2.293  0.00  0.00     0.017 A 
ATOM      5  C4  UNL d   1      -4.026  -0.179   2.151  0.00  0.00     0.017 A 
ATOM      6  C5  UNL d   1      -4.605   0.769   3.000  0.00  0.00     0.034 A 
ATOM      7 Cl   UNL d   1      -5.034  -0.909   0.952  0.00  0.00    -0.070 Cl
ATOM      8 Cl1  UNL d   1      -1.885  -1.665   1.282  0.00  0.00    -0.070 Cl
ENDROOT
TORSDOF 0
ENDMDL
