MODEL 1
REMARK minimizedAffinity 4.56696129
REMARK minimizedRMSD -1
REMARK  0 active torsions:
REMARK  status: ('A' for Active; 'I' for Inactive)
ROOT
ATOM      1  C   UNL d   1       6.000  -4.812  -0.829  0.00  0.00     0.020 A 
ATOM      2  C1  UNL d   1       5.036  -5.722  -0.397  0.00  0.00     0.020 A 
ATOM      3  C2  UNL d   1       3.751  -5.279  -0.078  0.00  0.00     0.034 A 
ATOM      4  C3  UNL d   1       3.425  -3.922  -0.191  0.00  0.00     0.017 A 
ATOM      5  C4  UNL d   1       4.393  -3.009  -0.625  0.00  0.00     0.017 A 
ATOM      6  C5  UNL d   1       5.679  -3.458  -0.943  0.00  0.00     0.034 A 
ATOM      7 Cl   UNL d   1       4.067  -1.320  -0.790  0.00  0.00    -0.070 Cl
ATOM      8 Cl1  UNL d   1       1.816  -3.445   0.219  0.00  0.00    -0.070 Cl
ENDROOT
TORSDOF 0
ENDMDL
