MODEL 1
REMARK minimizedAffinity 18.8843765
REMARK minimizedRMSD -1
REMARK  0 active torsions:
REMARK  status: ('A' for Active; 'I' for Inactive)
ROOT
ATOM      1  C   UNL d   1       6.000  -4.943   0.479  0.00  0.00     0.020 A 
ATOM      2  C1  UNL d   1       5.098  -6.000   0.359  0.00  0.00     0.020 A 
ATOM      3  C2  UNL d   1       3.924  -5.835  -0.379  0.00  0.00     0.034 A 
ATOM      4  C3  UNL d   1       3.648  -4.611  -0.999  0.00  0.00     0.017 A 
ATOM      5  C4  UNL d   1       4.554  -3.551  -0.877  0.00  0.00     0.017 A 
ATOM      6  C5  UNL d   1       5.728  -3.721  -0.138  0.00  0.00     0.034 A 
ATOM      7 Cl   UNL d   1       4.283  -2.011  -1.614  0.00  0.00    -0.070 Cl
ATOM      8 Cl1  UNL d   1       2.177  -4.477  -1.895  0.00  0.00    -0.070 Cl
ENDROOT
TORSDOF 0
ENDMDL
