MODEL 1
REMARK minimizedAffinity 11.6595325
REMARK minimizedRMSD -1
REMARK  0 active torsions:
REMARK  status: ('A' for Active; 'I' for Inactive)
ROOT
ATOM      1  C   UNL d   1      -0.126  -0.200   4.228  0.00  0.00     0.020 A 
ATOM      2  C1  UNL d   1      -1.130   0.542   3.608  0.00  0.00     0.020 A 
ATOM      3  C2  UNL d   1      -1.735   0.062   2.444  0.00  0.00     0.034 A 
ATOM      4  C3  UNL d   1      -1.336  -1.164   1.898  0.00  0.00     0.017 A 
ATOM      5  C4  UNL d   1      -0.329  -1.908   2.522  0.00  0.00     0.017 A 
ATOM      6  C5  UNL d   1       0.274  -1.423   3.686  0.00  0.00     0.034 A 
ATOM      7 Cl   UNL d   1       0.216  -3.429   1.907  0.00  0.00    -0.070 Cl
ATOM      8 Cl1  UNL d   1      -2.128  -1.696   0.457  0.00  0.00    -0.070 Cl
ENDROOT
TORSDOF 0
ENDMDL
