MODEL 1
REMARK minimizedAffinity 6.2962265
REMARK minimizedRMSD -1
REMARK  0 active torsions:
REMARK  status: ('A' for Active; 'I' for Inactive)
ROOT
ATOM      1  C   UNL d   1      -2.342   1.161   4.626  0.00  0.00     0.020 A 
ATOM      2  C1  UNL d   1      -3.667   1.569   4.484  0.00  0.00     0.020 A 
ATOM      3  C2  UNL d   1      -4.426   1.114   3.403  0.00  0.00     0.034 A 
ATOM      4  C3  UNL d   1      -3.858   0.249   2.460  0.00  0.00     0.017 A 
ATOM      5  C4  UNL d   1      -2.528  -0.160   2.604  0.00  0.00     0.017 A 
ATOM      6  C5  UNL d   1      -1.773   0.299   3.688  0.00  0.00     0.034 A 
ATOM      7 Cl   UNL d   1      -1.759  -1.225   1.481  0.00  0.00    -0.070 Cl
ATOM      8 Cl1  UNL d   1      -4.854  -0.275   1.149  0.00  0.00    -0.070 Cl
ENDROOT
TORSDOF 0
ENDMDL
