MODEL 1
REMARK minimizedAffinity 11.6061945
REMARK minimizedRMSD -1
REMARK  0 active torsions:
REMARK  status: ('A' for Active; 'I' for Inactive)
ROOT
ATOM      1  C   UNL d   1      -1.734   0.461   4.008  0.00  0.00     0.020 A 
ATOM      2  C1  UNL d   1      -2.966   1.101   4.140  0.00  0.00     0.020 A 
ATOM      3  C2  UNL d   1      -4.016   0.779   3.277  0.00  0.00     0.034 A 
ATOM      4  C3  UNL d   1      -3.836  -0.184   2.278  0.00  0.00     0.017 A 
ATOM      5  C4  UNL d   1      -2.599  -0.825   2.146  0.00  0.00     0.017 A 
ATOM      6  C5  UNL d   1      -1.551  -0.500   3.013  0.00  0.00     0.034 A 
ATOM      7 Cl   UNL d   1      -2.301  -2.025   0.938  0.00  0.00    -0.070 Cl
ATOM      8 Cl1  UNL d   1      -5.177  -0.532   1.246  0.00  0.00    -0.070 Cl
ENDROOT
TORSDOF 0
ENDMDL
