MODEL 1
REMARK minimizedAffinity 10.2740669
REMARK minimizedRMSD -1
REMARK  0 active torsions:
REMARK  status: ('A' for Active; 'I' for Inactive)
ROOT
ATOM      1  C   UNL d   1       1.987   1.559  -0.583  0.00  0.00     0.020 A 
ATOM      2  C1  UNL d   1       1.495   2.587   0.220  0.00  0.00     0.020 A 
ATOM      3  C2  UNL d   1       1.275   3.854  -0.325  0.00  0.00     0.034 A 
ATOM      4  C3  UNL d   1       1.546   4.096  -1.676  0.00  0.00     0.017 A 
ATOM      5  C4  UNL d   1       2.040   3.063  -2.482  0.00  0.00     0.017 A 
ATOM      6  C5  UNL d   1       2.259   1.796  -1.931  0.00  0.00     0.034 A 
ATOM      7 Cl   UNL d   1       2.399   3.286  -4.158  0.00  0.00    -0.070 Cl
ATOM      8 Cl1  UNL d   1       1.250   5.686  -2.283  0.00  0.00    -0.070 Cl
ENDROOT
TORSDOF 0
ENDMDL
