MODEL 1
REMARK minimizedAffinity 17.1950073
REMARK minimizedRMSD -1
REMARK  0 active torsions:
REMARK  status: ('A' for Active; 'I' for Inactive)
ROOT
ATOM      1  C   UNL d   1       1.385   0.894   0.189  0.00  0.00     0.020 A 
ATOM      2  C1  UNL d   1       2.762   0.744   0.025  0.00  0.00     0.020 A 
ATOM      3  C2  UNL d   1       3.388   1.249  -1.117  0.00  0.00     0.034 A 
ATOM      4  C3  UNL d   1       2.637   1.907  -2.098  0.00  0.00     0.017 A 
ATOM      5  C4  UNL d   1       1.255   2.057  -1.932  0.00  0.00     0.017 A 
ATOM      6  C5  UNL d   1       0.634   1.549  -0.787  0.00  0.00     0.034 A 
ATOM      7 Cl   UNL d   1       0.263   2.857  -3.099  0.00  0.00    -0.070 Cl
ATOM      8 Cl1  UNL d   1       3.476   2.507  -3.484  0.00  0.00    -0.070 Cl
ENDROOT
TORSDOF 0
ENDMDL
