MODEL 1
REMARK minimizedAffinity -0.144007877
REMARK minimizedRMSD -1
REMARK  0 active torsions:
REMARK  status: ('A' for Active; 'I' for Inactive)
ROOT
ATOM      1  C   UNL d   1      -4.809   1.551   5.836  0.00  0.00     0.020 A 
ATOM      2  C1  UNL d   1      -6.000   1.495   5.114  0.00  0.00     0.020 A 
ATOM      3  C2  UNL d   1      -6.000   1.013   3.803  0.00  0.00     0.034 A 
ATOM      4  C3  UNL d   1      -4.806   0.584   3.211  0.00  0.00     0.017 A 
ATOM      5  C4  UNL d   1      -3.611   0.640   3.937  0.00  0.00     0.017 A 
ATOM      6  C5  UNL d   1      -3.617   1.124   5.249  0.00  0.00     0.034 A 
ATOM      7 Cl   UNL d   1      -2.099   0.129   3.274  0.00  0.00    -0.070 Cl
ATOM      8 Cl1  UNL d   1      -4.880  -0.001   1.587  0.00  0.00    -0.070 Cl
ENDROOT
TORSDOF 0
ENDMDL
