MODEL 1
REMARK minimizedAffinity 8.88256931
REMARK minimizedRMSD -1
REMARK  0 active torsions:
REMARK  status: ('A' for Active; 'I' for Inactive)
ROOT
ATOM      1  C   UNL d   1       1.448   2.183  -1.310  0.00  0.00     0.020 A 
ATOM      2  C1  UNL d   1       0.680   1.481  -2.238  0.00  0.00     0.020 A 
ATOM      3  C2  UNL d   1      -0.149   2.173  -3.123  0.00  0.00     0.034 A 
ATOM      4  C3  UNL d   1      -0.213   3.571  -3.082  0.00  0.00     0.017 A 
ATOM      5  C4  UNL d   1       0.558   4.274  -2.149  0.00  0.00     0.017 A 
ATOM      6  C5  UNL d   1       1.387   3.576  -1.265  0.00  0.00     0.034 A 
ATOM      7 Cl   UNL d   1       0.533   5.999  -2.038  0.00  0.00    -0.070 Cl
ATOM      8 Cl1  UNL d   1      -1.260   4.361  -4.206  0.00  0.00    -0.070 Cl
ENDROOT
TORSDOF 0
ENDMDL
