MODEL 1
REMARK minimizedAffinity 8.7072506
REMARK minimizedRMSD -1
REMARK  0 active torsions:
REMARK  status: ('A' for Active; 'I' for Inactive)
ROOT
ATOM      1  C   UNL d   1       5.772   3.473   0.913  0.00  0.00     0.020 A 
ATOM      2  C1  UNL d   1       5.021   3.602   2.082  0.00  0.00     0.020 A 
ATOM      3  C2  UNL d   1       3.737   3.060   2.150  0.00  0.00     0.034 A 
ATOM      4  C3  UNL d   1       3.198   2.385   1.048  0.00  0.00     0.017 A 
ATOM      5  C4  UNL d   1       3.952   2.256  -0.124  0.00  0.00     0.017 A 
ATOM      6  C5  UNL d   1       5.238   2.801  -0.187  0.00  0.00     0.034 A 
ATOM      7 Cl   UNL d   1       3.355   1.438  -1.525  0.00  0.00    -0.070 Cl
ATOM      8 Cl1  UNL d   1       1.603   1.739   1.202  0.00  0.00    -0.070 Cl
ENDROOT
TORSDOF 0
ENDMDL
