MODEL 1
REMARK minimizedAffinity 12.1680155
REMARK minimizedRMSD -1
REMARK  0 active torsions:
REMARK  status: ('A' for Active; 'I' for Inactive)
ROOT
ATOM      1  C   UNL d   1       6.000   3.382   0.762  0.00  0.00     0.020 A 
ATOM      2  C1  UNL d   1       4.953   3.896   1.526  0.00  0.00     0.020 A 
ATOM      3  C2  UNL d   1       3.724   3.234   1.562  0.00  0.00     0.034 A 
ATOM      4  C3  UNL d   1       3.539   2.053   0.834  0.00  0.00     0.017 A 
ATOM      5  C4  UNL d   1       4.591   1.538   0.067  0.00  0.00     0.017 A 
ATOM      6  C5  UNL d   1       5.819   2.205   0.035  0.00  0.00     0.034 A 
ATOM      7 Cl   UNL d   1       4.438   0.086  -0.858  0.00  0.00    -0.070 Cl
ATOM      8 Cl1  UNL d   1       1.994   1.286   0.925  0.00  0.00    -0.070 Cl
ENDROOT
TORSDOF 0
ENDMDL
