MODEL 1
REMARK minimizedAffinity 14.3884926
REMARK minimizedRMSD -1
REMARK  0 active torsions:
REMARK  status: ('A' for Active; 'I' for Inactive)
ROOT
ATOM      1  C   UNL d   1      -2.411   5.664  -5.056  0.00  0.00     0.020 A 
ATOM      2  C1  UNL d   1      -1.997   4.725  -6.000  0.00  0.00     0.020 A 
ATOM      3  C2  UNL d   1      -0.743   4.121  -5.880  0.00  0.00     0.034 A 
ATOM      4  C3  UNL d   1       0.100   4.456  -4.814  0.00  0.00     0.017 A 
ATOM      5  C4  UNL d   1      -0.317   5.399  -3.868  0.00  0.00     0.017 A 
ATOM      6  C5  UNL d   1      -1.573   6.000  -3.992  0.00  0.00     0.034 A 
ATOM      7 Cl   UNL d   1       0.668   5.863  -2.526  0.00  0.00    -0.070 Cl
ATOM      8 Cl1  UNL d   1       1.636   3.670  -4.728  0.00  0.00    -0.070 Cl
ENDROOT
TORSDOF 0
ENDMDL
