MODEL 1
REMARK minimizedAffinity 18.9569111
REMARK minimizedRMSD -1
REMARK  1 active torsions:
REMARK  status: ('A' for Active; 'I' for Inactive)
REMARK    1  A    between atoms: C1_2  and  C2_3 
ROOT
ATOM      1  C2  UNL d   1       4.679   3.478  -3.829  0.00  0.00    -0.081 A 
ATOM      2  C3  UNL d   1       3.475   4.100  -4.181  0.00  0.00     0.006 A 
ATOM      3  C4  UNL d   1       2.253   3.566  -3.762  0.00  0.00     0.002 A 
ATOM      4  C5  UNL d   1       2.217   2.408  -2.979  0.00  0.00    -0.080 A 
ATOM      5  C6  UNL d   1       0.914   1.841  -2.497  0.00  0.00     0.076 C 
ATOM      6  C7  UNL d   1       3.419   1.777  -2.642  0.00  0.00     0.002 A 
ATOM      7  C8  UNL d   1       4.640   2.309  -3.061  0.00  0.00     0.006 A 
ENDROOT
BRANCH   1   8
ATOM      8  C1  UNL d   1       6.000   4.087  -4.225  0.00  0.00     0.054 C 
ATOM      9  C   UNL d   1       5.953   5.607  -4.149  0.00  0.00     0.018 C 
ENDBRANCH   1   8
TORSDOF 1
ENDMDL
