MODEL 1
REMARK minimizedAffinity 10.6446266
REMARK minimizedRMSD -1
REMARK  1 active torsions:
REMARK  status: ('A' for Active; 'I' for Inactive)
REMARK    1  A    between atoms: C1_2  and  C2_3 
ROOT
ATOM      1  C2  UNL d   1      -3.306  -0.040   2.322  0.00  0.00    -0.081 A 
ATOM      2  C3  UNL d   1      -3.331  -1.432   2.168  0.00  0.00     0.006 A 
ATOM      3  C4  UNL d   1      -2.142  -2.148   2.010  0.00  0.00     0.002 A 
ATOM      4  C5  UNL d   1      -0.909  -1.486   2.009  0.00  0.00    -0.080 A 
ATOM      5  C6  UNL d   1       0.376  -2.247   1.870  0.00  0.00     0.076 C 
ATOM      6  C7  UNL d   1      -0.885  -0.094   2.145  0.00  0.00     0.002 A 
ATOM      7  C8  UNL d   1      -2.074   0.622   2.304  0.00  0.00     0.006 A 
ENDROOT
BRANCH   1   8
ATOM      8  C1  UNL d   1      -4.581   0.728   2.558  0.00  0.00     0.054 C 
ATOM      9  C   UNL d   1      -5.373   0.896   1.269  0.00  0.00     0.018 C 
ENDBRANCH   1   8
TORSDOF 1
ENDMDL
