MODEL 1
REMARK minimizedAffinity 4.92508411
REMARK minimizedRMSD -1
REMARK  1 active torsions:
REMARK  status: ('A' for Active; 'I' for Inactive)
REMARK    1  A    between atoms: C1_2  and  C2_3 
ROOT
ATOM      1  C2  UNL d   1      -4.104   4.739  -3.752  0.00  0.00    -0.081 A 
ATOM      2  C3  UNL d   1      -4.211   5.244  -5.053  0.00  0.00     0.006 A 
ATOM      3  C4  UNL d   1      -3.066   5.599  -5.771  0.00  0.00     0.002 A 
ATOM      4  C5  UNL d   1      -1.797   5.448  -5.203  0.00  0.00    -0.080 A 
ATOM      5  C6  UNL d   1      -0.558   5.797  -5.973  0.00  0.00     0.076 C 
ATOM      6  C7  UNL d   1      -1.691   4.960  -3.896  0.00  0.00     0.002 A 
ATOM      7  C8  UNL d   1      -2.835   4.606  -3.177  0.00  0.00     0.006 A 
ENDROOT
BRANCH   1   8
ATOM      8  C1  UNL d   1      -5.332   4.295  -2.999  0.00  0.00     0.054 C 
ATOM      9  C   UNL d   1      -5.774   5.346  -1.991  0.00  0.00     0.018 C 
ENDBRANCH   1   8
TORSDOF 1
ENDMDL
