MODEL 1
REMARK minimizedAffinity 1.75551915
REMARK minimizedRMSD -1
REMARK  1 active torsions:
REMARK  status: ('A' for Active; 'I' for Inactive)
REMARK    1  A    between atoms: C1_2  and  C2_3 
ROOT
ATOM      1  C2  UNL d   1      -4.356  -0.799   4.089  0.00  0.00    -0.081 A 
ATOM      2  C3  UNL d   1      -4.882  -0.419   5.330  0.00  0.00     0.006 A 
ATOM      3  C4  UNL d   1      -4.443   0.749   5.957  0.00  0.00     0.002 A 
ATOM      4  C5  UNL d   1      -3.477   1.561   5.351  0.00  0.00    -0.080 A 
ATOM      5  C6  UNL d   1      -3.019   2.833   5.999  0.00  0.00     0.076 C 
ATOM      6  C7  UNL d   1      -2.939   1.172   4.120  0.00  0.00     0.002 A 
ATOM      7  C8  UNL d   1      -3.377   0.003   3.493  0.00  0.00     0.006 A 
ENDROOT
BRANCH   1   8
ATOM      8  C1  UNL d   1      -4.874  -2.025   3.380  0.00  0.00     0.054 C 
ATOM      9  C   UNL d   1      -5.196  -1.726   1.923  0.00  0.00     0.018 C 
ENDBRANCH   1   8
TORSDOF 1
ENDMDL
