MODEL 1
REMARK minimizedAffinity 8.36446476
REMARK minimizedRMSD -1
REMARK  1 active torsions:
REMARK  status: ('A' for Active; 'I' for Inactive)
REMARK    1  A    between atoms: C1_2  and  C2_3 
ROOT
ATOM      1  C2  UNL d   1       4.391   0.339   0.749  0.00  0.00    -0.081 A 
ATOM      2  C3  UNL d   1       4.774  -0.110  -0.520  0.00  0.00     0.006 A 
ATOM      3  C4  UNL d   1       4.524  -1.428  -0.911  0.00  0.00     0.002 A 
ATOM      4  C5  UNL d   1       3.880  -2.316  -0.041  0.00  0.00    -0.080 A 
ATOM      5  C6  UNL d   1       3.579  -3.724  -0.459  0.00  0.00     0.076 C 
ATOM      6  C7  UNL d   1       3.514  -1.872   1.234  0.00  0.00     0.002 A 
ATOM      7  C8  UNL d   1       3.764  -0.555   1.625  0.00  0.00     0.006 A 
ENDROOT
BRANCH   1   8
ATOM      8  C1  UNL d   1       4.601   1.777   1.149  0.00  0.00     0.054 C 
ATOM      9  C   UNL d   1       6.000   2.254   0.784  0.00  0.00     0.018 C 
ENDBRANCH   1   8
TORSDOF 1
ENDMDL
