MODEL 1
REMARK minimizedAffinity 3.23629665
REMARK minimizedRMSD -1
REMARK  1 active torsions:
REMARK  status: ('A' for Active; 'I' for Inactive)
REMARK    1  A    between atoms: C1_2  and  C2_3 
ROOT
ATOM      1  C2  UNL d   1      -4.648   5.149  -4.056  0.00  0.00    -0.081 A 
ATOM      2  C3  UNL d   1      -4.556   5.615  -5.373  0.00  0.00     0.006 A 
ATOM      3  C4  UNL d   1      -3.312   5.730  -5.998  0.00  0.00     0.002 A 
ATOM      4  C5  UNL d   1      -2.141   5.373  -5.320  0.00  0.00    -0.080 A 
ATOM      5  C6  UNL d   1      -0.802   5.463  -5.990  0.00  0.00     0.076 C 
ATOM      6  C7  UNL d   1      -2.232   4.925  -3.998  0.00  0.00     0.002 A 
ATOM      7  C8  UNL d   1      -3.475   4.810  -3.372  0.00  0.00     0.006 A 
ENDROOT
BRANCH   1   8
ATOM      8  C1  UNL d   1      -5.993   4.963  -3.401  0.00  0.00     0.054 C 
ATOM      9  C   UNL d   1      -5.959   3.838  -2.376  0.00  0.00     0.018 C 
ENDBRANCH   1   8
TORSDOF 1
ENDMDL
