MODEL 1
REMARK minimizedAffinity 11.8002234
REMARK minimizedRMSD -1
REMARK  1 active torsions:
REMARK  status: ('A' for Active; 'I' for Inactive)
REMARK    1  A    between atoms: C1_2  and  C2_3 
ROOT
ATOM      1  C2  UNL d   1      -4.542   0.270   5.174  0.00  0.00    -0.081 A 
ATOM      2  C3  UNL d   1      -5.240  -0.778   5.787  0.00  0.00     0.006 A 
ATOM      3  C4  UNL d   1      -5.723  -1.846   5.028  0.00  0.00     0.002 A 
ATOM      4  C5  UNL d   1      -5.511  -1.889   3.646  0.00  0.00    -0.080 A 
ATOM      5  C6  UNL d   1      -5.998  -3.044   2.824  0.00  0.00     0.076 C 
ATOM      6  C7  UNL d   1      -4.828  -0.833   3.031  0.00  0.00     0.002 A 
ATOM      7  C8  UNL d   1      -4.345   0.235   3.789  0.00  0.00     0.006 A 
ENDROOT
BRANCH   1   8
ATOM      8  C1  UNL d   1      -3.962   1.391   5.999  0.00  0.00     0.054 C 
ATOM      9  C   UNL d   1      -2.449   1.457   5.857  0.00  0.00     0.018 C 
ENDBRANCH   1   8
TORSDOF 1
ENDMDL
