MODEL 1
REMARK minimizedAffinity -1.54558349
REMARK minimizedRMSD -1
REMARK  1 active torsions:
REMARK  status: ('A' for Active; 'I' for Inactive)
REMARK    1  A    between atoms: C1_2  and  C2_3 
ROOT
ATOM      1  C2  UNL d   1      -3.499   0.169   4.426  0.00  0.00    -0.081 A 
ATOM      2  C3  UNL d   1      -4.504  -0.567   5.066  0.00  0.00     0.006 A 
ATOM      3  C4  UNL d   1      -4.972  -1.760   4.510  0.00  0.00     0.002 A 
ATOM      4  C5  UNL d   1      -4.438  -2.241   3.310  0.00  0.00    -0.080 A 
ATOM      5  C6  UNL d   1      -4.909  -3.536   2.718  0.00  0.00     0.076 C 
ATOM      6  C7  UNL d   1      -3.446  -1.497   2.661  0.00  0.00     0.002 A 
ATOM      7  C8  UNL d   1      -2.979  -0.304   3.217  0.00  0.00     0.006 A 
ENDROOT
BRANCH   1   8
ATOM      8  C1  UNL d   1      -2.948   1.422   5.056  0.00  0.00     0.054 C 
ATOM      9  C   UNL d   1      -1.796   1.106   6.000  0.00  0.00     0.018 C 
ENDBRANCH   1   8
TORSDOF 1
ENDMDL
