MODEL 1
REMARK minimizedAffinity 5.78461409
REMARK minimizedRMSD -1
REMARK  1 active torsions:
REMARK  status: ('A' for Active; 'I' for Inactive)
REMARK    1  A    between atoms: C1_2  and  C2_3 
ROOT
ATOM      1  C2  UNL d   1      -2.943   0.711   5.108  0.00  0.00    -0.081 A 
ATOM      2  C3  UNL d   1      -4.210   0.410   5.621  0.00  0.00     0.006 A 
ATOM      3  C4  UNL d   1      -5.182  -0.178   4.808  0.00  0.00     0.002 A 
ATOM      4  C5  UNL d   1      -4.900  -0.482   3.472  0.00  0.00    -0.080 A 
ATOM      5  C6  UNL d   1      -5.925  -1.140   2.596  0.00  0.00     0.076 C 
ATOM      6  C7  UNL d   1      -3.640  -0.165   2.954  0.00  0.00     0.002 A 
ATOM      7  C8  UNL d   1      -2.668   0.423   3.767  0.00  0.00     0.006 A 
ENDROOT
BRANCH   1   8
ATOM      8  C1  UNL d   1      -1.872   1.285   6.000  0.00  0.00     0.054 C 
ATOM      9  C   UNL d   1      -0.625   0.412   6.000  0.00  0.00     0.018 C 
ENDBRANCH   1   8
TORSDOF 1
ENDMDL
