MODEL 1
REMARK minimizedAffinity 0.407707602
REMARK minimizedRMSD -1
REMARK  1 active torsions:
REMARK  status: ('A' for Active; 'I' for Inactive)
REMARK    1  A    between atoms: C1_2  and  C2_3 
ROOT
ATOM      1  C2  UNL d   1       3.506   2.302  -0.733  0.00  0.00    -0.081 A 
ATOM      2  C3  UNL d   1       3.098   2.086   0.589  0.00  0.00     0.006 A 
ATOM      3  C4  UNL d   1       3.868   2.560   1.654  0.00  0.00     0.002 A 
ATOM      4  C5  UNL d   1       5.053   3.264   1.415  0.00  0.00    -0.080 A 
ATOM      5  C6  UNL d   1       5.873   3.805   2.549  0.00  0.00     0.076 C 
ATOM      6  C7  UNL d   1       5.469   3.465   0.095  0.00  0.00     0.002 A 
ATOM      7  C8  UNL d   1       4.700   2.991  -0.970  0.00  0.00     0.006 A 
ENDROOT
BRANCH   1   8
ATOM      8  C1  UNL d   1       2.645   1.849  -1.884  0.00  0.00     0.054 C 
ATOM      9  C   UNL d   1       2.646   2.871  -3.012  0.00  0.00     0.018 C 
ENDBRANCH   1   8
TORSDOF 1
ENDMDL
