MODEL 1
REMARK minimizedAffinity 8.93711376
REMARK minimizedRMSD -1
REMARK  1 active torsions:
REMARK  status: ('A' for Active; 'I' for Inactive)
REMARK    1  A    between atoms: C1_2  and  C2_3 
ROOT
ATOM      1  C2  UNL d   1      -1.720  -0.425   2.702  0.00  0.00    -0.081 A 
ATOM      2  C3  UNL d   1      -1.153   0.106   3.867  0.00  0.00     0.006 A 
ATOM      3  C4  UNL d   1      -1.967   0.533   4.919  0.00  0.00     0.002 A 
ATOM      4  C5  UNL d   1      -3.359   0.429   4.827  0.00  0.00    -0.080 A 
ATOM      5  C6  UNL d   1      -4.243   0.856   5.961  0.00  0.00     0.076 C 
ATOM      6  C7  UNL d   1      -3.926  -0.085   3.656  0.00  0.00     0.002 A 
ATOM      7  C8  UNL d   1      -3.113  -0.512   2.603  0.00  0.00     0.006 A 
ENDROOT
BRANCH   1   8
ATOM      8  C1  UNL d   1      -0.843  -0.947   1.592  0.00  0.00     0.054 C 
ATOM      9  C   UNL d   1       0.632  -0.747   1.912  0.00  0.00     0.018 C 
ENDBRANCH   1   8
TORSDOF 1
ENDMDL
