MODEL 1
REMARK minimizedAffinity 7.87764215
REMARK minimizedRMSD -1
REMARK  1 active torsions:
REMARK  status: ('A' for Active; 'I' for Inactive)
REMARK    1  A    between atoms: C1_2  and  C2_3 
ROOT
ATOM      1  C2  UNL d   1      -2.141  -0.103   3.588  0.00  0.00    -0.081 A 
ATOM      2  C3  UNL d   1      -1.513   0.258   2.389  0.00  0.00     0.006 A 
ATOM      3  C4  UNL d   1      -1.371  -0.671   1.356  0.00  0.00     0.002 A 
ATOM      4  C5  UNL d   1      -1.861  -1.974   1.500  0.00  0.00    -0.080 A 
ATOM      5  C6  UNL d   1      -1.742  -2.972   0.388  0.00  0.00     0.076 C 
ATOM      6  C7  UNL d   1      -2.473  -2.340   2.704  0.00  0.00     0.002 A 
ATOM      7  C8  UNL d   1      -2.615  -1.411   3.738  0.00  0.00     0.006 A 
ENDROOT
BRANCH   1   8
ATOM      8  C1  UNL d   1      -2.354   0.915   4.679  0.00  0.00     0.054 C 
ATOM      9  C   UNL d   1      -2.705   0.245   6.000  0.00  0.00     0.018 C 
ENDBRANCH   1   8
TORSDOF 1
ENDMDL
