MODEL 1
REMARK minimizedAffinity 7.62903261
REMARK minimizedRMSD -1
REMARK  1 active torsions:
REMARK  status: ('A' for Active; 'I' for Inactive)
REMARK    1  A    between atoms: C1_2  and  C2_3 
ROOT
ATOM      1  C2  UNL d   1      -3.987   5.838  -4.654  0.00  0.00    -0.081 A 
ATOM      2  C3  UNL d   1      -3.195   5.778  -3.501  0.00  0.00     0.006 A 
ATOM      3  C4  UNL d   1      -1.802   5.803  -3.597  0.00  0.00     0.002 A 
ATOM      4  C5  UNL d   1      -1.178   5.895  -4.845  0.00  0.00    -0.080 A 
ATOM      5  C6  UNL d   1       0.316   5.953  -4.960  0.00  0.00     0.076 C 
ATOM      6  C7  UNL d   1      -1.969   5.937  -5.999  0.00  0.00     0.002 A 
ATOM      7  C8  UNL d   1      -3.362   5.912  -5.904  0.00  0.00     0.006 A 
ENDROOT
BRANCH   1   8
ATOM      8  C1  UNL d   1      -5.491   5.877  -4.550  0.00  0.00     0.054 C 
ATOM      9  C   UNL d   1      -5.976   5.191  -3.281  0.00  0.00     0.018 C 
ENDBRANCH   1   8
TORSDOF 1
ENDMDL
