MODEL 1
REMARK minimizedAffinity 10.2852592
REMARK minimizedRMSD -1
REMARK  1 active torsions:
REMARK  status: ('A' for Active; 'I' for Inactive)
REMARK    1  A    between atoms: C1_2  and  C2_3 
ROOT
ATOM      1  C2  UNL d   1       4.676   3.612  -2.374  0.00  0.00    -0.081 A 
ATOM      2  C3  UNL d   1       4.508   3.442  -3.754  0.00  0.00     0.006 A 
ATOM      3  C4  UNL d   1       3.264   3.077  -4.275  0.00  0.00     0.002 A 
ATOM      4  C5  UNL d   1       2.168   2.883  -3.428  0.00  0.00    -0.080 A 
ATOM      5  C6  UNL d   1       0.821   2.520  -3.978  0.00  0.00     0.076 C 
ATOM      6  C7  UNL d   1       2.341   3.036  -2.048  0.00  0.00     0.002 A 
ATOM      7  C8  UNL d   1       3.584   3.401  -1.526  0.00  0.00     0.006 A 
ENDROOT
BRANCH   1   8
ATOM      8  C1  UNL d   1       5.999   4.069  -1.815  0.00  0.00     0.054 C 
ATOM      9  C   UNL d   1       5.882   4.427  -0.340  0.00  0.00     0.018 C 
ENDBRANCH   1   8
TORSDOF 1
ENDMDL
