MODEL 1
REMARK minimizedAffinity 9.4322319
REMARK minimizedRMSD -1
REMARK  1 active torsions:
REMARK  status: ('A' for Active; 'I' for Inactive)
REMARK    1  A    between atoms: C1_2  and  C2_3 
ROOT
ATOM      1  C2  UNL d   1      -2.980  -0.536   2.235  0.00  0.00    -0.081 A 
ATOM      2  C3  UNL d   1      -2.178   0.309   3.011  0.00  0.00     0.006 A 
ATOM      3  C4  UNL d   1      -0.788   0.288   2.876  0.00  0.00     0.002 A 
ATOM      4  C5  UNL d   1      -0.178  -0.572   1.956  0.00  0.00    -0.080 A 
ATOM      5  C6  UNL d   1       1.312  -0.582   1.779  0.00  0.00     0.076 C 
ATOM      6  C7  UNL d   1      -0.978  -1.428   1.193  0.00  0.00     0.002 A 
ATOM      7  C8  UNL d   1      -2.367  -1.408   1.328  0.00  0.00     0.006 A 
ENDROOT
BRANCH   1   8
ATOM      8  C1  UNL d   1      -4.483  -0.469   2.333  0.00  0.00     0.054 C 
ATOM      9  C   UNL d   1      -5.034   0.734   1.581  0.00  0.00     0.018 C 
ENDBRANCH   1   8
TORSDOF 1
ENDMDL
