MODEL 1
REMARK minimizedAffinity 8.19125462
REMARK minimizedRMSD -1
REMARK  1 active torsions:
REMARK  status: ('A' for Active; 'I' for Inactive)
REMARK    1  A    between atoms: C1_2  and  C2_3 
ROOT
ATOM      1  C2  UNL d   1      -1.922  -0.330   3.635  0.00  0.00    -0.081 A 
ATOM      2  C3  UNL d   1      -2.897  -1.112   3.003  0.00  0.00     0.006 A 
ATOM      3  C4  UNL d   1      -4.220  -0.671   2.929  0.00  0.00     0.002 A 
ATOM      4  C5  UNL d   1      -4.589   0.562   3.478  0.00  0.00    -0.080 A 
ATOM      5  C6  UNL d   1      -6.000   1.061   3.378  0.00  0.00     0.076 C 
ATOM      6  C7  UNL d   1      -3.619   1.335   4.124  0.00  0.00     0.002 A 
ATOM      7  C8  UNL d   1      -2.296   0.894   4.200  0.00  0.00     0.006 A 
ENDROOT
BRANCH   1   8
ATOM      8  C1  UNL d   1      -0.482  -0.774   3.660  0.00  0.00     0.054 C 
ATOM      9  C   UNL d   1       0.014  -1.124   2.264  0.00  0.00     0.018 C 
ENDBRANCH   1   8
TORSDOF 1
ENDMDL
