MODEL 1
REMARK minimizedAffinity 7.27082825
REMARK minimizedRMSD -1
REMARK  0 active torsions:
REMARK  status: ('A' for Active; 'I' for Inactive)
ROOT
ATOM      1  C   UNL d   1      -0.930   0.521   0.269  0.00  0.00     0.124 A 
ATOM      2  C1  UNL d   1       0.039   1.515   0.275  0.00  0.00     0.062 A 
ATOM      3  C2  UNL d   1       1.367   1.197   0.544  0.00  0.00     0.162 A 
ATOM      4  C3  UNL d   1       1.734  -0.123   0.808  0.00  0.00    -0.034 A 
ATOM      5  C4  UNL d   1       0.754  -1.117   0.801  0.00  0.00     0.162 A 
ATOM      6  C5  UNL d   1      -0.572  -0.793   0.532  0.00  0.00     0.062 A 
ATOM      7  F   UNL d   1      -1.506  -1.755   0.527  0.00  0.00    -0.097 F 
ATOM      8  F1  UNL d   1       1.073  -2.396   1.051  0.00  0.00    -0.096 F 
ATOM      9  I   UNL d   1       3.719  -0.603   1.211  0.00  0.00    -0.060 I 
ATOM     10  F2  UNL d   1       2.282   2.177   0.544  0.00  0.00    -0.096 F 
ATOM     11  F3  UNL d   1      -0.305   2.786   0.023  0.00  0.00    -0.097 F 
ATOM     12  F4  UNL d   1      -2.207   0.831   0.011  0.00  0.00    -0.092 F 
ENDROOT
TORSDOF 0
ENDMDL
