MODEL 1
REMARK minimizedAffinity -0.70441258
REMARK minimizedRMSD -1
REMARK  0 active torsions:
REMARK  status: ('A' for Active; 'I' for Inactive)
ROOT
ATOM      1  C   UNL d   1       1.989   1.433   0.398  0.00  0.00     0.124 A 
ATOM      2  C1  UNL d   1       0.617   1.556   0.565  0.00  0.00     0.062 A 
ATOM      3  C2  UNL d   1      -0.177   0.420   0.692  0.00  0.00     0.162 A 
ATOM      4  C3  UNL d   1       0.399  -0.849   0.655  0.00  0.00    -0.034 A 
ATOM      5  C4  UNL d   1       1.780  -0.965   0.485  0.00  0.00     0.162 A 
ATOM      6  C5  UNL d   1       2.569   0.173   0.359  0.00  0.00     0.062 A 
ATOM      7  F   UNL d   1       3.895   0.053   0.197  0.00  0.00    -0.097 F 
ATOM      8  F1  UNL d   1       2.367  -2.170   0.445  0.00  0.00    -0.096 F 
ATOM      9  I   UNL d   1      -0.785  -2.550   0.845  0.00  0.00    -0.060 I 
ATOM     10  F2  UNL d   1      -1.501   0.569   0.853  0.00  0.00    -0.096 F 
ATOM     11  F3  UNL d   1       0.054   2.773   0.603  0.00  0.00    -0.097 F 
ATOM     12  F4  UNL d   1       2.751   2.528   0.275  0.00  0.00    -0.092 F 
ENDROOT
TORSDOF 0
ENDMDL
