MODEL 1
REMARK minimizedAffinity -1.65607214
REMARK minimizedRMSD -1
REMARK  0 active torsions:
REMARK  status: ('A' for Active; 'I' for Inactive)
ROOT
ATOM      1  C   UNL d   1       2.859  -0.198   0.840  0.00  0.00     0.124 A 
ATOM      2  C1  UNL d   1       2.170  -1.397   0.725  0.00  0.00     0.062 A 
ATOM      3  C2  UNL d   1       0.805  -1.397   0.453  0.00  0.00     0.162 A 
ATOM      4  C3  UNL d   1       0.120  -0.193   0.292  0.00  0.00    -0.034 A 
ATOM      5  C4  UNL d   1       0.819   1.010   0.410  0.00  0.00     0.162 A 
ATOM      6  C5  UNL d   1       2.184   1.004   0.682  0.00  0.00     0.062 A 
ATOM      7  F   UNL d   1       2.848   2.164   0.793  0.00  0.00    -0.097 F 
ATOM      8  F1  UNL d   1       0.192   2.186   0.261  0.00  0.00    -0.096 F 
ATOM      9  I   UNL d   1      -1.921  -0.188  -0.115  0.00  0.00    -0.060 I 
ATOM     10  F2  UNL d   1       0.165  -2.571   0.347  0.00  0.00    -0.096 F 
ATOM     11  F3  UNL d   1       2.820  -2.560   0.878  0.00  0.00    -0.097 F 
ATOM     12  F4  UNL d   1       4.172  -0.201   1.103  0.00  0.00    -0.092 F 
ENDROOT
TORSDOF 0
ENDMDL
