MODEL 1
REMARK minimizedAffinity -0.567996979
REMARK minimizedRMSD -1
REMARK  0 active torsions:
REMARK  status: ('A' for Active; 'I' for Inactive)
ROOT
ATOM      1  C   UNL d   1       2.303  -0.601   0.861  0.00  0.00     0.124 A 
ATOM      2  C1  UNL d   1       1.235  -1.487   0.817  0.00  0.00     0.062 A 
ATOM      3  C2  UNL d   1       0.016  -1.088   0.278  0.00  0.00     0.162 A 
ATOM      4  C3  UNL d   1      -0.143   0.204  -0.224  0.00  0.00    -0.034 A 
ATOM      5  C4  UNL d   1       0.935   1.090  -0.176  0.00  0.00     0.162 A 
ATOM      6  C5  UNL d   1       2.152   0.686   0.364  0.00  0.00     0.062 A 
ATOM      7  F   UNL d   1       3.182   1.543   0.405  0.00  0.00    -0.097 F 
ATOM      8  F1  UNL d   1       0.817   2.339  -0.649  0.00  0.00    -0.096 F 
ATOM      9  I   UNL d   1      -1.965   0.805  -1.031  0.00  0.00    -0.060 I 
ATOM     10  F2  UNL d   1      -0.999  -1.965   0.249  0.00  0.00    -0.096 F 
ATOM     11  F3  UNL d   1       1.378  -2.731   1.297  0.00  0.00    -0.097 F 
ATOM     12  F4  UNL d   1       3.475  -0.987   1.381  0.00  0.00    -0.092 F 
ENDROOT
TORSDOF 0
ENDMDL
