MODEL 1
REMARK minimizedAffinity -4.06935596
REMARK minimizedRMSD -1
REMARK  0 active torsions:
REMARK  status: ('A' for Active; 'I' for Inactive)
ROOT
ATOM      1  C   UNL d   1       2.481  -0.862   1.645  0.00  0.00     0.124 A 
ATOM      2  C1  UNL d   1       2.189   0.280   0.912  0.00  0.00     0.062 A 
ATOM      3  C2  UNL d   1       0.949   0.419   0.296  0.00  0.00     0.162 A 
ATOM      4  C3  UNL d   1      -0.011  -0.587   0.412  0.00  0.00    -0.034 A 
ATOM      5  C4  UNL d   1       0.290  -1.733   1.150  0.00  0.00     0.162 A 
ATOM      6  C5  UNL d   1       1.531  -1.867   1.763  0.00  0.00     0.062 A 
ATOM      7  F   UNL d   1       1.811  -2.971   2.471  0.00  0.00    -0.097 F 
ATOM      8  F1  UNL d   1      -0.609  -2.719   1.281  0.00  0.00    -0.096 F 
ATOM      9  I   UNL d   1      -1.867  -0.383  -0.507  0.00  0.00    -0.060 I 
ATOM     10  F2  UNL d   1       0.694   1.533  -0.406  0.00  0.00    -0.096 F 
ATOM     11  F3  UNL d   1       3.105   1.252   0.795  0.00  0.00    -0.097 F 
ATOM     12  F4  UNL d   1       3.676  -0.993   2.236  0.00  0.00    -0.092 F 
ENDROOT
TORSDOF 0
ENDMDL
