MODEL 1
REMARK minimizedAffinity -4.91180468
REMARK minimizedRMSD -1
REMARK  0 active torsions:
REMARK  status: ('A' for Active; 'I' for Inactive)
ROOT
ATOM      1  C   UNL d   1       2.918  -0.450   1.269  0.00  0.00     0.124 A 
ATOM      2  C1  UNL d   1       2.393   0.744   0.795  0.00  0.00     0.062 A 
ATOM      3  C2  UNL d   1       1.095   0.789   0.295  0.00  0.00     0.162 A 
ATOM      4  C3  UNL d   1       0.312  -0.365   0.266  0.00  0.00    -0.034 A 
ATOM      5  C4  UNL d   1       0.847  -1.563   0.744  0.00  0.00     0.162 A 
ATOM      6  C5  UNL d   1       2.145  -1.602   1.243  0.00  0.00     0.062 A 
ATOM      7  F   UNL d   1       2.650  -2.757   1.700  0.00  0.00    -0.097 F 
ATOM      8  F1  UNL d   1       0.122  -2.691   0.731  0.00  0.00    -0.096 F 
ATOM      9  I   UNL d   1      -1.629  -0.303  -0.481  0.00  0.00    -0.060 I 
ATOM     10  F2  UNL d   1       0.614   1.957  -0.156  0.00  0.00    -0.096 F 
ATOM     11  F3  UNL d   1       3.139   1.858   0.819  0.00  0.00    -0.097 F 
ATOM     12  F4  UNL d   1       4.168  -0.491   1.749  0.00  0.00    -0.092 F 
ENDROOT
TORSDOF 0
ENDMDL
