MODEL 1
REMARK minimizedAffinity 1.91751111
REMARK minimizedRMSD -1
REMARK  0 active torsions:
REMARK  status: ('A' for Active; 'I' for Inactive)
ROOT
ATOM      1  C   UNL d   1      -1.802  -0.696   0.538  0.00  0.00     0.124 A 
ATOM      2  C1  UNL d   1      -1.160   0.320  -0.156  0.00  0.00     0.062 A 
ATOM      3  C2  UNL d   1       0.227   0.431  -0.108  0.00  0.00     0.162 A 
ATOM      4  C3  UNL d   1       0.981  -0.476   0.636  0.00  0.00    -0.034 A 
ATOM      5  C4  UNL d   1       0.327  -1.495   1.332  0.00  0.00     0.162 A 
ATOM      6  C5  UNL d   1      -1.059  -1.602   1.281  0.00  0.00     0.062 A 
ATOM      7  F   UNL d   1      -1.678  -2.584   1.952  0.00  0.00    -0.097 F 
ATOM      8  F1  UNL d   1       1.021  -2.384   2.057  0.00  0.00    -0.096 F 
ATOM      9  I   UNL d   1       3.054  -0.313   0.711  0.00  0.00    -0.060 I 
ATOM     10  F2  UNL d   1       0.822   1.423  -0.788  0.00  0.00    -0.096 F 
ATOM     11  F3  UNL d   1      -1.876   1.197  -0.874  0.00  0.00    -0.097 F 
ATOM     12  F4  UNL d   1      -3.137  -0.801   0.490  0.00  0.00    -0.092 F 
ENDROOT
TORSDOF 0
ENDMDL
