MODEL 1
REMARK minimizedAffinity -1.53665304
REMARK minimizedRMSD -1
REMARK  0 active torsions:
REMARK  status: ('A' for Active; 'I' for Inactive)
ROOT
ATOM      1  C   UNL d   1       2.966  -0.904   0.922  0.00  0.00     0.124 A 
ATOM      2  C1  UNL d   1       1.859  -1.556   1.448  0.00  0.00     0.062 A 
ATOM      3  C2  UNL d   1       0.575  -1.123   1.128  0.00  0.00     0.162 A 
ATOM      4  C3  UNL d   1       0.392  -0.033   0.277  0.00  0.00    -0.034 A 
ATOM      5  C4  UNL d   1       1.510   0.618  -0.247  0.00  0.00     0.162 A 
ATOM      6  C5  UNL d   1       2.791   0.181   0.076  0.00  0.00     0.062 A 
ATOM      7  F   UNL d   1       3.860   0.812  -0.433  0.00  0.00    -0.097 F 
ATOM      8  F1  UNL d   1       1.369   1.669  -1.068  0.00  0.00    -0.096 F 
ATOM      9  I   UNL d   1      -1.526   0.617  -0.203  0.00  0.00    -0.060 I 
ATOM     10  F2  UNL d   1      -0.476  -1.771   1.651  0.00  0.00    -0.096 F 
ATOM     11  F3  UNL d   1       2.026  -2.604   2.267  0.00  0.00    -0.097 F 
ATOM     12  F4  UNL d   1       4.200  -1.322   1.232  0.00  0.00    -0.092 F 
ENDROOT
TORSDOF 0
ENDMDL
