MODEL 1
REMARK minimizedAffinity -0.731072009
REMARK minimizedRMSD -1
REMARK  0 active torsions:
REMARK  status: ('A' for Active; 'I' for Inactive)
ROOT
ATOM      1  C   UNL d   1       2.113  -0.470   0.968  0.00  0.00     0.124 A 
ATOM      2  C1  UNL d   1       1.138  -1.409   0.660  0.00  0.00     0.062 A 
ATOM      3  C2  UNL d   1       0.009  -1.034  -0.062  0.00  0.00     0.162 A 
ATOM      4  C3  UNL d   1      -0.151   0.286  -0.483  0.00  0.00    -0.034 A 
ATOM      5  C4  UNL d   1       0.833   1.225  -0.169  0.00  0.00     0.162 A 
ATOM      6  C5  UNL d   1       1.960   0.845   0.553  0.00  0.00     0.062 A 
ATOM      7  F   UNL d   1       2.901   1.754   0.850  0.00  0.00    -0.097 F 
ATOM      8  F1  UNL d   1       0.711   2.502  -0.558  0.00  0.00    -0.096 F 
ATOM      9  I   UNL d   1      -1.838   0.850  -1.563  0.00  0.00    -0.060 I 
ATOM     10  F2  UNL d   1      -0.917  -1.962  -0.345  0.00  0.00    -0.096 F 
ATOM     11  F3  UNL d   1       1.284  -2.680   1.061  0.00  0.00    -0.097 F 
ATOM     12  F4  UNL d   1       3.199  -0.833   1.664  0.00  0.00    -0.092 F 
ENDROOT
TORSDOF 0
ENDMDL
