MODEL 1
REMARK minimizedAffinity -3.63444185
REMARK minimizedRMSD -1
REMARK  0 active torsions:
REMARK  status: ('A' for Active; 'I' for Inactive)
ROOT
ATOM      1  C   UNL d   1       2.093  -0.839   1.818  0.00  0.00     0.124 A 
ATOM      2  C1  UNL d   1       2.021   0.283   1.004  0.00  0.00     0.062 A 
ATOM      3  C2  UNL d   1       0.875   0.533   0.256  0.00  0.00     0.162 A 
ATOM      4  C3  UNL d   1      -0.211  -0.341   0.318  0.00  0.00    -0.034 A 
ATOM      5  C4  UNL d   1      -0.131  -1.468   1.139  0.00  0.00     0.162 A 
ATOM      6  C5  UNL d   1       1.017  -1.713   1.885  0.00  0.00     0.062 A 
ATOM      7  F   UNL d   1       1.084  -2.798   2.671  0.00  0.00    -0.097 F 
ATOM      8  F1  UNL d   1      -1.157  -2.328   1.223  0.00  0.00    -0.096 F 
ATOM      9  I   UNL d   1      -1.927   0.030  -0.799  0.00  0.00    -0.060 I 
ATOM     10  F2  UNL d   1       0.834   1.625  -0.522  0.00  0.00    -0.096 F 
ATOM     11  F3  UNL d   1       3.060   1.128   0.937  0.00  0.00    -0.097 F 
ATOM     12  F4  UNL d   1       3.198  -1.078   2.536  0.00  0.00    -0.092 F 
ENDROOT
TORSDOF 0
ENDMDL
