MODEL 1
REMARK minimizedAffinity 2.6140852
REMARK minimizedRMSD -1
REMARK  0 active torsions:
REMARK  status: ('A' for Active; 'I' for Inactive)
ROOT
ATOM      1  C   UNL d   1       2.344  -1.028   0.936  0.00  0.00     0.124 A 
ATOM      2  C1  UNL d   1       1.291  -1.882   0.641  0.00  0.00     0.062 A 
ATOM      3  C2  UNL d   1       0.014  -1.372   0.429  0.00  0.00     0.162 A 
ATOM      4  C3  UNL d   1      -0.218   0.001   0.511  0.00  0.00    -0.034 A 
ATOM      5  C4  UNL d   1       0.846   0.854   0.809  0.00  0.00     0.162 A 
ATOM      6  C5  UNL d   1       2.121   0.339   1.020  0.00  0.00     0.062 A 
ATOM      7  F   UNL d   1       3.137   1.166   1.305  0.00  0.00    -0.097 F 
ATOM      8  F1  UNL d   1       0.659   2.180   0.896  0.00  0.00    -0.096 F 
ATOM      9  I   UNL d   1      -2.127   0.769   0.195  0.00  0.00    -0.060 I 
ATOM     10  F2  UNL d   1      -0.985  -2.221   0.145  0.00  0.00    -0.096 F 
ATOM     11  F3  UNL d   1       1.504  -3.204   0.560  0.00  0.00    -0.097 F 
ATOM     12  F4  UNL d   1       3.572  -1.522   1.141  0.00  0.00    -0.092 F 
ENDROOT
TORSDOF 0
ENDMDL
