MODEL 1
REMARK minimizedAffinity -2.94978309
REMARK minimizedRMSD -1
REMARK  0 active torsions:
REMARK  status: ('A' for Active; 'I' for Inactive)
ROOT
ATOM      1  C   UNL d   1      -1.545  -0.343   0.738  0.00  0.00     0.124 A 
ATOM      2  C1  UNL d   1      -0.807   0.766   0.348  0.00  0.00     0.062 A 
ATOM      3  C2  UNL d   1       0.583   0.699   0.297  0.00  0.00     0.162 A 
ATOM      4  C3  UNL d   1       1.243  -0.483   0.634  0.00  0.00    -0.034 A 
ATOM      5  C4  UNL d   1       0.493  -1.593   1.025  0.00  0.00     0.162 A 
ATOM      6  C5  UNL d   1      -0.895  -1.521   1.076  0.00  0.00     0.062 A 
ATOM      7  F   UNL d   1      -1.607  -2.593   1.452  0.00  0.00    -0.097 F 
ATOM      8  F1  UNL d   1       1.096  -2.745   1.357  0.00  0.00    -0.096 F 
ATOM      9  I   UNL d   1       3.320  -0.587   0.558  0.00  0.00    -0.060 I 
ATOM     10  F2  UNL d   1       1.271   1.786  -0.083  0.00  0.00    -0.096 F 
ATOM     11  F3  UNL d   1      -1.433   1.906   0.022  0.00  0.00    -0.097 F 
ATOM     12  F4  UNL d   1      -2.882  -0.275   0.788  0.00  0.00    -0.092 F 
ENDROOT
TORSDOF 0
ENDMDL
