MODEL 1
REMARK minimizedAffinity -3.78670645
REMARK minimizedRMSD -1
REMARK  0 active torsions:
REMARK  status: ('A' for Active; 'I' for Inactive)
ROOT
ATOM      1  C4' PXY d   1       1.298   1.984  -1.936  0.00  0.00     0.077 C 
ATOM      2  C1' PXY d   1      -0.273  -2.052   1.893  0.00  0.00     0.077 C 
ATOM      3  C1  PXY d   1       0.127  -0.994   0.883  0.00  0.00    -0.082 A 
ATOM      4  C2  PXY d   1       1.400  -0.853   0.553  0.00  0.00     0.003 A 
ATOM      5  C3  PXY d   1       1.783   0.120  -0.334  0.00  0.00     0.003 A 
ATOM      6  C4  PXY d   1       0.847   0.922  -0.929  0.00  0.00    -0.082 A 
ATOM      7  C5  PXY d   1      -0.455   0.778  -0.605  0.00  0.00     0.003 A 
ATOM      8  C6  PXY d   1      -0.819  -0.188   0.328  0.00  0.00     0.003 A 
ENDROOT
TORSDOF 0
ENDMDL
