MODEL 1
REMARK minimizedAffinity -3.89944005
REMARK minimizedRMSD -1
REMARK  0 active torsions:
REMARK  status: ('A' for Active; 'I' for Inactive)
ROOT
ATOM      1  C4' PXY d   1      -1.995  -2.594   1.316  0.00  0.00     0.077 C 
ATOM      2  C1' PXY d   1       0.739   1.798  -1.262  0.00  0.00     0.077 C 
ATOM      3  C1  PXY d   1       0.014   0.654  -0.581  0.00  0.00    -0.082 A 
ATOM      4  C2  PXY d   1       0.657  -0.476  -0.338  0.00  0.00     0.003 A 
ATOM      5  C3  PXY d   1       0.007  -1.532   0.249  0.00  0.00     0.003 A 
ATOM      6  C4  PXY d   1      -1.300  -1.410   0.639  0.00  0.00    -0.082 A 
ATOM      7  C5  PXY d   1      -1.960  -0.256   0.405  0.00  0.00     0.003 A 
ATOM      8  C6  PXY d   1      -1.294   0.789  -0.229  0.00  0.00     0.003 A 
ENDROOT
TORSDOF 0
ENDMDL
