MODEL 1
REMARK minimizedAffinity -3.05381227
REMARK minimizedRMSD -1
REMARK  0 active torsions:
REMARK  status: ('A' for Active; 'I' for Inactive)
ROOT
ATOM      1  C4' PXY d   1       0.305   1.871  -2.068  0.00  0.00     0.077 C 
ATOM      2  C1' PXY d   1      -0.205  -2.646   1.503  0.00  0.00     0.077 C 
ATOM      3  C1  PXY d   1      -0.064  -1.455   0.576  0.00  0.00    -0.082 A 
ATOM      4  C2  PXY d   1      -0.944  -1.276  -0.396  0.00  0.00     0.003 A 
ATOM      5  C3  PXY d   1      -0.814  -0.222  -1.264  0.00  0.00     0.003 A 
ATOM      6  C4  PXY d   1       0.197   0.688  -1.102  0.00  0.00    -0.082 A 
ATOM      7  C5  PXY d   1       1.093   0.517  -0.106  0.00  0.00     0.003 A 
ATOM      8  C6  PXY d   1       0.966  -0.582   0.738  0.00  0.00     0.003 A 
ENDROOT
TORSDOF 0
ENDMDL
