MODEL 1
REMARK minimizedAffinity -4.25465298
REMARK minimizedRMSD -1
REMARK  0 active torsions:
REMARK  status: ('A' for Active; 'I' for Inactive)
ROOT
ATOM      1  C4' PXY d   1       1.294   0.848  -0.843  0.00  0.00     0.077 C 
ATOM      2  C1' PXY d   1      -2.574  -2.509   1.837  0.00  0.00     0.077 C 
ATOM      3  C1  PXY d   1      -1.551  -1.637   1.136  0.00  0.00    -0.082 A 
ATOM      4  C2  PXY d   1      -1.746  -0.331   1.059  0.00  0.00     0.003 A 
ATOM      5  C3  PXY d   1      -0.847   0.468   0.402  0.00  0.00     0.003 A 
ATOM      6  C4  PXY d   1       0.292  -0.069  -0.137  0.00  0.00    -0.082 A 
ATOM      7  C5  PXY d   1       0.504  -1.400  -0.053  0.00  0.00     0.003 A 
ATOM      8  C6  PXY d   1      -0.442  -2.199   0.583  0.00  0.00     0.003 A 
ENDROOT
TORSDOF 0
ENDMDL
