MODEL 1
REMARK minimizedAffinity -4.06439257
REMARK minimizedRMSD -1
REMARK  0 active torsions:
REMARK  status: ('A' for Active; 'I' for Inactive)
ROOT
ATOM      1  C4' PXY d   1       1.153   1.917  -0.858  0.00  0.00     0.077 C 
ATOM      2  C1' PXY d   1      -1.445  -2.899   1.006  0.00  0.00     0.077 C 
ATOM      3  C1  PXY d   1      -0.775  -1.632   0.512  0.00  0.00    -0.082 A 
ATOM      4  C2  PXY d   1       0.536  -1.612   0.333  0.00  0.00     0.003 A 
ATOM      5  C3  PXY d   1       1.163  -0.465  -0.083  0.00  0.00     0.003 A 
ATOM      6  C4  PXY d   1       0.433   0.657  -0.370  0.00  0.00    -0.082 A 
ATOM      7  C5  PXY d   1      -0.906   0.642  -0.200  0.00  0.00     0.003 A 
ATOM      8  C6  PXY d   1      -1.518  -0.520   0.262  0.00  0.00     0.003 A 
ENDROOT
TORSDOF 0
ENDMDL
