MODEL 1
REMARK minimizedAffinity -1.84315491
REMARK minimizedRMSD -1
REMARK  0 active torsions:
REMARK  status: ('A' for Active; 'I' for Inactive)
ROOT
ATOM      1  C4' PXY d   1       1.221   1.678  -0.655  0.00  0.00     0.077 C 
ATOM      2  C1' PXY d   1      -1.752  -2.836   1.395  0.00  0.00     0.077 C 
ATOM      3  C1  PXY d   1      -0.983  -1.646   0.855  0.00  0.00    -0.082 A 
ATOM      4  C2  PXY d   1       0.230  -1.822   0.357  0.00  0.00     0.003 A 
ATOM      5  C3  PXY d   1       0.951  -0.752  -0.105  0.00  0.00     0.003 A 
ATOM      6  C4  PXY d   1       0.405   0.504  -0.108  0.00  0.00    -0.082 A 
ATOM      7  C5  PXY d   1      -0.836   0.690   0.389  0.00  0.00     0.003 A 
ATOM      8  C6  PXY d   1      -1.536  -0.403   0.892  0.00  0.00     0.003 A 
ENDROOT
TORSDOF 0
ENDMDL
