MODEL 1
REMARK minimizedAffinity -3.60560989
REMARK minimizedRMSD -1
REMARK  0 active torsions:
REMARK  status: ('A' for Active; 'I' for Inactive)
ROOT
ATOM      1  C4' PXY d   1       0.871   1.896  -1.091  0.00  0.00     0.077 C 
ATOM      2  C1' PXY d   1      -1.207  -2.852   1.469  0.00  0.00     0.077 C 
ATOM      3  C1  PXY d   1      -0.650  -1.609   0.803  0.00  0.00    -0.082 A 
ATOM      4  C2  PXY d   1      -1.468  -0.625   0.467  0.00  0.00     0.003 A 
ATOM      5  C3  PXY d   1      -0.986   0.492  -0.165  0.00  0.00     0.003 A 
ATOM      6  C4  PXY d   1       0.354   0.627  -0.408  0.00  0.00    -0.082 A 
ATOM      7  C5  PXY d   1       1.197  -0.368  -0.059  0.00  0.00     0.003 A 
ATOM      8  C6  PXY d   1       0.682  -1.512   0.545  0.00  0.00     0.003 A 
ENDROOT
TORSDOF 0
ENDMDL
