MODEL 1
REMARK minimizedAffinity -3.88570571
REMARK minimizedRMSD -1
REMARK  0 active torsions:
REMARK  status: ('A' for Active; 'I' for Inactive)
ROOT
ATOM      1  C4' PXY d   1      -0.734  -2.787   1.088  0.00  0.00     0.077 C 
ATOM      2  C1' PXY d   1       0.852   2.347  -1.042  0.00  0.00     0.077 C 
ATOM      3  C1  PXY d   1       0.447   0.996  -0.489  0.00  0.00    -0.082 A 
ATOM      4  C2  PXY d   1      -0.829   0.743  -0.247  0.00  0.00     0.003 A 
ATOM      5  C3  PXY d   1      -1.210  -0.462   0.283  0.00  0.00     0.003 A 
ATOM      6  C4  PXY d   1      -0.280  -1.439   0.520  0.00  0.00    -0.082 A 
ATOM      7  C5  PXY d   1       1.022  -1.194   0.266  0.00  0.00     0.003 A 
ATOM      8  C6  PXY d   1       1.393   0.051  -0.234  0.00  0.00     0.003 A 
ENDROOT
TORSDOF 0
ENDMDL
