MODEL 1
REMARK minimizedAffinity -3.08641934
REMARK minimizedRMSD -1
REMARK  0 active torsions:
REMARK  status: ('A' for Active; 'I' for Inactive)
ROOT
ATOM      1  C4' PXY d   1       1.050   1.429  -0.577  0.00  0.00     0.077 C 
ATOM      2  C1' PXY d   1      -2.357  -2.812   1.378  0.00  0.00     0.077 C 
ATOM      3  C1  PXY d   1      -1.453  -1.706   0.871  0.00  0.00    -0.082 A 
ATOM      4  C2  PXY d   1      -1.967  -0.520   0.587  0.00  0.00     0.003 A 
ATOM      5  C3  PXY d   1      -1.169   0.482   0.097  0.00  0.00     0.003 A 
ATOM      6  C4  PXY d   1       0.177   0.285  -0.054  0.00  0.00    -0.082 A 
ATOM      7  C5  PXY d   1       0.711  -0.919   0.244  0.00  0.00     0.003 A 
ATOM      8  C6  PXY d   1      -0.123  -1.936   0.701  0.00  0.00     0.003 A 
ENDROOT
TORSDOF 0
ENDMDL
