MODEL 1
REMARK minimizedAffinity -4.52907991
REMARK minimizedRMSD -1
REMARK  0 active torsions:
REMARK  status: ('A' for Active; 'I' for Inactive)
ROOT
ATOM      1  C4' PXY d   1       1.130   1.934  -0.904  0.00  0.00     0.077 C 
ATOM      2  C1' PXY d   1      -1.785  -2.652   1.068  0.00  0.00     0.077 C 
ATOM      3  C1  PXY d   1      -1.032  -1.443   0.549  0.00  0.00    -0.082 A 
ATOM      4  C2  PXY d   1       0.173  -1.599   0.024  0.00  0.00     0.003 A 
ATOM      5  C3  PXY d   1       0.881  -0.512  -0.421  0.00  0.00     0.003 A 
ATOM      6  C4  PXY d   1       0.329   0.740  -0.376  0.00  0.00    -0.082 A 
ATOM      7  C5  PXY d   1      -0.904   0.906   0.149  0.00  0.00     0.003 A 
ATOM      8  C6  PXY d   1      -1.589  -0.205   0.633  0.00  0.00     0.003 A 
ENDROOT
TORSDOF 0
ENDMDL
