MODEL 1
REMARK minimizedAffinity -4.76822138
REMARK minimizedRMSD -1
REMARK  0 active torsions:
REMARK  status: ('A' for Active; 'I' for Inactive)
ROOT
ATOM      1  C4' PXY d   1       1.330   0.953  -0.864  0.00  0.00     0.077 C 
ATOM      2  C1' PXY d   1      -2.464  -2.548   1.735  0.00  0.00     0.077 C 
ATOM      3  C1  PXY d   1      -1.460  -1.639   1.054  0.00  0.00    -0.082 A 
ATOM      4  C2  PXY d   1      -1.594  -0.326   1.152  0.00  0.00     0.003 A 
ATOM      5  C3  PXY d   1      -0.713   0.510   0.515  0.00  0.00     0.003 A 
ATOM      6  C4  PXY d   1       0.346  -0.003  -0.185  0.00  0.00    -0.082 A 
ATOM      7  C5  PXY d   1       0.495  -1.341  -0.281  0.00  0.00     0.003 A 
ATOM      8  C6  PXY d   1      -0.433  -2.173   0.338  0.00  0.00     0.003 A 
ENDROOT
TORSDOF 0
ENDMDL
