MODEL 1
REMARK minimizedAffinity -2.4652288
REMARK minimizedRMSD -1
REMARK  0 active torsions:
REMARK  status: ('A' for Active; 'I' for Inactive)
ROOT
ATOM      1  C4' PXY d   1       1.973  -2.550   0.135  0.00  0.00     0.077 C 
ATOM      2  C1' PXY d   1      -2.977   0.385   0.680  0.00  0.00     0.077 C 
ATOM      3  C1  PXY d   1      -1.684  -0.395   0.544  0.00  0.00    -0.082 A 
ATOM      4  C2  PXY d   1      -0.554   0.250   0.305  0.00  0.00     0.003 A 
ATOM      5  C3  PXY d   1       0.620  -0.442   0.147  0.00  0.00     0.003 A 
ATOM      6  C4  PXY d   1       0.645  -1.803   0.289  0.00  0.00    -0.082 A 
ATOM      7  C5  PXY d   1      -0.502  -2.467   0.544  0.00  0.00     0.003 A 
ATOM      8  C6  PXY d   1      -1.689  -1.750   0.660  0.00  0.00     0.003 A 
ENDROOT
TORSDOF 0
ENDMDL
