MODEL 1
REMARK minimizedAffinity -4.25111198
REMARK minimizedRMSD -1
REMARK  0 active torsions:
REMARK  status: ('A' for Active; 'I' for Inactive)
ROOT
ATOM      1  C4' PXY d   1      -1.385  -2.983   1.098  0.00  0.00     0.077 C 
ATOM      2  C1' PXY d   1       1.060   1.805  -1.027  0.00  0.00     0.077 C 
ATOM      3  C1  PXY d   1       0.411   0.549  -0.480  0.00  0.00    -0.082 A 
ATOM      4  C2  PXY d   1       0.481   0.287   0.815  0.00  0.00     0.003 A 
ATOM      5  C3  PXY d   1      -0.073  -0.860   1.322  0.00  0.00     0.003 A 
ATOM      6  C4  PXY d   1      -0.752  -1.722   0.503  0.00  0.00    -0.082 A 
ATOM      7  C5  PXY d   1      -0.838  -1.457  -0.818  0.00  0.00     0.003 A 
ATOM      8  C6  PXY d   1      -0.233  -0.307  -1.319  0.00  0.00     0.003 A 
ENDROOT
TORSDOF 0
ENDMDL
