MODEL 1
REMARK minimizedAffinity -4.74239111
REMARK minimizedRMSD -1
REMARK  0 active torsions:
REMARK  status: ('A' for Active; 'I' for Inactive)
ROOT
ATOM      1  C4' PXY d   1       1.396   1.783  -0.828  0.00  0.00     0.077 C 
ATOM      2  C1' PXY d   1      -1.693  -2.647   1.234  0.00  0.00     0.077 C 
ATOM      3  C1  PXY d   1      -0.893  -1.479   0.688  0.00  0.00    -0.082 A 
ATOM      4  C2  PXY d   1       0.387  -1.642   0.398  0.00  0.00     0.003 A 
ATOM      5  C3  PXY d   1       1.132  -0.589  -0.066  0.00  0.00     0.003 A 
ATOM      6  C4  PXY d   1       0.548   0.630  -0.284  0.00  0.00    -0.082 A 
ATOM      7  C5  PXY d   1      -0.760   0.801  -0.001  0.00  0.00     0.003 A 
ATOM      8  C6  PXY d   1      -1.490  -0.270   0.508  0.00  0.00     0.003 A 
ENDROOT
TORSDOF 0
ENDMDL
