MODEL 1
REMARK minimizedAffinity -3.73539114
REMARK minimizedRMSD -1
REMARK  0 active torsions:
REMARK  status: ('A' for Active; 'I' for Inactive)
ROOT
ATOM      1  C4' PXY d   1       1.131   1.854  -1.722  0.00  0.00     0.077 C 
ATOM      2  C1' PXY d   1      -0.328  -2.645   1.601  0.00  0.00     0.077 C 
ATOM      3  C1  PXY d   1       0.042  -1.465   0.724  0.00  0.00    -0.082 A 
ATOM      4  C2  PXY d   1       1.314  -1.238   0.437  0.00  0.00     0.003 A 
ATOM      5  C3  PXY d   1       1.670  -0.157  -0.328  0.00  0.00     0.003 A 
ATOM      6  C4  PXY d   1       0.710   0.669  -0.848  0.00  0.00    -0.082 A 
ATOM      7  C5  PXY d   1      -0.590   0.438  -0.569  0.00  0.00     0.003 A 
ATOM      8  C6  PXY d   1      -0.927  -0.641   0.244  0.00  0.00     0.003 A 
ENDROOT
TORSDOF 0
ENDMDL
