MODEL 1
REMARK minimizedAffinity -4.92269659
REMARK minimizedRMSD -1
REMARK  0 active torsions:
REMARK  status: ('A' for Active; 'I' for Inactive)
ROOT
ATOM      1  C4' PXY d   1      -1.499  -2.815   1.100  0.00  0.00     0.077 C 
ATOM      2  C1' PXY d   1       1.058   2.046  -0.700  0.00  0.00     0.077 C 
ATOM      3  C1  PXY d   1       0.396   0.765  -0.235  0.00  0.00    -0.082 A 
ATOM      4  C2  PXY d   1      -0.872   0.783   0.142  0.00  0.00     0.003 A 
ATOM      5  C3  PXY d   1      -1.477  -0.361   0.596  0.00  0.00     0.003 A 
ATOM      6  C4  PXY d   1      -0.793  -1.547   0.614  0.00  0.00    -0.082 A 
ATOM      7  C5  PXY d   1       0.498  -1.575   0.221  0.00  0.00     0.003 A 
ATOM      8  C6  PXY d   1       1.106  -0.395  -0.197  0.00  0.00     0.003 A 
ENDROOT
TORSDOF 0
ENDMDL
