MODEL 1
REMARK minimizedAffinity -5.30042505
REMARK minimizedRMSD -1
REMARK  0 active torsions:
REMARK  status: ('A' for Active; 'I' for Inactive)
ROOT
ATOM      1  C4' PXY d   1       1.095   1.489  -0.276  0.00  0.00     0.077 C 
ATOM      2  C1' PXY d   1      -2.389  -2.751   1.542  0.00  0.00     0.077 C 
ATOM      3  C1  PXY d   1      -1.465  -1.645   1.071  0.00  0.00    -0.082 A 
ATOM      4  C2  PXY d   1      -1.955  -0.439   0.835  0.00  0.00     0.003 A 
ATOM      5  C3  PXY d   1      -1.140   0.564   0.378  0.00  0.00     0.003 A 
ATOM      6  C4  PXY d   1       0.201   0.345   0.211  0.00  0.00    -0.082 A 
ATOM      7  C5  PXY d   1       0.711  -0.880   0.459  0.00  0.00     0.003 A 
ATOM      8  C6  PXY d   1      -0.141  -1.896   0.883  0.00  0.00     0.003 A 
ENDROOT
TORSDOF 0
ENDMDL
