MODEL 1
REMARK minimizedAffinity -5.36731577
REMARK minimizedRMSD -1
REMARK  0 active torsions:
REMARK  status: ('A' for Active; 'I' for Inactive)
ROOT
ATOM      1  C4' PXY d   1      -1.884  -2.480   1.551  0.00  0.00     0.077 C 
ATOM      2  C1' PXY d   1       1.231   1.902  -0.574  0.00  0.00     0.077 C 
ATOM      3  C1  PXY d   1       0.408   0.761  -0.009  0.00  0.00    -0.082 A 
ATOM      4  C2  PXY d   1       0.874  -0.476  -0.071  0.00  0.00     0.003 A 
ATOM      5  C3  PXY d   1       0.129  -1.523   0.407  0.00  0.00     0.003 A 
ATOM      6  C4  PXY d   1      -1.083  -1.296   1.002  0.00  0.00    -0.082 A 
ATOM      7  C5  PXY d   1      -1.561  -0.036   1.079  0.00  0.00     0.003 A 
ATOM      8  C6  PXY d   1      -0.808   1.008   0.551  0.00  0.00     0.003 A 
ENDROOT
TORSDOF 0
ENDMDL
