MODEL 1
REMARK minimizedAffinity 8.64119053
REMARK minimizedRMSD -1
REMARK  0 active torsions:
REMARK  status: ('A' for Active; 'I' for Inactive)
ROOT
ATOM      1  C   UNL d   1       2.093   0.045   2.156  0.00  0.00     0.124 A 
ATOM      2  C1  UNL d   1       2.199   1.100   1.260  0.00  0.00     0.062 A 
ATOM      3  C2  UNL d   1       1.128   1.425   0.432  0.00  0.00     0.162 A 
ATOM      4  C3  UNL d   1      -0.058   0.694   0.496  0.00  0.00    -0.034 A 
ATOM      5  C4  UNL d   1      -0.157  -0.366   1.400  0.00  0.00     0.162 A 
ATOM      6  C5  UNL d   1       0.916  -0.686   2.225  0.00  0.00     0.062 A 
ATOM      7  F   UNL d   1       0.812  -1.706   3.090  0.00  0.00    -0.097 F 
ATOM      8  F1  UNL d   1      -1.283  -1.089   1.488  0.00  0.00    -0.096 F 
ATOM      9  I   UNL d   1      -1.661   1.176  -0.740  0.00  0.00    -0.060 I 
ATOM     10  F2  UNL d   1       1.258   2.449  -0.425  0.00  0.00    -0.096 F 
ATOM     11  F3  UNL d   1       3.335   1.808   1.191  0.00  0.00    -0.097 F 
ATOM     12  F4  UNL d   1       3.125  -0.266   2.951  0.00  0.00    -0.092 F 
ENDROOT
TORSDOF 0
ENDMDL
