MODEL 1
REMARK minimizedAffinity 4.67776442
REMARK minimizedRMSD -1
REMARK  0 active torsions:
REMARK  status: ('A' for Active; 'I' for Inactive)
ROOT
ATOM      1  C   UNL d   1       1.893   0.943   1.376  0.00  0.00     0.124 A 
ATOM      2  C1  UNL d   1       1.634  -0.303   1.930  0.00  0.00     0.062 A 
ATOM      3  C2  UNL d   1       0.919  -1.255   1.210  0.00  0.00     0.162 A 
ATOM      4  C3  UNL d   1       0.458  -0.966  -0.075  0.00  0.00    -0.034 A 
ATOM      5  C4  UNL d   1       0.722   0.290  -0.625  0.00  0.00     0.162 A 
ATOM      6  C5  UNL d   1       1.437   1.238   0.099  0.00  0.00     0.062 A 
ATOM      7  F   UNL d   1       1.686   2.441  -0.439  0.00  0.00    -0.097 F 
ATOM      8  F1  UNL d   1       0.293   0.601  -1.858  0.00  0.00    -0.096 F 
ATOM      9  I   UNL d   1      -0.612  -2.386  -1.156  0.00  0.00    -0.060 I 
ATOM     10  F2  UNL d   1       0.683  -2.450   1.770  0.00  0.00    -0.096 F 
ATOM     11  F3  UNL d   1       2.073  -0.590   3.164  0.00  0.00    -0.097 F 
ATOM     12  F4  UNL d   1       2.580   1.857   2.072  0.00  0.00    -0.092 F 
ENDROOT
TORSDOF 0
ENDMDL
