MODEL 1
REMARK minimizedAffinity 4.25191927
REMARK minimizedRMSD -1
REMARK  0 active torsions:
REMARK  status: ('A' for Active; 'I' for Inactive)
ROOT
ATOM      1  C   UNL d   1       0.428   2.437   0.212  0.00  0.00     0.124 A 
ATOM      2  C1  UNL d   1      -0.690   1.720   0.616  0.00  0.00     0.062 A 
ATOM      3  C2  UNL d   1      -0.543   0.569   1.384  0.00  0.00     0.162 A 
ATOM      4  C3  UNL d   1       0.727   0.127   1.755  0.00  0.00    -0.034 A 
ATOM      5  C4  UNL d   1       1.847   0.852   1.344  0.00  0.00     0.162 A 
ATOM      6  C5  UNL d   1       1.695   2.002   0.576  0.00  0.00     0.062 A 
ATOM      7  F   UNL d   1       2.776   2.693   0.187  0.00  0.00    -0.097 F 
ATOM      8  F1  UNL d   1       3.082   0.455   1.682  0.00  0.00    -0.096 F 
ATOM      9  I   UNL d   1       0.950  -1.594   2.903  0.00  0.00    -0.060 I 
ATOM     10  F2  UNL d   1      -1.641  -0.103   1.760  0.00  0.00    -0.096 F 
ATOM     11  F3  UNL d   1      -1.915   2.138   0.265  0.00  0.00    -0.097 F 
ATOM     12  F4  UNL d   1       0.285   3.544  -0.528  0.00  0.00    -0.092 F 
ENDROOT
TORSDOF 0
ENDMDL
