MODEL 1
REMARK minimizedAffinity 2.21933436
REMARK minimizedRMSD -1
REMARK  0 active torsions:
REMARK  status: ('A' for Active; 'I' for Inactive)
ROOT
ATOM      1  C   UNL d   1       3.736  -4.628  -4.853  0.00  0.00     0.124 A 
ATOM      2  C1  UNL d   1       4.831  -4.009  -4.267  0.00  0.00     0.062 A 
ATOM      3  C2  UNL d   1       4.930  -2.621  -4.260  0.00  0.00     0.162 A 
ATOM      4  C3  UNL d   1       3.929  -1.841  -4.840  0.00  0.00    -0.034 A 
ATOM      5  C4  UNL d   1       2.830  -2.471  -5.428  0.00  0.00     0.162 A 
ATOM      6  C5  UNL d   1       2.737  -3.859  -5.433  0.00  0.00     0.062 A 
ATOM      7  F   UNL d   1       1.677  -4.455  -5.999  0.00  0.00    -0.097 F 
ATOM      8  F1  UNL d   1       1.850  -1.752  -5.994  0.00  0.00    -0.096 F 
ATOM      9  I   UNL d   1       4.072   0.235  -4.831  0.00  0.00    -0.060 I 
ATOM     10  F2  UNL d   1       5.999  -2.049  -3.687  0.00  0.00    -0.096 F 
ATOM     11  F3  UNL d   1       5.798  -4.750  -3.708  0.00  0.00    -0.097 F 
ATOM     12  F4  UNL d   1       3.644  -5.964  -4.860  0.00  0.00    -0.092 F 
ENDROOT
TORSDOF 0
ENDMDL
