MODEL 1
REMARK minimizedAffinity 14.060154
REMARK minimizedRMSD -1
REMARK  0 active torsions:
REMARK  status: ('A' for Active; 'I' for Inactive)
ROOT
ATOM      1  C   UNL d   1       2.032   0.729   1.207  0.00  0.00     0.124 A 
ATOM      2  C1  UNL d   1       1.004  -0.204   1.189  0.00  0.00     0.062 A 
ATOM      3  C2  UNL d   1      -0.100  -0.013   0.363  0.00  0.00     0.162 A 
ATOM      4  C3  UNL d   1      -0.181   1.116  -0.453  0.00  0.00    -0.034 A 
ATOM      5  C4  UNL d   1       0.856   2.050  -0.428  0.00  0.00     0.162 A 
ATOM      6  C5  UNL d   1       1.957   1.854   0.399  0.00  0.00     0.062 A 
ATOM      7  F   UNL d   1       2.950   2.756   0.415  0.00  0.00    -0.097 F 
ATOM      8  F1  UNL d   1       0.810   3.146  -1.200  0.00  0.00    -0.096 F 
ATOM      9  I   UNL d   1      -1.830   1.406  -1.689  0.00  0.00    -0.060 I 
ATOM     10  F2  UNL d   1      -1.078  -0.930   0.366  0.00  0.00    -0.096 F 
ATOM     11  F3  UNL d   1       1.074  -1.292   1.969  0.00  0.00    -0.097 F 
ATOM     12  F4  UNL d   1       3.093   0.543   2.003  0.00  0.00    -0.092 F 
ENDROOT
TORSDOF 0
ENDMDL
