MODEL 1
REMARK minimizedAffinity 15.8229294
REMARK minimizedRMSD -1
REMARK  0 active torsions:
REMARK  status: ('A' for Active; 'I' for Inactive)
ROOT
ATOM      1  C   UNL d   1       1.358  -1.457   2.512  0.00  0.00     0.124 A 
ATOM      2  C1  UNL d   1       0.349  -1.238   1.584  0.00  0.00     0.062 A 
ATOM      3  C2  UNL d   1       0.253  -0.012   0.931  0.00  0.00     0.162 A 
ATOM      4  C3  UNL d   1       1.169   1.004   1.203  0.00  0.00    -0.034 A 
ATOM      5  C4  UNL d   1       2.180   0.777   2.138  0.00  0.00     0.162 A 
ATOM      6  C5  UNL d   1       2.272  -0.449   2.788  0.00  0.00     0.062 A 
ATOM      7  F   UNL d   1       3.248  -0.659   3.684  0.00  0.00    -0.097 F 
ATOM      8  F1  UNL d   1       3.077   1.732   2.423  0.00  0.00    -0.096 F 
ATOM      9  I   UNL d   1       1.027   2.838   0.228  0.00  0.00    -0.060 I 
ATOM     10  F2  UNL d   1      -0.732   0.171   0.040  0.00  0.00    -0.096 F 
ATOM     11  F3  UNL d   1      -0.535  -2.209   1.317  0.00  0.00    -0.097 F 
ATOM     12  F4  UNL d   1       1.449  -2.636   3.140  0.00  0.00    -0.092 F 
ENDROOT
TORSDOF 0
ENDMDL
