MODEL 1
REMARK minimizedAffinity 4.97549677
REMARK minimizedRMSD -1
REMARK  0 active torsions:
REMARK  status: ('A' for Active; 'I' for Inactive)
ROOT
ATOM      1  C   UNL d   1       2.188   0.819   1.212  0.00  0.00     0.124 A 
ATOM      2  C1  UNL d   1       2.409  -0.523   1.485  0.00  0.00     0.062 A 
ATOM      3  C2  UNL d   1       1.445  -1.472   1.156  0.00  0.00     0.162 A 
ATOM      4  C3  UNL d   1       0.251  -1.082   0.550  0.00  0.00    -0.034 A 
ATOM      5  C4  UNL d   1       0.036   0.271   0.279  0.00  0.00     0.162 A 
ATOM      6  C5  UNL d   1       1.003   1.215   0.610  0.00  0.00     0.062 A 
ATOM      7  F   UNL d   1       0.788   2.512   0.345  0.00  0.00    -0.097 F 
ATOM      8  F1  UNL d   1      -1.100   0.681  -0.303  0.00  0.00    -0.096 F 
ATOM      9  I   UNL d   1      -1.192  -2.497   0.056  0.00  0.00    -0.060 I 
ATOM     10  F2  UNL d   1       1.685  -2.763   1.432  0.00  0.00    -0.096 F 
ATOM     11  F3  UNL d   1       3.554  -0.908   2.068  0.00  0.00    -0.097 F 
ATOM     12  F4  UNL d   1       3.117   1.730   1.530  0.00  0.00    -0.092 F 
ENDROOT
TORSDOF 0
ENDMDL
