MODEL 1
REMARK minimizedAffinity 1.12310195
REMARK minimizedRMSD -1
REMARK  1 active torsions:
REMARK  status: ('A' for Active; 'I' for Inactive)
REMARK    1  A    between atoms: C1_2  and  C2_3 
ROOT
ATOM      1  C2  UNL d   1      -0.341   2.329   0.937  0.00  0.00    -0.081 A 
ATOM      2  C3  UNL d   1      -0.263   1.033   0.412  0.00  0.00     0.006 A 
ATOM      3  C4  UNL d   1      -0.236   0.829  -0.969  0.00  0.00     0.002 A 
ATOM      4  C5  UNL d   1      -0.278   1.917  -1.848  0.00  0.00    -0.080 A 
ATOM      5  C6  UNL d   1      -0.219   1.713  -3.333  0.00  0.00     0.076 C 
ATOM      6  C7  UNL d   1      -0.373   3.210  -1.325  0.00  0.00     0.002 A 
ATOM      7  C8  UNL d   1      -0.401   3.415   0.057  0.00  0.00     0.006 A 
ENDROOT
BRANCH   1   8
ATOM      8  C1  UNL d   1      -0.305   2.556   2.427  0.00  0.00     0.054 C 
ATOM      9  C   UNL d   1      -0.279   1.238   3.187  0.00  0.00     0.018 C 
ENDBRANCH   1   8
TORSDOF 1
ENDMDL
