MODEL 1
REMARK minimizedAffinity 5.70497322
REMARK minimizedRMSD -1
REMARK  1 active torsions:
REMARK  status: ('A' for Active; 'I' for Inactive)
REMARK    1  A    between atoms: C1_2  and  C2_3 
ROOT
ATOM      1  C2  UNL d   1      -2.313   3.780  -3.267  0.00  0.00    -0.081 A 
ATOM      2  C3  UNL d   1      -3.419   3.792  -2.409  0.00  0.00     0.006 A 
ATOM      3  C4  UNL d   1      -4.610   4.411  -2.796  0.00  0.00     0.002 A 
ATOM      4  C5  UNL d   1      -4.718   5.021  -4.051  0.00  0.00    -0.080 A 
ATOM      5  C6  UNL d   1      -6.000   5.662  -4.491  0.00  0.00     0.076 C 
ATOM      6  C7  UNL d   1      -3.607   5.025  -4.902  0.00  0.00     0.002 A 
ATOM      7  C8  UNL d   1      -2.416   4.407  -4.514  0.00  0.00     0.006 A 
ENDROOT
BRANCH   1   8
ATOM      8  C1  UNL d   1      -1.049   3.058  -2.878  0.00  0.00     0.054 C 
ATOM      9  C   UNL d   1      -1.143   2.498  -1.466  0.00  0.00     0.018 C 
ENDBRANCH   1   8
TORSDOF 1
ENDMDL
