MODEL 1
REMARK minimizedAffinity 5.26213741
REMARK minimizedRMSD -1
REMARK  1 active torsions:
REMARK  status: ('A' for Active; 'I' for Inactive)
REMARK    1  A    between atoms: C1_2  and  C2_3 
ROOT
ATOM      1  C2  UNL d   1      -1.764   3.793   1.258  0.00  0.00    -0.081 A 
ATOM      2  C3  UNL d   1      -2.247   3.428   2.520  0.00  0.00     0.006 A 
ATOM      3  C4  UNL d   1      -1.740   2.302   3.174  0.00  0.00     0.002 A 
ATOM      4  C5  UNL d   1      -0.737   1.528   2.581  0.00  0.00    -0.080 A 
ATOM      5  C6  UNL d   1      -0.163   0.335   3.285  0.00  0.00     0.076 C 
ATOM      6  C7  UNL d   1      -0.267   1.883   1.312  0.00  0.00     0.002 A 
ATOM      7  C8  UNL d   1      -0.773   3.008   0.657  0.00  0.00     0.006 A 
ENDROOT
BRANCH   1   8
ATOM      8  C1  UNL d   1      -2.262   5.043   0.578  0.00  0.00     0.054 C 
ATOM      9  C   UNL d   1      -2.897   6.000   1.577  0.00  0.00     0.018 C 
ENDBRANCH   1   8
TORSDOF 1
ENDMDL
