MODEL 1
REMARK minimizedAffinity 2.44324327
REMARK minimizedRMSD -1
REMARK  1 active torsions:
REMARK  status: ('A' for Active; 'I' for Inactive)
REMARK    1  A    between atoms: C1_2  and  C2_3 
ROOT
ATOM      1  C2  UNL d   1       0.012  -0.265   3.119  0.00  0.00    -0.081 A 
ATOM      2  C3  UNL d   1      -0.395   0.858   3.850  0.00  0.00     0.006 A 
ATOM      3  C4  UNL d   1      -0.400   2.124   3.260  0.00  0.00     0.002 A 
ATOM      4  C5  UNL d   1      -0.006   2.288   1.928  0.00  0.00    -0.080 A 
ATOM      5  C6  UNL d   1      -0.035   3.637   1.274  0.00  0.00     0.076 C 
ATOM      6  C7  UNL d   1       0.418   1.169   1.203  0.00  0.00     0.002 A 
ATOM      7  C8  UNL d   1       0.423  -0.097   1.792  0.00  0.00     0.006 A 
ENDROOT
BRANCH   1   8
ATOM      8  C1  UNL d   1      -0.043  -1.640   3.732  0.00  0.00     0.054 C 
ATOM      9  C   UNL d   1       0.733  -1.695   5.041  0.00  0.00     0.018 C 
ENDBRANCH   1   8
TORSDOF 1
ENDMDL
