MODEL 1
REMARK minimizedAffinity 4.15294266
REMARK minimizedRMSD -1
REMARK  1 active torsions:
REMARK  status: ('A' for Active; 'I' for Inactive)
REMARK    1  A    between atoms: C1_2  and  C2_3 
ROOT
ATOM      1  C2  UNL d   1       2.166  -1.683  -1.140  0.00  0.00    -0.081 A 
ATOM      2  C3  UNL d   1       1.327  -2.752  -0.805  0.00  0.00     0.006 A 
ATOM      3  C4  UNL d   1      -0.050  -2.667  -1.024  0.00  0.00     0.002 A 
ATOM      4  C5  UNL d   1      -0.609  -1.515  -1.588  0.00  0.00    -0.080 A 
ATOM      5  C6  UNL d   1      -2.082  -1.423  -1.856  0.00  0.00     0.076 C 
ATOM      6  C7  UNL d   1       0.227  -0.440  -1.907  0.00  0.00     0.002 A 
ATOM      7  C8  UNL d   1       1.604  -0.525  -1.688  0.00  0.00     0.006 A 
ENDROOT
BRANCH   1   8
ATOM      8  C1  UNL d   1       3.659  -1.796  -0.965  0.00  0.00     0.054 C 
ATOM      9  C   UNL d   1       4.117  -3.246  -1.042  0.00  0.00     0.018 C 
ENDBRANCH   1   8
TORSDOF 1
ENDMDL
