MODEL 1
REMARK minimizedAffinity 9.05352402
REMARK minimizedRMSD -1
REMARK  1 active torsions:
REMARK  status: ('A' for Active; 'I' for Inactive)
REMARK    1  A    between atoms: C1_2  and  C2_3 
ROOT
ATOM      1  C2  UNL d   1      -2.831   1.572   2.513  0.00  0.00    -0.081 A 
ATOM      2  C3  UNL d   1      -2.562   2.641   1.650  0.00  0.00     0.006 A 
ATOM      3  C4  UNL d   1      -1.250   3.074   1.444  0.00  0.00     0.002 A 
ATOM      4  C5  UNL d   1      -0.184   2.440   2.093  0.00  0.00    -0.080 A 
ATOM      5  C6  UNL d   1       1.232   2.875   1.858  0.00  0.00     0.076 C 
ATOM      6  C7  UNL d   1      -0.454   1.383   2.969  0.00  0.00     0.002 A 
ATOM      7  C8  UNL d   1      -1.766   0.951   3.175  0.00  0.00     0.006 A 
ENDROOT
BRANCH   1   8
ATOM      8  C1  UNL d   1      -4.238   1.062   2.687  0.00  0.00     0.054 C 
ATOM      9  C   UNL d   1      -4.347  -0.406   2.299  0.00  0.00     0.018 C 
ENDBRANCH   1   8
TORSDOF 1
ENDMDL
