MODEL 1
REMARK minimizedAffinity -2.77609205
REMARK minimizedRMSD -1
REMARK  1 active torsions:
REMARK  status: ('A' for Active; 'I' for Inactive)
REMARK    1  A    between atoms: C1_2  and  C2_3 
ROOT
ATOM      1  C2  UNL d   1      -4.200   3.331  -3.145  0.00  0.00    -0.081 A 
ATOM      2  C3  UNL d   1      -5.267   2.446  -2.946  0.00  0.00     0.006 A 
ATOM      3  C4  UNL d   1      -5.035   1.150  -2.481  0.00  0.00     0.002 A 
ATOM      4  C5  UNL d   1      -3.734   0.719  -2.199  0.00  0.00    -0.080 A 
ATOM      5  C6  UNL d   1      -3.474  -0.660  -1.670  0.00  0.00     0.076 C 
ATOM      6  C7  UNL d   1      -2.666   1.597  -2.413  0.00  0.00     0.002 A 
ATOM      7  C8  UNL d   1      -2.897   2.893  -2.879  0.00  0.00     0.006 A 
ENDROOT
BRANCH   1   8
ATOM      8  C1  UNL d   1      -4.452   4.750  -3.585  0.00  0.00     0.054 C 
ATOM      9  C   UNL d   1      -5.327   4.796  -4.829  0.00  0.00     0.018 C 
ENDBRANCH   1   8
TORSDOF 1
ENDMDL
