MODEL 1
REMARK minimizedAffinity 4.04572582
REMARK minimizedRMSD -1
REMARK  1 active torsions:
REMARK  status: ('A' for Active; 'I' for Inactive)
REMARK    1  A    between atoms: C1_2  and  C2_3 
ROOT
ATOM      1  C2  UNL d   1      -4.617   5.111  -3.916  0.00  0.00    -0.081 A 
ATOM      2  C3  UNL d   1      -4.162   5.641  -2.703  0.00  0.00     0.006 A 
ATOM      3  C4  UNL d   1      -3.505   4.827  -1.777  0.00  0.00     0.002 A 
ATOM      4  C5  UNL d   1      -3.286   3.472  -2.051  0.00  0.00    -0.080 A 
ATOM      5  C6  UNL d   1      -2.555   2.595  -1.079  0.00  0.00     0.076 C 
ATOM      6  C7  UNL d   1      -3.757   2.939  -3.256  0.00  0.00     0.002 A 
ATOM      7  C8  UNL d   1      -4.414   3.752  -4.182  0.00  0.00     0.006 A 
ENDROOT
BRANCH   1   8
ATOM      8  C1  UNL d   1      -5.269   6.000  -4.944  0.00  0.00     0.054 C 
ATOM      9  C   UNL d   1      -5.999   5.182  -6.000  0.00  0.00     0.018 C 
ENDBRANCH   1   8
TORSDOF 1
ENDMDL
