MODEL 1
REMARK minimizedAffinity 0.731079102
REMARK minimizedRMSD -1
REMARK  1 active torsions:
REMARK  status: ('A' for Active; 'I' for Inactive)
REMARK    1  A    between atoms: C1_2  and  C2_3 
ROOT
ATOM      1  C2  UNL d   1      -0.536   2.503   1.795  0.00  0.00    -0.081 A 
ATOM      2  C3  UNL d   1      -1.424   3.041   0.855  0.00  0.00     0.006 A 
ATOM      3  C4  UNL d   1      -0.975   3.951  -0.105  0.00  0.00     0.002 A 
ATOM      4  C5  UNL d   1       0.371   4.332  -0.146  0.00  0.00    -0.080 A 
ATOM      5  C6  UNL d   1       0.873   5.284  -1.191  0.00  0.00     0.076 C 
ATOM      6  C7  UNL d   1       1.255   3.808   0.803  0.00  0.00     0.002 A 
ATOM      7  C8  UNL d   1       0.806   2.899   1.764  0.00  0.00     0.006 A 
ENDROOT
BRANCH   1   8
ATOM      8  C1  UNL d   1      -1.005   1.473   2.791  0.00  0.00     0.054 C 
ATOM      9  C   UNL d   1       0.130   0.549   3.206  0.00  0.00     0.018 C 
ENDBRANCH   1   8
TORSDOF 1
ENDMDL
