MODEL 1
REMARK minimizedAffinity 6.99193096
REMARK minimizedRMSD -1
REMARK  1 active torsions:
REMARK  status: ('A' for Active; 'I' for Inactive)
REMARK    1  A    between atoms: C1_2  and  C2_3 
ROOT
ATOM      1  C2  UNL d   1      -1.311  -1.176  -3.179  0.00  0.00    -0.081 A 
ATOM      2  C3  UNL d   1      -2.416  -1.302  -2.328  0.00  0.00     0.006 A 
ATOM      3  C4  UNL d   1      -2.632  -0.375  -1.305  0.00  0.00     0.002 A 
ATOM      4  C5  UNL d   1      -1.751   0.697  -1.122  0.00  0.00    -0.080 A 
ATOM      5  C6  UNL d   1      -1.988   1.716  -0.047  0.00  0.00     0.076 C 
ATOM      6  C7  UNL d   1      -0.638   0.813  -1.961  0.00  0.00     0.002 A 
ATOM      7  C8  UNL d   1      -0.422  -0.114  -2.983  0.00  0.00     0.006 A 
ENDROOT
BRANCH   1   8
ATOM      8  C1  UNL d   1      -1.112  -2.136  -4.323  0.00  0.00     0.054 C 
ATOM      9  C   UNL d   1      -2.214  -1.995  -5.363  0.00  0.00     0.018 C 
ENDBRANCH   1   8
TORSDOF 1
ENDMDL
