MODEL 1
REMARK minimizedAffinity 0.474213153
REMARK minimizedRMSD -1
REMARK  0 active torsions:
REMARK  status: ('A' for Active; 'I' for Inactive)
ROOT
ATOM      1  C   UNL d   1       0.828  -1.752   1.889  0.00  0.00     0.172 C 
ATOM      2  N   UNL d   1       0.118  -1.982   0.652  0.00  0.00    -0.070 N 
ATOM      3  C1  UNL d   1      -1.175  -1.612   0.394  0.00  0.00    -0.004 A 
ATOM      4  C2  UNL d   1      -1.479  -2.009  -0.891  0.00  0.00    -0.047 A 
ATOM      5  C3  UNL d   1      -0.329  -2.640  -1.422  0.00  0.00    -0.047 A 
ATOM      6  C4  UNL d   1       0.644  -2.610  -0.445  0.00  0.00    -0.004 A 
ENDROOT
TORSDOF 0
ENDMDL
