MODEL 1
REMARK minimizedAffinity 0.932468593
REMARK minimizedRMSD -1
REMARK  0 active torsions:
REMARK  status: ('A' for Active; 'I' for Inactive)
ROOT
ATOM      1  C   UNL d   1       5.503  -2.612   4.497  0.00  0.00     0.172 C 
ATOM      2  N   UNL d   1       4.083  -2.778   4.293  0.00  0.00    -0.070 N 
ATOM      3  C1  UNL d   1       3.243  -1.851   3.736  0.00  0.00    -0.004 A 
ATOM      4  C2  UNL d   1       1.974  -2.388   3.719  0.00  0.00    -0.047 A 
ATOM      5  C3  UNL d   1       2.054  -3.682   4.287  0.00  0.00    -0.047 A 
ATOM      6  C4  UNL d   1       3.371  -3.898   4.633  0.00  0.00    -0.004 A 
ENDROOT
TORSDOF 0
ENDMDL
