MODEL 1
REMARK minimizedAffinity 7.51608324
REMARK minimizedRMSD -1
REMARK  0 active torsions:
REMARK  status: ('A' for Active; 'I' for Inactive)
ROOT
ATOM      1  C   UNL d   1       1.183  -1.492   1.972  0.00  0.00     0.172 C 
ATOM      2  N   UNL d   1       0.254  -1.808   0.912  0.00  0.00    -0.070 N 
ATOM      3  C1  UNL d   1      -1.060  -1.426   0.862  0.00  0.00    -0.004 A 
ATOM      4  C2  UNL d   1      -1.600  -1.924  -0.304  0.00  0.00    -0.047 A 
ATOM      5  C3  UNL d   1      -0.575  -2.631  -0.977  0.00  0.00    -0.047 A 
ATOM      6  C4  UNL d   1       0.562  -2.543  -0.202  0.00  0.00    -0.004 A 
ENDROOT
TORSDOF 0
ENDMDL
