MODEL 1
REMARK minimizedAffinity -0.433641016
REMARK minimizedRMSD -1
REMARK  0 active torsions:
REMARK  status: ('A' for Active; 'I' for Inactive)
ROOT
ATOM      1  C   UNL d   1      -0.013  -1.405   1.297  0.00  0.00     0.172 C 
ATOM      2  N   UNL d   1       0.818  -1.473   2.476  0.00  0.00    -0.070 N 
ATOM      3  C1  UNL d   1       0.839  -2.501   3.380  0.00  0.00    -0.004 A 
ATOM      4  C2  UNL d   1       1.761  -2.188   4.355  0.00  0.00    -0.047 A 
ATOM      5  C3  UNL d   1       2.313  -0.927   4.026  0.00  0.00    -0.047 A 
ATOM      6  C4  UNL d   1       1.712  -0.508   2.858  0.00  0.00    -0.004 A 
ENDROOT
TORSDOF 0
ENDMDL
