MODEL 1
REMARK minimizedAffinity -1.05046403
REMARK minimizedRMSD -1
REMARK  0 active torsions:
REMARK  status: ('A' for Active; 'I' for Inactive)
ROOT
ATOM      1  C   UNL d   1      -0.681  -0.952   0.716  0.00  0.00     0.172 C 
ATOM      2  N   UNL d   1      -0.306  -2.132  -0.026  0.00  0.00    -0.070 N 
ATOM      3  C1  UNL d   1      -1.122  -2.837  -0.870  0.00  0.00    -0.004 A 
ATOM      4  C2  UNL d   1      -0.393  -3.890  -1.380  0.00  0.00    -0.047 A 
ATOM      5  C3  UNL d   1       0.905  -3.815  -0.822  0.00  0.00    -0.047 A 
ATOM      6  C4  UNL d   1       0.932  -2.718   0.012  0.00  0.00    -0.004 A 
ENDROOT
TORSDOF 0
ENDMDL
