MODEL 1
REMARK minimizedAffinity 0.725426257
REMARK minimizedRMSD -1
REMARK  0 active torsions:
REMARK  status: ('A' for Active; 'I' for Inactive)
ROOT
ATOM      1  C   UNL d   1       0.078  -0.993   1.104  0.00  0.00     0.172 C 
ATOM      2  N   UNL d   1       0.573   0.309   0.724  0.00  0.00    -0.070 N 
ATOM      3  C1  UNL d   1       1.874   0.726   0.813  0.00  0.00    -0.004 A 
ATOM      4  C2  UNL d   1       1.934   2.024   0.353  0.00  0.00    -0.047 A 
ATOM      5  C3  UNL d   1       0.623   2.400  -0.024  0.00  0.00    -0.047 A 
ATOM      6  C4  UNL d   1      -0.199   1.320   0.216  0.00  0.00    -0.004 A 
ENDROOT
TORSDOF 0
ENDMDL
