MODEL 1
REMARK minimizedAffinity 0.0155112213
REMARK minimizedRMSD -1
REMARK  0 active torsions:
REMARK  status: ('A' for Active; 'I' for Inactive)
ROOT
ATOM      1  C   UNL d   1       5.822  -0.431  -5.973  0.00  0.00     0.172 C 
ATOM      2  N   UNL d   1       4.730  -1.377  -5.969  0.00  0.00    -0.070 N 
ATOM      3  C1  UNL d   1       4.855  -2.740  -5.999  0.00  0.00    -0.004 A 
ATOM      4  C2  UNL d   1       3.587  -3.280  -5.983  0.00  0.00    -0.047 A 
ATOM      5  C3  UNL d   1       2.669  -2.205  -5.943  0.00  0.00    -0.047 A 
ATOM      6  C4  UNL d   1       3.403  -1.038  -5.935  0.00  0.00    -0.004 A 
ENDROOT
TORSDOF 0
ENDMDL
