MODEL 1
REMARK minimizedAffinity -0.558279395
REMARK minimizedRMSD -1
REMARK  0 active torsions:
REMARK  status: ('A' for Active; 'I' for Inactive)
ROOT
ATOM      1  C   UNL d   1       3.264  -4.131  -5.998  0.00  0.00     0.172 C 
ATOM      2  N   UNL d   1       4.144  -2.986  -5.996  0.00  0.00    -0.070 N 
ATOM      3  C1  UNL d   1       3.749  -1.675  -5.995  0.00  0.00    -0.004 A 
ATOM      4  C2  UNL d   1       4.883  -0.892  -5.993  0.00  0.00    -0.047 A 
ATOM      5  C3  UNL d   1       5.999  -1.763  -5.994  0.00  0.00    -0.047 A 
ATOM      6  C4  UNL d   1       5.513  -3.053  -5.996  0.00  0.00    -0.004 A 
ENDROOT
TORSDOF 0
ENDMDL
