MODEL 1
REMARK minimizedAffinity 0.385019541
REMARK minimizedRMSD -1
REMARK  0 active torsions:
REMARK  status: ('A' for Active; 'I' for Inactive)
ROOT
ATOM      1  C   UNL d   1       2.354   0.202   3.627  0.00  0.00     0.172 C 
ATOM      2  N   UNL d   1       1.880  -1.152   3.790  0.00  0.00    -0.070 N 
ATOM      3  C1  UNL d   1       2.093  -1.946   4.885  0.00  0.00    -0.004 A 
ATOM      4  C2  UNL d   1       1.482  -3.159   4.652  0.00  0.00    -0.047 A 
ATOM      5  C3  UNL d   1       0.882  -3.092   3.372  0.00  0.00    -0.047 A 
ATOM      6  C4  UNL d   1       1.144  -1.839   2.861  0.00  0.00    -0.004 A 
ENDROOT
TORSDOF 0
ENDMDL
