MODEL 1
REMARK minimizedAffinity 7.97276402
REMARK minimizedRMSD -1
REMARK  0 active torsions:
REMARK  status: ('A' for Active; 'I' for Inactive)
ROOT
ATOM      1  C   UNL d   1       6.000  -1.867   0.658  0.00  0.00     0.020 A 
ATOM      2  C1  UNL d   1       4.854  -1.428   1.321  0.00  0.00     0.020 A 
ATOM      3  C2  UNL d   1       3.646  -2.107   1.151  0.00  0.00     0.034 A 
ATOM      4  C3  UNL d   1       3.581  -3.230   0.318  0.00  0.00     0.017 A 
ATOM      5  C4  UNL d   1       4.732  -3.670  -0.346  0.00  0.00     0.017 A 
ATOM      6  C5  UNL d   1       5.939  -2.986  -0.173  0.00  0.00     0.034 A 
ATOM      7 Cl   UNL d   1       4.730  -5.047  -1.391  0.00  0.00    -0.070 Cl
ATOM      8 Cl1  UNL d   1       2.054  -4.022   0.155  0.00  0.00    -0.070 Cl
ENDROOT
TORSDOF 0
ENDMDL
