MODEL 1
REMARK minimizedAffinity 8.85401535
REMARK minimizedRMSD -1
REMARK  0 active torsions:
REMARK  status: ('A' for Active; 'I' for Inactive)
ROOT
ATOM      1  C   UNL d   1       4.913  -2.883   0.057  0.00  0.00     0.020 A 
ATOM      2  C1  UNL d   1       5.783  -2.083  -0.683  0.00  0.00     0.020 A 
ATOM      3  C2  UNL d   1       5.875  -2.247  -2.066  0.00  0.00     0.034 A 
ATOM      4  C3  UNL d   1       5.096  -3.212  -2.715  0.00  0.00     0.017 A 
ATOM      5  C4  UNL d   1       4.223  -4.015  -1.971  0.00  0.00     0.017 A 
ATOM      6  C5  UNL d   1       4.135  -3.847  -0.586  0.00  0.00     0.034 A 
ATOM      7 Cl   UNL d   1       3.231  -5.227  -2.700  0.00  0.00    -0.070 Cl
ATOM      8 Cl1  UNL d   1       5.261  -3.360  -4.428  0.00  0.00    -0.070 Cl
ENDROOT
TORSDOF 0
ENDMDL
