MODEL 1
REMARK minimizedAffinity 10.1518383
REMARK minimizedRMSD -1
REMARK  0 active torsions:
REMARK  status: ('A' for Active; 'I' for Inactive)
ROOT
ATOM      1  C   UNL d   1      -1.069  -0.941  -2.424  0.00  0.00     0.020 A 
ATOM      2  C1  UNL d   1      -1.407  -0.134  -3.510  0.00  0.00     0.020 A 
ATOM      3  C2  UNL d   1      -2.301   0.925  -3.340  0.00  0.00     0.034 A 
ATOM      4  C3  UNL d   1      -2.859   1.181  -2.082  0.00  0.00     0.017 A 
ATOM      5  C4  UNL d   1      -2.519   0.370  -0.993  0.00  0.00     0.017 A 
ATOM      6  C5  UNL d   1      -1.623  -0.689  -1.169  0.00  0.00     0.034 A 
ATOM      7 Cl   UNL d   1      -3.166   0.624   0.589  0.00  0.00    -0.070 Cl
ATOM      8 Cl1  UNL d   1      -3.957   2.508  -1.945  0.00  0.00    -0.070 Cl
ENDROOT
TORSDOF 0
ENDMDL
