MODEL 1
REMARK minimizedAffinity 5.30271816
REMARK minimizedRMSD -1
REMARK  0 active torsions:
REMARK  status: ('A' for Active; 'I' for Inactive)
ROOT
ATOM      1  C   UNL d   1       0.647   4.314   0.424  0.00  0.00     0.020 A 
ATOM      2  C1  UNL d   1      -0.684   4.196   0.026  0.00  0.00     0.020 A 
ATOM      3  C2  UNL d   1      -1.471   3.154   0.521  0.00  0.00     0.034 A 
ATOM      4  C3  UNL d   1      -0.928   2.226   1.417  0.00  0.00     0.017 A 
ATOM      5  C4  UNL d   1       0.409   2.346   1.817  0.00  0.00     0.017 A 
ATOM      6  C5  UNL d   1       1.192   3.391   1.318  0.00  0.00     0.034 A 
ATOM      7 Cl   UNL d   1       1.149   1.240   2.919  0.00  0.00    -0.070 Cl
ATOM      8 Cl1  UNL d   1      -1.959   0.963   1.990  0.00  0.00    -0.070 Cl
ENDROOT
TORSDOF 0
ENDMDL
