MODEL 1
REMARK minimizedAffinity 4.29166794
REMARK minimizedRMSD -1
REMARK  0 active torsions:
REMARK  status: ('A' for Active; 'I' for Inactive)
ROOT
ATOM      1  C   UNL d   1       0.837   0.241  -1.363  0.00  0.00     0.020 A 
ATOM      2  C1  UNL d   1      -0.177  -0.603  -1.814  0.00  0.00     0.020 A 
ATOM      3  C2  UNL d   1      -1.514  -0.274  -1.582  0.00  0.00     0.034 A 
ATOM      4  C3  UNL d   1      -1.841   0.903  -0.898  0.00  0.00     0.017 A 
ATOM      5  C4  UNL d   1      -0.823   1.750  -0.446  0.00  0.00     0.017 A 
ATOM      6  C5  UNL d   1       0.514   1.415  -0.681  0.00  0.00     0.034 A 
ATOM      7 Cl   UNL d   1      -1.148   3.218   0.405  0.00  0.00    -0.070 Cl
ATOM      8 Cl1  UNL d   1      -3.516   1.248  -0.648  0.00  0.00    -0.070 Cl
ENDROOT
TORSDOF 0
ENDMDL
