MODEL 1
REMARK minimizedAffinity 12.1125393
REMARK minimizedRMSD -1
REMARK  0 active torsions:
REMARK  status: ('A' for Active; 'I' for Inactive)
ROOT
ATOM      1  C   UNL d   1       0.166   5.496  -0.894  0.00  0.00     0.020 A 
ATOM      2  C1  UNL d   1      -0.486   4.276  -0.724  0.00  0.00     0.020 A 
ATOM      3  C2  UNL d   1      -0.050   3.382   0.256  0.00  0.00     0.034 A 
ATOM      4  C3  UNL d   1       1.042   3.706   1.070  0.00  0.00     0.017 A 
ATOM      5  C4  UNL d   1       1.696   4.931   0.898  0.00  0.00     0.017 A 
ATOM      6  C5  UNL d   1       1.255   5.823  -0.084  0.00  0.00     0.034 A 
ATOM      7 Cl   UNL d   1       3.050   5.402   1.864  0.00  0.00    -0.070 Cl
ATOM      8 Cl1  UNL d   1       1.527   2.553   2.261  0.00  0.00    -0.070 Cl
ENDROOT
TORSDOF 0
ENDMDL
