MODEL 1
REMARK minimizedAffinity 5.02467346
REMARK minimizedRMSD -1
REMARK  0 active torsions:
REMARK  status: ('A' for Active; 'I' for Inactive)
ROOT
ATOM      1  C   UNL d   1       5.094  -2.914  -3.352  0.00  0.00     0.020 A 
ATOM      2  C1  UNL d   1       5.367  -2.034  -2.306  0.00  0.00     0.020 A 
ATOM      3  C2  UNL d   1       4.781  -2.234  -1.054  0.00  0.00     0.034 A 
ATOM      4  C3  UNL d   1       3.920  -3.318  -0.845  0.00  0.00     0.017 A 
ATOM      5  C4  UNL d   1       3.646  -4.201  -1.896  0.00  0.00     0.017 A 
ATOM      6  C5  UNL d   1       4.235  -3.995  -3.147  0.00  0.00     0.034 A 
ATOM      7 Cl   UNL d   1       2.594  -5.560  -1.715  0.00  0.00    -0.070 Cl
ATOM      8 Cl1  UNL d   1       3.231  -3.505   0.729  0.00  0.00    -0.070 Cl
ENDROOT
TORSDOF 0
ENDMDL
