MODEL 1
REMARK minimizedAffinity 10.9770079
REMARK minimizedRMSD -1
REMARK  0 active torsions:
REMARK  status: ('A' for Active; 'I' for Inactive)
ROOT
ATOM      1  C   UNL d   1       0.037   3.397   0.215  0.00  0.00     0.020 A 
ATOM      2  C1  UNL d   1       0.314   2.262   0.976  0.00  0.00     0.020 A 
ATOM      3  C2  UNL d   1       1.427   2.242   1.820  0.00  0.00     0.034 A 
ATOM      4  C3  UNL d   1       2.267   3.358   1.904  0.00  0.00     0.017 A 
ATOM      5  C4  UNL d   1       1.988   4.497   1.139  0.00  0.00     0.017 A 
ATOM      6  C5  UNL d   1       0.873   4.512   0.296  0.00  0.00     0.034 A 
ATOM      7 Cl   UNL d   1       2.979   5.912   1.190  0.00  0.00    -0.070 Cl
ATOM      8 Cl1  UNL d   1       3.625   3.263   2.969  0.00  0.00    -0.070 Cl
ENDROOT
TORSDOF 0
ENDMDL
