MODEL 1
REMARK minimizedAffinity -4.70971918
REMARK minimizedRMSD -1
REMARK  0 active torsions:
REMARK  status: ('A' for Active; 'I' for Inactive)
ROOT
ATOM      1  C   UNL d   1       2.811   2.580   1.130  0.00  0.00     0.077 C 
ATOM      2  C1  UNL d   1       1.487   1.876   1.114  0.00  0.00    -0.074 A 
ATOM      3  C2  UNL d   1       0.511   2.157   2.076  0.00  0.00    -0.005 A 
ATOM      4  C3  UNL d   1      -0.719   1.501   2.043  0.00  0.00     0.006 A 
ATOM      5  C4  UNL d   1      -0.986   0.559   1.049  0.00  0.00    -0.005 A 
ATOM      6  C5  UNL d   1      -0.024   0.265   0.078  0.00  0.00    -0.074 A 
ATOM      7  C6  UNL d   1      -0.298  -0.737  -1.003  0.00  0.00     0.077 C 
ATOM      8  C7  UNL d   1       1.208   0.934   0.114  0.00  0.00    -0.001 A 
ENDROOT
TORSDOF 0
ENDMDL
