MODEL 1
REMARK minimizedAffinity -5.12731695
REMARK minimizedRMSD -1
REMARK  0 active torsions:
REMARK  status: ('A' for Active; 'I' for Inactive)
ROOT
ATOM      1  C   UNL d   1      -1.168  -1.185  -0.397  0.00  0.00     0.077 C 
ATOM      2  C1  UNL d   1      -0.394  -0.074   0.248  0.00  0.00    -0.074 A 
ATOM      3  C2  UNL d   1      -0.981   0.740   1.222  0.00  0.00    -0.005 A 
ATOM      4  C3  UNL d   1      -0.245   1.763   1.820  0.00  0.00     0.006 A 
ATOM      5  C4  UNL d   1       1.083   1.982   1.452  0.00  0.00    -0.005 A 
ATOM      6  C5  UNL d   1       1.687   1.177   0.481  0.00  0.00    -0.074 A 
ATOM      7  C6  UNL d   1       3.117   1.391   0.080  0.00  0.00     0.077 C 
ATOM      8  C7  UNL d   1       0.944   0.146  -0.111  0.00  0.00    -0.001 A 
ENDROOT
TORSDOF 0
ENDMDL
