MODEL 1
REMARK minimizedAffinity -4.20999718
REMARK minimizedRMSD -1
REMARK  0 active torsions:
REMARK  status: ('A' for Active; 'I' for Inactive)
ROOT
ATOM      1  C   UNL d   1       2.531   2.866   1.260  0.00  0.00     0.077 C 
ATOM      2  C1  UNL d   1       1.883   1.610   0.756  0.00  0.00    -0.074 A 
ATOM      3  C2  UNL d   1       2.485   0.843  -0.246  0.00  0.00    -0.005 A 
ATOM      4  C3  UNL d   1       1.876  -0.328  -0.698  0.00  0.00     0.006 A 
ATOM      5  C4  UNL d   1       0.660  -0.742  -0.153  0.00  0.00    -0.005 A 
ATOM      6  C5  UNL d   1       0.044   0.011   0.851  0.00  0.00    -0.074 A 
ATOM      7  C6  UNL d   1      -1.258  -0.425   1.454  0.00  0.00     0.077 C 
ATOM      8  C7  UNL d   1       0.666   1.183   1.304  0.00  0.00    -0.001 A 
ENDROOT
TORSDOF 0
ENDMDL
