MODEL 1
REMARK minimizedAffinity -2.71097875
REMARK minimizedRMSD -1
REMARK  0 active torsions:
REMARK  status: ('A' for Active; 'I' for Inactive)
ROOT
ATOM      1  C   UNL d   1       3.429   0.824   0.780  0.00  0.00     0.077 C 
ATOM      2  C1  UNL d   1       1.935   0.690   0.794  0.00  0.00    -0.074 A 
ATOM      3  C2  UNL d   1       1.161   1.375   1.736  0.00  0.00    -0.005 A 
ATOM      4  C3  UNL d   1      -0.228   1.247   1.731  0.00  0.00     0.006 A 
ATOM      5  C4  UNL d   1      -0.856   0.436   0.785  0.00  0.00    -0.005 A 
ATOM      6  C5  UNL d   1      -0.098  -0.255  -0.166  0.00  0.00    -0.074 A 
ATOM      7  C6  UNL d   1      -0.757  -1.124  -1.196  0.00  0.00     0.077 C 
ATOM      8  C7  UNL d   1       1.297  -0.117  -0.158  0.00  0.00    -0.001 A 
ENDROOT
TORSDOF 0
ENDMDL
