MODEL 1
REMARK minimizedAffinity -3.32269692
REMARK minimizedRMSD -1
REMARK  0 active torsions:
REMARK  status: ('A' for Active; 'I' for Inactive)
ROOT
ATOM      1  C   UNL d   1       1.493   2.366   0.394  0.00  0.00     0.077 C 
ATOM      2  C1  UNL d   1       0.507   1.237   0.350  0.00  0.00    -0.074 A 
ATOM      3  C2  UNL d   1       0.017   0.664   1.529  0.00  0.00    -0.005 A 
ATOM      4  C3  UNL d   1      -0.907  -0.379   1.472  0.00  0.00     0.006 A 
ATOM      5  C4  UNL d   1      -1.350  -0.860   0.239  0.00  0.00    -0.005 A 
ATOM      6  C5  UNL d   1      -0.872  -0.299  -0.949  0.00  0.00    -0.074 A 
ATOM      7  C6  UNL d   1      -1.345  -0.797  -2.283  0.00  0.00     0.077 C 
ATOM      8  C7  UNL d   1       0.051   0.754  -0.884  0.00  0.00    -0.001 A 
ENDROOT
TORSDOF 0
ENDMDL
