MODEL 1
REMARK minimizedAffinity -3.80089879
REMARK minimizedRMSD -1
REMARK  0 active torsions:
REMARK  status: ('A' for Active; 'I' for Inactive)
ROOT
ATOM      1  C   UNL d   1       0.707   2.555   1.534  0.00  0.00     0.077 C 
ATOM      2  C1  UNL d   1       0.371   1.192   1.008  0.00  0.00    -0.074 A 
ATOM      3  C2  UNL d   1      -0.836   0.569   1.343  0.00  0.00    -0.005 A 
ATOM      4  C3  UNL d   1      -1.139  -0.695   0.838  0.00  0.00     0.006 A 
ATOM      5  C4  UNL d   1      -0.240  -1.349  -0.006  0.00  0.00    -0.005 A 
ATOM      6  C5  UNL d   1       0.971  -0.742  -0.353  0.00  0.00    -0.074 A 
ATOM      7  C6  UNL d   1       1.943  -1.426  -1.267  0.00  0.00     0.077 C 
ATOM      8  C7  UNL d   1       1.265   0.532   0.153  0.00  0.00    -0.001 A 
ENDROOT
TORSDOF 0
ENDMDL
