MODEL 1
REMARK minimizedAffinity -5.01095295
REMARK minimizedRMSD -1
REMARK  0 active torsions:
REMARK  status: ('A' for Active; 'I' for Inactive)
ROOT
ATOM      1  C   UNL d   1       2.515   2.998   1.107  0.00  0.00     0.077 C 
ATOM      2  C1  UNL d   1       1.585   1.834   0.930  0.00  0.00    -0.074 A 
ATOM      3  C2  UNL d   1       0.368   1.776   1.617  0.00  0.00    -0.005 A 
ATOM      4  C3  UNL d   1      -0.491   0.692   1.435  0.00  0.00     0.006 A 
ATOM      5  C4  UNL d   1      -0.143  -0.342   0.566  0.00  0.00    -0.005 A 
ATOM      6  C5  UNL d   1       1.069  -0.300  -0.131  0.00  0.00    -0.074 A 
ATOM      7  C6  UNL d   1       1.454  -1.399  -1.077  0.00  0.00     0.077 C 
ATOM      8  C7  UNL d   1       1.924   0.795   0.052  0.00  0.00    -0.001 A 
ENDROOT
TORSDOF 0
ENDMDL
