MODEL 1
REMARK minimizedAffinity -4.53843832
REMARK minimizedRMSD -1
REMARK  0 active torsions:
REMARK  status: ('A' for Active; 'I' for Inactive)
ROOT
ATOM      1  C   UNL d   1      -1.248   0.779   1.429  0.00  0.00     0.077 C 
ATOM      2  C1  UNL d   1      -0.635  -0.106   0.385  0.00  0.00    -0.074 A 
ATOM      3  C2  UNL d   1       0.678  -0.570   0.516  0.00  0.00    -0.005 A 
ATOM      4  C3  UNL d   1       1.231  -1.400  -0.459  0.00  0.00     0.006 A 
ATOM      5  C4  UNL d   1       0.478  -1.774  -1.573  0.00  0.00    -0.005 A 
ATOM      6  C5  UNL d   1      -0.837  -1.320  -1.721  0.00  0.00    -0.074 A 
ATOM      7  C6  UNL d   1      -1.663  -1.721  -2.907  0.00  0.00     0.077 C 
ATOM      8  C7  UNL d   1      -1.388  -0.492  -0.733  0.00  0.00    -0.001 A 
ENDROOT
TORSDOF 0
ENDMDL
