MODEL 1
REMARK minimizedAffinity -5.13609743
REMARK minimizedRMSD -1
REMARK  0 active torsions:
REMARK  status: ('A' for Active; 'I' for Inactive)
ROOT
ATOM      1  C   UNL d   1      -0.877  -1.114  -0.158  0.00  0.00     0.077 C 
ATOM      2  C1  UNL d   1      -0.051   0.075   0.234  0.00  0.00    -0.074 A 
ATOM      3  C2  UNL d   1      -0.592   1.101   1.014  0.00  0.00    -0.005 A 
ATOM      4  C3  UNL d   1       0.192   2.195   1.380  0.00  0.00     0.006 A 
ATOM      5  C4  UNL d   1       1.523   2.274   0.969  0.00  0.00    -0.005 A 
ATOM      6  C5  UNL d   1       2.082   1.257   0.190  0.00  0.00    -0.074 A 
ATOM      7  C6  UNL d   1       3.514   1.321  -0.251  0.00  0.00     0.077 C 
ATOM      8  C7  UNL d   1       1.290   0.157  -0.167  0.00  0.00    -0.001 A 
ENDROOT
TORSDOF 0
ENDMDL
