MODEL 1
REMARK minimizedAffinity -5.87326145
REMARK minimizedRMSD -1
REMARK  0 active torsions:
REMARK  status: ('A' for Active; 'I' for Inactive)
ROOT
ATOM      1  C   UNL d   1       2.416   3.206   1.365  0.00  0.00     0.077 C 
ATOM      2  C1  UNL d   1       1.847   1.932   0.814  0.00  0.00    -0.074 A 
ATOM      3  C2  UNL d   1       2.587   1.136  -0.066  0.00  0.00    -0.005 A 
ATOM      4  C3  UNL d   1       2.049  -0.051  -0.563  0.00  0.00     0.006 A 
ATOM      5  C4  UNL d   1       0.767  -0.453  -0.186  0.00  0.00    -0.005 A 
ATOM      6  C5  UNL d   1       0.012   0.330   0.693  0.00  0.00    -0.074 A 
ATOM      7  C6  UNL d   1      -1.364  -0.093   1.117  0.00  0.00     0.077 C 
ATOM      8  C7  UNL d   1       0.563   1.517   1.194  0.00  0.00    -0.001 A 
ENDROOT
TORSDOF 0
ENDMDL
