MODEL 1
REMARK minimizedAffinity -4.15239096
REMARK minimizedRMSD -1
REMARK  0 active torsions:
REMARK  status: ('A' for Active; 'I' for Inactive)
ROOT
ATOM      1  C   UNL d   1       3.074   1.165   0.763  0.00  0.00     0.077 C 
ATOM      2  C1  UNL d   1       1.626   0.775   0.816  0.00  0.00    -0.074 A 
ATOM      3  C2  UNL d   1       0.836   1.093   1.924  0.00  0.00    -0.005 A 
ATOM      4  C3  UNL d   1      -0.511   0.732   1.955  0.00  0.00     0.006 A 
ATOM      5  C4  UNL d   1      -1.080   0.050   0.879  0.00  0.00    -0.005 A 
ATOM      6  C5  UNL d   1      -0.306  -0.276  -0.239  0.00  0.00    -0.074 A 
ATOM      7  C6  UNL d   1      -0.904  -1.000  -1.408  0.00  0.00     0.077 C 
ATOM      8  C7  UNL d   1       1.045   0.096  -0.265  0.00  0.00    -0.001 A 
ENDROOT
TORSDOF 0
ENDMDL
