MODEL 1
REMARK minimizedAffinity -4.33813906
REMARK minimizedRMSD -1
REMARK  0 active torsions:
REMARK  status: ('A' for Active; 'I' for Inactive)
ROOT
ATOM      1  C   UNL d   1       2.670   3.454   1.401  0.00  0.00     0.077 C 
ATOM      2  C1  UNL d   1       2.376   2.165   0.693  0.00  0.00    -0.074 A 
ATOM      3  C2  UNL d   1       3.396   1.436   0.074  0.00  0.00    -0.005 A 
ATOM      4  C3  UNL d   1       3.109   0.234  -0.573  0.00  0.00     0.006 A 
ATOM      5  C4  UNL d   1       1.800  -0.251  -0.606  0.00  0.00    -0.005 A 
ATOM      6  C5  UNL d   1       0.767   0.464   0.008  0.00  0.00    -0.074 A 
ATOM      7  C6  UNL d   1      -0.643  -0.047  -0.011  0.00  0.00     0.077 C 
ATOM      8  C7  UNL d   1       1.065   1.668   0.662  0.00  0.00    -0.001 A 
ENDROOT
TORSDOF 0
ENDMDL
