MODEL 1
REMARK minimizedAffinity -6.21331358
REMARK minimizedRMSD -1
REMARK  0 active torsions:
REMARK  status: ('A' for Active; 'I' for Inactive)
ROOT
ATOM      1  C   UNL d   1       2.784   3.269   1.588  0.00  0.00     0.077 C 
ATOM      2  C1  UNL d   1       2.242   2.007   0.985  0.00  0.00    -0.074 A 
ATOM      3  C2  UNL d   1       2.992   1.273   0.060  0.00  0.00    -0.005 A 
ATOM      4  C3  UNL d   1       2.479   0.096  -0.485  0.00  0.00     0.006 A 
ATOM      5  C4  UNL d   1       1.214  -0.359  -0.111  0.00  0.00    -0.005 A 
ATOM      6  C5  UNL d   1       0.450   0.361   0.813  0.00  0.00    -0.074 A 
ATOM      7  C6  UNL d   1      -0.907  -0.118   1.233  0.00  0.00     0.077 C 
ATOM      8  C7  UNL d   1       0.975   1.539   1.362  0.00  0.00    -0.001 A 
ENDROOT
TORSDOF 0
ENDMDL
