MODEL 1
REMARK minimizedAffinity -5.4360919
REMARK minimizedRMSD -1
REMARK  0 active torsions:
REMARK  status: ('A' for Active; 'I' for Inactive)
ROOT
ATOM      1  C   UNL d   1      -0.493  -0.916  -0.076  0.00  0.00     0.077 C 
ATOM      2  C1  UNL d   1       0.456   0.245  -0.054  0.00  0.00    -0.074 A 
ATOM      3  C2  UNL d   1       0.053   1.511  -0.492  0.00  0.00    -0.005 A 
ATOM      4  C3  UNL d   1       0.943   2.584  -0.457  0.00  0.00     0.006 A 
ATOM      5  C4  UNL d   1       2.244   2.403   0.015  0.00  0.00    -0.005 A 
ATOM      6  C5  UNL d   1       2.664   1.145   0.458  0.00  0.00    -0.074 A 
ATOM      7  C6  UNL d   1       4.055   0.935   0.978  0.00  0.00     0.077 C 
ATOM      8  C7  UNL d   1       1.762   0.073   0.427  0.00  0.00    -0.001 A 
ENDROOT
TORSDOF 0
ENDMDL
