MODEL 1
REMARK minimizedAffinity -5.49673796
REMARK minimizedRMSD -1
REMARK  0 active torsions:
REMARK  status: ('A' for Active; 'I' for Inactive)
ROOT
ATOM      1  C   UNL d   1       2.269   2.483   1.232  0.00  0.00     0.077 C 
ATOM      2  C1  UNL d   1       1.360   1.332   0.917  0.00  0.00    -0.074 A 
ATOM      3  C2  UNL d   1       1.717   0.374  -0.037  0.00  0.00    -0.005 A 
ATOM      4  C3  UNL d   1       0.866  -0.695  -0.313  0.00  0.00     0.006 A 
ATOM      5  C4  UNL d   1      -0.349  -0.818   0.362  0.00  0.00    -0.005 A 
ATOM      6  C5  UNL d   1      -0.723   0.130   1.320  0.00  0.00    -0.074 A 
ATOM      7  C6  UNL d   1      -2.021   0.007   2.062  0.00  0.00     0.077 C 
ATOM      8  C7  UNL d   1       0.141   1.198   1.597  0.00  0.00    -0.001 A 
ENDROOT
TORSDOF 0
ENDMDL
