MODEL 1
REMARK minimizedAffinity -0.657660544
REMARK minimizedRMSD -1
REMARK  0 active torsions:
REMARK  status: ('A' for Active; 'I' for Inactive)
ROOT
ATOM      1  C   UNL d   1       2.424  -0.075  -0.810  0.00  0.00     0.077 C 
ATOM      2  C1  UNL d   1       1.001  -0.068  -0.338  0.00  0.00    -0.074 A 
ATOM      3  C2  UNL d   1       0.013  -0.788  -1.019  0.00  0.00    -0.005 A 
ATOM      4  C3  UNL d   1      -1.304  -0.779  -0.562  0.00  0.00     0.006 A 
ATOM      5  C4  UNL d   1      -1.648  -0.053   0.579  0.00  0.00    -0.005 A 
ATOM      6  C5  UNL d   1      -0.674   0.671   1.274  0.00  0.00    -0.074 A 
ATOM      7  C6  UNL d   1      -1.024   1.449   2.507  0.00  0.00     0.077 C 
ATOM      8  C7  UNL d   1       0.649   0.652   0.812  0.00  0.00    -0.001 A 
ENDROOT
TORSDOF 0
ENDMDL
