MODEL 1
REMARK minimizedAffinity -2.88437414
REMARK minimizedRMSD -1
REMARK  0 active torsions:
REMARK  status: ('A' for Active; 'I' for Inactive)
ROOT
ATOM      1  C   UNL d   1       1.483   1.880   2.015  0.00  0.00     0.077 C 
ATOM      2  C1  UNL d   1       1.449   0.708   1.080  0.00  0.00    -0.074 A 
ATOM      3  C2  UNL d   1       2.615   0.251   0.457  0.00  0.00    -0.005 A 
ATOM      4  C3  UNL d   1       2.569  -0.846  -0.403  0.00  0.00     0.006 A 
ATOM      5  C4  UNL d   1       1.359  -1.497  -0.649  0.00  0.00    -0.005 A 
ATOM      6  C5  UNL d   1       0.183  -1.054  -0.034  0.00  0.00    -0.074 A 
ATOM      7  C6  UNL d   1      -1.124  -1.748  -0.279  0.00  0.00     0.077 C 
ATOM      8  C7  UNL d   1       0.239   0.044   0.834  0.00  0.00    -0.001 A 
ENDROOT
TORSDOF 0
ENDMDL
