MODEL 1
REMARK minimizedAffinity 5.48178577
REMARK minimizedRMSD -1
REMARK  0 active torsions:
REMARK  status: ('A' for Active; 'I' for Inactive)
ROOT
ATOM      1  C   UNL d   1       4.874   2.622  -2.243  0.00  0.00     0.077 C 
ATOM      2  C1  UNL d   1       3.928   1.736  -1.488  0.00  0.00    -0.074 A 
ATOM      3  C2  UNL d   1       3.856   1.785  -0.092  0.00  0.00    -0.005 A 
ATOM      4  C3  UNL d   1       2.965   0.961   0.596  0.00  0.00     0.006 A 
ATOM      5  C4  UNL d   1       2.138   0.082  -0.104  0.00  0.00    -0.005 A 
ATOM      6  C5  UNL d   1       2.195   0.020  -1.500  0.00  0.00    -0.074 A 
ATOM      7  C6  UNL d   1       1.306  -0.912  -2.268  0.00  0.00     0.077 C 
ATOM      8  C7  UNL d   1       3.088   0.855  -2.184  0.00  0.00    -0.001 A 
ENDROOT
TORSDOF 0
ENDMDL
