MODEL 1
REMARK minimizedAffinity 1.85992849
REMARK minimizedRMSD -1
REMARK  0 active torsions:
REMARK  status: ('A' for Active; 'I' for Inactive)
ROOT
ATOM      1  C   UNL d   1      -4.248  -0.635   1.247  0.00  0.00     0.077 C 
ATOM      2  C1  UNL d   1      -2.772  -0.708   0.996  0.00  0.00    -0.074 A 
ATOM      3  C2  UNL d   1      -2.180   0.030  -0.035  0.00  0.00    -0.005 A 
ATOM      4  C3  UNL d   1      -0.804  -0.040  -0.250  0.00  0.00     0.006 A 
ATOM      5  C4  UNL d   1      -0.006  -0.848   0.561  0.00  0.00    -0.005 A 
ATOM      6  C5  UNL d   1      -0.579  -1.592   1.597  0.00  0.00    -0.074 A 
ATOM      7  C6  UNL d   1       0.265  -2.457   2.485  0.00  0.00     0.077 C 
ATOM      8  C7  UNL d   1      -1.962  -1.511   1.812  0.00  0.00    -0.001 A 
ENDROOT
TORSDOF 0
ENDMDL
