MODEL 1
REMARK minimizedAffinity -2.06176877
REMARK minimizedRMSD -1
REMARK  0 active torsions:
REMARK  status: ('A' for Active; 'I' for Inactive)
ROOT
ATOM      1  C   UNL d   1      -0.502   5.631   4.851  0.00  0.00     0.077 C 
ATOM      2  C1  UNL d   1       0.991   5.766   4.805  0.00  0.00    -0.074 A 
ATOM      3  C2  UNL d   1       1.741   5.850   5.983  0.00  0.00    -0.005 A 
ATOM      4  C3  UNL d   1       3.129   5.966   5.925  0.00  0.00     0.006 A 
ATOM      5  C4  UNL d   1       3.781   6.000   4.692  0.00  0.00    -0.005 A 
ATOM      6  C5  UNL d   1       3.048   5.917   3.504  0.00  0.00    -0.074 A 
ATOM      7  C6  UNL d   1       3.733   5.941   2.170  0.00  0.00     0.077 C 
ATOM      8  C7  UNL d   1       1.653   5.793   3.570  0.00  0.00    -0.001 A 
ENDROOT
TORSDOF 0
ENDMDL
