MODEL 1
REMARK minimizedAffinity -1.22243392
REMARK minimizedRMSD -1
REMARK  0 active torsions:
REMARK  status: ('A' for Active; 'I' for Inactive)
ROOT
ATOM      1  C   UNL d   1       2.105  -4.398   1.934  0.00  0.00     0.077 C 
ATOM      2  C1  UNL d   1       0.849  -3.729   2.407  0.00  0.00    -0.074 A 
ATOM      3  C2  UNL d   1      -0.091  -4.424   3.175  0.00  0.00    -0.005 A 
ATOM      4  C3  UNL d   1      -1.250  -3.785   3.615  0.00  0.00     0.006 A 
ATOM      5  C4  UNL d   1      -1.481  -2.448   3.293  0.00  0.00    -0.005 A 
ATOM      6  C5  UNL d   1      -0.553  -1.736   2.526  0.00  0.00    -0.074 A 
ATOM      7  C6  UNL d   1      -0.781  -0.295   2.179  0.00  0.00     0.077 C 
ATOM      8  C7  UNL d   1       0.613  -2.383   2.093  0.00  0.00    -0.001 A 
ENDROOT
TORSDOF 0
ENDMDL
