MODEL 1
REMARK minimizedAffinity -0.900693655
REMARK minimizedRMSD -1
REMARK  0 active torsions:
REMARK  status: ('A' for Active; 'I' for Inactive)
ROOT
ATOM      1  C   UNL d   1       1.869  -3.582   1.546  0.00  0.00     0.077 C 
ATOM      2  C1  UNL d   1       0.964  -2.426   1.240  0.00  0.00    -0.074 A 
ATOM      3  C2  UNL d   1       1.096  -1.707   0.047  0.00  0.00    -0.005 A 
ATOM      4  C3  UNL d   1       0.241  -0.640  -0.228  0.00  0.00     0.006 A 
ATOM      5  C4  UNL d   1      -0.753  -0.282   0.684  0.00  0.00    -0.005 A 
ATOM      6  C5  UNL d   1      -0.900  -0.991   1.881  0.00  0.00    -0.074 A 
ATOM      7  C6  UNL d   1      -1.969  -0.626   2.867  0.00  0.00     0.077 C 
ATOM      8  C7  UNL d   1      -0.042  -2.066   2.147  0.00  0.00    -0.001 A 
ENDROOT
TORSDOF 0
ENDMDL
