MODEL 1
REMARK minimizedAffinity 4.66543722
REMARK minimizedRMSD -1
REMARK  0 active torsions:
REMARK  status: ('A' for Active; 'I' for Inactive)
ROOT
ATOM      1  C   UNL d   1       0.042   3.345  -3.038  0.00  0.00     0.077 C 
ATOM      2  C1  UNL d   1       1.374   2.778  -2.645  0.00  0.00    -0.074 A 
ATOM      3  C2  UNL d   1       2.564   3.365  -3.086  0.00  0.00    -0.005 A 
ATOM      4  C3  UNL d   1       3.795   2.832  -2.704  0.00  0.00     0.006 A 
ATOM      5  C4  UNL d   1       3.848   1.708  -1.879  0.00  0.00    -0.005 A 
ATOM      6  C5  UNL d   1       2.669   1.108  -1.427  0.00  0.00    -0.074 A 
ATOM      7  C6  UNL d   1       2.708  -0.095  -0.532  0.00  0.00     0.077 C 
ATOM      8  C7  UNL d   1       1.436   1.654  -1.809  0.00  0.00    -0.001 A 
ENDROOT
TORSDOF 0
ENDMDL
