MODEL 1
REMARK minimizedAffinity 0.297631413
REMARK minimizedRMSD -1
REMARK  0 active torsions:
REMARK  status: ('A' for Active; 'I' for Inactive)
ROOT
ATOM      1  C   UNL d   1       0.001  -2.111   2.762  0.00  0.00     0.077 C 
ATOM      2  C1  UNL d   1      -0.886  -1.478   1.732  0.00  0.00    -0.074 A 
ATOM      3  C2  UNL d   1      -0.349  -0.714   0.691  0.00  0.00    -0.005 A 
ATOM      4  C3  UNL d   1      -1.186  -0.140  -0.265  0.00  0.00     0.006 A 
ATOM      5  C4  UNL d   1      -2.567  -0.323  -0.190  0.00  0.00    -0.005 A 
ATOM      6  C5  UNL d   1      -3.123  -1.084   0.844  0.00  0.00    -0.074 A 
ATOM      7  C6  UNL d   1      -4.605  -1.299   0.933  0.00  0.00     0.077 C 
ATOM      8  C7  UNL d   1      -2.274  -1.664   1.796  0.00  0.00    -0.001 A 
ENDROOT
TORSDOF 0
ENDMDL
