MODEL 1
REMARK minimizedAffinity 1.29172432
REMARK minimizedRMSD -1
REMARK  0 active torsions:
REMARK  status: ('A' for Active; 'I' for Inactive)
ROOT
ATOM      1  C   UNL d   1       0.862  -0.767  -0.828  0.00  0.00     0.077 C 
ATOM      2  C1  UNL d   1       0.839  -1.593   0.423  0.00  0.00    -0.074 A 
ATOM      3  C2  UNL d   1       0.008  -1.252   1.495  0.00  0.00    -0.005 A 
ATOM      4  C3  UNL d   1      -0.010  -2.035   2.649  0.00  0.00     0.006 A 
ATOM      5  C4  UNL d   1       0.802  -3.166   2.743  0.00  0.00    -0.005 A 
ATOM      6  C5  UNL d   1       1.639  -3.524   1.681  0.00  0.00    -0.074 A 
ATOM      7  C6  UNL d   1       2.511  -4.741   1.762  0.00  0.00     0.077 C 
ATOM      8  C7  UNL d   1       1.647  -2.735   0.522  0.00  0.00    -0.001 A 
ENDROOT
TORSDOF 0
ENDMDL
