MODEL 1
REMARK minimizedAffinity -4.54909086
REMARK minimizedRMSD -1
REMARK  0 active torsions:
REMARK  status: ('A' for Active; 'I' for Inactive)
ROOT
ATOM      1  C   UNL d   1       0.343  -0.962  -1.040  0.00  0.00     0.077 C 
ATOM      2  C1  UNL d   1      -0.519  -1.136   0.175  0.00  0.00    -0.074 A 
ATOM      3  C2  UNL d   1      -0.004  -1.699   1.347  0.00  0.00    -0.005 A 
ATOM      4  C3  UNL d   1      -0.815  -1.846   2.473  0.00  0.00     0.006 A 
ATOM      5  C4  UNL d   1      -2.147  -1.433   2.437  0.00  0.00    -0.005 A 
ATOM      6  C5  UNL d   1      -2.680  -0.867   1.274  0.00  0.00    -0.074 A 
ATOM      7  C6  UNL d   1      -4.107  -0.409   1.222  0.00  0.00     0.077 C 
ATOM      8  C7  UNL d   1      -1.857  -0.717   0.150  0.00  0.00    -0.001 A 
ENDROOT
TORSDOF 0
ENDMDL
