MODEL 1
REMARK minimizedAffinity -2.94807506
REMARK minimizedRMSD -1
REMARK  0 active torsions:
REMARK  status: ('A' for Active; 'I' for Inactive)
ROOT
ATOM      1  C   UNL d   1       3.093  -0.075  -0.845  0.00  0.00     0.077 C 
ATOM      2  C1  UNL d   1       1.613  -0.312  -0.887  0.00  0.00    -0.074 A 
ATOM      3  C2  UNL d   1       0.981  -0.697  -2.074  0.00  0.00    -0.005 A 
ATOM      4  C3  UNL d   1      -0.396  -0.923  -2.096  0.00  0.00     0.006 A 
ATOM      5  C4  UNL d   1      -1.152  -0.768  -0.934  0.00  0.00    -0.005 A 
ATOM      6  C5  UNL d   1      -0.537  -0.384   0.262  0.00  0.00    -0.074 A 
ATOM      7  C6  UNL d   1      -1.334  -0.222   1.522  0.00  0.00     0.077 C 
ATOM      8  C7  UNL d   1       0.847  -0.166   0.278  0.00  0.00    -0.001 A 
ENDROOT
TORSDOF 0
ENDMDL
