MODEL 1
REMARK minimizedAffinity 12.5630398
REMARK minimizedRMSD -1
REMARK  1 active torsions:
REMARK  status: ('A' for Active; 'I' for Inactive)
REMARK    1  A    between atoms: C1_2  and  C2_3 
ROOT
ATOM      1  C2  UNL d   1      -3.427  -4.329  -4.574  0.00  0.00    -0.076 A 
ATOM      2  C3  UNL d   1      -4.221  -5.283  -5.234  0.00  0.00     0.004 A 
ATOM      3  C4  UNL d   1      -5.361  -4.903  -5.939  0.00  0.00    -0.003 A 
ATOM      4  C5  UNL d   1      -5.726  -3.562  -5.997  0.00  0.00     0.000 A 
ATOM      5  C6  UNL d   1      -4.940  -2.600  -5.363  0.00  0.00     0.000 A 
ATOM      6  C7  UNL d   1      -3.778  -2.965  -4.661  0.00  0.00    -0.073 A 
ATOM      7  C8  UNL d   1      -2.971  -1.887  -3.991  0.00  0.00     0.078 C 
ENDROOT
BRANCH   1   8
ATOM      8  C1  UNL d   1      -2.216  -4.803  -3.801  0.00  0.00     0.053 C 
ATOM      9  C   UNL d   1      -2.577  -5.336  -2.423  0.00  0.00     0.018 C 
ENDBRANCH   1   8
TORSDOF 1
ENDMDL
