MODEL 1
REMARK minimizedAffinity 6.24625874
REMARK minimizedRMSD -1
REMARK  1 active torsions:
REMARK  status: ('A' for Active; 'I' for Inactive)
REMARK    1  A    between atoms: C1_2  and  C2_3 
ROOT
ATOM      1  C2  UNL d   1      -1.867  -5.081  -2.813  0.00  0.00    -0.076 A 
ATOM      2  C3  UNL d   1      -3.065  -4.631  -3.397  0.00  0.00     0.004 A 
ATOM      3  C4  UNL d   1      -3.051  -3.846  -4.548  0.00  0.00    -0.003 A 
ATOM      4  C5  UNL d   1      -1.840  -3.498  -5.136  0.00  0.00     0.000 A 
ATOM      5  C6  UNL d   1      -0.643  -3.950  -4.581  0.00  0.00     0.000 A 
ATOM      6  C7  UNL d   1      -0.640  -4.756  -3.429  0.00  0.00    -0.073 A 
ATOM      7  C8  UNL d   1       0.681  -5.210  -2.870  0.00  0.00     0.078 C 
ENDROOT
BRANCH   1   8
ATOM      8  C1  UNL d   1      -1.943  -5.907  -1.549  0.00  0.00     0.053 C 
ATOM      9  C   UNL d   1      -2.800  -5.253  -0.477  0.00  0.00     0.018 C 
ENDBRANCH   1   8
TORSDOF 1
ENDMDL
