MODEL 1
REMARK minimizedAffinity 8.49113846
REMARK minimizedRMSD -1
REMARK  1 active torsions:
REMARK  status: ('A' for Active; 'I' for Inactive)
REMARK    1  A    between atoms: C1_2  and  C2_3 
ROOT
ATOM      1  C2  UNL d   1       2.126   0.341  -1.501  0.00  0.00    -0.076 A 
ATOM      2  C3  UNL d   1       2.100   1.375  -2.453  0.00  0.00     0.004 A 
ATOM      3  C4  UNL d   1       2.061   1.093  -3.818  0.00  0.00    -0.003 A 
ATOM      4  C5  UNL d   1       2.047  -0.228  -4.252  0.00  0.00     0.000 A 
ATOM      5  C6  UNL d   1       2.055  -1.266  -3.321  0.00  0.00     0.000 A 
ATOM      6  C7  UNL d   1       2.078  -0.999  -1.941  0.00  0.00    -0.073 A 
ATOM      7  C8  UNL d   1       2.091  -2.157  -0.982  0.00  0.00     0.078 C 
ENDROOT
BRANCH   1   8
ATOM      8  C1  UNL d   1       2.196   0.707  -0.036  0.00  0.00     0.053 C 
ATOM      9  C   UNL d   1       0.827   0.715   0.628  0.00  0.00     0.018 C 
ENDBRANCH   1   8
TORSDOF 1
ENDMDL
