MODEL 1
REMARK minimizedAffinity 19.2634354
REMARK minimizedRMSD -1
REMARK  1 active torsions:
REMARK  status: ('A' for Active; 'I' for Inactive)
REMARK    1  A    between atoms: C1_2  and  C2_3 
ROOT
ATOM      1  C2  UNL d   1       1.199  -2.712  -1.608  0.00  0.00    -0.076 A 
ATOM      2  C3  UNL d   1       0.893  -1.414  -2.053  0.00  0.00     0.004 A 
ATOM      3  C4  UNL d   1       1.667  -0.322  -1.666  0.00  0.00    -0.003 A 
ATOM      4  C5  UNL d   1       2.761  -0.510  -0.829  0.00  0.00     0.000 A 
ATOM      5  C6  UNL d   1       3.090  -1.793  -0.392  0.00  0.00     0.000 A 
ATOM      6  C7  UNL d   1       2.329  -2.907  -0.786  0.00  0.00    -0.073 A 
ATOM      7  C8  UNL d   1       2.726  -4.267  -0.280  0.00  0.00     0.078 C 
ENDROOT
BRANCH   1   8
ATOM      8  C1  UNL d   1       0.307  -3.855  -2.038  0.00  0.00     0.053 C 
ATOM      9  C   UNL d   1       0.956  -4.736  -3.094  0.00  0.00     0.018 C 
ENDBRANCH   1   8
TORSDOF 1
ENDMDL
