MODEL 1
REMARK minimizedAffinity 15.2375784
REMARK minimizedRMSD -1
REMARK  1 active torsions:
REMARK  status: ('A' for Active; 'I' for Inactive)
REMARK    1  A    between atoms: C1_2  and  C2_3 
ROOT
ATOM      1  C2  UNL d   1      -3.470   1.763   3.836  0.00  0.00    -0.076 A 
ATOM      2  C3  UNL d   1      -2.452   2.722   3.692  0.00  0.00     0.004 A 
ATOM      3  C4  UNL d   1      -1.277   2.424   3.006  0.00  0.00    -0.003 A 
ATOM      4  C5  UNL d   1      -1.099   1.162   2.450  0.00  0.00     0.000 A 
ATOM      5  C6  UNL d   1      -2.105   0.203   2.568  0.00  0.00     0.000 A 
ATOM      6  C7  UNL d   1      -3.304   0.493   3.243  0.00  0.00    -0.073 A 
ATOM      7  C8  UNL d   1      -4.353  -0.581   3.344  0.00  0.00     0.078 C 
ENDROOT
BRANCH   1   8
ATOM      8  C1  UNL d   1      -4.711   2.134   4.614  0.00  0.00     0.053 C 
ATOM      9  C   UNL d   1      -4.389   2.824   5.931  0.00  0.00     0.018 C 
ENDBRANCH   1   8
TORSDOF 1
ENDMDL
