MODEL 1
REMARK minimizedAffinity 17.5975647
REMARK minimizedRMSD -1
REMARK  1 active torsions:
REMARK  status: ('A' for Active; 'I' for Inactive)
REMARK    1  A    between atoms: C1_2  and  C2_3 
ROOT
ATOM      1  C2  UNL d   1      -4.035  -0.797   3.276  0.00  0.00    -0.076 A 
ATOM      2  C3  UNL d   1      -4.747  -0.551   2.089  0.00  0.00     0.004 A 
ATOM      3  C4  UNL d   1      -5.718  -1.443   1.638  0.00  0.00    -0.003 A 
ATOM      4  C5  UNL d   1      -5.993  -2.596   2.366  0.00  0.00     0.000 A 
ATOM      5  C6  UNL d   1      -5.308  -2.846   3.555  0.00  0.00     0.000 A 
ATOM      6  C7  UNL d   1      -4.338  -1.949   4.032  0.00  0.00    -0.073 A 
ATOM      7  C8  UNL d   1      -3.625  -2.272   5.317  0.00  0.00     0.078 C 
ENDROOT
BRANCH   1   8
ATOM      8  C1  UNL d   1      -2.974   0.193   3.702  0.00  0.00     0.053 C 
ATOM      9  C   UNL d   1      -2.510   1.079   2.556  0.00  0.00     0.018 C 
ENDBRANCH   1   8
TORSDOF 1
ENDMDL
