MODEL 1
REMARK minimizedAffinity 10.3818617
REMARK minimizedRMSD -1
REMARK  1 active torsions:
REMARK  status: ('A' for Active; 'I' for Inactive)
REMARK    1  A    between atoms: C1_2  and  C2_3 
ROOT
ATOM      1  C2  UNL d   1       2.613  -0.227  -1.296  0.00  0.00    -0.076 A 
ATOM      2  C3  UNL d   1       3.063  -1.324  -0.541  0.00  0.00     0.004 A 
ATOM      3  C4  UNL d   1       2.673  -2.624  -0.861  0.00  0.00    -0.003 A 
ATOM      4  C5  UNL d   1       1.827  -2.847  -1.941  0.00  0.00     0.000 A 
ATOM      5  C6  UNL d   1       1.385  -1.772  -2.712  0.00  0.00     0.000 A 
ATOM      6  C7  UNL d   1       1.782  -0.457  -2.413  0.00  0.00    -0.073 A 
ATOM      7  C8  UNL d   1       1.270   0.665  -3.274  0.00  0.00     0.078 C 
ENDROOT
BRANCH   1   8
ATOM      8  C1  UNL d   1       3.048   1.162  -0.885  0.00  0.00     0.053 C 
ATOM      9  C   UNL d   1       4.451   1.183  -0.297  0.00  0.00     0.018 C 
ENDBRANCH   1   8
TORSDOF 1
ENDMDL
