MODEL 1
REMARK minimizedAffinity 18.2813969
REMARK minimizedRMSD -1
REMARK  1 active torsions:
REMARK  status: ('A' for Active; 'I' for Inactive)
REMARK    1  A    between atoms: C1_2  and  C2_3 
ROOT
ATOM      1  C2  UNL d   1      -4.193   0.340   3.583  0.00  0.00    -0.076 A 
ATOM      2  C3  UNL d   1      -5.461   0.818   3.956  0.00  0.00     0.004 A 
ATOM      3  C4  UNL d   1      -5.670   2.172   4.212  0.00  0.00    -0.003 A 
ATOM      4  C5  UNL d   1      -4.614   3.070   4.098  0.00  0.00     0.000 A 
ATOM      5  C6  UNL d   1      -3.354   2.616   3.711  0.00  0.00     0.000 A 
ATOM      6  C7  UNL d   1      -3.130   1.256   3.434  0.00  0.00    -0.073 A 
ATOM      7  C8  UNL d   1      -1.749   0.820   3.026  0.00  0.00     0.078 C 
ENDROOT
BRANCH   1   8
ATOM      8  C1  UNL d   1      -4.020  -1.143   3.344  0.00  0.00     0.053 C 
ATOM      9  C   UNL d   1      -4.000  -1.943   4.638  0.00  0.00     0.018 C 
ENDBRANCH   1   8
TORSDOF 1
ENDMDL
