MODEL 1
REMARK minimizedAffinity 19.1107063
REMARK minimizedRMSD -1
REMARK  1 active torsions:
REMARK  status: ('A' for Active; 'I' for Inactive)
REMARK    1  A    between atoms: C1_2  and  C2_3 
ROOT
ATOM      1  C2  UNL d   1      -0.848  -3.269  -2.960  0.00  0.00    -0.076 A 
ATOM      2  C3  UNL d   1      -0.380  -4.179  -1.996  0.00  0.00     0.004 A 
ATOM      3  C4  UNL d   1      -1.225  -5.145  -1.452  0.00  0.00    -0.003 A 
ATOM      4  C5  UNL d   1      -2.551  -5.218  -1.865  0.00  0.00     0.000 A 
ATOM      5  C6  UNL d   1      -3.027  -4.334  -2.834  0.00  0.00     0.000 A 
ATOM      6  C7  UNL d   1      -2.184  -3.365  -3.403  0.00  0.00    -0.073 A 
ATOM      7  C8  UNL d   1      -2.752  -2.434  -4.439  0.00  0.00     0.078 C 
ENDROOT
BRANCH   1   8
ATOM      8  C1  UNL d   1       0.107  -2.225  -3.493  0.00  0.00     0.053 C 
ATOM      9  C   UNL d   1       0.431  -1.151  -2.465  0.00  0.00     0.018 C 
ENDBRANCH   1   8
TORSDOF 1
ENDMDL
