MODEL 1
REMARK minimizedAffinity -2.98399425
REMARK minimizedRMSD -1
REMARK  1 active torsions:
REMARK  status: ('A' for Active; 'I' for Inactive)
REMARK    1  A    between atoms: C1_2  and  C2_3 
ROOT
ATOM      1  C2  UNL d   1       2.587  -2.984  -1.683  0.00  0.00    -0.076 A 
ATOM      2  C3  UNL d   1       2.953  -3.727  -2.819  0.00  0.00     0.004 A 
ATOM      3  C4  UNL d   1       2.913  -3.159  -4.091  0.00  0.00    -0.003 A 
ATOM      4  C5  UNL d   1       2.507  -1.839  -4.249  0.00  0.00     0.000 A 
ATOM      5  C6  UNL d   1       2.157  -1.081  -3.131  0.00  0.00     0.000 A 
ATOM      6  C7  UNL d   1       2.207  -1.633  -1.840  0.00  0.00    -0.073 A 
ATOM      7  C8  UNL d   1       1.813  -0.773  -0.671  0.00  0.00     0.078 C 
ENDROOT
BRANCH   1   8
ATOM      8  C1  UNL d   1       2.624  -3.661  -0.332  0.00  0.00     0.053 C 
ATOM      9  C   UNL d   1       3.045  -5.119  -0.422  0.00  0.00     0.018 C 
ENDBRANCH   1   8
TORSDOF 1
ENDMDL
