MODEL 1
REMARK minimizedAffinity 16.076643
REMARK minimizedRMSD -1
REMARK  1 active torsions:
REMARK  status: ('A' for Active; 'I' for Inactive)
REMARK    1  A    between atoms: C1_2  and  C2_3 
ROOT
ATOM      1  C2  UNL d   1       0.201   1.091   3.780  0.00  0.00    -0.076 A 
ATOM      2  C3  UNL d   1      -0.551   2.264   3.595  0.00  0.00     0.004 A 
ATOM      3  C4  UNL d   1      -1.775   2.235   2.929  0.00  0.00    -0.003 A 
ATOM      4  C5  UNL d   1      -2.267   1.031   2.438  0.00  0.00     0.000 A 
ATOM      5  C6  UNL d   1      -1.543  -0.146   2.628  0.00  0.00     0.000 A 
ATOM      6  C7  UNL d   1      -0.315  -0.136   3.311  0.00  0.00    -0.073 A 
ATOM      7  C8  UNL d   1       0.426  -1.433   3.482  0.00  0.00     0.078 C 
ENDROOT
BRANCH   1   8
ATOM      8  C1  UNL d   1       1.535   1.189   4.486  0.00  0.00     0.053 C 
ATOM      9  C   UNL d   1       1.390   1.252   5.998  0.00  0.00     0.018 C 
ENDBRANCH   1   8
TORSDOF 1
ENDMDL
