MODEL 1
REMARK minimizedAffinity 24.8621902
REMARK minimizedRMSD -1
REMARK  1 active torsions:
REMARK  status: ('A' for Active; 'I' for Inactive)
REMARK    1  A    between atoms: C1_2  and  C2_3 
ROOT
ATOM      1  C2  UNL d   1      -0.826  -2.788  -2.207  0.00  0.00    -0.076 A 
ATOM      2  C3  UNL d   1      -0.795  -4.192  -2.249  0.00  0.00     0.004 A 
ATOM      3  C4  UNL d   1      -1.916  -4.923  -2.640  0.00  0.00    -0.003 A 
ATOM      4  C5  UNL d   1      -3.086  -4.261  -2.996  0.00  0.00     0.000 A 
ATOM      5  C6  UNL d   1      -3.129  -2.867  -2.977  0.00  0.00     0.000 A 
ATOM      6  C7  UNL d   1      -2.003  -2.115  -2.600  0.00  0.00    -0.073 A 
ATOM      7  C8  UNL d   1      -2.107  -0.614  -2.592  0.00  0.00     0.078 C 
ENDROOT
BRANCH   1   8
ATOM      8  C1  UNL d   1       0.411  -2.049  -1.748  0.00  0.00     0.053 C 
ATOM      9  C   UNL d   1       0.819  -2.420  -0.331  0.00  0.00     0.018 C 
ENDBRANCH   1   8
TORSDOF 1
ENDMDL
