MODEL 1
REMARK minimizedAffinity 8.70627213
REMARK minimizedRMSD -1
REMARK  1 active torsions:
REMARK  status: ('A' for Active; 'I' for Inactive)
REMARK    1  A    between atoms: C1_2  and  C2_3 
ROOT
ATOM      1  C2  UNL d   1       1.874  -2.584  -1.797  0.00  0.00    -0.076 A 
ATOM      2  C3  UNL d   1       1.724  -1.298  -2.345  0.00  0.00     0.004 A 
ATOM      3  C4  UNL d   1       2.113  -0.165  -1.633  0.00  0.00    -0.003 A 
ATOM      4  C5  UNL d   1       2.658  -0.299  -0.360  0.00  0.00     0.000 A 
ATOM      5  C6  UNL d   1       2.829  -1.568   0.192  0.00  0.00     0.000 A 
ATOM      6  C7  UNL d   1       2.458  -2.721  -0.520  0.00  0.00    -0.073 A 
ATOM      7  C8  UNL d   1       2.660  -4.064   0.127  0.00  0.00     0.078 C 
ENDROOT
BRANCH   1   8
ATOM      8  C1  UNL d   1       1.410  -3.774  -2.605  0.00  0.00     0.053 C 
ATOM      9  C   UNL d   1       1.800  -3.670  -4.072  0.00  0.00     0.018 C 
ENDBRANCH   1   8
TORSDOF 1
ENDMDL
