MODEL 1
REMARK minimizedAffinity -4.7436676
REMARK minimizedRMSD -1
REMARK  0 active torsions:
REMARK  status: ('A' for Active; 'I' for Inactive)
ROOT
ATOM      1  C1  BNZ d   1      -4.874  -0.156  -5.176  0.00  0.00     0.000 A 
ATOM      2  C2  BNZ d   1      -4.785  -0.951  -4.065  0.00  0.00     0.000 A 
ATOM      3  C3  BNZ d   1      -3.569  -1.351  -3.586  0.00  0.00     0.000 A 
ATOM      4  C4  BNZ d   1      -2.447  -0.989  -4.240  0.00  0.00     0.000 A 
ATOM      5  C5  BNZ d   1      -2.520  -0.195  -5.367  0.00  0.00     0.000 A 
ATOM      6  C6  BNZ d   1      -3.744   0.238  -5.824  0.00  0.00     0.000 A 
ENDROOT
TORSDOF 0
ENDMDL
