MODEL 1
REMARK minimizedAffinity 7.24411106
REMARK minimizedRMSD -1
REMARK  0 active torsions:
REMARK  status: ('A' for Active; 'I' for Inactive)
ROOT
ATOM      1  C1  BNZ d   1       2.827   2.084   1.845  0.00  0.00     0.000 A 
ATOM      2  C2  BNZ d   1       3.977   2.673   1.391  0.00  0.00     0.000 A 
ATOM      3  C3  BNZ d   1       4.769   2.045   0.471  0.00  0.00     0.000 A 
ATOM      4  C4  BNZ d   1       4.433   0.813   0.037  0.00  0.00     0.000 A 
ATOM      5  C5  BNZ d   1       3.281   0.202   0.492  0.00  0.00     0.000 A 
ATOM      6  C6  BNZ d   1       2.466   0.854   1.389  0.00  0.00     0.000 A 
ENDROOT
TORSDOF 0
ENDMDL
