MODEL 1
REMARK minimizedAffinity 8.92200089
REMARK minimizedRMSD -1
REMARK  0 active torsions:
REMARK  status: ('A' for Active; 'I' for Inactive)
ROOT
ATOM      1  C1  BNZ d   1       1.810   0.402   2.745  0.00  0.00     0.000 A 
ATOM      2  C2  BNZ d   1       2.642   1.486   2.669  0.00  0.00     0.000 A 
ATOM      3  C3  BNZ d   1       3.572   1.587   1.672  0.00  0.00     0.000 A 
ATOM      4  C4  BNZ d   1       3.695   0.586   0.777  0.00  0.00     0.000 A 
ATOM      5  C5  BNZ d   1       2.870  -0.519   0.845  0.00  0.00     0.000 A 
ATOM      6  C6  BNZ d   1       1.909  -0.598   1.827  0.00  0.00     0.000 A 
ENDROOT
TORSDOF 0
ENDMDL
