MODEL 1
REMARK minimizedAffinity 0.826569855
REMARK minimizedRMSD -1
REMARK  0 active torsions:
REMARK  status: ('A' for Active; 'I' for Inactive)
ROOT
ATOM      1  C1  BNZ d   1       3.224   3.624  -5.876  0.00  0.00     0.000 A 
ATOM      2  C2  BNZ d   1       2.634   4.860  -5.854  0.00  0.00     0.000 A 
ATOM      3  C3  BNZ d   1       3.389   5.997  -5.929  0.00  0.00     0.000 A 
ATOM      4  C4  BNZ d   1       4.733   5.899  -5.985  0.00  0.00     0.000 A 
ATOM      5  C5  BNZ d   1       5.343   4.661  -5.998  0.00  0.00     0.000 A 
ATOM      6  C6  BNZ d   1       4.578   3.517  -5.962  0.00  0.00     0.000 A 
ENDROOT
TORSDOF 0
ENDMDL
