MODEL 1
REMARK minimizedAffinity 7.39697075
REMARK minimizedRMSD -1
REMARK  0 active torsions:
REMARK  status: ('A' for Active; 'I' for Inactive)
ROOT
ATOM      1  C1  BNZ d   1       4.787  -5.625   4.834  0.00  0.00     0.000 A 
ATOM      2  C2  BNZ d   1       5.217  -5.049   6.000  0.00  0.00     0.000 A 
ATOM      3  C3  BNZ d   1       5.805  -3.816   5.996  0.00  0.00     0.000 A 
ATOM      4  C4  BNZ d   1       5.999  -3.178   4.823  0.00  0.00     0.000 A 
ATOM      5  C5  BNZ d   1       5.580  -3.749   3.639  0.00  0.00     0.000 A 
ATOM      6  C6  BNZ d   1       4.953  -4.974   3.651  0.00  0.00     0.000 A 
ENDROOT
TORSDOF 0
ENDMDL
