MODEL 1
REMARK minimizedAffinity 3.30478358
REMARK minimizedRMSD -1
REMARK  0 active torsions:
REMARK  status: ('A' for Active; 'I' for Inactive)
ROOT
ATOM      1  C1  BNZ d   1       2.911   6.000  -5.631  0.00  0.00     0.000 A 
ATOM      2  C2  BNZ d   1       4.233   6.000  -5.992  0.00  0.00     0.000 A 
ATOM      3  C3  BNZ d   1       4.956   4.840  -5.999  0.00  0.00     0.000 A 
ATOM      4  C4  BNZ d   1       4.369   3.690  -5.608  0.00  0.00     0.000 A 
ATOM      5  C5  BNZ d   1       3.041   3.676  -5.233  0.00  0.00     0.000 A 
ATOM      6  C6  BNZ d   1       2.305   4.838  -5.264  0.00  0.00     0.000 A 
ENDROOT
TORSDOF 0
ENDMDL
