MODEL 1
REMARK minimizedAffinity -0.220457658
REMARK minimizedRMSD -1
REMARK  3 active torsions:
REMARK  status: ('A' for Active; 'I' for Inactive)
REMARK    1  A    between atoms: C3'_2  and  C2'_3 
REMARK    2  A    between atoms: C2'_3  and  C1'_4 
REMARK    3  A    between atoms: C1'_4  and  C1_5 
ROOT
ATOM      1  C1  N4B d   1      -0.920  -1.377   5.017  0.00  0.00    -0.075 A 
ATOM      2  C2  N4B d   1      -1.619  -2.257   5.872  0.00  0.00     0.002 A 
ATOM      3  C3  N4B d   1      -2.982  -2.151   6.000  0.00  0.00     0.002 A 
ATOM      4  C4  N4B d   1      -3.662  -1.166   5.300  0.00  0.00    -0.004 A 
ATOM      5  C5  N4B d   1      -2.983  -0.337   4.456  0.00  0.00     0.002 A 
ATOM      6  C6  N4B d   1      -1.614  -0.434   4.315  0.00  0.00     0.002 A 
ENDROOT
BRANCH   1   7
ATOM      7  C1' N4B d   1       0.581  -1.398   4.910  0.00  0.00     0.057 C 
BRANCH   7   8
ATOM      8  C2' N4B d   1       1.092  -2.779   5.309  0.00  0.00     0.009 C 
BRANCH   8   9
ATOM      9  C3' N4B d   1       2.506  -3.027   4.812  0.00  0.00     0.004 C 
ATOM     10  C4' N4B d   1       3.551  -2.493   5.745  0.00  0.00     0.003 C 
ENDBRANCH   8   9
ENDBRANCH   7   8
ENDBRANCH   1   7
TORSDOF 3
ENDMDL
