MODEL 1
REMARK minimizedAffinity -6.66847658
REMARK minimizedRMSD -1
REMARK  3 active torsions:
REMARK  status: ('A' for Active; 'I' for Inactive)
REMARK    1  A    between atoms: C3'_2  and  C2'_3 
REMARK    2  A    between atoms: C2'_3  and  C1'_4 
REMARK    3  A    between atoms: C1'_4  and  C1_5 
ROOT
ATOM      1  C1  N4B d   1       0.798   0.992   0.570  0.00  0.00    -0.075 A 
ATOM      2  C2  N4B d   1       0.378   2.207  -0.013  0.00  0.00     0.002 A 
ATOM      3  C3  N4B d   1       1.111   3.352   0.183  0.00  0.00     0.002 A 
ATOM      4  C4  N4B d   1       2.252   3.310   0.970  0.00  0.00    -0.004 A 
ATOM      5  C5  N4B d   1       2.665   2.127   1.509  0.00  0.00     0.002 A 
ATOM      6  C6  N4B d   1       1.940   0.967   1.317  0.00  0.00     0.002 A 
ENDROOT
BRANCH   1   7
ATOM      7  C1' N4B d   1      -0.016  -0.268   0.455  0.00  0.00     0.057 C 
BRANCH   7   8
ATOM      8  C2' N4B d   1      -0.049  -0.969   1.810  0.00  0.00     0.009 C 
BRANCH   8   9
ATOM      9  C3' N4B d   1      -0.024  -2.481   1.667  0.00  0.00     0.004 C 
ATOM     10  C4' N4B d   1      -0.340  -2.939   0.275  0.00  0.00     0.003 C 
ENDBRANCH   8   9
ENDBRANCH   7   8
ENDBRANCH   1   7
TORSDOF 3
ENDMDL
