MODEL 1
REMARK minimizedAffinity -5.05613613
REMARK minimizedRMSD -1
REMARK  3 active torsions:
REMARK  status: ('A' for Active; 'I' for Inactive)
REMARK    1  A    between atoms: C3'_2  and  C2'_3 
REMARK    2  A    between atoms: C2'_3  and  C1'_4 
REMARK    3  A    between atoms: C1'_4  and  C1_5 
ROOT
ATOM      1  C1  N4B d   1      -0.022  -0.106   0.427  0.00  0.00    -0.075 A 
ATOM      2  C2  N4B d   1       0.316  -1.437   0.758  0.00  0.00     0.002 A 
ATOM      3  C3  N4B d   1      -0.645  -2.289   1.244  0.00  0.00     0.002 A 
ATOM      4  C4  N4B d   1      -1.941  -1.829   1.424  0.00  0.00    -0.004 A 
ATOM      5  C5  N4B d   1      -2.265  -0.550   1.078  0.00  0.00     0.002 A 
ATOM      6  C6  N4B d   1      -1.311   0.316   0.584  0.00  0.00     0.002 A 
ENDROOT
BRANCH   1   7
ATOM      7  C1' N4B d   1       1.013   0.887  -0.027  0.00  0.00     0.057 C 
BRANCH   7   8
ATOM      8  C2' N4B d   1       0.498   2.300   0.231  0.00  0.00     0.009 C 
BRANCH   8   9
ATOM      9  C3' N4B d   1       1.633   3.298   0.383  0.00  0.00     0.004 C 
ATOM     10  C4' N4B d   1       1.974   3.575   1.817  0.00  0.00     0.003 C 
ENDBRANCH   8   9
ENDBRANCH   7   8
ENDBRANCH   1   7
TORSDOF 3
ENDMDL
