MODEL 1
REMARK minimizedAffinity -6.11025476
REMARK minimizedRMSD -1
REMARK  3 active torsions:
REMARK  status: ('A' for Active; 'I' for Inactive)
REMARK    1  A    between atoms: C3'_2  and  C2'_3 
REMARK    2  A    between atoms: C2'_3  and  C1'_4 
REMARK    3  A    between atoms: C1'_4  and  C1_5 
ROOT
ATOM      1  C1  N4B d   1       0.076  -0.229   0.995  0.00  0.00    -0.075 A 
ATOM      2  C2  N4B d   1      -1.147  -0.584   1.605  0.00  0.00     0.002 A 
ATOM      3  C3  N4B d   1      -1.780  -1.749   1.246  0.00  0.00     0.002 A 
ATOM      4  C4  N4B d   1      -1.221  -2.561   0.271  0.00  0.00    -0.004 A 
ATOM      5  C5  N4B d   1      -0.027  -2.224  -0.295  0.00  0.00     0.002 A 
ATOM      6  C6  N4B d   1       0.623  -1.058   0.059  0.00  0.00     0.002 A 
ENDROOT
BRANCH   1   7
ATOM      7  C1' N4B d   1       0.763   1.076   1.292  0.00  0.00     0.057 C 
BRANCH   7   8
ATOM      8  C2' N4B d   1       1.229   1.706  -0.017  0.00  0.00     0.009 C 
BRANCH   8   9
ATOM      9  C3' N4B d   1       1.606   3.167   0.158  0.00  0.00     0.004 C 
ATOM     10  C4' N4B d   1       1.782   3.553   1.597  0.00  0.00     0.003 C 
ENDBRANCH   8   9
ENDBRANCH   7   8
ENDBRANCH   1   7
TORSDOF 3
ENDMDL
