MODEL 1
REMARK minimizedAffinity -0.470429927
REMARK minimizedRMSD -1
REMARK  3 active torsions:
REMARK  status: ('A' for Active; 'I' for Inactive)
REMARK    1  A    between atoms: C3'_2  and  C2'_3 
REMARK    2  A    between atoms: C2'_3  and  C1'_4 
REMARK    3  A    between atoms: C1'_4  and  C1_5 
ROOT
ATOM      1  C1  N4B d   1      -0.193   0.470   0.217  0.00  0.00    -0.075 A 
ATOM      2  C2  N4B d   1      -0.010  -0.869  -0.195  0.00  0.00     0.002 A 
ATOM      3  C3  N4B d   1      -0.743  -1.873   0.388  0.00  0.00     0.002 A 
ATOM      4  C4  N4B d   1      -1.648  -1.566   1.394  0.00  0.00    -0.004 A 
ATOM      5  C5  N4B d   1      -1.837  -0.268   1.768  0.00  0.00     0.002 A 
ATOM      6  C6  N4B d   1      -1.110   0.752   1.188  0.00  0.00     0.002 A 
ENDROOT
BRANCH   1   7
ATOM      7  C1' N4B d   1       0.647   1.591  -0.331  0.00  0.00     0.057 C 
BRANCH   7   8
ATOM      8  C2' N4B d   1       1.171   2.435   0.827  0.00  0.00     0.009 C 
BRANCH   8   9
ATOM      9  C3' N4B d   1       2.627   2.823   0.633  0.00  0.00     0.004 C 
ATOM     10  C4' N4B d   1       2.868   4.291   0.823  0.00  0.00     0.003 C 
ENDBRANCH   8   9
ENDBRANCH   7   8
ENDBRANCH   1   7
TORSDOF 3
ENDMDL
