MODEL 1
REMARK minimizedAffinity -4.79973078
REMARK minimizedRMSD -1
REMARK  3 active torsions:
REMARK  status: ('A' for Active; 'I' for Inactive)
REMARK    1  A    between atoms: C3'_2  and  C2'_3 
REMARK    2  A    between atoms: C2'_3  and  C1'_4 
REMARK    3  A    between atoms: C1'_4  and  C1_5 
ROOT
ATOM      1  C1  N4B d   1       0.077  -0.262  -0.100  0.00  0.00    -0.075 A 
ATOM      2  C2  N4B d   1       0.636  -0.833  -1.264  0.00  0.00     0.002 A 
ATOM      3  C3  N4B d   1       0.598  -2.193  -1.449  0.00  0.00     0.002 A 
ATOM      4  C4  N4B d   1       0.025  -3.001  -0.478  0.00  0.00    -0.004 A 
ATOM      5  C5  N4B d   1      -0.536  -2.440   0.632  0.00  0.00     0.002 A 
ATOM      6  C6  N4B d   1      -0.508  -1.074   0.828  0.00  0.00     0.002 A 
ENDROOT
BRANCH   1   7
ATOM      7  C1' N4B d   1       0.172   1.212   0.186  0.00  0.00     0.057 C 
BRANCH   7   8
ATOM      8  C2' N4B d   1       1.557   1.526   0.744  0.00  0.00     0.009 C 
BRANCH   8   9
ATOM      9  C3' N4B d   1       1.704   2.993   1.109  0.00  0.00     0.004 C 
ATOM     10  C4' N4B d   1       3.133   3.445   1.133  0.00  0.00     0.003 C 
ENDBRANCH   8   9
ENDBRANCH   7   8
ENDBRANCH   1   7
TORSDOF 3
ENDMDL
