MODEL 1
REMARK minimizedAffinity -3.36341119
REMARK minimizedRMSD -1
REMARK  3 active torsions:
REMARK  status: ('A' for Active; 'I' for Inactive)
REMARK    1  A    between atoms: C3'_2  and  C2'_3 
REMARK    2  A    between atoms: C2'_3  and  C1'_4 
REMARK    3  A    between atoms: C1'_4  and  C1_5 
ROOT
ATOM      1  C1  N4B d   1       0.337   1.676   0.226  0.00  0.00    -0.075 A 
ATOM      2  C2  N4B d   1      -0.039   2.552   1.268  0.00  0.00     0.002 A 
ATOM      3  C3  N4B d   1       0.700   3.683   1.515  0.00  0.00     0.002 A 
ATOM      4  C4  N4B d   1       1.826   3.947   0.749  0.00  0.00    -0.004 A 
ATOM      5  C5  N4B d   1       2.167   3.109  -0.272  0.00  0.00     0.002 A 
ATOM      6  C6  N4B d   1       1.431   1.971  -0.534  0.00  0.00     0.002 A 
ENDROOT
BRANCH   1   7
ATOM      7  C1' N4B d   1      -0.391   0.384  -0.026  0.00  0.00     0.057 C 
BRANCH   7   8
ATOM      8  C2' N4B d   1      -0.355  -0.466   1.240  0.00  0.00     0.009 C 
BRANCH   8   9
ATOM      9  C3' N4B d   1      -1.361  -1.603   1.190  0.00  0.00     0.004 C 
ATOM     10  C4' N4B d   1      -1.084  -2.575   0.081  0.00  0.00     0.003 C 
ENDBRANCH   8   9
ENDBRANCH   7   8
ENDBRANCH   1   7
TORSDOF 3
ENDMDL
