MODEL 1
REMARK minimizedAffinity -4.67653656
REMARK minimizedRMSD -1
REMARK  3 active torsions:
REMARK  status: ('A' for Active; 'I' for Inactive)
REMARK    1  A    between atoms: C3'_2  and  C2'_3 
REMARK    2  A    between atoms: C2'_3  and  C1'_4 
REMARK    3  A    between atoms: C1'_4  and  C1_5 
ROOT
ATOM      1  C1  N4B d   1      -0.780  -0.717   1.464  0.00  0.00    -0.075 A 
ATOM      2  C2  N4B d   1       0.539  -0.653   1.965  0.00  0.00     0.002 A 
ATOM      3  C3  N4B d   1       1.371   0.368   1.578  0.00  0.00     0.002 A 
ATOM      4  C4  N4B d   1       0.916   1.322   0.680  0.00  0.00    -0.004 A 
ATOM      5  C5  N4B d   1      -0.368   1.267   0.220  0.00  0.00     0.002 A 
ATOM      6  C6  N4B d   1      -1.217   0.249   0.604  0.00  0.00     0.002 A 
ENDROOT
BRANCH   1   7
ATOM      7  C1' N4B d   1      -1.699  -1.862   1.791  0.00  0.00     0.057 C 
BRANCH   7   8
ATOM      8  C2' N4B d   1      -2.079  -2.584   0.501  0.00  0.00     0.009 C 
BRANCH   8   9
ATOM      9  C3' N4B d   1      -0.892  -3.299  -0.121  0.00  0.00     0.004 C 
ATOM     10  C4' N4B d   1      -0.973  -3.366  -1.617  0.00  0.00     0.003 C 
ENDBRANCH   8   9
ENDBRANCH   7   8
ENDBRANCH   1   7
TORSDOF 3
ENDMDL
