MODEL 1
REMARK minimizedAffinity -2.59296346
REMARK minimizedRMSD -1
REMARK  3 active torsions:
REMARK  status: ('A' for Active; 'I' for Inactive)
REMARK    1  A    between atoms: C3'_2  and  C2'_3 
REMARK    2  A    between atoms: C2'_3  and  C1'_4 
REMARK    3  A    between atoms: C1'_4  and  C1_5 
ROOT
ATOM      1  C1  N4B d   1      -0.604   0.055   0.107  0.00  0.00    -0.075 A 
ATOM      2  C2  N4B d   1      -1.006   0.045   1.460  0.00  0.00     0.002 A 
ATOM      3  C3  N4B d   1      -1.328  -1.141   2.073  0.00  0.00     0.002 A 
ATOM      4  C4  N4B d   1      -1.274  -2.323   1.350  0.00  0.00    -0.004 A 
ATOM      5  C5  N4B d   1      -0.860  -2.309   0.050  0.00  0.00     0.002 A 
ATOM      6  C6  N4B d   1      -0.530  -1.124  -0.577  0.00  0.00     0.002 A 
ENDROOT
BRANCH   1   7
ATOM      7  C1' N4B d   1      -0.325   1.336  -0.630  0.00  0.00     0.057 C 
BRANCH   7   8
ATOM      8  C2' N4B d   1      -0.020   2.438   0.380  0.00  0.00     0.009 C 
BRANCH   8   9
ATOM      9  C3' N4B d   1       1.297   3.135   0.080  0.00  0.00     0.004 C 
ATOM     10  C4' N4B d   1       2.203   3.201   1.273  0.00  0.00     0.003 C 
ENDBRANCH   8   9
ENDBRANCH   7   8
ENDBRANCH   1   7
TORSDOF 3
ENDMDL
