MODEL 1
REMARK minimizedAffinity 8.1583252
REMARK minimizedRMSD -1
REMARK  0 active torsions:
REMARK  status: ('A' for Active; 'I' for Inactive)
ROOT
ATOM      1  C1  DEN d   1       1.821   2.115   2.377  0.00  0.00     0.130 A 
ATOM      2  C2  DEN d   1       2.585   0.940   1.969  0.00  0.00    -0.031 A 
ATOM      3  C3  DEN d   1       2.044   0.471   0.677  0.00  0.00     0.027 A 
ATOM      4  C4  DEN d   1       0.113   1.449  -0.725  0.00  0.00     0.027 A 
ATOM      5  C5  DEN d   1      -0.844   2.437  -0.782  0.00  0.00    -0.003 A 
ATOM      6  C6  DEN d   1      -1.002   3.359   0.219  0.00  0.00     0.001 A 
ATOM      7  C7  DEN d   1      -0.159   3.340   1.298  0.00  0.00     0.017 A 
ATOM      8  C8  DEN d   1       0.804   2.342   1.366  0.00  0.00    -0.094 A 
ATOM      9  C9  DEN d   1       0.956   1.426   0.338  0.00  0.00    -0.072 A 
ENDROOT
TORSDOF 0
ENDMDL
