MODEL 1
REMARK minimizedAffinity 3.62182403
REMARK minimizedRMSD -1
REMARK  0 active torsions:
REMARK  status: ('A' for Active; 'I' for Inactive)
ROOT
ATOM      1  C1  DEN d   1      -0.626   2.635   0.110  0.00  0.00     0.130 A 
ATOM      2  C2  DEN d   1      -0.390   1.847  -1.097  0.00  0.00    -0.031 A 
ATOM      3  C3  DEN d   1      -1.573   0.994  -1.325  0.00  0.00     0.027 A 
ATOM      4  C4  DEN d   1      -3.740   0.820   0.065  0.00  0.00     0.027 A 
ATOM      5  C5  DEN d   1      -4.396   1.284   1.183  0.00  0.00    -0.003 A 
ATOM      6  C6  DEN d   1      -3.833   2.197   2.034  0.00  0.00     0.001 A 
ATOM      7  C7  DEN d   1      -2.594   2.711   1.755  0.00  0.00     0.017 A 
ATOM      8  C8  DEN d   1      -1.923   2.243   0.633  0.00  0.00    -0.094 A 
ATOM      9  C9  DEN d   1      -2.514   1.328  -0.221  0.00  0.00    -0.072 A 
ENDROOT
TORSDOF 0
ENDMDL
