MODEL 1
REMARK minimizedAffinity 7.91925716
REMARK minimizedRMSD -1
REMARK  0 active torsions:
REMARK  status: ('A' for Active; 'I' for Inactive)
ROOT
ATOM      1  C1  DEN d   1       1.380   1.312  -0.594  0.00  0.00     0.130 A 
ATOM      2  C2  DEN d   1       1.658   2.354   0.390  0.00  0.00    -0.031 A 
ATOM      3  C3  DEN d   1       2.556   1.786   1.416  0.00  0.00     0.027 A 
ATOM      4  C4  DEN d   1       3.539  -0.593   1.574  0.00  0.00     0.027 A 
ATOM      5  C5  DEN d   1       3.578  -1.833   0.976  0.00  0.00    -0.003 A 
ATOM      6  C6  DEN d   1       2.866  -2.120  -0.159  0.00  0.00     0.001 A 
ATOM      7  C7  DEN d   1       2.120  -1.140  -0.757  0.00  0.00     0.017 A 
ATOM      8  C8  DEN d   1       2.069   0.111  -0.156  0.00  0.00    -0.094 A 
ATOM      9  C9  DEN d   1       2.806   0.385   0.984  0.00  0.00    -0.072 A 
ENDROOT
TORSDOF 0
ENDMDL
