MODEL 1
REMARK minimizedAffinity 8.73136616
REMARK minimizedRMSD -1
REMARK  0 active torsions:
REMARK  status: ('A' for Active; 'I' for Inactive)
ROOT
ATOM      1  C1  DEN d   1       2.301   1.075  -0.611  0.00  0.00     0.130 A 
ATOM      2  C2  DEN d   1       2.463   2.141   0.375  0.00  0.00    -0.031 A 
ATOM      3  C3  DEN d   1       2.845   1.520   1.659  0.00  0.00     0.027 A 
ATOM      4  C4  DEN d   1       3.206  -0.973   2.213  0.00  0.00     0.027 A 
ATOM      5  C5  DEN d   1       3.173  -2.252   1.704  0.00  0.00    -0.003 A 
ATOM      6  C6  DEN d   1       2.818  -2.513   0.407  0.00  0.00     0.001 A 
ATOM      7  C7  DEN d   1       2.524  -1.475  -0.438  0.00  0.00     0.017 A 
ATOM      8  C8  DEN d   1       2.547  -0.183   0.071  0.00  0.00    -0.094 A 
ATOM      9  C9  DEN d   1       2.921   0.061   1.381  0.00  0.00    -0.072 A 
ENDROOT
TORSDOF 0
ENDMDL
