MODEL 1
REMARK minimizedAffinity 5.76457119
REMARK minimizedRMSD -1
REMARK  0 active torsions:
REMARK  status: ('A' for Active; 'I' for Inactive)
ROOT
ATOM      1  C1  DEN d   1       0.400  -0.570  -2.008  0.00  0.00     0.130 A 
ATOM      2  C2  DEN d   1      -0.398   0.653  -2.013  0.00  0.00    -0.031 A 
ATOM      3  C3  DEN d   1       0.171   1.573  -1.008  0.00  0.00     0.027 A 
ATOM      4  C4  DEN d   1       2.200   1.227   0.546  0.00  0.00     0.027 A 
ATOM      5  C5  DEN d   1       3.188   0.343   0.922  0.00  0.00    -0.003 A 
ATOM      6  C6  DEN d   1       3.294  -0.908   0.376  0.00  0.00     0.001 A 
ATOM      7  C7  DEN d   1       2.425  -1.296  -0.609  0.00  0.00     0.017 A 
ATOM      8  C8  DEN d   1       1.421  -0.414  -0.987  0.00  0.00    -0.094 A 
ATOM      9  C9  DEN d   1       1.338   0.852  -0.433  0.00  0.00    -0.072 A 
ENDROOT
TORSDOF 0
ENDMDL
