MODEL 1
REMARK minimizedAffinity 8.79119396
REMARK minimizedRMSD -1
REMARK  0 active torsions:
REMARK  status: ('A' for Active; 'I' for Inactive)
ROOT
ATOM      1  C1  DEN d   1      -3.961   2.917  -3.197  0.00  0.00     0.130 A 
ATOM      2  C2  DEN d   1      -4.427   3.731  -4.317  0.00  0.00    -0.031 A 
ATOM      3  C3  DEN d   1      -4.909   2.820  -5.374  0.00  0.00     0.027 A 
ATOM      4  C4  DEN d   1      -4.985   0.241  -5.384  0.00  0.00     0.027 A 
ATOM      5  C5  DEN d   1      -4.688  -0.893  -4.661  0.00  0.00    -0.003 A 
ATOM      6  C6  DEN d   1      -4.101  -0.839  -3.425  0.00  0.00     0.001 A 
ATOM      7  C7  DEN d   1      -3.834   0.377  -2.853  0.00  0.00     0.017 A 
ATOM      8  C8  DEN d   1      -4.124   1.526  -3.579  0.00  0.00    -0.094 A 
ATOM      9  C9  DEN d   1      -4.728   1.450  -4.822  0.00  0.00    -0.072 A 
ENDROOT
TORSDOF 0
ENDMDL
