MODEL 1
REMARK minimizedAffinity 2.90511799
REMARK minimizedRMSD -1
REMARK  0 active torsions:
REMARK  status: ('A' for Active; 'I' for Inactive)
ROOT
ATOM      1  C1  DEN d   1      -5.777   1.533  -0.955  0.00  0.00     0.130 A 
ATOM      2  C2  DEN d   1      -5.448   0.301  -0.244  0.00  0.00    -0.031 A 
ATOM      3  C3  DEN d   1      -4.929  -0.670  -1.228  0.00  0.00     0.027 A 
ATOM      4  C4  DEN d   1      -4.600  -0.385  -3.770  0.00  0.00     0.027 A 
ATOM      5  C5  DEN d   1      -4.748   0.481  -4.831  0.00  0.00    -0.003 A 
ATOM      6  C6  DEN d   1      -5.277   1.736  -4.681  0.00  0.00     0.001 A 
ATOM      7  C7  DEN d   1      -5.635   2.177  -3.435  0.00  0.00     0.017 A 
ATOM      8  C8  DEN d   1      -5.496   1.307  -2.362  0.00  0.00    -0.094 A 
ATOM      9  C9  DEN d   1      -4.947   0.047  -2.532  0.00  0.00    -0.072 A 
ENDROOT
TORSDOF 0
ENDMDL
