MODEL 1
REMARK minimizedAffinity 4.13579416
REMARK minimizedRMSD -1
REMARK  0 active torsions:
REMARK  status: ('A' for Active; 'I' for Inactive)
ROOT
ATOM      1  C1  DEN d   1      -0.093  -1.834  -2.613  0.00  0.00     0.130 A 
ATOM      2  C2  DEN d   1       0.932  -1.107  -3.357  0.00  0.00    -0.031 A 
ATOM      3  C3  DEN d   1       2.195  -1.193  -2.597  0.00  0.00     0.027 A 
ATOM      4  C4  DEN d   1       2.662  -2.378  -0.354  0.00  0.00     0.027 A 
ATOM      5  C5  DEN d   1       2.100  -3.119   0.663  0.00  0.00    -0.003 A 
ATOM      6  C6  DEN d   1       0.771  -3.451   0.675  0.00  0.00     0.001 A 
ATOM      7  C7  DEN d   1      -0.031  -3.081  -0.371  0.00  0.00     0.017 A 
ATOM      8  C8  DEN d   1       0.526  -2.327  -1.396  0.00  0.00    -0.094 A 
ATOM      9  C9  DEN d   1       1.874  -2.012  -1.397  0.00  0.00    -0.072 A 
ENDROOT
TORSDOF 0
ENDMDL
