MODEL 1
REMARK minimizedAffinity 8.53515434
REMARK minimizedRMSD -1
REMARK  0 active torsions:
REMARK  status: ('A' for Active; 'I' for Inactive)
ROOT
ATOM      1  C   UNL d   1      -0.643   3.287   1.214  0.00  0.00    -0.002 A 
ATOM      2  C1  UNL d   1       0.345   2.916   0.313  0.00  0.00     0.010 A 
ATOM      3  C2  UNL d   1       1.178   1.829   0.580  0.00  0.00     0.041 A 
ATOM      4  C3  UNL d   1       1.000   1.112   1.779  0.00  0.00    -0.075 A 
ATOM      5  S   UNL d   1       1.903  -0.255   2.317  0.00  0.00     0.015 SA
ATOM      6  C4  UNL d   1       0.998  -0.380   3.756  0.00  0.00     0.022 A 
ATOM      7  C5  UNL d   1       0.027   0.589   3.841  0.00  0.00     0.026 A 
ATOM      8  C6  UNL d   1       0.012   1.465   2.702  0.00  0.00    -0.082 A 
ATOM      9  C7  UNL d   1      -0.817   2.573   2.403  0.00  0.00     0.045 A 
ENDROOT
TORSDOF 0
ENDMDL
