MODEL 1
REMARK minimizedAffinity 3.31029725
REMARK minimizedRMSD -1
REMARK  0 active torsions:
REMARK  status: ('A' for Active; 'I' for Inactive)
ROOT
ATOM      1  C   UNL d   1      -1.864   0.467  -2.783  0.00  0.00    -0.002 A 
ATOM      2  C1  UNL d   1      -1.761   0.734  -4.141  0.00  0.00     0.010 A 
ATOM      3  C2  UNL d   1      -2.737   1.491  -4.792  0.00  0.00     0.041 A 
ATOM      4  C3  UNL d   1      -3.828   1.982  -4.048  0.00  0.00    -0.075 A 
ATOM      5  S   UNL d   1      -5.143   2.931  -4.633  0.00  0.00     0.015 SA
ATOM      6  C4  UNL d   1      -5.871   3.006  -3.094  0.00  0.00     0.022 A 
ATOM      7  C5  UNL d   1      -5.143   2.328  -2.145  0.00  0.00     0.026 A 
ATOM      8  C6  UNL d   1      -3.953   1.727  -2.679  0.00  0.00    -0.082 A 
ATOM      9  C7  UNL d   1      -2.948   0.955  -2.048  0.00  0.00     0.045 A 
ENDROOT
TORSDOF 0
ENDMDL
