MODEL 1
REMARK minimizedAffinity 4.12631369
REMARK minimizedRMSD -1
REMARK  0 active torsions:
REMARK  status: ('A' for Active; 'I' for Inactive)
ROOT
ATOM      1  C   UNL d   1       3.101  -1.143   0.308  0.00  0.00    -0.002 A 
ATOM      2  C1  UNL d   1       1.979  -1.599  -0.371  0.00  0.00     0.010 A 
ATOM      3  C2  UNL d   1       0.940  -0.724  -0.693  0.00  0.00     0.041 A 
ATOM      4  C3  UNL d   1       1.048   0.630  -0.319  0.00  0.00    -0.075 A 
ATOM      5  S   UNL d   1      -0.101   1.883  -0.609  0.00  0.00     0.015 SA
ATOM      6  C4  UNL d   1       0.871   3.053   0.161  0.00  0.00     0.022 A 
ATOM      7  C5  UNL d   1       2.046   2.518   0.633  0.00  0.00     0.026 A 
ATOM      8  C6  UNL d   1       2.168   1.113   0.364  0.00  0.00    -0.082 A 
ATOM      9  C7  UNL d   1       3.204   0.201   0.677  0.00  0.00     0.045 A 
ENDROOT
TORSDOF 0
ENDMDL
