MODEL 1
REMARK minimizedAffinity 3.19942212
REMARK minimizedRMSD -1
REMARK  0 active torsions:
REMARK  status: ('A' for Active; 'I' for Inactive)
ROOT
ATOM      1  C   UNL d   1       2.318  -0.395   0.225  0.00  0.00    -0.002 A 
ATOM      2  C1  UNL d   1       1.818   0.760   0.811  0.00  0.00     0.010 A 
ATOM      3  C2  UNL d   1       0.752   1.448   0.227  0.00  0.00     0.041 A 
ATOM      4  C3  UNL d   1       0.190   0.950  -0.965  0.00  0.00    -0.075 A 
ATOM      5  S   UNL d   1      -1.121   1.625  -1.857  0.00  0.00     0.015 SA
ATOM      6  C4  UNL d   1      -1.050   0.396  -3.036  0.00  0.00     0.022 A 
ATOM      7  C5  UNL d   1      -0.055  -0.515  -2.771  0.00  0.00     0.026 A 
ATOM      8  C6  UNL d   1       0.676  -0.211  -1.573  0.00  0.00    -0.082 A 
ATOM      9  C7  UNL d   1       1.758  -0.885  -0.957  0.00  0.00     0.045 A 
ENDROOT
TORSDOF 0
ENDMDL
