MODEL 1
REMARK minimizedAffinity -3.69709849
REMARK minimizedRMSD -1
REMARK  0 active torsions:
REMARK  status: ('A' for Active; 'I' for Inactive)
ROOT
ATOM      1  C4' PXY d   1      -2.570  -0.485  -0.151  0.00  0.00     0.077 C 
ATOM      2  C1' PXY d   1       2.197   1.050   2.735  0.00  0.00     0.077 C 
ATOM      3  C1  PXY d   1       0.954   0.647   1.967  0.00  0.00    -0.082 A 
ATOM      4  C2  PXY d   1      -0.240   0.902   2.477  0.00  0.00     0.003 A 
ATOM      5  C3  PXY d   1      -1.375   0.516   1.810  0.00  0.00     0.003 A 
ATOM      6  C4  PXY d   1      -1.287  -0.089   0.585  0.00  0.00    -0.082 A 
ATOM      7  C5  PXY d   1      -0.072  -0.342   0.054  0.00  0.00     0.003 A 
ATOM      8  C6  PXY d   1       1.068   0.021   0.765  0.00  0.00     0.003 A 
ENDROOT
TORSDOF 0
ENDMDL
