MODEL 1
REMARK minimizedAffinity -3.33302188
REMARK minimizedRMSD -1
REMARK  0 active torsions:
REMARK  status: ('A' for Active; 'I' for Inactive)
ROOT
ATOM      1  C4' PXY d   1      -0.932   1.081   2.739  0.00  0.00     0.077 C 
ATOM      2  C1' PXY d   1       0.734  -0.800  -2.467  0.00  0.00     0.077 C 
ATOM      3  C1  PXY d   1       0.308  -0.311  -1.096  0.00  0.00    -0.082 A 
ATOM      4  C2  PXY d   1      -0.979  -0.192  -0.815  0.00  0.00     0.003 A 
ATOM      5  C3  PXY d   1      -1.381   0.279   0.408  0.00  0.00     0.003 A 
ATOM      6  C4  PXY d   1      -0.457   0.582   1.372  0.00  0.00    -0.082 A 
ATOM      7  C5  PXY d   1       0.858   0.453   1.096  0.00  0.00     0.003 A 
ATOM      8  C6  PXY d   1       1.247   0.013  -0.166  0.00  0.00     0.003 A 
ENDROOT
TORSDOF 0
ENDMDL
