MODEL 1
REMARK minimizedAffinity -3.58392048
REMARK minimizedRMSD -1
REMARK  0 active torsions:
REMARK  status: ('A' for Active; 'I' for Inactive)
ROOT
ATOM      1  C4' PXY d   1      -1.166   0.177   0.414  0.00  0.00     0.077 C 
ATOM      2  C1' PXY d   1       2.469  -0.059  -4.074  0.00  0.00     0.077 C 
ATOM      3  C1  PXY d   1       1.517  -0.010  -2.895  0.00  0.00    -0.082 A 
ATOM      4  C2  PXY d   1       0.684   1.010  -2.770  0.00  0.00     0.003 A 
ATOM      5  C3  PXY d   1      -0.162   1.086  -1.693  0.00  0.00     0.003 A 
ATOM      6  C4  PXY d   1      -0.193   0.081  -0.764  0.00  0.00    -0.082 A 
ATOM      7  C5  PXY d   1       0.646  -0.969  -0.891  0.00  0.00     0.003 A 
ATOM      8  C6  PXY d   1       1.526  -1.007  -1.969  0.00  0.00     0.003 A 
ENDROOT
TORSDOF 0
ENDMDL
