MODEL 1
REMARK minimizedAffinity -4.98044014
REMARK minimizedRMSD -1
REMARK  0 active torsions:
REMARK  status: ('A' for Active; 'I' for Inactive)
ROOT
ATOM      1  C4' PXY d   1       0.528  -0.238  -3.194  0.00  0.00     0.077 C 
ATOM      2  C1' PXY d   1      -1.438   0.325   2.213  0.00  0.00     0.077 C 
ATOM      3  C1  PXY d   1      -0.911   0.180   0.799  0.00  0.00    -0.082 A 
ATOM      4  C2  PXY d   1      -1.735   0.329  -0.225  0.00  0.00     0.003 A 
ATOM      5  C3  PXY d   1      -1.281   0.170  -1.510  0.00  0.00     0.003 A 
ATOM      6  C4  PXY d   1       0.041  -0.092  -1.750  0.00  0.00    -0.082 A 
ATOM      7  C5  PXY d   1       0.890  -0.234  -0.710  0.00  0.00     0.003 A 
ATOM      8  C6  PXY d   1       0.402  -0.110   0.587  0.00  0.00     0.003 A 
ENDROOT
TORSDOF 0
ENDMDL
