MODEL 1
REMARK minimizedAffinity -0.398066342
REMARK minimizedRMSD -1
REMARK  0 active torsions:
REMARK  status: ('A' for Active; 'I' for Inactive)
ROOT
ATOM      1  C4' PXY d   1       1.985  -0.507  -0.377  0.00  0.00     0.077 C 
ATOM      2  C1' PXY d   1      -0.733   0.793   4.556  0.00  0.00     0.077 C 
ATOM      3  C1  PXY d   1      -0.031   0.455   3.256  0.00  0.00    -0.082 A 
ATOM      4  C2  PXY d   1       0.988  -0.389   3.262  0.00  0.00     0.003 A 
ATOM      5  C3  PXY d   1       1.655  -0.680   2.100  0.00  0.00     0.003 A 
ATOM      6  C4  PXY d   1       1.241  -0.144   0.911  0.00  0.00    -0.082 A 
ATOM      7  C5  PXY d   1       0.195   0.709   0.894  0.00  0.00     0.003 A 
ATOM      8  C6  PXY d   1      -0.442   1.025   2.090  0.00  0.00     0.003 A 
ENDROOT
TORSDOF 0
ENDMDL
