MODEL 1
REMARK minimizedAffinity -1.06938612
REMARK minimizedRMSD -1
REMARK  0 active torsions:
REMARK  status: ('A' for Active; 'I' for Inactive)
ROOT
ATOM      1  C4' PXY d   1       1.517   3.355   2.991  0.00  0.00     0.077 C 
ATOM      2  C1' PXY d   1      -1.476  -1.544   3.668  0.00  0.00     0.077 C 
ATOM      3  C1  PXY d   1      -0.694  -0.256   3.503  0.00  0.00    -0.082 A 
ATOM      4  C2  PXY d   1      -0.492   0.235   2.291  0.00  0.00     0.003 A 
ATOM      5  C3  PXY d   1       0.240   1.382   2.121  0.00  0.00     0.003 A 
ATOM      6  C4  PXY d   1       0.726   2.062   3.206  0.00  0.00    -0.082 A 
ATOM      7  C5  PXY d   1       0.514   1.572   4.446  0.00  0.00     0.003 A 
ATOM      8  C6  PXY d   1      -0.196   0.385   4.595  0.00  0.00     0.003 A 
ENDROOT
TORSDOF 0
ENDMDL
