MODEL 1
REMARK minimizedAffinity -2.56242394
REMARK minimizedRMSD -1
REMARK  0 active torsions:
REMARK  status: ('A' for Active; 'I' for Inactive)
ROOT
ATOM      1  C4' PXY d   1       0.476   0.342  -2.659  0.00  0.00     0.077 C 
ATOM      2  C1' PXY d   1      -0.370   1.890   2.846  0.00  0.00     0.077 C 
ATOM      3  C1  PXY d   1      -0.142   1.474   1.406  0.00  0.00    -0.082 A 
ATOM      4  C2  PXY d   1      -0.164   2.388   0.450  0.00  0.00     0.003 A 
ATOM      5  C3  PXY d   1       0.009   2.024  -0.861  0.00  0.00     0.003 A 
ATOM      6  C4  PXY d   1       0.260   0.719  -1.190  0.00  0.00    -0.082 A 
ATOM      7  C5  PXY d   1       0.294  -0.218  -0.219  0.00  0.00     0.003 A 
ATOM      8  C6  PXY d   1       0.076   0.166   1.101  0.00  0.00     0.003 A 
ENDROOT
TORSDOF 0
ENDMDL
