MODEL 1
REMARK minimizedAffinity -4.45058584
REMARK minimizedRMSD -1
REMARK  0 active torsions:
REMARK  status: ('A' for Active; 'I' for Inactive)
ROOT
ATOM      1  C4' PXY d   1       0.113  -1.105  -1.097  0.00  0.00     0.077 C 
ATOM      2  C1' PXY d   1      -0.335   1.703   3.936  0.00  0.00     0.077 C 
ATOM      3  C1  PXY d   1      -0.205   0.970   2.615  0.00  0.00    -0.082 A 
ATOM      4  C2  PXY d   1      -1.287   0.722   1.895  0.00  0.00     0.003 A 
ATOM      5  C3  PXY d   1      -1.192   0.033   0.714  0.00  0.00     0.003 A 
ATOM      6  C4  PXY d   1       0.031  -0.360   0.238  0.00  0.00    -0.082 A 
ATOM      7  C5  PXY d   1       1.141  -0.101   0.961  0.00  0.00     0.003 A 
ATOM      8  C6  PXY d   1       1.018   0.564   2.178  0.00  0.00     0.003 A 
ENDROOT
TORSDOF 0
ENDMDL
