MODEL 1
REMARK minimizedAffinity -2.04272318
REMARK minimizedRMSD -1
REMARK  0 active torsions:
REMARK  status: ('A' for Active; 'I' for Inactive)
ROOT
ATOM      1  C4' PXY d   1      -0.071  -1.177  -1.727  0.00  0.00     0.077 C 
ATOM      2  C1' PXY d   1      -0.804   1.866   3.133  0.00  0.00     0.077 C 
ATOM      3  C1  PXY d   1      -0.600   1.074   1.857  0.00  0.00    -0.082 A 
ATOM      4  C2  PXY d   1      -1.650   0.597   1.208  0.00  0.00     0.003 A 
ATOM      5  C3  PXY d   1      -1.483  -0.149   0.070  0.00  0.00     0.003 A 
ATOM      6  C4  PXY d   1      -0.230  -0.364  -0.439  0.00  0.00    -0.082 A 
ATOM      7  C5  PXY d   1       0.846   0.129   0.211  0.00  0.00     0.003 A 
ATOM      8  C6  PXY d   1       0.657   0.848   1.387  0.00  0.00     0.003 A 
ENDROOT
TORSDOF 0
ENDMDL
