MODEL 1
REMARK minimizedAffinity 9.56735229
REMARK minimizedRMSD -1
REMARK  2 active torsions:
REMARK  status: ('A' for Active; 'I' for Inactive)
REMARK    1  A    between atoms: C2'_3  and  C1'_4 
REMARK    2  A    between atoms: C1'_4  and  C1_5 
ROOT
ATOM      1  C1  I4B d   1       5.270  -0.000   1.245  0.00  0.00    -0.075 A 
ATOM      2  C2  I4B d   1       5.966  -0.126   2.422  0.00  0.00     0.003 A 
ATOM      3  C3  I4B d   1       5.302  -0.538   3.602  0.00  0.00     0.002 A 
ATOM      4  C4  I4B d   1       3.941  -0.765   3.573  0.00  0.00    -0.004 A 
ATOM      5  C5  I4B d   1       3.241  -0.660   2.374  0.00  0.00     0.002 A 
ATOM      6  C6  I4B d   1       3.912  -0.287   1.200  0.00  0.00     0.003 A 
ENDROOT
BRANCH   1   7
ATOM      7  C1' I4B d   1       5.996   0.469   0.025  0.00  0.00     0.060 C 
BRANCH   7   8
ATOM      8  C2' I4B d   1       5.964   1.984   0.017  0.00  0.00    -0.013 C 
ATOM      9  C4' I4B d   1       4.742   2.500  -0.697  0.00  0.00     0.013 C 
ATOM     10  C3' I4B d   1       5.999   2.456   1.440  0.00  0.00     0.013 C 
ENDBRANCH   7   8
ENDBRANCH   1   7
TORSDOF 2
ENDMDL
