MODEL 1
REMARK minimizedAffinity 0.498953581
REMARK minimizedRMSD -1
REMARK  2 active torsions:
REMARK  status: ('A' for Active; 'I' for Inactive)
REMARK    1  A    between atoms: C2'_3  and  C1'_4 
REMARK    2  A    between atoms: C1'_4  and  C1_5 
ROOT
ATOM      1  C1  I4B d   1      -1.451  -2.155  -0.792  0.00  0.00    -0.075 A 
ATOM      2  C2  I4B d   1      -2.402  -2.204  -1.780  0.00  0.00     0.003 A 
ATOM      3  C3  I4B d   1      -2.725  -3.437  -2.398  0.00  0.00     0.002 A 
ATOM      4  C4  I4B d   1      -2.040  -4.579  -2.036  0.00  0.00    -0.004 A 
ATOM      5  C5  I4B d   1      -1.092  -4.531  -1.018  0.00  0.00     0.002 A 
ATOM      6  C6  I4B d   1      -0.804  -3.314  -0.383  0.00  0.00     0.003 A 
ENDROOT
BRANCH   1   7
ATOM      7  C1' I4B d   1      -1.112  -0.832  -0.183  0.00  0.00     0.060 C 
BRANCH   7   8
ATOM      8  C2' I4B d   1      -0.229  -1.085   1.022  0.00  0.00    -0.013 C 
ATOM      9  C4' I4B d   1       0.512   0.163   1.428  0.00  0.00     0.013 C 
ATOM     10  C3' I4B d   1      -1.099  -1.584   2.137  0.00  0.00     0.013 C 
ENDBRANCH   7   8
ENDBRANCH   1   7
TORSDOF 2
ENDMDL
