MODEL 1
REMARK minimizedAffinity 8.51016045
REMARK minimizedRMSD -1
REMARK  2 active torsions:
REMARK  status: ('A' for Active; 'I' for Inactive)
REMARK    1  A    between atoms: C2'_3  and  C1'_4 
REMARK    2  A    between atoms: C1'_4  and  C1_5 
ROOT
ATOM      1  C1  I4B d   1       3.826   0.082   2.135  0.00  0.00    -0.075 A 
ATOM      2  C2  I4B d   1       3.549  -0.710   3.221  0.00  0.00     0.003 A 
ATOM      3  C3  I4B d   1       2.225  -0.807   3.714  0.00  0.00     0.002 A 
ATOM      4  C4  I4B d   1       1.224  -0.061   3.125  0.00  0.00    -0.004 A 
ATOM      5  C5  I4B d   1       1.502   0.724   2.010  0.00  0.00     0.002 A 
ATOM      6  C6  I4B d   1       2.809   0.787   1.504  0.00  0.00     0.003 A 
ENDROOT
BRANCH   1   7
ATOM      7  C1' I4B d   1       5.241   0.188   1.661  0.00  0.00     0.060 C 
BRANCH   7   8
ATOM      8  C2' I4B d   1       5.298  -0.337   0.241  0.00  0.00    -0.013 C 
ATOM      9  C4' I4B d   1       6.000   0.635  -0.671  0.00  0.00     0.013 C 
ATOM     10  C3' I4B d   1       6.000  -1.661   0.264  0.00  0.00     0.013 C 
ENDBRANCH   7   8
ENDBRANCH   1   7
TORSDOF 2
ENDMDL
