MODEL 1
REMARK minimizedAffinity 12.9687376
REMARK minimizedRMSD -1
REMARK  2 active torsions:
REMARK  status: ('A' for Active; 'I' for Inactive)
REMARK    1  A    between atoms: C2'_3  and  C1'_4 
REMARK    2  A    between atoms: C1'_4  and  C1_5 
ROOT
ATOM      1  C1  I4B d   1      -3.473  -4.773  -1.653  0.00  0.00    -0.075 A 
ATOM      2  C2  I4B d   1      -4.272  -5.861  -1.402  0.00  0.00     0.003 A 
ATOM      3  C3  I4B d   1      -5.525  -5.990  -2.048  0.00  0.00     0.002 A 
ATOM      4  C4  I4B d   1      -5.960  -4.990  -2.894  0.00  0.00    -0.004 A 
ATOM      5  C5  I4B d   1      -5.139  -3.899  -3.165  0.00  0.00     0.002 A 
ATOM      6  C6  I4B d   1      -3.882  -3.795  -2.551  0.00  0.00     0.003 A 
ENDROOT
BRANCH   1   7
ATOM      7  C1' I4B d   1      -2.170  -4.653  -0.928  0.00  0.00     0.060 C 
BRANCH   7   8
ATOM      8  C2' I4B d   1      -2.235  -3.417  -0.054  0.00  0.00    -0.013 C 
ATOM      9  C4' I4B d   1      -1.523  -3.638   1.255  0.00  0.00     0.013 C 
ATOM     10  C3' I4B d   1      -1.628  -2.278  -0.816  0.00  0.00     0.013 C 
ENDBRANCH   7   8
ENDBRANCH   1   7
TORSDOF 2
ENDMDL
