MODEL 1
REMARK minimizedAffinity 9.69320011
REMARK minimizedRMSD -1
REMARK  2 active torsions:
REMARK  status: ('A' for Active; 'I' for Inactive)
REMARK    1  A    between atoms: C2'_3  and  C1'_4 
REMARK    2  A    between atoms: C1'_4  and  C1_5 
ROOT
ATOM      1  C1  I4B d   1      -5.571   4.695   2.450  0.00  0.00    -0.075 A 
ATOM      2  C2  I4B d   1      -6.000   5.808   3.130  0.00  0.00     0.003 A 
ATOM      3  C3  I4B d   1      -5.637   5.999   4.485  0.00  0.00     0.002 A 
ATOM      4  C4  I4B d   1      -4.892   5.035   5.132  0.00  0.00    -0.004 A 
ATOM      5  C5  I4B d   1      -4.439   3.918   4.435  0.00  0.00     0.002 A 
ATOM      6  C6  I4B d   1      -4.770   3.753   3.082  0.00  0.00     0.003 A 
ENDROOT
BRANCH   1   7
ATOM      7  C1' I4B d   1      -6.000   4.509   1.029  0.00  0.00     0.060 C 
BRANCH   7   8
ATOM      8  C2' I4B d   1      -4.981   5.194   0.140  0.00  0.00    -0.013 C 
ATOM      9  C4' I4B d   1      -3.980   4.208  -0.401  0.00  0.00     0.013 C 
ATOM     10  C3' I4B d   1      -5.722   5.879  -0.969  0.00  0.00     0.013 C 
ENDBRANCH   7   8
ENDBRANCH   1   7
TORSDOF 2
ENDMDL
