MODEL 1
REMARK minimizedAffinity 4.02011728
REMARK minimizedRMSD -1
REMARK  2 active torsions:
REMARK  status: ('A' for Active; 'I' for Inactive)
REMARK    1  A    between atoms: C2'_3  and  C1'_4 
REMARK    2  A    between atoms: C1'_4  and  C1_5 
ROOT
ATOM      1  C1  I4B d   1      -3.853  -4.581  -2.862  0.00  0.00    -0.075 A 
ATOM      2  C2  I4B d   1      -5.213  -4.400  -2.817  0.00  0.00     0.003 A 
ATOM      3  C3  I4B d   1      -5.998  -4.603  -3.978  0.00  0.00     0.002 A 
ATOM      4  C4  I4B d   1      -5.380  -4.935  -5.166  0.00  0.00    -0.004 A 
ATOM      5  C5  I4B d   1      -4.004  -5.141  -5.205  0.00  0.00     0.002 A 
ATOM      6  C6  I4B d   1      -3.237  -4.975  -4.042  0.00  0.00     0.003 A 
ENDROOT
BRANCH   1   7
ATOM      7  C1' I4B d   1      -3.050  -4.326  -1.625  0.00  0.00     0.060 C 
BRANCH   7   8
ATOM      8  C2' I4B d   1      -3.192  -2.860  -1.271  0.00  0.00    -0.013 C 
ATOM      9  C4' I4B d   1      -2.773  -2.600   0.152  0.00  0.00     0.013 C 
ATOM     10  C3' I4B d   1      -2.359  -2.069  -2.234  0.00  0.00     0.013 C 
ENDBRANCH   7   8
ENDBRANCH   1   7
TORSDOF 2
ENDMDL
