MODEL 1
REMARK minimizedAffinity 13.7459354
REMARK minimizedRMSD -1
REMARK  2 active torsions:
REMARK  status: ('A' for Active; 'I' for Inactive)
REMARK    1  A    between atoms: C2'_3  and  C1'_4 
REMARK    2  A    between atoms: C1'_4  and  C1_5 
ROOT
ATOM      1  C1  I4B d   1      -2.608  -3.870  -1.356  0.00  0.00    -0.075 A 
ATOM      2  C2  I4B d   1      -3.302  -3.089  -0.467  0.00  0.00     0.003 A 
ATOM      3  C3  I4B d   1      -2.643  -2.524   0.652  0.00  0.00     0.002 A 
ATOM      4  C4  I4B d   1      -1.309  -2.805   0.868  0.00  0.00    -0.004 A 
ATOM      5  C5  I4B d   1      -0.601  -3.579  -0.047  0.00  0.00     0.002 A 
ATOM      6  C6  I4B d   1      -1.251  -4.105  -1.173  0.00  0.00     0.003 A 
ENDROOT
BRANCH   1   7
ATOM      7  C1' I4B d   1      -3.343  -4.479  -2.508  0.00  0.00     0.060 C 
BRANCH   7   8
ATOM      8  C2' I4B d   1      -4.806  -4.579  -2.127  0.00  0.00    -0.013 C 
ATOM      9  C4' I4B d   1      -5.696  -4.139  -3.260  0.00  0.00     0.013 C 
ATOM     10  C3' I4B d   1      -5.087  -6.000  -1.739  0.00  0.00     0.013 C 
ENDBRANCH   7   8
ENDBRANCH   1   7
TORSDOF 2
ENDMDL
