MODEL 1
REMARK minimizedAffinity 3.41180634
REMARK minimizedRMSD -1
REMARK  2 active torsions:
REMARK  status: ('A' for Active; 'I' for Inactive)
REMARK    1  A    between atoms: C2'_3  and  C1'_4 
REMARK    2  A    between atoms: C1'_4  and  C1_5 
ROOT
ATOM      1  C1  I4B d   1      -2.860  -3.422  -3.639  0.00  0.00    -0.075 A 
ATOM      2  C2  I4B d   1      -3.039  -4.125  -4.805  0.00  0.00     0.003 A 
ATOM      3  C3  I4B d   1      -2.410  -3.697  -5.999  0.00  0.00     0.002 A 
ATOM      4  C4  I4B d   1      -1.656  -2.541  -5.994  0.00  0.00    -0.004 A 
ATOM      5  C5  I4B d   1      -1.457  -1.843  -4.806  0.00  0.00     0.002 A 
ATOM      6  C6  I4B d   1      -2.052  -2.293  -3.619  0.00  0.00     0.003 A 
ENDROOT
BRANCH   1   7
ATOM      7  C1' I4B d   1      -3.565  -3.884  -2.404  0.00  0.00     0.060 C 
BRANCH   7   8
ATOM      8  C2' I4B d   1      -4.697  -4.798  -2.827  0.00  0.00    -0.013 C 
ATOM      9  C4' I4B d   1      -4.901  -5.910  -1.831  0.00  0.00     0.013 C 
ATOM     10  C3' I4B d   1      -5.936  -3.966  -2.970  0.00  0.00     0.013 C 
ENDBRANCH   7   8
ENDBRANCH   1   7
TORSDOF 2
ENDMDL
