MODEL 1
REMARK minimizedAffinity 8.12592316
REMARK minimizedRMSD -1
REMARK  2 active torsions:
REMARK  status: ('A' for Active; 'I' for Inactive)
REMARK    1  A    between atoms: C2'_3  and  C1'_4 
REMARK    2  A    between atoms: C1'_4  and  C1_5 
ROOT
ATOM      1  C1  I4B d   1      -1.514  -2.585  -2.563  0.00  0.00    -0.075 A 
ATOM      2  C2  I4B d   1      -0.906  -2.209  -1.391  0.00  0.00     0.003 A 
ATOM      3  C3  I4B d   1      -1.257  -2.837  -0.172  0.00  0.00     0.002 A 
ATOM      4  C4  I4B d   1      -2.251  -3.794  -0.162  0.00  0.00    -0.004 A 
ATOM      5  C5  I4B d   1      -2.851  -4.190  -1.354  0.00  0.00     0.002 A 
ATOM      6  C6  I4B d   1      -2.472  -3.591  -2.564  0.00  0.00     0.003 A 
ENDROOT
BRANCH   1   7
ATOM      7  C1' I4B d   1      -1.142  -1.877  -3.827  0.00  0.00     0.060 C 
BRANCH   7   8
ATOM      8  C2' I4B d   1      -0.684  -2.919  -4.827  0.00  0.00    -0.013 C 
ATOM      9  C4' I4B d   1      -1.625  -3.002  -5.999  0.00  0.00     0.013 C 
ATOM     10  C3' I4B d   1       0.702  -2.556  -5.270  0.00  0.00     0.013 C 
ENDBRANCH   7   8
ENDBRANCH   1   7
TORSDOF 2
ENDMDL
