MODEL 1
REMARK minimizedAffinity -1.63897491
REMARK minimizedRMSD -1
REMARK  2 active torsions:
REMARK  status: ('A' for Active; 'I' for Inactive)
REMARK    1  A    between atoms: C2'_3  and  C1'_4 
REMARK    2  A    between atoms: C1'_4  and  C1_5 
ROOT
ATOM      1  C1  I4B d   1       5.120   4.616   2.904  0.00  0.00    -0.075 A 
ATOM      2  C2  I4B d   1       4.256   5.595   3.326  0.00  0.00     0.003 A 
ATOM      3  C3  I4B d   1       4.245   6.000   4.683  0.00  0.00     0.002 A 
ATOM      4  C4  I4B d   1       5.073   5.367   5.587  0.00  0.00    -0.004 A 
ATOM      5  C5  I4B d   1       5.965   4.391   5.153  0.00  0.00     0.002 A 
ATOM      6  C6  I4B d   1       5.998   4.021   3.801  0.00  0.00     0.003 A 
ENDROOT
BRANCH   1   7
ATOM      7  C1' I4B d   1       5.083   4.191   1.470  0.00  0.00     0.060 C 
BRANCH   7   8
ATOM      8  C2' I4B d   1       4.630   2.745   1.424  0.00  0.00    -0.013 C 
ATOM      9  C4' I4B d   1       4.210   2.349   0.033  0.00  0.00     0.013 C 
ATOM     10  C3' I4B d   1       5.761   1.890   1.912  0.00  0.00     0.013 C 
ENDBRANCH   7   8
ENDBRANCH   1   7
TORSDOF 2
ENDMDL
