MODEL 1
REMARK minimizedAffinity 11.199542
REMARK minimizedRMSD -1
REMARK  2 active torsions:
REMARK  status: ('A' for Active; 'I' for Inactive)
REMARK    1  A    between atoms: C2'_3  and  C1'_4 
REMARK    2  A    between atoms: C1'_4  and  C1_5 
ROOT
ATOM      1  C1  I4B d   1      -1.259  -3.481  -0.199  0.00  0.00    -0.075 A 
ATOM      2  C2  I4B d   1      -2.551  -3.020  -0.169  0.00  0.00     0.003 A 
ATOM      3  C3  I4B d   1      -3.356  -3.079  -1.332  0.00  0.00     0.002 A 
ATOM      4  C4  I4B d   1      -2.817  -3.557  -2.509  0.00  0.00    -0.004 A 
ATOM      5  C5  I4B d   1      -1.514  -4.046  -2.532  0.00  0.00     0.002 A 
ATOM      6  C6  I4B d   1      -0.733  -4.019  -1.367  0.00  0.00     0.003 A 
ENDROOT
BRANCH   1   7
ATOM      7  C1' I4B d   1      -0.426  -3.374   1.039  0.00  0.00     0.060 C 
BRANCH   7   8
ATOM      8  C2' I4B d   1      -1.363  -3.271   2.224  0.00  0.00    -0.013 C 
ATOM      9  C4' I4B d   1      -1.198  -4.446   3.153  0.00  0.00     0.013 C 
ATOM     10  C3' I4B d   1      -1.078  -1.979   2.930  0.00  0.00     0.013 C 
ENDBRANCH   7   8
ENDBRANCH   1   7
TORSDOF 2
ENDMDL
