MODEL 1
REMARK minimizedAffinity -1.21343446
REMARK minimizedRMSD -1
REMARK  0 active torsions:
REMARK  status: ('A' for Active; 'I' for Inactive)
ROOT
ATOM      1  O1  BZF d   1       1.596  -0.903   2.420  0.00  0.00    -0.204 OA
ATOM      2  C2  BZF d   1       1.315  -1.012   3.768  0.00  0.00     0.174 A 
ATOM      3  C3  BZF d   1       0.067  -0.576   4.033  0.00  0.00    -0.012 A 
ATOM      4  C3A BZF d   1      -0.499  -0.256   2.758  0.00  0.00    -0.107 A 
ATOM      5  C4  BZF d   1      -1.719   0.212   2.363  0.00  0.00     0.055 A 
ATOM      6  C5  BZF d   1      -1.927   0.489   1.048  0.00  0.00    -0.016 A 
ATOM      7  C6  BZF d   1      -0.936   0.315   0.105  0.00  0.00     0.022 A 
ATOM      8  C7  BZF d   1       0.290  -0.152   0.448  0.00  0.00     0.029 A 
ATOM      9  C7A BZF d   1       0.492  -0.464   1.770  0.00  0.00     0.058 A 
ENDROOT
TORSDOF 0
ENDMDL
