MODEL 1
REMARK minimizedAffinity -0.588684976
REMARK minimizedRMSD -1
REMARK  0 active torsions:
REMARK  status: ('A' for Active; 'I' for Inactive)
ROOT
ATOM      1  O1  BZF d   1      -2.340  -0.438   2.916  0.00  0.00    -0.204 OA
ATOM      2  C2  BZF d   1      -2.436  -0.003   1.609  0.00  0.00     0.174 A 
ATOM      3  C3  BZF d   1      -1.224   0.012   1.019  0.00  0.00    -0.012 A 
ATOM      4  C3A BZF d   1      -0.326  -0.531   1.992  0.00  0.00    -0.107 A 
ATOM      5  C4  BZF d   1       1.016  -0.787   1.992  0.00  0.00     0.055 A 
ATOM      6  C5  BZF d   1       1.600  -1.251   3.128  0.00  0.00    -0.016 A 
ATOM      7  C6  BZF d   1       0.875  -1.464   4.282  0.00  0.00     0.022 A 
ATOM      8  C7  BZF d   1      -0.459  -1.229   4.329  0.00  0.00     0.029 A 
ATOM      9  C7A BZF d   1      -1.058  -0.792   3.173  0.00  0.00     0.058 A 
ENDROOT
TORSDOF 0
ENDMDL
