MODEL 1
REMARK minimizedAffinity 4.25513363
REMARK minimizedRMSD -1
REMARK  0 active torsions:
REMARK  status: ('A' for Active; 'I' for Inactive)
ROOT
ATOM      1  O1  BZF d   1       0.721  -0.403   1.605  0.00  0.00    -0.204 OA
ATOM      2  C2  BZF d   1       1.322  -0.742   0.408  0.00  0.00     0.174 A 
ATOM      3  C3  BZF d   1       0.395  -1.014  -0.532  0.00  0.00    -0.012 A 
ATOM      4  C3A BZF d   1      -0.864  -0.743   0.091  0.00  0.00    -0.107 A 
ATOM      5  C4  BZF d   1      -2.159  -0.810  -0.340  0.00  0.00     0.055 A 
ATOM      6  C5  BZF d   1      -3.161  -0.550   0.540  0.00  0.00    -0.016 A 
ATOM      7  C6  BZF d   1      -2.907  -0.225   1.856  0.00  0.00     0.022 A 
ATOM      8  C7  BZF d   1      -1.639  -0.142   2.328  0.00  0.00     0.029 A 
ATOM      9  C7A BZF d   1      -0.622  -0.372   1.434  0.00  0.00     0.058 A 
ENDROOT
TORSDOF 0
ENDMDL
