MODEL 1
REMARK minimizedAffinity 0.726329803
REMARK minimizedRMSD -1
REMARK  0 active torsions:
REMARK  status: ('A' for Active; 'I' for Inactive)
ROOT
ATOM      1  O1  BZF d   1       1.872  -1.198   2.690  0.00  0.00    -0.204 OA
ATOM      2  C2  BZF d   1       1.702  -1.130   4.060  0.00  0.00     0.174 A 
ATOM      3  C3  BZF d   1       0.484  -0.639   4.367  0.00  0.00    -0.012 A 
ATOM      4  C3A BZF d   1      -0.182  -0.470   3.112  0.00  0.00    -0.107 A 
ATOM      5  C4  BZF d   1      -1.426  -0.031   2.761  0.00  0.00     0.055 A 
ATOM      6  C5  BZF d   1      -1.739   0.082   1.443  0.00  0.00    -0.016 A 
ATOM      7  C6  BZF d   1      -0.831  -0.229   0.452  0.00  0.00     0.022 A 
ATOM      8  C7  BZF d   1       0.414  -0.674   0.751  0.00  0.00     0.029 A 
ATOM      9  C7A BZF d   1       0.721  -0.821   2.082  0.00  0.00     0.058 A 
ENDROOT
TORSDOF 0
ENDMDL
