MODEL 1
REMARK minimizedAffinity -0.253892809
REMARK minimizedRMSD -1
REMARK  0 active torsions:
REMARK  status: ('A' for Active; 'I' for Inactive)
ROOT
ATOM      1  O1  BZF d   1       1.272  -0.910   2.366  0.00  0.00    -0.204 OA
ATOM      2  C2  BZF d   1       1.332  -1.283   3.695  0.00  0.00     0.174 A 
ATOM      3  C3  BZF d   1       0.121  -1.174   4.278  0.00  0.00    -0.012 A 
ATOM      4  C3A BZF d   1      -0.770  -0.791   3.226  0.00  0.00    -0.107 A 
ATOM      5  C4  BZF d   1      -2.112  -0.543   3.176  0.00  0.00     0.055 A 
ATOM      6  C5  BZF d   1      -2.662  -0.118   2.009  0.00  0.00    -0.016 A 
ATOM      7  C6  BZF d   1      -1.900   0.074   0.875  0.00  0.00     0.022 A 
ATOM      8  C7  BZF d   1      -0.566  -0.164   0.874  0.00  0.00     0.029 A 
ATOM      9  C7A BZF d   1      -0.013  -0.625   2.044  0.00  0.00     0.058 A 
ENDROOT
TORSDOF 0
ENDMDL
