MODEL 1
REMARK minimizedAffinity -0.932165205
REMARK minimizedRMSD -1
REMARK  0 active torsions:
REMARK  status: ('A' for Active; 'I' for Inactive)
ROOT
ATOM      1  O1  BZF d   1      -0.566  -0.335   2.403  0.00  0.00    -0.204 OA
ATOM      2  C2  BZF d   1      -1.715   0.109   3.029  0.00  0.00     0.174 A 
ATOM      3  C3  BZF d   1      -2.662   0.423   2.121  0.00  0.00    -0.012 A 
ATOM      4  C3A BZF d   1      -2.100   0.071   0.853  0.00  0.00    -0.107 A 
ATOM      5  C4  BZF d   1      -2.565   0.133  -0.429  0.00  0.00     0.055 A 
ATOM      6  C5  BZF d   1      -1.739  -0.220  -1.449  0.00  0.00    -0.016 A 
ATOM      7  C6  BZF d   1      -0.442  -0.633  -1.223  0.00  0.00     0.022 A 
ATOM      8  C7  BZF d   1       0.062  -0.716   0.032  0.00  0.00     0.029 A 
ATOM      9  C7A BZF d   1      -0.781  -0.391   1.067  0.00  0.00     0.058 A 
ENDROOT
TORSDOF 0
ENDMDL
