MODEL 1
REMARK minimizedAffinity 1.72318542
REMARK minimizedRMSD -1
REMARK  0 active torsions:
REMARK  status: ('A' for Active; 'I' for Inactive)
ROOT
ATOM      1  O1  BZF d   1       1.399  -1.235   2.763  0.00  0.00    -0.204 OA
ATOM      2  C2  BZF d   1       1.130  -1.519   4.088  0.00  0.00     0.174 A 
ATOM      3  C3  BZF d   1      -0.162  -1.269   4.379  0.00  0.00    -0.012 A 
ATOM      4  C3A BZF d   1      -0.760  -0.886   3.137  0.00  0.00    -0.107 A 
ATOM      5  C4  BZF d   1      -2.028  -0.531   2.775  0.00  0.00     0.055 A 
ATOM      6  C5  BZF d   1      -2.266  -0.143   1.494  0.00  0.00    -0.016 A 
ATOM      7  C6  BZF d   1      -1.259  -0.095   0.552  0.00  0.00     0.022 A 
ATOM      8  C7  BZF d   1       0.013  -0.443   0.862  0.00  0.00     0.029 A 
ATOM      9  C7A BZF d   1       0.250  -0.867   2.147  0.00  0.00     0.058 A 
ENDROOT
TORSDOF 0
ENDMDL
