MODEL 1
REMARK minimizedAffinity 6.38951159
REMARK minimizedRMSD -1
REMARK  0 active torsions:
REMARK  status: ('A' for Active; 'I' for Inactive)
ROOT
ATOM      1  O1  BZF d   1       1.508  -1.250   2.869  0.00  0.00    -0.204 OA
ATOM      2  C2  BZF d   1       1.135  -1.340   4.196  0.00  0.00     0.174 A 
ATOM      3  C3  BZF d   1      -0.139  -0.931   4.364  0.00  0.00    -0.012 A 
ATOM      4  C3A BZF d   1      -0.621  -0.649   3.046  0.00  0.00    -0.107 A 
ATOM      5  C4  BZF d   1      -1.821  -0.220   2.557  0.00  0.00     0.055 A 
ATOM      6  C5  BZF d   1      -1.942   0.026   1.226  0.00  0.00    -0.016 A 
ATOM      7  C6  BZF d   1      -0.884  -0.140   0.358  0.00  0.00     0.022 A 
ATOM      8  C7  BZF d   1       0.325  -0.569   0.795  0.00  0.00     0.029 A 
ATOM      9  C7A BZF d   1       0.441  -0.850   2.135  0.00  0.00     0.058 A 
ENDROOT
TORSDOF 0
ENDMDL
