MODEL 1
REMARK minimizedAffinity -0.612559855
REMARK minimizedRMSD -1
REMARK  0 active torsions:
REMARK  status: ('A' for Active; 'I' for Inactive)
ROOT
ATOM      1  O1  BZF d   1       0.553  -1.146  -0.470  0.00  0.00    -0.204 OA
ATOM      2  C2  BZF d   1       1.630  -0.710   0.277  0.00  0.00     0.174 A 
ATOM      3  C3  BZF d   1       1.221   0.081   1.289  0.00  0.00    -0.012 A 
ATOM      4  C3A BZF d   1      -0.208   0.068   1.223  0.00  0.00    -0.107 A 
ATOM      5  C4  BZF d   1      -1.188   0.653   1.974  0.00  0.00     0.055 A 
ATOM      6  C5  BZF d   1      -2.486   0.501   1.600  0.00  0.00    -0.016 A 
ATOM      7  C6  BZF d   1      -2.839  -0.224   0.481  0.00  0.00     0.022 A 
ATOM      8  C7  BZF d   1      -1.902  -0.827  -0.292  0.00  0.00     0.029 A 
ATOM      9  C7A BZF d   1      -0.592  -0.703   0.102  0.00  0.00     0.058 A 
ENDROOT
TORSDOF 0
ENDMDL
