MODEL 1
REMARK minimizedAffinity 3.29490209
REMARK minimizedRMSD -1
REMARK  0 active torsions:
REMARK  status: ('A' for Active; 'I' for Inactive)
ROOT
ATOM      1  O1  BZF d   1      -2.682   0.577   2.318  0.00  0.00    -0.204 OA
ATOM      2  C2  BZF d   1      -1.654   0.267   3.188  0.00  0.00     0.174 A 
ATOM      3  C3  BZF d   1      -0.617  -0.284   2.526  0.00  0.00    -0.012 A 
ATOM      4  C3A BZF d   1      -0.984  -0.236   1.144  0.00  0.00    -0.107 A 
ATOM      5  C4  BZF d   1      -0.359  -0.620  -0.008  0.00  0.00     0.055 A 
ATOM      6  C5  BZF d   1      -1.020  -0.502  -1.189  0.00  0.00    -0.016 A 
ATOM      7  C6  BZF d   1      -2.308  -0.010  -1.255  0.00  0.00     0.022 A 
ATOM      8  C7  BZF d   1      -2.967   0.388  -0.140  0.00  0.00     0.029 A 
ATOM      9  C7A BZF d   1      -2.289   0.301   1.051  0.00  0.00     0.058 A 
ENDROOT
TORSDOF 0
ENDMDL
