MODEL 1
REMARK minimizedAffinity -0.404408783
REMARK minimizedRMSD -1
REMARK  0 active torsions:
REMARK  status: ('A' for Active; 'I' for Inactive)
ROOT
ATOM      1  O1  BZF d   1       0.561  -1.001  -0.474  0.00  0.00    -0.204 OA
ATOM      2  C2  BZF d   1       1.377  -0.758   0.614  0.00  0.00     0.174 A 
ATOM      3  C3  BZF d   1       0.668  -0.237   1.637  0.00  0.00    -0.012 A 
ATOM      4  C3A BZF d   1      -0.691  -0.234   1.190  0.00  0.00    -0.107 A 
ATOM      5  C4  BZF d   1      -1.868   0.150   1.766  0.00  0.00     0.055 A 
ATOM      6  C5  BZF d   1      -3.011   0.092   1.035  0.00  0.00    -0.016 A 
ATOM      7  C6  BZF d   1      -3.014  -0.340  -0.275  0.00  0.00     0.022 A 
ATOM      8  C7  BZF d   1      -1.872  -0.737  -0.888  0.00  0.00     0.029 A 
ATOM      9  C7A BZF d   1      -0.720  -0.711  -0.141  0.00  0.00     0.058 A 
ENDROOT
TORSDOF 0
ENDMDL
