MODEL 1
REMARK minimizedAffinity -0.711638808
REMARK minimizedRMSD -1
REMARK  0 active torsions:
REMARK  status: ('A' for Active; 'I' for Inactive)
ROOT
ATOM      1  O1  BZF d   1       1.445  -1.335   3.005  0.00  0.00    -0.204 OA
ATOM      2  C2  BZF d   1       0.927  -1.424   4.283  0.00  0.00     0.174 A 
ATOM      3  C3  BZF d   1      -0.363  -1.031   4.304  0.00  0.00    -0.012 A 
ATOM      4  C3A BZF d   1      -0.697  -0.761   2.939  0.00  0.00    -0.107 A 
ATOM      5  C4  BZF d   1      -1.840  -0.349   2.316  0.00  0.00     0.055 A 
ATOM      6  C5  BZF d   1      -1.814  -0.109   0.979  0.00  0.00    -0.016 A 
ATOM      7  C6  BZF d   1      -0.663  -0.266   0.236  0.00  0.00     0.022 A 
ATOM      8  C7  BZF d   1       0.495  -0.677   0.808  0.00  0.00     0.029 A 
ATOM      9  C7A BZF d   1       0.463  -0.952   2.154  0.00  0.00     0.058 A 
ENDROOT
TORSDOF 0
ENDMDL
