MODEL 1
REMARK minimizedAffinity -1.84714592
REMARK minimizedRMSD -1
REMARK  0 active torsions:
REMARK  status: ('A' for Active; 'I' for Inactive)
ROOT
ATOM      1  O1  BZF d   1       1.049  -2.276   4.442  0.00  0.00    -0.204 OA
ATOM      2  C2  BZF d   1       1.628  -1.333   3.614  0.00  0.00     0.174 A 
ATOM      3  C3  BZF d   1       0.683  -0.605   2.984  0.00  0.00    -0.012 A 
ATOM      4  C3A BZF d   1      -0.563  -1.064   3.517  0.00  0.00    -0.107 A 
ATOM      5  C4  BZF d   1      -1.864  -0.713   3.297  0.00  0.00     0.055 A 
ATOM      6  C5  BZF d   1      -2.850  -1.405   3.925  0.00  0.00    -0.016 A 
ATOM      7  C6  BZF d   1      -2.572  -2.456   4.775  0.00  0.00     0.022 A 
ATOM      8  C7  BZF d   1      -1.296  -2.837   5.028  0.00  0.00     0.029 A 
ATOM      9  C7A BZF d   1      -0.296  -2.118   4.421  0.00  0.00     0.058 A 
ENDROOT
TORSDOF 0
ENDMDL
