MODEL 1
REMARK minimizedAffinity 1.75485826
REMARK minimizedRMSD -1
REMARK  0 active torsions:
REMARK  status: ('A' for Active; 'I' for Inactive)
ROOT
ATOM      1  O1  BZF d   1      -1.216  -2.608   5.014  0.00  0.00    -0.204 OA
ATOM      2  C2  BZF d   1       0.117  -2.256   5.102  0.00  0.00     0.174 A 
ATOM      3  C3  BZF d   1       0.397  -1.233   4.270  0.00  0.00    -0.012 A 
ATOM      4  C3A BZF d   1      -0.857  -0.866   3.688  0.00  0.00    -0.107 A 
ATOM      5  C4  BZF d   1      -1.233   0.095   2.793  0.00  0.00     0.055 A 
ATOM      6  C5  BZF d   1      -2.525   0.140   2.376  0.00  0.00    -0.016 A 
ATOM      7  C6  BZF d   1      -3.467  -0.760   2.829  0.00  0.00     0.022 A 
ATOM      8  C7  BZF d   1      -3.143  -1.728   3.722  0.00  0.00     0.029 A 
ATOM      9  C7A BZF d   1      -1.845  -1.756   4.170  0.00  0.00     0.058 A 
ENDROOT
TORSDOF 0
ENDMDL
