MODEL 1
REMARK minimizedAffinity 3.68483114
REMARK minimizedRMSD -1
REMARK  2 active torsions:
REMARK  status: ('A' for Active; 'I' for Inactive)
REMARK    1  A    between atoms: C2'_3  and  C1'_4 
REMARK    2  A    between atoms: C1'_4  and  C1_5 
ROOT
ATOM      1  C1  I4B d   1       2.710  -3.406  -2.006  0.00  0.00    -0.075 A 
ATOM      2  C2  I4B d   1       3.367  -4.154  -2.951  0.00  0.00     0.003 A 
ATOM      3  C3  I4B d   1       4.454  -4.981  -2.578  0.00  0.00     0.002 A 
ATOM      4  C4  I4B d   1       4.880  -4.991  -1.265  0.00  0.00    -0.004 A 
ATOM      5  C5  I4B d   1       4.199  -4.250  -0.304  0.00  0.00     0.002 A 
ATOM      6  C6  I4B d   1       3.099  -3.462  -0.674  0.00  0.00     0.003 A 
ENDROOT
BRANCH   1   7
ATOM      7  C1' I4B d   1       1.588  -2.518  -2.441  0.00  0.00     0.060 C 
BRANCH   7   8
ATOM      8  C2' I4B d   1       2.017  -1.082  -2.222  0.00  0.00    -0.013 C 
ATOM      9  C4' I4B d   1       1.261  -0.143  -3.125  0.00  0.00     0.013 C 
ATOM     10  C3' I4B d   1       1.788  -0.745  -0.778  0.00  0.00     0.013 C 
ENDBRANCH   7   8
ENDBRANCH   1   7
TORSDOF 2
ENDMDL
