MODEL 1
REMARK minimizedAffinity 10.6438494
REMARK minimizedRMSD -1
REMARK  2 active torsions:
REMARK  status: ('A' for Active; 'I' for Inactive)
REMARK    1  A    between atoms: C2'_3  and  C1'_4 
REMARK    2  A    between atoms: C1'_4  and  C1_5 
ROOT
ATOM      1  C1  I4B d   1       2.783  -4.079  -1.995  0.00  0.00    -0.075 A 
ATOM      2  C2  I4B d   1       3.045  -3.714  -0.698  0.00  0.00     0.003 A 
ATOM      3  C3  I4B d   1       4.130  -4.296   0.001  0.00  0.00     0.002 A 
ATOM      4  C4  I4B d   1       4.890  -5.270  -0.613  0.00  0.00    -0.004 A 
ATOM      5  C5  I4B d   1       4.637  -5.623  -1.936  0.00  0.00     0.002 A 
ATOM      6  C6  I4B d   1       3.584  -5.015  -2.635  0.00  0.00     0.003 A 
ENDROOT
BRANCH   1   7
ATOM      7  C1' I4B d   1       1.609  -3.468  -2.693  0.00  0.00     0.060 C 
BRANCH   7   8
ATOM      8  C2' I4B d   1       2.034  -2.113  -3.220  0.00  0.00    -0.013 C 
ATOM      9  C4' I4B d   1       2.062  -2.098  -4.726  0.00  0.00     0.013 C 
ATOM     10  C3' I4B d   1       1.077  -1.088  -2.687  0.00  0.00     0.013 C 
ENDBRANCH   7   8
ENDBRANCH   1   7
TORSDOF 2
ENDMDL
