MODEL 1
REMARK minimizedAffinity 2.24235511
REMARK minimizedRMSD -1
REMARK  2 active torsions:
REMARK  status: ('A' for Active; 'I' for Inactive)
REMARK    1  A    between atoms: C2'_3  and  C1'_4 
REMARK    2  A    between atoms: C1'_4  and  C1_5 
ROOT
ATOM      1  C1  I4B d   1       3.814  -4.887  -2.185  0.00  0.00    -0.075 A 
ATOM      2  C2  I4B d   1       2.679  -4.146  -2.397  0.00  0.00     0.003 A 
ATOM      3  C3  I4B d   1       2.462  -3.515  -3.645  0.00  0.00     0.002 A 
ATOM      4  C4  I4B d   1       3.423  -3.608  -4.630  0.00  0.00    -0.004 A 
ATOM      5  C5  I4B d   1       4.564  -4.379  -4.422  0.00  0.00     0.002 A 
ATOM      6  C6  I4B d   1       4.755  -5.033  -3.196  0.00  0.00     0.003 A 
ENDROOT
BRANCH   1   7
ATOM      7  C1' I4B d   1       4.027  -5.514  -0.843  0.00  0.00     0.060 C 
BRANCH   7   8
ATOM      8  C2' I4B d   1       4.497  -4.431   0.108  0.00  0.00    -0.013 C 
ATOM      9  C4' I4B d   1       5.920  -4.033  -0.180  0.00  0.00     0.013 C 
ATOM     10  C3' I4B d   1       3.568  -3.261  -0.028  0.00  0.00     0.013 C 
ENDBRANCH   7   8
ENDBRANCH   1   7
TORSDOF 2
ENDMDL
