MODEL 1
REMARK minimizedAffinity 3.90695333
REMARK minimizedRMSD -1
REMARK  2 active torsions:
REMARK  status: ('A' for Active; 'I' for Inactive)
REMARK    1  A    between atoms: C2'_3  and  C1'_4 
REMARK    2  A    between atoms: C1'_4  and  C1_5 
ROOT
ATOM      1  C1  I4B d   1       1.848  -2.212  -2.199  0.00  0.00    -0.075 A 
ATOM      2  C2  I4B d   1       2.400  -2.212  -0.942  0.00  0.00     0.003 A 
ATOM      3  C3  I4B d   1       2.742  -0.990  -0.314  0.00  0.00     0.002 A 
ATOM      4  C4  I4B d   1       2.564   0.197  -0.994  0.00  0.00    -0.004 A 
ATOM      5  C5  I4B d   1       1.984   0.197  -2.259  0.00  0.00     0.002 A 
ATOM      6  C6  I4B d   1       1.612  -1.014  -2.861  0.00  0.00     0.003 A 
ENDROOT
BRANCH   1   7
ATOM      7  C1' I4B d   1       1.529  -3.522  -2.846  0.00  0.00     0.060 C 
BRANCH   7   8
ATOM      8  C2' I4B d   1       2.769  -4.391  -2.778  0.00  0.00    -0.013 C 
ATOM      9  C4' I4B d   1       2.409  -5.853  -2.751  0.00  0.00     0.013 C 
ATOM     10  C3' I4B d   1       3.628  -4.067  -3.963  0.00  0.00     0.013 C 
ENDBRANCH   7   8
ENDBRANCH   1   7
TORSDOF 2
ENDMDL
