MODEL 1
REMARK minimizedAffinity 7.32610369
REMARK minimizedRMSD -1
REMARK  2 active torsions:
REMARK  status: ('A' for Active; 'I' for Inactive)
REMARK    1  A    between atoms: C2'_3  and  C1'_4 
REMARK    2  A    between atoms: C1'_4  and  C1_5 
ROOT
ATOM      1  C1  I4B d   1      -5.187  -2.199   3.113  0.00  0.00    -0.075 A 
ATOM      2  C2  I4B d   1      -5.981  -3.038   2.370  0.00  0.00     0.003 A 
ATOM      3  C3  I4B d   1      -5.999  -4.427   2.641  0.00  0.00     0.002 A 
ATOM      4  C4  I4B d   1      -5.176  -4.939   3.623  0.00  0.00    -0.004 A 
ATOM      5  C5  I4B d   1      -4.389  -4.085   4.390  0.00  0.00     0.002 A 
ATOM      6  C6  I4B d   1      -4.404  -2.705   4.142  0.00  0.00     0.003 A 
ENDROOT
BRANCH   1   7
ATOM      7  C1' I4B d   1      -5.167  -0.742   2.778  0.00  0.00     0.060 C 
BRANCH   7   8
ATOM      8  C2' I4B d   1      -3.767  -0.223   3.035  0.00  0.00    -0.013 C 
ATOM      9  C4' I4B d   1      -3.109   0.224   1.756  0.00  0.00     0.013 C 
ATOM     10  C3' I4B d   1      -3.864   0.906   4.017  0.00  0.00     0.013 C 
ENDBRANCH   7   8
ENDBRANCH   1   7
TORSDOF 2
ENDMDL
