MODEL 1
REMARK minimizedAffinity 8.30756664
REMARK minimizedRMSD -1
REMARK  2 active torsions:
REMARK  status: ('A' for Active; 'I' for Inactive)
REMARK    1  A    between atoms: C2'_3  and  C1'_4 
REMARK    2  A    between atoms: C1'_4  and  C1_5 
ROOT
ATOM      1  C1  I4B d   1       3.038  -4.637  -2.605  0.00  0.00    -0.075 A 
ATOM      2  C2  I4B d   1       4.192  -4.865  -3.313  0.00  0.00     0.003 A 
ATOM      3  C3  I4B d   1       4.391  -4.246  -4.570  0.00  0.00     0.002 A 
ATOM      4  C4  I4B d   1       3.396  -3.451  -5.102  0.00  0.00    -0.004 A 
ATOM      5  C5  I4B d   1       2.237  -3.202  -4.372  0.00  0.00     0.002 A 
ATOM      6  C6  I4B d   1       2.062  -3.788  -3.110  0.00  0.00     0.003 A 
ENDROOT
BRANCH   1   7
ATOM      7  C1' I4B d   1       2.846  -5.333  -1.295  0.00  0.00     0.060 C 
BRANCH   7   8
ATOM      8  C2' I4B d   1       3.981  -4.924  -0.378  0.00  0.00    -0.013 C 
ATOM      9  C4' I4B d   1       3.711  -3.587   0.260  0.00  0.00     0.013 C 
ATOM     10  C3' I4B d   1       4.148  -5.995   0.658  0.00  0.00     0.013 C 
ENDBRANCH   7   8
ENDBRANCH   1   7
TORSDOF 2
ENDMDL
