MODEL 1
REMARK minimizedAffinity 2.32940412
REMARK minimizedRMSD -1
REMARK  2 active torsions:
REMARK  status: ('A' for Active; 'I' for Inactive)
REMARK    1  A    between atoms: C2'_3  and  C1'_4 
REMARK    2  A    between atoms: C1'_4  and  C1_5 
ROOT
ATOM      1  C1  I4B d   1       3.179  -3.568  -1.971  0.00  0.00    -0.075 A 
ATOM      2  C2  I4B d   1       4.190  -4.154  -2.691  0.00  0.00     0.003 A 
ATOM      3  C3  I4B d   1       4.248  -3.998  -4.097  0.00  0.00     0.002 A 
ATOM      4  C4  I4B d   1       3.253  -3.294  -4.744  0.00  0.00    -0.004 A 
ATOM      5  C5  I4B d   1       2.241  -2.681  -4.010  0.00  0.00     0.002 A 
ATOM      6  C6  I4B d   1       2.210  -2.808  -2.614  0.00  0.00     0.003 A 
ENDROOT
BRANCH   1   7
ATOM      7  C1' I4B d   1       3.130  -3.782  -0.491  0.00  0.00     0.060 C 
BRANCH   7   8
ATOM      8  C2' I4B d   1       4.442  -4.408  -0.066  0.00  0.00    -0.013 C 
ATOM      9  C4' I4B d   1       5.314  -3.414   0.654  0.00  0.00     0.013 C 
ATOM     10  C3' I4B d   1       4.131  -5.587   0.807  0.00  0.00     0.013 C 
ENDBRANCH   7   8
ENDBRANCH   1   7
TORSDOF 2
ENDMDL
