MODEL 1
REMARK minimizedAffinity 2.09633756
REMARK minimizedRMSD -1
REMARK  2 active torsions:
REMARK  status: ('A' for Active; 'I' for Inactive)
REMARK    1  A    between atoms: C2'_3  and  C1'_4 
REMARK    2  A    between atoms: C1'_4  and  C1_5 
ROOT
ATOM      1  C1  I4B d   1       3.633  -4.670  -2.205  0.00  0.00    -0.075 A 
ATOM      2  C2  I4B d   1       2.912  -5.837  -2.263  0.00  0.00     0.003 A 
ATOM      3  C3  I4B d   1       1.633  -5.855  -2.871  0.00  0.00     0.002 A 
ATOM      4  C4  I4B d   1       1.096  -4.681  -3.359  0.00  0.00    -0.004 A 
ATOM      5  C5  I4B d   1       1.838  -3.504  -3.319  0.00  0.00     0.002 A 
ATOM      6  C6  I4B d   1       3.119  -3.501  -2.750  0.00  0.00     0.003 A 
ENDROOT
BRANCH   1   7
ATOM      7  C1' I4B d   1       4.966  -4.680  -1.526  0.00  0.00     0.060 C 
BRANCH   7   8
ATOM      8  C2' I4B d   1       4.746  -4.364  -0.061  0.00  0.00    -0.013 C 
ATOM      9  C4' I4B d   1       4.513  -5.619   0.738  0.00  0.00     0.013 C 
ATOM     10  C3' I4B d   1       5.949  -3.620   0.438  0.00  0.00     0.013 C 
ENDBRANCH   7   8
ENDBRANCH   1   7
TORSDOF 2
ENDMDL
