MODEL 1
REMARK minimizedAffinity 0.513305068
REMARK minimizedRMSD -1
REMARK  2 active torsions:
REMARK  status: ('A' for Active; 'I' for Inactive)
REMARK    1  A    between atoms: C2'_3  and  C1'_4 
REMARK    2  A    between atoms: C1'_4  and  C1_5 
ROOT
ATOM      1  C1  I4B d   1       3.194  -4.447  -2.036  0.00  0.00    -0.075 A 
ATOM      2  C2  I4B d   1       1.942  -3.885  -2.043  0.00  0.00     0.003 A 
ATOM      3  C3  I4B d   1       1.544  -3.045  -3.112  0.00  0.00     0.002 A 
ATOM      4  C4  I4B d   1       2.441  -2.757  -4.120  0.00  0.00    -0.004 A 
ATOM      5  C5  I4B d   1       3.702  -3.346  -4.122  0.00  0.00     0.002 A 
ATOM      6  C6  I4B d   1       4.077  -4.207  -3.080  0.00  0.00     0.003 A 
ENDROOT
BRANCH   1   7
ATOM      7  C1' I4B d   1       3.593  -5.302  -0.875  0.00  0.00     0.060 C 
BRANCH   7   8
ATOM      8  C2' I4B d   1       4.053  -4.387   0.242  0.00  0.00    -0.013 C 
ATOM      9  C4' I4B d   1       5.505  -4.021   0.083  0.00  0.00     0.013 C 
ATOM     10  C3' I4B d   1       3.182  -3.167   0.229  0.00  0.00     0.013 C 
ENDBRANCH   7   8
ENDBRANCH   1   7
TORSDOF 2
ENDMDL
