MODEL 1
REMARK minimizedAffinity 17.1541691
REMARK minimizedRMSD -1
REMARK  2 active torsions:
REMARK  status: ('A' for Active; 'I' for Inactive)
REMARK    1  A    between atoms: C2'_3  and  C1'_4 
REMARK    2  A    between atoms: C1'_4  and  C1_5 
ROOT
ATOM      1  C1  I4B d   1      -2.652  -4.050  -5.141  0.00  0.00    -0.075 A 
ATOM      2  C2  I4B d   1      -2.949  -2.710  -5.120  0.00  0.00     0.003 A 
ATOM      3  C3  I4B d   1      -4.226  -2.256  -5.531  0.00  0.00     0.002 A 
ATOM      4  C4  I4B d   1      -5.152  -3.166  -6.000  0.00  0.00    -0.004 A 
ATOM      5  C5  I4B d   1      -4.857  -4.526  -5.999  0.00  0.00     0.002 A 
ATOM      6  C6  I4B d   1      -3.604  -4.972  -5.555  0.00  0.00     0.003 A 
ENDROOT
BRANCH   1   7
ATOM      7  C1' I4B d   1      -1.283  -4.491  -4.732  0.00  0.00     0.060 C 
BRANCH   7   8
ATOM      8  C2' I4B d   1      -1.113  -4.181  -3.258  0.00  0.00    -0.013 C 
ATOM      9  C4' I4B d   1      -1.755  -5.240  -2.401  0.00  0.00     0.013 C 
ATOM     10  C3' I4B d   1       0.355  -4.071  -2.974  0.00  0.00     0.013 C 
ENDBRANCH   7   8
ENDBRANCH   1   7
TORSDOF 2
ENDMDL
