MODEL 1
REMARK minimizedAffinity -4.45377874
REMARK minimizedRMSD -1
REMARK  1 active torsions:
REMARK  status: ('A' for Active; 'I' for Inactive)
REMARK    1  A    between atoms: C1_2  and  C2_3 
ROOT
ATOM      1  C2  UNL d   1      -1.320   0.287   0.704  0.00  0.00    -0.081 A 
ATOM      2  C3  UNL d   1      -0.252  -0.551   1.048  0.00  0.00     0.006 A 
ATOM      3  C4  UNL d   1       0.783  -0.787   0.140  0.00  0.00     0.002 A 
ATOM      4  C5  UNL d   1       0.771  -0.185  -1.123  0.00  0.00    -0.080 A 
ATOM      5  C6  UNL d   1       1.891  -0.407  -2.095  0.00  0.00     0.076 C 
ATOM      6  C7  UNL d   1      -0.305   0.638  -1.473  0.00  0.00     0.002 A 
ATOM      7  C8  UNL d   1      -1.340   0.875  -0.566  0.00  0.00     0.006 A 
ENDROOT
BRANCH   1   8
ATOM      8  C1  UNL d   1      -2.405   0.596   1.704  0.00  0.00     0.054 C 
ATOM      9  C   UNL d   1      -1.818   0.997   3.050  0.00  0.00     0.018 C 
ENDBRANCH   1   8
TORSDOF 1
ENDMDL
