MODEL 1
REMARK minimizedAffinity -5.49318838
REMARK minimizedRMSD -1
REMARK  1 active torsions:
REMARK  status: ('A' for Active; 'I' for Inactive)
REMARK    1  A    between atoms: C1_2  and  C2_3 
ROOT
ATOM      1  C2  UNL d   1      -0.821   0.215   0.098  0.00  0.00    -0.081 A 
ATOM      2  C3  UNL d   1      -0.450  -1.134   0.064  0.00  0.00     0.006 A 
ATOM      3  C4  UNL d   1       0.785  -1.516  -0.466  0.00  0.00     0.002 A 
ATOM      4  C5  UNL d   1       1.671  -0.555  -0.963  0.00  0.00    -0.080 A 
ATOM      5  C6  UNL d   1       3.013  -0.949  -1.507  0.00  0.00     0.076 C 
ATOM      6  C7  UNL d   1       1.294   0.791  -0.945  0.00  0.00     0.002 A 
ATOM      7  C8  UNL d   1       0.059   1.174  -0.416  0.00  0.00     0.006 A 
ENDROOT
BRANCH   1   8
ATOM      8  C1  UNL d   1      -2.124   0.636   0.728  0.00  0.00     0.054 C 
ATOM      9  C   UNL d   1      -2.023   0.658   2.246  0.00  0.00     0.018 C 
ENDBRANCH   1   8
TORSDOF 1
ENDMDL
