MODEL 1
REMARK minimizedAffinity -4.04324579
REMARK minimizedRMSD -1
REMARK  1 active torsions:
REMARK  status: ('A' for Active; 'I' for Inactive)
REMARK    1  A    between atoms: C1_2  and  C2_3 
ROOT
ATOM      1  C2  UNL d   1      -0.213  -0.062  -0.046  0.00  0.00    -0.081 A 
ATOM      2  C3  UNL d   1       0.449  -1.292  -0.132  0.00  0.00     0.006 A 
ATOM      3  C4  UNL d   1       1.741  -1.366  -0.658  0.00  0.00     0.002 A 
ATOM      4  C5  UNL d   1       2.395  -0.211  -1.099  0.00  0.00    -0.080 A 
ATOM      5  C6  UNL d   1       3.793  -0.272  -1.638  0.00  0.00     0.076 C 
ATOM      6  C7  UNL d   1       1.727   1.016  -1.030  0.00  0.00     0.002 A 
ATOM      7  C8  UNL d   1       0.435   1.091  -0.504  0.00  0.00     0.006 A 
ENDROOT
BRANCH   1   8
ATOM      8  C1  UNL d   1      -1.581   0.031   0.580  0.00  0.00     0.054 C 
ATOM      9  C   UNL d   1      -1.524   0.726   1.933  0.00  0.00     0.018 C 
ENDBRANCH   1   8
TORSDOF 1
ENDMDL
