MODEL 1
REMARK minimizedAffinity -5.85780859
REMARK minimizedRMSD -1
REMARK  1 active torsions:
REMARK  status: ('A' for Active; 'I' for Inactive)
REMARK    1  A    between atoms: C1_2  and  C2_3 
ROOT
ATOM      1  C2  UNL d   1      -0.637   0.166   0.446  0.00  0.00    -0.081 A 
ATOM      2  C3  UNL d   1      -0.026  -1.092   0.524  0.00  0.00     0.006 A 
ATOM      3  C4  UNL d   1       1.144  -1.356  -0.192  0.00  0.00     0.002 A 
ATOM      4  C5  UNL d   1       1.726  -0.366  -0.991  0.00  0.00    -0.080 A 
ATOM      5  C6  UNL d   1       2.999  -0.628  -1.741  0.00  0.00     0.076 C 
ATOM      6  C7  UNL d   1       1.107   0.884  -1.083  0.00  0.00     0.002 A 
ATOM      7  C8  UNL d   1      -0.063   1.149  -0.368  0.00  0.00     0.006 A 
ENDROOT
BRANCH   1   8
ATOM      8  C1  UNL d   1      -1.862   0.475   1.268  0.00  0.00     0.054 C 
ATOM      9  C   UNL d   1      -1.505   1.267   2.517  0.00  0.00     0.018 C 
ENDBRANCH   1   8
TORSDOF 1
ENDMDL
