MODEL 1
REMARK minimizedAffinity -2.93237329
REMARK minimizedRMSD -1
REMARK  1 active torsions:
REMARK  status: ('A' for Active; 'I' for Inactive)
REMARK    1  A    between atoms: C1_2  and  C2_3 
ROOT
ATOM      1  C2  UNL d   1       0.821  -1.934   0.107  0.00  0.00    -0.073 A 
ATOM      2  C3  UNL d   1       1.909  -1.414   0.816  0.00  0.00    -0.002 A 
ATOM      3  C4  UNL d   1       1.770  -0.244   1.564  0.00  0.00     0.004 A 
ATOM      4  C5  UNL d   1       0.540   0.413   1.616  0.00  0.00    -0.004 A 
ATOM      5  C6  UNL d   1      -0.562  -0.098   0.924  0.00  0.00    -0.075 A 
ATOM      6  C7  UNL d   1      -1.891   0.598   0.968  0.00  0.00     0.076 C 
ATOM      7  C8  UNL d   1      -0.414  -1.272   0.173  0.00  0.00     0.001 A 
ENDROOT
BRANCH   1   8
ATOM      8  C1  UNL d   1       0.965  -3.201  -0.696  0.00  0.00     0.053 C 
ATOM      9  C   UNL d   1       2.177  -4.013  -0.267  0.00  0.00     0.018 C 
ENDBRANCH   1   8
TORSDOF 1
ENDMDL
