MODEL 1
REMARK minimizedAffinity 4.38027382
REMARK minimizedRMSD -1
REMARK  1 active torsions:
REMARK  status: ('A' for Active; 'I' for Inactive)
REMARK    1  A    between atoms: C1_2  and  C2_3 
ROOT
ATOM      1  C2  UNL d   1      -0.429  -1.313   0.701  0.00  0.00    -0.073 A 
ATOM      2  C3  UNL d   1      -0.583  -2.665   0.376  0.00  0.00    -0.002 A 
ATOM      3  C4  UNL d   1       0.483  -3.386  -0.163  0.00  0.00     0.004 A 
ATOM      4  C5  UNL d   1       1.714  -2.766  -0.377  0.00  0.00    -0.004 A 
ATOM      5  C6  UNL d   1       1.891  -1.418  -0.048  0.00  0.00    -0.075 A 
ATOM      6  C7  UNL d   1       3.208  -0.735  -0.274  0.00  0.00     0.076 C 
ATOM      7  C8  UNL d   1       0.815  -0.700   0.491  0.00  0.00     0.001 A 
ENDROOT
BRANCH   1   8
ATOM      8  C1  UNL d   1      -1.575  -0.531   1.289  0.00  0.00     0.053 C 
ATOM      9  C   UNL d   1      -1.105   0.478   2.324  0.00  0.00     0.018 C 
ENDBRANCH   1   8
TORSDOF 1
ENDMDL
