MODEL 1
REMARK minimizedAffinity -3.51987481
REMARK minimizedRMSD -1
REMARK  1 active torsions:
REMARK  status: ('A' for Active; 'I' for Inactive)
REMARK    1  A    between atoms: C1_2  and  C2_3 
ROOT
ATOM      1  C2  UNL d   1      -1.489   0.082   1.200  0.00  0.00    -0.073 A 
ATOM      2  C3  UNL d   1      -1.836  -1.108   0.550  0.00  0.00    -0.002 A 
ATOM      3  C4  UNL d   1      -0.844  -1.991   0.121  0.00  0.00     0.004 A 
ATOM      4  C5  UNL d   1       0.501  -1.698   0.343  0.00  0.00    -0.004 A 
ATOM      5  C6  UNL d   1       0.867  -0.519   1.001  0.00  0.00    -0.075 A 
ATOM      6  C7  UNL d   1       2.310  -0.188   1.246  0.00  0.00     0.076 C 
ATOM      7  C8  UNL d   1      -0.134   0.364   1.427  0.00  0.00     0.001 A 
ENDROOT
BRANCH   1   8
ATOM      8  C1  UNL d   1      -2.557   1.036   1.672  0.00  0.00     0.053 C 
ATOM      9  C   UNL d   1      -3.608   1.287   0.603  0.00  0.00     0.018 C 
ENDBRANCH   1   8
TORSDOF 1
ENDMDL
