MODEL 1
REMARK minimizedAffinity 2.34804082
REMARK minimizedRMSD -1
REMARK  1 active torsions:
REMARK  status: ('A' for Active; 'I' for Inactive)
REMARK    1  A    between atoms: C1_2  and  C2_3 
ROOT
ATOM      1  C2  UNL d   1       1.567  -2.983  -0.843  0.00  0.00    -0.073 A 
ATOM      2  C3  UNL d   1       2.723  -2.305  -0.437  0.00  0.00    -0.002 A 
ATOM      3  C4  UNL d   1       2.629  -1.184   0.388  0.00  0.00     0.004 A 
ATOM      4  C5  UNL d   1       1.382  -0.733   0.821  0.00  0.00    -0.004 A 
ATOM      5  C6  UNL d   1       0.217  -1.403   0.436  0.00  0.00    -0.075 A 
ATOM      6  C7  UNL d   1      -1.132  -0.930   0.891  0.00  0.00     0.076 C 
ATOM      7  C8  UNL d   1       0.319  -2.527  -0.395  0.00  0.00     0.001 A 
ENDROOT
BRANCH   1   8
ATOM      8  C1  UNL d   1       1.664  -4.198  -1.728  0.00  0.00     0.053 C 
ATOM      9  C   UNL d   1       0.822  -4.055  -2.987  0.00  0.00     0.018 C 
ENDBRANCH   1   8
TORSDOF 1
ENDMDL
