MODEL 1
REMARK minimizedAffinity 5.6229887
REMARK minimizedRMSD -1
REMARK  1 active torsions:
REMARK  status: ('A' for Active; 'I' for Inactive)
REMARK    1  A    between atoms: C1_2  and  C2_3 
ROOT
ATOM      1  C2  UNL d   1       0.628  -2.598   0.045  0.00  0.00    -0.073 A 
ATOM      2  C3  UNL d   1      -0.667  -2.071   0.091  0.00  0.00    -0.002 A 
ATOM      3  C4  UNL d   1      -0.958  -0.985   0.919  0.00  0.00     0.004 A 
ATOM      4  C5  UNL d   1       0.043  -0.413   1.703  0.00  0.00    -0.004 A 
ATOM      5  C6  UNL d   1       1.347  -0.918   1.662  0.00  0.00    -0.075 A 
ATOM      6  C7  UNL d   1       2.434  -0.314   2.501  0.00  0.00     0.076 C 
ATOM      7  C8  UNL d   1       1.630  -2.009   0.830  0.00  0.00     0.001 A 
ENDROOT
BRANCH   1   8
ATOM      8  C1  UNL d   1       0.949  -3.765  -0.852  0.00  0.00     0.053 C 
ATOM      9  C   UNL d   1       2.325  -4.343  -0.566  0.00  0.00     0.018 C 
ENDBRANCH   1   8
TORSDOF 1
ENDMDL
