MODEL 1
REMARK minimizedAffinity -3.29047322
REMARK minimizedRMSD -1
REMARK  1 active torsions:
REMARK  status: ('A' for Active; 'I' for Inactive)
REMARK    1  A    between atoms: C1_2  and  C2_3 
ROOT
ATOM      1  C2  UNL d   1      -0.749  -1.321   0.584  0.00  0.00    -0.073 A 
ATOM      2  C3  UNL d   1      -0.688  -2.593   0.004  0.00  0.00    -0.002 A 
ATOM      3  C4  UNL d   1       0.544  -3.155  -0.334  0.00  0.00     0.004 A 
ATOM      4  C5  UNL d   1       1.725  -2.455  -0.090  0.00  0.00    -0.004 A 
ATOM      5  C6  UNL d   1       1.685  -1.188   0.500  0.00  0.00    -0.075 A 
ATOM      6  C7  UNL d   1       2.947  -0.421   0.767  0.00  0.00     0.076 C 
ATOM      7  C8  UNL d   1       0.444  -0.629   0.834  0.00  0.00     0.001 A 
ENDROOT
BRANCH   1   8
ATOM      8  C1  UNL d   1      -2.077  -0.713   0.957  0.00  0.00     0.053 C 
ATOM      9  C   UNL d   1      -1.914   0.637   1.636  0.00  0.00     0.018 C 
ENDBRANCH   1   8
TORSDOF 1
ENDMDL
