MODEL 1
REMARK minimizedAffinity -1.21552527
REMARK minimizedRMSD -1
REMARK  0 active torsions:
REMARK  status: ('A' for Active; 'I' for Inactive)
ROOT
ATOM      1  C4' PXY d   1       5.066  -5.984  -2.938  0.00  0.00     0.077 C 
ATOM      2  C1' PXY d   1       2.870  -5.992   2.409  0.00  0.00     0.077 C 
ATOM      3  C1  PXY d   1       3.435  -5.996   1.002  0.00  0.00    -0.082 A 
ATOM      4  C2  PXY d   1       4.746  -5.997   0.824  0.00  0.00     0.003 A 
ATOM      5  C3  PXY d   1       5.274  -5.968  -0.442  0.00  0.00     0.003 A 
ATOM      6  C4  PXY d   1       4.451  -5.990  -1.536  0.00  0.00    -0.082 A 
ATOM      7  C5  PXY d   1       3.113  -5.999  -1.362  0.00  0.00     0.003 A 
ATOM      8  C6  PXY d   1       2.597  -5.988  -0.070  0.00  0.00     0.003 A 
ENDROOT
TORSDOF 0
ENDMDL
