MODEL 1
REMARK minimizedAffinity 2.01021242
REMARK minimizedRMSD -1
REMARK  0 active torsions:
REMARK  status: ('A' for Active; 'I' for Inactive)
ROOT
ATOM      1  C4' PXY d   1       2.267  -5.999  -5.515  0.00  0.00     0.077 C 
ATOM      2  C1' PXY d   1       4.130  -5.979  -0.043  0.00  0.00     0.077 C 
ATOM      3  C1  PXY d   1       3.630  -5.989  -1.474  0.00  0.00    -0.082 A 
ATOM      4  C2  PXY d   1       4.500  -5.998  -2.471  0.00  0.00     0.003 A 
ATOM      5  C3  PXY d   1       4.066  -5.975  -3.771  0.00  0.00     0.003 A 
ATOM      6  C4  PXY d   1       2.726  -5.997  -4.054  0.00  0.00    -0.082 A 
ATOM      7  C5  PXY d   1       1.832  -5.999  -3.043  0.00  0.00     0.003 A 
ATOM      8  C6  PXY d   1       2.294  -5.981  -1.730  0.00  0.00     0.003 A 
ENDROOT
TORSDOF 0
ENDMDL
