MODEL 1
REMARK minimizedAffinity 2.98662472
REMARK minimizedRMSD -1
REMARK  0 active torsions:
REMARK  status: ('A' for Active; 'I' for Inactive)
ROOT
ATOM      1  C4' PXY d   1       3.775  -5.987  -2.637  0.00  0.00     0.077 C 
ATOM      2  C1' PXY d   1       1.939  -5.561   2.828  0.00  0.00     0.077 C 
ATOM      3  C1  PXY d   1       2.409  -5.679   1.391  0.00  0.00    -0.082 A 
ATOM      4  C2  PXY d   1       3.700  -5.578   1.116  0.00  0.00     0.003 A 
ATOM      5  C3  PXY d   1       4.139  -5.651  -0.181  0.00  0.00     0.003 A 
ATOM      6  C4  PXY d   1       3.255  -5.883  -1.200  0.00  0.00    -0.082 A 
ATOM      7  C5  PXY d   1       1.939  -5.998  -0.926  0.00  0.00     0.003 A 
ATOM      8  C6  PXY d   1       1.508  -5.880   0.392  0.00  0.00     0.003 A 
ENDROOT
TORSDOF 0
ENDMDL
