MODEL 1
REMARK minimizedAffinity 1.19666266
REMARK minimizedRMSD -1
REMARK  0 active torsions:
REMARK  status: ('A' for Active; 'I' for Inactive)
ROOT
ATOM      1  C4' PXY d   1       5.597  -6.000  -5.583  0.00  0.00     0.077 C 
ATOM      2  C1' PXY d   1       2.284  -5.980  -0.846  0.00  0.00     0.077 C 
ATOM      3  C1  PXY d   1       3.143  -5.990  -2.095  0.00  0.00    -0.082 A 
ATOM      4  C2  PXY d   1       4.461  -6.000  -1.982  0.00  0.00     0.003 A 
ATOM      5  C3  PXY d   1       5.254  -5.977  -3.102  0.00  0.00     0.003 A 
ATOM      6  C4  PXY d   1       4.690  -5.999  -4.349  0.00  0.00    -0.082 A 
ATOM      7  C5  PXY d   1       3.346  -6.000  -4.473  0.00  0.00     0.003 A 
ATOM      8  C6  PXY d   1       2.560  -5.981  -3.325  0.00  0.00     0.003 A 
ENDROOT
TORSDOF 0
ENDMDL
