MODEL 1
REMARK minimizedAffinity 0.380233586
REMARK minimizedRMSD -1
REMARK  0 active torsions:
REMARK  status: ('A' for Active; 'I' for Inactive)
ROOT
ATOM      1  C4' PXY d   1       2.443  -5.999  -4.466  0.00  0.00     0.077 C 
ATOM      2  C1' PXY d   1       4.244  -5.981   1.026  0.00  0.00     0.077 C 
ATOM      3  C1  PXY d   1       3.761  -5.991  -0.410  0.00  0.00    -0.082 A 
ATOM      4  C2  PXY d   1       4.642  -6.000  -1.397  0.00  0.00     0.003 A 
ATOM      5  C3  PXY d   1       4.222  -5.977  -2.702  0.00  0.00     0.003 A 
ATOM      6  C4  PXY d   1       2.886  -5.998  -3.001  0.00  0.00    -0.082 A 
ATOM      7  C5  PXY d   1       1.981  -6.000  -1.999  0.00  0.00     0.003 A 
ATOM      8  C6  PXY d   1       2.427  -5.982  -0.681  0.00  0.00     0.003 A 
ENDROOT
TORSDOF 0
ENDMDL
