MODEL 1
REMARK minimizedAffinity 4.05383348
REMARK minimizedRMSD -1
REMARK  0 active torsions:
REMARK  status: ('A' for Active; 'I' for Inactive)
ROOT
ATOM      1  C4' PXY d   1       5.685  -6.000  -2.399  0.00  0.00     0.077 C 
ATOM      2  C1' PXY d   1       1.981  -5.979   2.039  0.00  0.00     0.077 C 
ATOM      3  C1  PXY d   1       2.943  -5.990   0.868  0.00  0.00    -0.082 A 
ATOM      4  C2  PXY d   1       4.247  -5.999   1.092  0.00  0.00     0.003 A 
ATOM      5  C3  PXY d   1       5.132  -5.977   0.044  0.00  0.00     0.003 A 
ATOM      6  C4  PXY d   1       4.677  -5.999  -1.247  0.00  0.00    -0.082 A 
ATOM      7  C5  PXY d   1       3.348  -6.000  -1.484  0.00  0.00     0.003 A 
ATOM      8  C6  PXY d   1       2.467  -5.981  -0.407  0.00  0.00     0.003 A 
ENDROOT
TORSDOF 0
ENDMDL
