MODEL 1
REMARK minimizedAffinity 9.09215832
REMARK minimizedRMSD -1
REMARK  0 active torsions:
REMARK  status: ('A' for Active; 'I' for Inactive)
ROOT
ATOM      1  C4' PXY d   1      -4.673  -2.785  -5.977  0.00  0.00     0.077 C 
ATOM      2  C1' PXY d   1      -2.589   0.548  -1.739  0.00  0.00     0.077 C 
ATOM      3  C1  PXY d   1      -3.135  -0.337  -2.843  0.00  0.00    -0.082 A 
ATOM      4  C2  PXY d   1      -2.981   0.024  -4.107  0.00  0.00     0.003 A 
ATOM      5  C3  PXY d   1      -3.497  -0.748  -5.116  0.00  0.00     0.003 A 
ATOM      6  C4  PXY d   1      -4.130  -1.928  -4.831  0.00  0.00    -0.082 A 
ATOM      7  C5  PXY d   1      -4.281  -2.308  -3.545  0.00  0.00     0.003 A 
ATOM      8  C6  PXY d   1      -3.787  -1.490  -2.533  0.00  0.00     0.003 A 
ENDROOT
TORSDOF 0
ENDMDL
