MODEL 1
REMARK minimizedAffinity 0.639389575
REMARK minimizedRMSD -1
REMARK  0 active torsions:
REMARK  status: ('A' for Active; 'I' for Inactive)
ROOT
ATOM      1  C4' PXY d   1       2.638  -5.980   1.395  0.00  0.00     0.077 C 
ATOM      2  C1' PXY d   1       3.099  -5.998  -4.367  0.00  0.00     0.077 C 
ATOM      3  C1  PXY d   1       2.990  -5.998  -2.855  0.00  0.00    -0.082 A 
ATOM      4  C2  PXY d   1       1.796  -5.999  -2.286  0.00  0.00     0.003 A 
ATOM      5  C3  PXY d   1       1.679  -5.967  -0.920  0.00  0.00     0.003 A 
ATOM      6  C4  PXY d   1       2.796  -5.989  -0.128  0.00  0.00    -0.082 A 
ATOM      7  C5  PXY d   1       4.018  -5.999  -0.702  0.00  0.00     0.003 A 
ATOM      8  C6  PXY d   1       4.115  -5.989  -2.090  0.00  0.00     0.003 A 
ENDROOT
TORSDOF 0
ENDMDL
