MODEL 1
REMARK minimizedAffinity 4.92638016
REMARK minimizedRMSD -1
REMARK  0 active torsions:
REMARK  status: ('A' for Active; 'I' for Inactive)
ROOT
ATOM      1  C4' PXY d   1      -0.532  -0.697   1.175  0.00  0.00     0.077 C 
ATOM      2  C1' PXY d   1       4.551  -2.260   3.443  0.00  0.00     0.077 C 
ATOM      3  C1  PXY d   1       3.220  -1.838   2.852  0.00  0.00    -0.082 A 
ATOM      4  C2  PXY d   1       2.272  -2.741   2.664  0.00  0.00     0.003 A 
ATOM      5  C3  PXY d   1       1.074  -2.383   2.102  0.00  0.00     0.003 A 
ATOM      6  C4  PXY d   1       0.824  -1.076   1.777  0.00  0.00    -0.082 A 
ATOM      7  C5  PXY d   1       1.783  -0.147   1.976  0.00  0.00     0.003 A 
ATOM      8  C6  PXY d   1       3.007  -0.538   2.510  0.00  0.00     0.003 A 
ENDROOT
TORSDOF 0
ENDMDL
