MODEL 1
REMARK minimizedAffinity -4.14281559
REMARK minimizedRMSD -1
REMARK  0 active torsions:
REMARK  status: ('A' for Active; 'I' for Inactive)
ROOT
ATOM      1  C   UNL d   1       1.596  -0.359  -0.069  0.00  0.00     0.020 A 
ATOM      2  C1  UNL d   1       1.094   0.938  -0.167  0.00  0.00     0.020 A 
ATOM      3  C2  UNL d   1      -0.243   1.194   0.146  0.00  0.00     0.034 A 
ATOM      4  C3  UNL d   1      -1.082   0.151   0.558  0.00  0.00     0.017 A 
ATOM      5  C4  UNL d   1      -0.576  -1.150   0.655  0.00  0.00     0.017 A 
ATOM      6  C5  UNL d   1       0.763  -1.401   0.341  0.00  0.00     0.034 A 
ATOM      7 Cl   UNL d   1      -1.549  -2.488   1.156  0.00  0.00    -0.070 Cl
ATOM      8 Cl1  UNL d   1      -2.724   0.540   0.929  0.00  0.00    -0.070 Cl
ENDROOT
TORSDOF 0
ENDMDL
