MODEL 1
REMARK minimizedAffinity -4.73625469
REMARK minimizedRMSD -1
REMARK  0 active torsions:
REMARK  status: ('A' for Active; 'I' for Inactive)
ROOT
ATOM      1  C   UNL d   1      -1.633  -2.294   0.551  0.00  0.00     0.020 A 
ATOM      2  C1  UNL d   1      -0.292  -2.537   0.256  0.00  0.00     0.020 A 
ATOM      3  C2  UNL d   1       0.606  -1.472   0.157  0.00  0.00     0.034 A 
ATOM      4  C3  UNL d   1       0.163  -0.159   0.353  0.00  0.00     0.017 A 
ATOM      5  C4  UNL d   1      -1.183   0.084   0.649  0.00  0.00     0.017 A 
ATOM      6  C5  UNL d   1      -2.077  -0.986   0.747  0.00  0.00     0.034 A 
ATOM      7 Cl   UNL d   1      -1.803   1.677   0.905  0.00  0.00    -0.070 Cl
ATOM      8 Cl1  UNL d   1       1.328   1.110   0.216  0.00  0.00    -0.070 Cl
ENDROOT
TORSDOF 0
ENDMDL
