MODEL 1
REMARK minimizedAffinity -5.98945856
REMARK minimizedRMSD -1
REMARK  0 active torsions:
REMARK  status: ('A' for Active; 'I' for Inactive)
ROOT
ATOM      1  C   UNL d   1      -2.439  -0.996   1.725  0.00  0.00     0.020 A 
ATOM      2  C1  UNL d   1      -1.859  -2.261   1.817  0.00  0.00     0.020 A 
ATOM      3  C2  UNL d   1      -0.562  -2.470   1.343  0.00  0.00     0.034 A 
ATOM      4  C3  UNL d   1       0.159  -1.414   0.776  0.00  0.00     0.017 A 
ATOM      5  C4  UNL d   1      -0.424  -0.145   0.684  0.00  0.00     0.017 A 
ATOM      6  C5  UNL d   1      -1.723   0.060   1.160  0.00  0.00     0.034 A 
ATOM      7 Cl   UNL d   1       0.404   1.208  -0.003  0.00  0.00    -0.070 Cl
ATOM      8 Cl1  UNL d   1       1.758  -1.744   0.211  0.00  0.00    -0.070 Cl
ENDROOT
TORSDOF 0
ENDMDL
