MODEL 1
REMARK minimizedAffinity -3.50903201
REMARK minimizedRMSD -1
REMARK  0 active torsions:
REMARK  status: ('A' for Active; 'I' for Inactive)
ROOT
ATOM      1  C   UNL d   1      -1.239  -2.554   0.723  0.00  0.00     0.020 A 
ATOM      2  C1  UNL d   1      -1.997  -1.629   0.007  0.00  0.00     0.020 A 
ATOM      3  C2  UNL d   1      -1.401  -0.460  -0.472  0.00  0.00     0.034 A 
ATOM      4  C3  UNL d   1      -0.045  -0.212  -0.234  0.00  0.00     0.017 A 
ATOM      5  C4  UNL d   1       0.715  -1.141   0.486  0.00  0.00     0.017 A 
ATOM      6  C5  UNL d   1       0.114  -2.310   0.962  0.00  0.00     0.034 A 
ATOM      7 Cl   UNL d   1       2.395  -0.906   0.819  0.00  0.00    -0.070 Cl
ATOM      8 Cl1  UNL d   1       0.626   1.254  -0.855  0.00  0.00    -0.070 Cl
ENDROOT
TORSDOF 0
ENDMDL
