MODEL 1
REMARK minimizedAffinity -3.21683025
REMARK minimizedRMSD -1
REMARK  0 active torsions:
REMARK  status: ('A' for Active; 'I' for Inactive)
ROOT
ATOM      1  C   UNL d   1       1.216  -0.863  -0.351  0.00  0.00     0.020 A 
ATOM      2  C1  UNL d   1       0.776   0.459  -0.389  0.00  0.00     0.020 A 
ATOM      3  C2  UNL d   1      -0.459   0.800   0.166  0.00  0.00     0.034 A 
ATOM      4  C3  UNL d   1      -1.259  -0.182   0.761  0.00  0.00     0.017 A 
ATOM      5  C4  UNL d   1      -0.816  -1.510   0.798  0.00  0.00     0.017 A 
ATOM      6  C5  UNL d   1       0.422  -1.845   0.241  0.00  0.00     0.034 A 
ATOM      7 Cl   UNL d   1      -1.747  -2.777   1.515  0.00  0.00    -0.070 Cl
ATOM      8 Cl1  UNL d   1      -2.775   0.310   1.427  0.00  0.00    -0.070 Cl
ENDROOT
TORSDOF 0
ENDMDL
