MODEL 1
REMARK minimizedAffinity -4.2938652
REMARK minimizedRMSD -1
REMARK  0 active torsions:
REMARK  status: ('A' for Active; 'I' for Inactive)
ROOT
ATOM      1  C   UNL d   1       1.300  -0.231   0.773  0.00  0.00     0.020 A 
ATOM      2  C1  UNL d   1       0.767   1.053   0.669  0.00  0.00     0.020 A 
ATOM      3  C2  UNL d   1      -0.615   1.230   0.574  0.00  0.00     0.034 A 
ATOM      4  C3  UNL d   1      -1.469   0.121   0.581  0.00  0.00     0.017 A 
ATOM      5  C4  UNL d   1      -0.933  -1.168   0.686  0.00  0.00     0.017 A 
ATOM      6  C5  UNL d   1       0.451  -1.339   0.781  0.00  0.00     0.034 A 
ATOM      7 Cl   UNL d   1      -1.923  -2.585   0.702  0.00  0.00    -0.070 Cl
ATOM      8 Cl1  UNL d   1      -3.168   0.414   0.460  0.00  0.00    -0.070 Cl
ENDROOT
TORSDOF 0
ENDMDL
