MODEL 1
REMARK minimizedAffinity -3.24775147
REMARK minimizedRMSD -1
REMARK  0 active torsions:
REMARK  status: ('A' for Active; 'I' for Inactive)
ROOT
ATOM      1  C   UNL d   1       1.022   0.766  -0.103  0.00  0.00     0.020 A 
ATOM      2  C1  UNL d   1       1.492  -0.533   0.088  0.00  0.00     0.020 A 
ATOM      3  C2  UNL d   1       0.606  -1.549   0.453  0.00  0.00     0.034 A 
ATOM      4  C3  UNL d   1      -0.754  -1.268   0.628  0.00  0.00     0.017 A 
ATOM      5  C4  UNL d   1      -1.224   0.036   0.436  0.00  0.00     0.017 A 
ATOM      6  C5  UNL d   1      -0.333   1.049   0.070  0.00  0.00     0.034 A 
ATOM      7 Cl   UNL d   1      -2.888   0.459   0.633  0.00  0.00    -0.070 Cl
ATOM      8 Cl1  UNL d   1      -1.792  -2.574   1.079  0.00  0.00    -0.070 Cl
ENDROOT
TORSDOF 0
ENDMDL
