MODEL 1
REMARK minimizedAffinity -4.85640669
REMARK minimizedRMSD -1
REMARK  0 active torsions:
REMARK  status: ('A' for Active; 'I' for Inactive)
ROOT
ATOM      1  C   UNL d   1      -1.313  -2.450   0.771  0.00  0.00     0.020 A 
ATOM      2  C1  UNL d   1      -0.001  -2.157   0.402  0.00  0.00     0.020 A 
ATOM      3  C2  UNL d   1       0.385  -0.832   0.186  0.00  0.00     0.034 A 
ATOM      4  C3  UNL d   1      -0.544   0.205   0.338  0.00  0.00     0.017 A 
ATOM      5  C4  UNL d   1      -1.861  -0.091   0.707  0.00  0.00     0.017 A 
ATOM      6  C5  UNL d   1      -2.241  -1.419   0.923  0.00  0.00     0.034 A 
ATOM      7 Cl   UNL d   1      -3.062   1.135   0.914  0.00  0.00    -0.070 Cl
ATOM      8 Cl1  UNL d   1       0.002   1.819   0.054  0.00  0.00    -0.070 Cl
ENDROOT
TORSDOF 0
ENDMDL
