MODEL 1
REMARK minimizedAffinity -4.928123
REMARK minimizedRMSD -1
REMARK  0 active torsions:
REMARK  status: ('A' for Active; 'I' for Inactive)
ROOT
ATOM      1  C   UNL d   1      -2.328  -2.200   1.718  0.00  0.00     0.020 A 
ATOM      2  C1  UNL d   1      -2.802  -0.891   1.786  0.00  0.00     0.020 A 
ATOM      3  C2  UNL d   1      -2.046   0.154   1.251  0.00  0.00     0.034 A 
ATOM      4  C3  UNL d   1      -0.812  -0.108   0.646  0.00  0.00     0.017 A 
ATOM      5  C4  UNL d   1      -0.337  -1.423   0.578  0.00  0.00     0.017 A 
ATOM      6  C5  UNL d   1      -1.098  -2.466   1.115  0.00  0.00     0.034 A 
ATOM      7 Cl   UNL d   1       1.177  -1.825  -0.154  0.00  0.00    -0.070 Cl
ATOM      8 Cl1  UNL d   1       0.070   1.232   0.005  0.00  0.00    -0.070 Cl
ENDROOT
TORSDOF 0
ENDMDL
