MODEL 1
REMARK minimizedAffinity -3.52888036
REMARK minimizedRMSD -1
REMARK  0 active torsions:
REMARK  status: ('A' for Active; 'I' for Inactive)
ROOT
ATOM      1  C   UNL d   1      -0.807   1.146   0.167  0.00  0.00     0.020 A 
ATOM      2  C1  UNL d   1       0.567   1.022  -0.036  0.00  0.00     0.020 A 
ATOM      3  C2  UNL d   1       1.187  -0.220   0.118  0.00  0.00     0.034 A 
ATOM      4  C3  UNL d   1       0.432  -1.343   0.476  0.00  0.00     0.017 A 
ATOM      5  C4  UNL d   1      -0.947  -1.218   0.680  0.00  0.00     0.017 A 
ATOM      6  C5  UNL d   1      -1.562   0.028   0.524  0.00  0.00     0.034 A 
ATOM      7 Cl   UNL d   1      -1.944  -2.559   1.123  0.00  0.00    -0.070 Cl
ATOM      8 Cl1  UNL d   1       1.264  -2.848   0.649  0.00  0.00    -0.070 Cl
ENDROOT
TORSDOF 0
ENDMDL
