MODEL 1
REMARK minimizedAffinity 1.27689278
REMARK minimizedRMSD -1
REMARK  0 active torsions:
REMARK  status: ('A' for Active; 'I' for Inactive)
ROOT
ATOM      1  C   UNL d   1       0.683   0.709  -0.941  0.00  0.00     0.020 A 
ATOM      2  C1  UNL d   1       1.314  -0.527  -0.804  0.00  0.00     0.020 A 
ATOM      3  C2  UNL d   1       0.744  -1.516  -0.000  0.00  0.00     0.034 A 
ATOM      4  C3  UNL d   1      -0.460  -1.272   0.670  0.00  0.00     0.017 A 
ATOM      5  C4  UNL d   1      -1.093  -0.031   0.531  0.00  0.00     0.017 A 
ATOM      6  C5  UNL d   1      -0.518   0.956  -0.275  0.00  0.00     0.034 A 
ATOM      7 Cl   UNL d   1      -2.581   0.344   1.327  0.00  0.00    -0.070 Cl
ATOM      8 Cl1  UNL d   1      -1.108  -2.541   1.647  0.00  0.00    -0.070 Cl
ENDROOT
TORSDOF 0
ENDMDL
