MODEL 1
REMARK minimizedAffinity -2.83795428
REMARK minimizedRMSD -1
REMARK  0 active torsions:
REMARK  status: ('A' for Active; 'I' for Inactive)
ROOT
ATOM      1  C   UNL d   1      -0.978   0.989   0.107  0.00  0.00     0.020 A 
ATOM      2  C1  UNL d   1       0.379   1.113  -0.191  0.00  0.00     0.020 A 
ATOM      3  C2  UNL d   1       1.206  -0.011  -0.159  0.00  0.00     0.034 A 
ATOM      4  C3  UNL d   1       0.678  -1.265   0.172  0.00  0.00     0.017 A 
ATOM      5  C4  UNL d   1      -0.683  -1.388   0.470  0.00  0.00     0.017 A 
ATOM      6  C5  UNL d   1      -1.507  -0.259   0.436  0.00  0.00     0.034 A 
ATOM      7 Cl   UNL d   1      -1.408  -2.902   0.886  0.00  0.00    -0.070 Cl
ATOM      8 Cl1  UNL d   1       1.760  -2.612   0.191  0.00  0.00    -0.070 Cl
ENDROOT
TORSDOF 0
ENDMDL
