MODEL 1
REMARK minimizedAffinity -2.00033092
REMARK minimizedRMSD -1
REMARK  0 active torsions:
REMARK  status: ('A' for Active; 'I' for Inactive)
ROOT
ATOM      1  C   UNL d   1      -1.017   0.928   0.279  0.00  0.00     0.020 A 
ATOM      2  C1  UNL d   1       0.318   0.983  -0.119  0.00  0.00     0.020 A 
ATOM      3  C2  UNL d   1       1.092  -0.179  -0.131  0.00  0.00     0.034 A 
ATOM      4  C3  UNL d   1       0.532  -1.402   0.256  0.00  0.00     0.017 A 
ATOM      5  C4  UNL d   1      -0.808  -1.456   0.655  0.00  0.00     0.017 A 
ATOM      6  C5  UNL d   1      -1.579  -0.289   0.665  0.00  0.00     0.034 A 
ATOM      7 Cl   UNL d   1      -1.570  -2.928   1.147  0.00  0.00    -0.070 Cl
ATOM      8 Cl1  UNL d   1       1.547  -2.799   0.217  0.00  0.00    -0.070 Cl
ENDROOT
TORSDOF 0
ENDMDL
