MODEL 1
REMARK minimizedAffinity -1.92029643
REMARK minimizedRMSD -1
REMARK  0 active torsions:
REMARK  status: ('A' for Active; 'I' for Inactive)
ROOT
ATOM      1  C   UNL d   1       4.108   1.005  -0.756  0.00  0.00     0.020 A 
ATOM      2  C1  UNL d   1       3.481   2.239  -0.928  0.00  0.00     0.020 A 
ATOM      3  C2  UNL d   1       2.212   2.459  -0.388  0.00  0.00     0.034 A 
ATOM      4  C3  UNL d   1       1.566   1.443   0.327  0.00  0.00     0.017 A 
ATOM      5  C4  UNL d   1       2.196   0.206   0.499  0.00  0.00     0.017 A 
ATOM      6  C5  UNL d   1       3.466  -0.009  -0.044  0.00  0.00     0.034 A 
ATOM      7 Cl   UNL d   1       1.461  -1.095   1.369  0.00  0.00    -0.070 Cl
ATOM      8 Cl1  UNL d   1      -0.002   1.785   0.967  0.00  0.00    -0.070 Cl
ENDROOT
TORSDOF 0
ENDMDL
