MODEL 1
REMARK minimizedAffinity -0.945289254
REMARK minimizedRMSD -1
REMARK  0 active torsions:
REMARK  status: ('A' for Active; 'I' for Inactive)
ROOT
ATOM      1  C   UNL d   1       0.585   1.748  -0.022  0.00  0.00     0.020 A 
ATOM      2  C1  UNL d   1       1.158   0.478  -0.054  0.00  0.00     0.020 A 
ATOM      3  C2  UNL d   1       0.358  -0.654   0.114  0.00  0.00     0.034 A 
ATOM      4  C3  UNL d   1      -1.021  -0.517   0.316  0.00  0.00     0.017 A 
ATOM      5  C4  UNL d   1      -1.595   0.758   0.348  0.00  0.00     0.017 A 
ATOM      6  C5  UNL d   1      -0.789   1.888   0.178  0.00  0.00     0.034 A 
ATOM      7 Cl   UNL d   1      -3.288   1.007   0.591  0.00  0.00    -0.070 Cl
ATOM      8 Cl1  UNL d   1      -1.950  -1.960   0.517  0.00  0.00    -0.070 Cl
ENDROOT
TORSDOF 0
ENDMDL
