MODEL 1
REMARK minimizedAffinity -5.03032064
REMARK minimizedRMSD -1
REMARK  0 active torsions:
REMARK  status: ('A' for Active; 'I' for Inactive)
ROOT
ATOM      1  C   UNL d   1      -1.288  -2.380   1.873  0.00  0.00     0.020 A 
ATOM      2  C1  UNL d   1      -2.133  -1.376   1.402  0.00  0.00     0.020 A 
ATOM      3  C2  UNL d   1      -1.622  -0.351   0.603  0.00  0.00     0.034 A 
ATOM      4  C3  UNL d   1      -0.262  -0.327   0.274  0.00  0.00     0.017 A 
ATOM      5  C4  UNL d   1       0.586  -1.335   0.748  0.00  0.00     0.017 A 
ATOM      6  C5  UNL d   1       0.069  -2.359   1.547  0.00  0.00     0.034 A 
ATOM      7 Cl   UNL d   1       2.275  -1.372   0.384  0.00  0.00    -0.070 Cl
ATOM      8 Cl1  UNL d   1       0.302   0.971  -0.718  0.00  0.00    -0.070 Cl
ENDROOT
TORSDOF 0
ENDMDL
