MODEL 1
REMARK minimizedAffinity -4.22292995
REMARK minimizedRMSD -1
REMARK  0 active torsions:
REMARK  status: ('A' for Active; 'I' for Inactive)
ROOT
ATOM      1  C   UNL d   1      -0.466  -2.464   0.497  0.00  0.00     0.020 A 
ATOM      2  C1  UNL d   1      -1.837  -2.274   0.660  0.00  0.00     0.020 A 
ATOM      3  C2  UNL d   1      -2.344  -0.989   0.869  0.00  0.00     0.034 A 
ATOM      4  C3  UNL d   1      -1.479   0.110   0.915  0.00  0.00     0.017 A 
ATOM      5  C4  UNL d   1      -0.102  -0.082   0.751  0.00  0.00     0.017 A 
ATOM      6  C5  UNL d   1       0.400  -1.370   0.543  0.00  0.00     0.034 A 
ATOM      7 Cl   UNL d   1       1.027   1.225   0.796  0.00  0.00    -0.070 Cl
ATOM      8 Cl1  UNL d   1      -2.175   1.670   1.176  0.00  0.00    -0.070 Cl
ENDROOT
TORSDOF 0
ENDMDL
