MODEL 1
REMARK minimizedAffinity -5.10043621
REMARK minimizedRMSD -1
REMARK  0 active torsions:
REMARK  status: ('A' for Active; 'I' for Inactive)
ROOT
ATOM      1  C   UNL d   1      -2.794  -0.727   1.848  0.00  0.00     0.020 A 
ATOM      2  C1  UNL d   1      -2.249  -2.002   1.706  0.00  0.00     0.020 A 
ATOM      3  C2  UNL d   1      -0.957  -2.157   1.200  0.00  0.00     0.034 A 
ATOM      4  C3  UNL d   1      -0.206  -1.034   0.833  0.00  0.00     0.017 A 
ATOM      5  C4  UNL d   1      -0.754   0.246   0.976  0.00  0.00     0.017 A 
ATOM      6  C5  UNL d   1      -2.048   0.395   1.484  0.00  0.00     0.034 A 
ATOM      7 Cl   UNL d   1       0.112   1.678   0.546  0.00  0.00    -0.070 Cl
ATOM      8 Cl1  UNL d   1       1.386  -1.299   0.214  0.00  0.00    -0.070 Cl
ENDROOT
TORSDOF 0
ENDMDL
