MODEL 1
REMARK minimizedAffinity -3.93103766
REMARK minimizedRMSD -1
REMARK  0 active torsions:
REMARK  status: ('A' for Active; 'I' for Inactive)
ROOT
ATOM      1  C   UNL d   1      -0.207  -1.637   0.451  0.00  0.00     0.020 A 
ATOM      2  C1  UNL d   1       0.804  -0.680   0.538  0.00  0.00     0.020 A 
ATOM      3  C2  UNL d   1       0.476   0.672   0.668  0.00  0.00     0.034 A 
ATOM      4  C3  UNL d   1      -0.865   1.070   0.711  0.00  0.00     0.017 A 
ATOM      5  C4  UNL d   1      -1.879   0.108   0.623  0.00  0.00     0.017 A 
ATOM      6  C5  UNL d   1      -1.545  -1.243   0.493  0.00  0.00     0.034 A 
ATOM      7 Cl   UNL d   1      -3.556   0.523   0.669  0.00  0.00    -0.070 Cl
ATOM      8 Cl1  UNL d   1      -1.198   2.758   0.873  0.00  0.00    -0.070 Cl
ENDROOT
TORSDOF 0
ENDMDL
