MODEL 1
REMARK minimizedAffinity 1.71046746
REMARK minimizedRMSD -1
REMARK  0 active torsions:
REMARK  status: ('A' for Active; 'I' for Inactive)
ROOT
ATOM      1  C   UNL d   1      -5.982   3.863   0.800  0.00  0.00    -0.002 A 
ATOM      2  C1  UNL d   1      -5.976   5.251   0.772  0.00  0.00     0.010 A 
ATOM      3  C2  UNL d   1      -5.980   5.985   1.960  0.00  0.00     0.041 A 
ATOM      4  C3  UNL d   1      -5.987   5.294   3.188  0.00  0.00    -0.075 A 
ATOM      5  S   UNL d   1      -5.991   5.984   4.768  0.00  0.00     0.015 SA
ATOM      6  C4  UNL d   1      -6.000   4.453   5.517  0.00  0.00     0.022 A 
ATOM      7  C5  UNL d   1      -6.000   3.430   4.599  0.00  0.00     0.026 A 
ATOM      8  C6  UNL d   1      -5.992   3.898   3.241  0.00  0.00    -0.082 A 
ATOM      9  C7  UNL d   1      -5.989   3.182   2.020  0.00  0.00     0.045 A 
ENDROOT
TORSDOF 0
ENDMDL
