MODEL 1
REMARK minimizedAffinity 3.33384705
REMARK minimizedRMSD -1
REMARK  0 active torsions:
REMARK  status: ('A' for Active; 'I' for Inactive)
ROOT
ATOM      1  C   UNL d   1      -1.885  -0.638   2.275  0.00  0.00    -0.002 A 
ATOM      2  C1  UNL d   1      -0.637  -0.032   2.260  0.00  0.00     0.010 A 
ATOM      3  C2  UNL d   1       0.041   0.169   1.056  0.00  0.00     0.041 A 
ATOM      4  C3  UNL d   1      -0.564  -0.250  -0.145  0.00  0.00    -0.075 A 
ATOM      5  S   UNL d   1       0.079  -0.106  -1.738  0.00  0.00     0.015 SA
ATOM      6  C4  UNL d   1      -1.289  -0.844  -2.437  0.00  0.00     0.022 A 
ATOM      7  C5  UNL d   1      -2.223  -1.198  -1.493  0.00  0.00     0.026 A 
ATOM      8  C6  UNL d   1      -1.821  -0.861  -0.156  0.00  0.00    -0.082 A 
ATOM      9  C7  UNL d   1      -2.482  -1.053   1.081  0.00  0.00     0.045 A 
ENDROOT
TORSDOF 0
ENDMDL
