MODEL 1
REMARK minimizedAffinity -2.4422307
REMARK minimizedRMSD -1
REMARK  0 active torsions:
REMARK  status: ('A' for Active; 'I' for Inactive)
ROOT
ATOM      1  C   UNL d   1      -4.838   4.842   1.460  0.00  0.00    -0.002 A 
ATOM      2  C1  UNL d   1      -5.593   5.918   1.907  0.00  0.00     0.010 A 
ATOM      3  C2  UNL d   1      -5.996   5.997   3.242  0.00  0.00     0.041 A 
ATOM      4  C3  UNL d   1      -5.622   4.968   4.128  0.00  0.00    -0.075 A 
ATOM      5  S   UNL d   1      -6.000   4.853   5.807  0.00  0.00     0.015 SA
ATOM      6  C4  UNL d   1      -5.168   3.375   5.970  0.00  0.00     0.022 A 
ATOM      7  C5  UNL d   1      -4.609   2.964   4.782  0.00  0.00     0.026 A 
ATOM      8  C6  UNL d   1      -4.861   3.875   3.702  0.00  0.00    -0.082 A 
ATOM      9  C7  UNL d   1      -4.469   3.824   2.342  0.00  0.00     0.045 A 
ENDROOT
TORSDOF 0
ENDMDL
