MODEL 1
REMARK minimizedAffinity 1.00979221
REMARK minimizedRMSD -1
REMARK  0 active torsions:
REMARK  status: ('A' for Active; 'I' for Inactive)
ROOT
ATOM      1  C   UNL d   1      -5.611   4.525   1.444  0.00  0.00    -0.002 A 
ATOM      2  C1  UNL d   1      -5.770   5.802   1.963  0.00  0.00     0.010 A 
ATOM      3  C2  UNL d   1      -5.899   5.999   3.339  0.00  0.00     0.041 A 
ATOM      4  C3  UNL d   1      -5.863   4.880   4.194  0.00  0.00    -0.075 A 
ATOM      5  S   UNL d   1      -6.000   4.880   5.913  0.00  0.00     0.015 SA
ATOM      6  C4  UNL d   1      -5.850   3.184   5.999  0.00  0.00     0.022 A 
ATOM      7  C5  UNL d   1      -5.699   2.616   4.756  0.00  0.00     0.026 A 
ATOM      8  C6  UNL d   1      -5.703   3.584   3.695  0.00  0.00    -0.082 A 
ATOM      9  C7  UNL d   1      -5.577   3.417   2.295  0.00  0.00     0.045 A 
ENDROOT
TORSDOF 0
ENDMDL
