MODEL 1
REMARK minimizedAffinity 4.41562891
REMARK minimizedRMSD -1
REMARK  0 active torsions:
REMARK  status: ('A' for Active; 'I' for Inactive)
ROOT
ATOM      1  C   UNL d   1      -4.153   3.006   5.007  0.00  0.00    -0.002 A 
ATOM      2  C1  UNL d   1      -3.705   4.306   5.192  0.00  0.00     0.010 A 
ATOM      3  C2  UNL d   1      -3.985   5.295   4.247  0.00  0.00     0.041 A 
ATOM      4  C3  UNL d   1      -4.731   4.953   3.103  0.00  0.00    -0.075 A 
ATOM      5  S   UNL d   1      -5.195   5.998   1.813  0.00  0.00     0.015 SA
ATOM      6  C4  UNL d   1      -6.000   4.744   0.986  0.00  0.00     0.022 A 
ATOM      7  C5  UNL d   1      -5.926   3.550   1.663  0.00  0.00     0.026 A 
ATOM      8  C6  UNL d   1      -5.194   3.650   2.895  0.00  0.00    -0.082 A 
ATOM      9  C7  UNL d   1      -4.894   2.670   3.871  0.00  0.00     0.045 A 
ENDROOT
TORSDOF 0
ENDMDL
