MODEL 1
REMARK minimizedAffinity -3.18918109
REMARK minimizedRMSD -1
REMARK  0 active torsions:
REMARK  status: ('A' for Active; 'I' for Inactive)
ROOT
ATOM      1  C   UNL d   1      -6.000   1.872   4.709  0.00  0.00    -0.002 A 
ATOM      2  C1  UNL d   1      -5.995   2.866   5.677  0.00  0.00     0.010 A 
ATOM      3  C2  UNL d   1      -5.630   4.173   5.352  0.00  0.00     0.041 A 
ATOM      4  C3  UNL d   1      -5.268   4.469   4.023  0.00  0.00    -0.075 A 
ATOM      5  S   UNL d   1      -4.786   6.000   3.393  0.00  0.00     0.015 SA
ATOM      6  C4  UNL d   1      -4.576   5.371   1.823  0.00  0.00     0.022 A 
ATOM      7  C5  UNL d   1      -4.861   4.028   1.763  0.00  0.00     0.026 A 
ATOM      8  C6  UNL d   1      -5.266   3.486   3.029  0.00  0.00    -0.082 A 
ATOM      9  C7  UNL d   1      -5.640   2.169   3.391  0.00  0.00     0.045 A 
ENDROOT
TORSDOF 0
ENDMDL
