MODEL 1
REMARK minimizedAffinity -1.49098361
REMARK minimizedRMSD -1
REMARK  0 active torsions:
REMARK  status: ('A' for Active; 'I' for Inactive)
ROOT
ATOM      1  C   UNL d   1      -5.376   5.210   1.286  0.00  0.00    -0.002 A 
ATOM      2  C1  UNL d   1      -5.454   3.828   1.376  0.00  0.00     0.010 A 
ATOM      3  C2  UNL d   1      -5.640   3.206   2.613  0.00  0.00     0.041 A 
ATOM      4  C3  UNL d   1      -5.751   4.005   3.768  0.00  0.00    -0.075 A 
ATOM      5  S   UNL d   1      -5.984   3.463   5.388  0.00  0.00     0.015 SA
ATOM      6  C4  UNL d   1      -5.987   5.055   5.998  0.00  0.00     0.022 A 
ATOM      7  C5  UNL d   1      -5.816   5.989   5.004  0.00  0.00     0.026 A 
ATOM      8  C6  UNL d   1      -5.677   5.399   3.702  0.00  0.00    -0.082 A 
ATOM      9  C7  UNL d   1      -5.487   5.999   2.434  0.00  0.00     0.045 A 
ENDROOT
TORSDOF 0
ENDMDL
