MODEL 1
REMARK minimizedAffinity -3.08659816
REMARK minimizedRMSD -1
REMARK  0 active torsions:
REMARK  status: ('A' for Active; 'I' for Inactive)
ROOT
ATOM      1  C   UNL d   1      -5.388   4.084   5.956  0.00  0.00    -0.002 A 
ATOM      2  C1  UNL d   1      -4.782   5.332   5.921  0.00  0.00     0.010 A 
ATOM      3  C2  UNL d   1      -4.588   5.994   4.707  0.00  0.00     0.041 A 
ATOM      4  C3  UNL d   1      -5.020   5.376   3.517  0.00  0.00    -0.075 A 
ATOM      5  S   UNL d   1      -4.889   5.999   1.915  0.00  0.00     0.015 SA
ATOM      6  C4  UNL d   1      -5.635   4.624   1.239  0.00  0.00     0.022 A 
ATOM      7  C5  UNL d   1      -5.982   3.702   2.198  0.00  0.00     0.026 A 
ATOM      8  C6  UNL d   1      -5.634   4.120   3.527  0.00  0.00    -0.082 A 
ATOM      9  C7  UNL d   1      -5.815   3.474   4.774  0.00  0.00     0.045 A 
ENDROOT
TORSDOF 0
ENDMDL
