MODEL 1
REMARK minimizedAffinity -0.498757571
REMARK minimizedRMSD -1
REMARK  0 active torsions:
REMARK  status: ('A' for Active; 'I' for Inactive)
ROOT
ATOM      1  C   UNL d   1      -2.108  -1.895   2.060  0.00  0.00    -0.002 A 
ATOM      2  C1  UNL d   1      -0.811  -1.550   2.412  0.00  0.00     0.010 A 
ATOM      3  C2  UNL d   1       0.069  -1.033   1.460  0.00  0.00     0.041 A 
ATOM      4  C3  UNL d   1      -0.381  -0.866   0.135  0.00  0.00    -0.075 A 
ATOM      5  S   UNL d   1       0.521  -0.250  -1.199  0.00  0.00     0.015 SA
ATOM      6  C4  UNL d   1      -0.795  -0.430  -2.267  0.00  0.00     0.022 A 
ATOM      7  C5  UNL d   1      -1.903  -0.946  -1.638  0.00  0.00     0.026 A 
ATOM      8  C6  UNL d   1      -1.683  -1.205  -0.243  0.00  0.00    -0.082 A 
ATOM      9  C7  UNL d   1      -2.551  -1.728   0.746  0.00  0.00     0.045 A 
ENDROOT
TORSDOF 0
ENDMDL
