MODEL 1
REMARK minimizedAffinity -2.85904145
REMARK minimizedRMSD -1
REMARK  0 active torsions:
REMARK  status: ('A' for Active; 'I' for Inactive)
ROOT
ATOM      1  C   UNL d   1      -5.991   4.501   1.486  0.00  0.00    -0.002 A 
ATOM      2  C1  UNL d   1      -5.993   5.788   2.007  0.00  0.00     0.010 A 
ATOM      3  C2  UNL d   1      -5.806   6.000   3.374  0.00  0.00     0.041 A 
ATOM      4  C3  UNL d   1      -5.614   4.887   4.217  0.00  0.00    -0.075 A 
ATOM      5  S   UNL d   1      -5.366   4.906   5.923  0.00  0.00     0.015 SA
ATOM      6  C4  UNL d   1      -5.250   3.208   6.000  0.00  0.00     0.022 A 
ATOM      7  C5  UNL d   1      -5.395   2.624   4.763  0.00  0.00     0.026 A 
ATOM      8  C6  UNL d   1      -5.607   3.583   3.715  0.00  0.00    -0.082 A 
ATOM      9  C7  UNL d   1      -5.800   3.400   2.325  0.00  0.00     0.045 A 
ENDROOT
TORSDOF 0
ENDMDL
