MODEL 1
REMARK minimizedAffinity 8.08865643
REMARK minimizedRMSD -1
REMARK  0 active torsions:
REMARK  status: ('A' for Active; 'I' for Inactive)
ROOT
ATOM      1  C1  DEN d   1      -1.036   5.481   0.464  0.00  0.00     0.130 A 
ATOM      2  C2  DEN d   1      -1.240   5.906  -0.918  0.00  0.00    -0.031 A 
ATOM      3  C3  DEN d   1      -0.976   4.748  -1.796  0.00  0.00     0.027 A 
ATOM      4  C4  DEN d   1      -0.281   2.349  -1.151  0.00  0.00     0.027 A 
ATOM      5  C5  DEN d   1       0.027   1.514  -0.101  0.00  0.00    -0.003 A 
ATOM      6  C6  DEN d   1       0.035   1.947   1.199  0.00  0.00     0.001 A 
ATOM      7  C7  DEN d   1      -0.315   3.240   1.485  0.00  0.00     0.017 A 
ATOM      8  C8  DEN d   1      -0.619   4.091   0.430  0.00  0.00    -0.094 A 
ATOM      9  C9  DEN d   1      -0.633   3.631  -0.875  0.00  0.00    -0.072 A 
ENDROOT
TORSDOF 0
ENDMDL
