MODEL 1
REMARK minimizedAffinity 8.51722527
REMARK minimizedRMSD -1
REMARK  0 active torsions:
REMARK  status: ('A' for Active; 'I' for Inactive)
ROOT
ATOM      1  C1  DEN d   1       0.422   4.637   0.389  0.00  0.00     0.130 A 
ATOM      2  C2  DEN d   1      -0.471   4.064  -0.614  0.00  0.00    -0.031 A 
ATOM      3  C3  DEN d   1      -0.893   2.730  -0.142  0.00  0.00     0.027 A 
ATOM      4  C4  DEN d   1      -0.257   1.505   2.037  0.00  0.00     0.027 A 
ATOM      5  C5  DEN d   1       0.483   1.586   3.196  0.00  0.00    -0.003 A 
ATOM      6  C6  DEN d   1       1.275   2.666   3.482  0.00  0.00     0.001 A 
ATOM      7  C7  DEN d   1       1.310   3.730   2.619  0.00  0.00     0.017 A 
ATOM      8  C8  DEN d   1       0.572   3.652   1.445  0.00  0.00    -0.094 A 
ATOM      9  C9  DEN d   1      -0.232   2.557   1.180  0.00  0.00    -0.072 A 
ENDROOT
TORSDOF 0
ENDMDL
