MODEL 1
REMARK minimizedAffinity 2.36117387
REMARK minimizedRMSD -1
REMARK  0 active torsions:
REMARK  status: ('A' for Active; 'I' for Inactive)
ROOT
ATOM      1  C1  DEN d   1      -0.335   5.322  -0.382  0.00  0.00     0.130 A 
ATOM      2  C2  DEN d   1      -0.565   5.560  -1.804  0.00  0.00    -0.031 A 
ATOM      3  C3  DEN d   1      -0.762   4.252  -2.459  0.00  0.00     0.027 A 
ATOM      4  C4  DEN d   1      -0.738   1.893  -1.415  0.00  0.00     0.027 A 
ATOM      5  C5  DEN d   1      -0.570   1.185  -0.245  0.00  0.00    -0.003 A 
ATOM      6  C6  DEN d   1      -0.281   1.799   0.944  0.00  0.00     0.001 A 
ATOM      7  C7  DEN d   1      -0.195   3.165   1.001  0.00  0.00     0.017 A 
ATOM      8  C8  DEN d   1      -0.356   3.885  -0.176  0.00  0.00    -0.094 A 
ATOM      9  C9  DEN d   1      -0.660   3.247  -1.367  0.00  0.00    -0.072 A 
ENDROOT
TORSDOF 0
ENDMDL
