MODEL 1
REMARK minimizedAffinity 1.6436336
REMARK minimizedRMSD -1
REMARK  0 active torsions:
REMARK  status: ('A' for Active; 'I' for Inactive)
ROOT
ATOM      1  C1  DEN d   1       0.696   5.217  -0.824  0.00  0.00     0.130 A 
ATOM      2  C2  DEN d   1      -0.465   4.525  -1.376  0.00  0.00    -0.031 A 
ATOM      3  C3  DEN d   1      -0.876   3.483  -0.414  0.00  0.00     0.027 A 
ATOM      4  C4  DEN d   1       0.165   2.879   1.867  0.00  0.00     0.027 A 
ATOM      5  C5  DEN d   1       1.173   3.181   2.756  0.00  0.00    -0.003 A 
ATOM      6  C6  DEN d   1       2.106   4.151   2.501  0.00  0.00     0.001 A 
ATOM      7  C7  DEN d   1       2.023   4.886   1.348  0.00  0.00     0.017 A 
ATOM      8  C8  DEN d   1       1.013   4.583   0.443  0.00  0.00    -0.094 A 
ATOM      9  C9  DEN d   1       0.073   3.607   0.725  0.00  0.00    -0.072 A 
ENDROOT
TORSDOF 0
ENDMDL
