MODEL 1
REMARK minimizedAffinity 2.0264461
REMARK minimizedRMSD -1
REMARK  0 active torsions:
REMARK  status: ('A' for Active; 'I' for Inactive)
ROOT
ATOM      1  C1  DEN d   1      -1.377   1.336   1.123  0.00  0.00     0.130 A 
ATOM      2  C2  DEN d   1      -1.699   1.927  -0.173  0.00  0.00    -0.031 A 
ATOM      3  C3  DEN d   1      -0.841   3.115  -0.358  0.00  0.00     0.027 A 
ATOM      4  C4  DEN d   1       0.948   4.088   1.224  0.00  0.00     0.027 A 
ATOM      5  C5  DEN d   1       1.569   3.937   2.445  0.00  0.00    -0.003 A 
ATOM      6  C6  DEN d   1       1.230   2.937   3.317  0.00  0.00     0.001 A 
ATOM      7  C7  DEN d   1       0.275   2.021   2.963  0.00  0.00     0.017 A 
ATOM      8  C8  DEN d   1      -0.360   2.171   1.737  0.00  0.00    -0.094 A 
ATOM      9  C9  DEN d   1       0.005   3.181   0.864  0.00  0.00    -0.072 A 
ENDROOT
TORSDOF 0
ENDMDL
