MODEL 1
REMARK minimizedAffinity 17.6700478
REMARK minimizedRMSD -1
REMARK  0 active torsions:
REMARK  status: ('A' for Active; 'I' for Inactive)
ROOT
ATOM      1  C1  DEN d   1      -0.040   2.095  -0.590  0.00  0.00     0.130 A 
ATOM      2  C2  DEN d   1      -0.361   3.430  -1.087  0.00  0.00    -0.031 A 
ATOM      3  C3  DEN d   1      -1.708   3.382  -1.690  0.00  0.00     0.027 A 
ATOM      4  C4  DEN d   1      -3.322   1.380  -1.896  0.00  0.00     0.027 A 
ATOM      5  C5  DEN d   1      -3.486   0.039  -1.631  0.00  0.00    -0.003 A 
ATOM      6  C6  DEN d   1      -2.508  -0.713  -1.036  0.00  0.00     0.001 A 
ATOM      7  C7  DEN d   1      -1.337  -0.118  -0.645  0.00  0.00     0.017 A 
ATOM      8  C8  DEN d   1      -1.162   1.233  -0.916  0.00  0.00    -0.094 A 
ATOM      9  C9  DEN d   1      -2.168   1.979  -1.507  0.00  0.00    -0.072 A 
ENDROOT
TORSDOF 0
ENDMDL
