MODEL 1
REMARK minimizedAffinity 13.3322239
REMARK minimizedRMSD -1
REMARK  0 active torsions:
REMARK  status: ('A' for Active; 'I' for Inactive)
ROOT
ATOM      1  C1  DEN d   1      -2.951   0.568   1.072  0.00  0.00     0.130 A 
ATOM      2  C2  DEN d   1      -3.305   0.519  -0.344  0.00  0.00    -0.031 A 
ATOM      3  C3  DEN d   1      -2.316   1.325  -1.089  0.00  0.00     0.027 A 
ATOM      4  C4  DEN d   1      -0.281   2.632  -0.193  0.00  0.00     0.027 A 
ATOM      5  C5  DEN d   1       0.419   2.979   0.941  0.00  0.00    -0.003 A 
ATOM      6  C6  DEN d   1       0.029   2.578   2.191  0.00  0.00     0.001 A 
ATOM      7  C7  DEN d   1      -1.067   1.768   2.334  0.00  0.00     0.017 A 
ATOM      8  C8  DEN d   1      -1.782   1.420   1.195  0.00  0.00    -0.094 A 
ATOM      9  C9  DEN d   1      -1.365   1.825  -0.061  0.00  0.00    -0.072 A 
ENDROOT
TORSDOF 0
ENDMDL
