MODEL 1
REMARK minimizedAffinity 4.95326996
REMARK minimizedRMSD -1
REMARK  0 active torsions:
REMARK  status: ('A' for Active; 'I' for Inactive)
ROOT
ATOM      1  C1  DEN d   1      -4.058  -1.589   2.019  0.00  0.00     0.130 A 
ATOM      2  C2  DEN d   1      -4.328  -0.479   2.930  0.00  0.00    -0.031 A 
ATOM      3  C3  DEN d   1      -4.346   0.767   2.138  0.00  0.00     0.027 A 
ATOM      4  C4  DEN d   1      -3.990   1.085  -0.397  0.00  0.00     0.027 A 
ATOM      5  C5  DEN d   1      -3.719   0.437  -1.582  0.00  0.00    -0.003 A 
ATOM      6  C6  DEN d   1      -3.510  -0.915  -1.644  0.00  0.00     0.001 A 
ATOM      7  C7  DEN d   1      -3.614  -1.671  -0.507  0.00  0.00     0.017 A 
ATOM      8  C8  DEN d   1      -3.879  -1.024   0.693  0.00  0.00    -0.094 A 
ATOM      9  C9  DEN d   1      -4.099   0.342   0.734  0.00  0.00    -0.072 A 
ENDROOT
TORSDOF 0
ENDMDL
