MODEL 1
REMARK minimizedAffinity 3.95521188
REMARK minimizedRMSD -1
REMARK  0 active torsions:
REMARK  status: ('A' for Active; 'I' for Inactive)
ROOT
ATOM      1  C1  DEN d   1       1.034   1.680   1.348  0.00  0.00     0.130 A 
ATOM      2  C2  DEN d   1      -0.087   2.583   1.592  0.00  0.00    -0.031 A 
ATOM      3  C3  DEN d   1      -0.738   2.173   2.853  0.00  0.00     0.027 A 
ATOM      4  C4  DEN d   1      -0.118   0.241   4.445  0.00  0.00     0.027 A 
ATOM      5  C5  DEN d   1       0.750  -0.807   4.653  0.00  0.00    -0.003 A 
ATOM      6  C6  DEN d   1       1.745  -1.119   3.764  0.00  0.00     0.001 A 
ATOM      7  C7  DEN d   1       1.924  -0.346   2.648  0.00  0.00     0.017 A 
ATOM      8  C8  DEN d   1       1.048   0.709   2.427  0.00  0.00    -0.094 A 
ATOM      9  C9  DEN d   1       0.056   1.015   3.344  0.00  0.00    -0.072 A 
ENDROOT
TORSDOF 0
ENDMDL
