MODEL 1
REMARK minimizedAffinity 4.75351906
REMARK minimizedRMSD -1
REMARK  0 active torsions:
REMARK  status: ('A' for Active; 'I' for Inactive)
ROOT
ATOM      1  C1  DEN d   1      -0.984   3.013  -1.228  0.00  0.00     0.130 A 
ATOM      2  C2  DEN d   1       0.229   2.601  -0.527  0.00  0.00    -0.031 A 
ATOM      3  C3  DEN d   1       0.099   1.169  -0.191  0.00  0.00     0.027 A 
ATOM      4  C4  DEN d   1      -1.852  -0.443  -0.689  0.00  0.00     0.027 A 
ATOM      5  C5  DEN d   1      -3.104  -0.549  -1.253  0.00  0.00    -0.003 A 
ATOM      6  C6  DEN d   1      -3.747   0.523  -1.812  0.00  0.00     0.001 A 
ATOM      7  C7  DEN d   1      -3.120   1.740  -1.861  0.00  0.00     0.017 A 
ATOM      8  C8  DEN d   1      -1.860   1.857  -1.289  0.00  0.00    -0.094 A 
ATOM      9  C9  DEN d   1      -1.222   0.758  -0.739  0.00  0.00    -0.072 A 
ENDROOT
TORSDOF 0
ENDMDL
