MODEL 1
REMARK minimizedAffinity -3.25497961
REMARK minimizedRMSD -1
REMARK  0 active torsions:
REMARK  status: ('A' for Active; 'I' for Inactive)
ROOT
ATOM      1  C   UNL d   1      -0.006  -0.633   1.823  0.00  0.00     0.124 A 
ATOM      2  C1  UNL d   1       1.130   0.081   1.467  0.00  0.00     0.062 A 
ATOM      3  C2  UNL d   1       1.241   0.629   0.193  0.00  0.00     0.162 A 
ATOM      4  C3  UNL d   1       0.213   0.467  -0.736  0.00  0.00    -0.034 A 
ATOM      5  C4  UNL d   1      -0.926  -0.253  -0.371  0.00  0.00     0.162 A 
ATOM      6  C5  UNL d   1      -1.033  -0.800   0.904  0.00  0.00     0.062 A 
ATOM      7  F   UNL d   1      -2.131  -1.489   1.246  0.00  0.00    -0.097 F 
ATOM      8  F1  UNL d   1      -1.933  -0.429  -1.239  0.00  0.00    -0.096 F 
ATOM      9  I   UNL d   1       0.376   1.285  -2.642  0.00  0.00    -0.060 I 
ATOM     10  F2  UNL d   1       2.350   1.314  -0.123  0.00  0.00    -0.096 F 
ATOM     11  F3  UNL d   1       2.123   0.242   2.353  0.00  0.00    -0.097 F 
ATOM     12  F4  UNL d   1      -0.111  -1.161   3.050  0.00  0.00    -0.092 F 
ENDROOT
TORSDOF 0
ENDMDL
