MODEL 1
REMARK minimizedAffinity 15.2568655
REMARK minimizedRMSD -1
REMARK  0 active torsions:
REMARK  status: ('A' for Active; 'I' for Inactive)
ROOT
ATOM      1  C   UNL d   1       1.383  -2.800   0.089  0.00  0.00     0.124 A 
ATOM      2  C1  UNL d   1       1.529  -4.131   0.455  0.00  0.00     0.062 A 
ATOM      3  C2  UNL d   1       2.796  -4.661   0.682  0.00  0.00     0.162 A 
ATOM      4  C3  UNL d   1       3.929  -3.858   0.544  0.00  0.00    -0.034 A 
ATOM      5  C4  UNL d   1       3.775  -2.521   0.175  0.00  0.00     0.162 A 
ATOM      6  C5  UNL d   1       2.506  -1.997  -0.051  0.00  0.00     0.062 A 
ATOM      7  F   UNL d   1       2.368  -0.710  -0.405  0.00  0.00    -0.097 F 
ATOM      8  F1  UNL d   1       4.843  -1.722   0.033  0.00  0.00    -0.096 F 
ATOM      9  I   UNL d   1       5.825  -4.646   0.882  0.00  0.00    -0.060 I 
ATOM     10  F2  UNL d   1       2.906  -5.950   1.034  0.00  0.00    -0.096 F 
ATOM     11  F3  UNL d   1       0.445  -4.910   0.590  0.00  0.00    -0.097 F 
ATOM     12  F4  UNL d   1       0.163  -2.294  -0.130  0.00  0.00    -0.092 F 
ENDROOT
TORSDOF 0
ENDMDL
