MODEL 1
REMARK minimizedAffinity 14.850667
REMARK minimizedRMSD -1
REMARK  0 active torsions:
REMARK  status: ('A' for Active; 'I' for Inactive)
ROOT
ATOM      1  C   UNL d   1      -0.067  -1.928   1.428  0.00  0.00     0.124 A 
ATOM      2  C1  UNL d   1       1.050  -1.364   0.828  0.00  0.00     0.062 A 
ATOM      3  C2  UNL d   1       2.091  -2.175   0.386  0.00  0.00     0.162 A 
ATOM      4  C3  UNL d   1       2.021  -3.559   0.542  0.00  0.00    -0.034 A 
ATOM      5  C4  UNL d   1       0.895  -4.119   1.148  0.00  0.00     0.162 A 
ATOM      6  C5  UNL d   1      -0.144  -3.304   1.588  0.00  0.00     0.062 A 
ATOM      7  F   UNL d   1      -1.222  -3.851   2.168  0.00  0.00    -0.097 F 
ATOM      8  F1  UNL d   1       0.794  -5.446   1.314  0.00  0.00    -0.096 F 
ATOM      9  I   UNL d   1       3.576  -4.774  -0.117  0.00  0.00    -0.060 I 
ATOM     10  F2  UNL d   1       3.159  -1.602  -0.191  0.00  0.00    -0.096 F 
ATOM     11  F3  UNL d   1       1.127  -0.034   0.673  0.00  0.00    -0.097 F 
ATOM     12  F4  UNL d   1      -1.067  -1.146   1.853  0.00  0.00    -0.092 F 
ENDROOT
TORSDOF 0
ENDMDL
