MODEL 1
REMARK minimizedAffinity 6.73051071
REMARK minimizedRMSD -1
REMARK  0 active torsions:
REMARK  status: ('A' for Active; 'I' for Inactive)
ROOT
ATOM      1  C   UNL d   1      -2.286   0.755  -1.468  0.00  0.00     0.124 A 
ATOM      2  C1  UNL d   1      -2.402  -0.176  -0.445  0.00  0.00     0.062 A 
ATOM      3  C2  UNL d   1      -1.367  -1.070  -0.191  0.00  0.00     0.162 A 
ATOM      4  C3  UNL d   1      -0.205  -1.038  -0.962  0.00  0.00    -0.034 A 
ATOM      5  C4  UNL d   1      -0.096  -0.101  -1.990  0.00  0.00     0.162 A 
ATOM      6  C5  UNL d   1      -1.133   0.791  -2.240  0.00  0.00     0.062 A 
ATOM      7  F   UNL d   1      -1.019   1.689  -3.229  0.00  0.00    -0.097 F 
ATOM      8  F1  UNL d   1       1.008  -0.042  -2.751  0.00  0.00    -0.096 F 
ATOM      9  I   UNL d   1       1.346  -2.374  -0.586  0.00  0.00    -0.060 I 
ATOM     10  F2  UNL d   1      -1.506  -1.959   0.804  0.00  0.00    -0.096 F 
ATOM     11  F3  UNL d   1      -3.516  -0.214   0.301  0.00  0.00    -0.097 F 
ATOM     12  F4  UNL d   1      -3.285   1.613  -1.711  0.00  0.00    -0.092 F 
ENDROOT
TORSDOF 0
ENDMDL
