MODEL 1
REMARK minimizedAffinity 2.65420103
REMARK minimizedRMSD -1
REMARK  0 active torsions:
REMARK  status: ('A' for Active; 'I' for Inactive)
ROOT
ATOM      1  C   UNL d   1       2.828  -3.051   1.323  0.00  0.00     0.124 A 
ATOM      2  C1  UNL d   1       1.888  -2.075   1.021  0.00  0.00     0.062 A 
ATOM      3  C2  UNL d   1       2.174  -1.099   0.072  0.00  0.00     0.162 A 
ATOM      4  C3  UNL d   1       3.405  -1.093  -0.584  0.00  0.00    -0.034 A 
ATOM      5  C4  UNL d   1       4.345  -2.077  -0.275  0.00  0.00     0.162 A 
ATOM      6  C5  UNL d   1       4.055  -3.051   0.675  0.00  0.00     0.062 A 
ATOM      7  F   UNL d   1       4.964  -3.993   0.966  0.00  0.00    -0.097 F 
ATOM      8  F1  UNL d   1       5.539  -2.102  -0.886  0.00  0.00    -0.096 F 
ATOM      9  I   UNL d   1       3.835   0.365  -2.005  0.00  0.00    -0.060 I 
ATOM     10  F2  UNL d   1       1.247  -0.168  -0.200  0.00  0.00    -0.096 F 
ATOM     11  F3  UNL d   1       0.702  -2.072   1.647  0.00  0.00    -0.097 F 
ATOM     12  F4  UNL d   1       2.551  -3.989   2.238  0.00  0.00    -0.092 F 
ENDROOT
TORSDOF 0
ENDMDL
