MODEL 1
REMARK minimizedAffinity 6.05515718
REMARK minimizedRMSD -1
REMARK  0 active torsions:
REMARK  status: ('A' for Active; 'I' for Inactive)
ROOT
ATOM      1  C   UNL d   1       1.846  -2.193   1.339  0.00  0.00     0.124 A 
ATOM      2  C1  UNL d   1       2.509  -3.384   1.076  0.00  0.00     0.062 A 
ATOM      3  C2  UNL d   1       3.353  -3.941   2.033  0.00  0.00     0.162 A 
ATOM      4  C3  UNL d   1       3.538  -3.307   3.262  0.00  0.00    -0.034 A 
ATOM      5  C4  UNL d   1       2.869  -2.109   3.518  0.00  0.00     0.162 A 
ATOM      6  C5  UNL d   1       2.026  -1.557   2.559  0.00  0.00     0.062 A 
ATOM      7  F   UNL d   1       1.387  -0.407   2.814  0.00  0.00    -0.097 F 
ATOM      8  F1  UNL d   1       3.025  -1.474   4.689  0.00  0.00    -0.096 F 
ATOM      9  I   UNL d   1       4.800  -4.136   4.695  0.00  0.00    -0.060 I 
ATOM     10  F2  UNL d   1       3.981  -5.092   1.752  0.00  0.00    -0.096 F 
ATOM     11  F3  UNL d   1       2.337  -4.000  -0.102  0.00  0.00    -0.097 F 
ATOM     12  F4  UNL d   1       1.035  -1.660   0.416  0.00  0.00    -0.092 F 
ENDROOT
TORSDOF 0
ENDMDL
