MODEL 1
REMARK minimizedAffinity 9.68105602
REMARK minimizedRMSD -1
REMARK  0 active torsions:
REMARK  status: ('A' for Active; 'I' for Inactive)
ROOT
ATOM      1  C   UNL d   1       0.424  -1.727   2.388  0.00  0.00     0.124 A 
ATOM      2  C1  UNL d   1       0.376  -0.367   2.660  0.00  0.00     0.062 A 
ATOM      3  C2  UNL d   1       1.267   0.503   2.038  0.00  0.00     0.162 A 
ATOM      4  C3  UNL d   1       2.214   0.016   1.138  0.00  0.00    -0.034 A 
ATOM      5  C4  UNL d   1       2.257  -1.354   0.870  0.00  0.00     0.162 A 
ATOM      6  C5  UNL d   1       1.364  -2.219   1.493  0.00  0.00     0.062 A 
ATOM      7  F   UNL d   1       1.412  -3.533   1.229  0.00  0.00    -0.097 F 
ATOM      8  F1  UNL d   1       3.155  -1.856   0.009  0.00  0.00    -0.096 F 
ATOM      9  I   UNL d   1       3.549   1.313   0.207  0.00  0.00    -0.060 I 
ATOM     10  F2  UNL d   1       1.198   1.813   2.320  0.00  0.00    -0.096 F 
ATOM     11  F3  UNL d   1      -0.531   0.111   3.524  0.00  0.00    -0.097 F 
ATOM     12  F4  UNL d   1      -0.434  -2.562   2.988  0.00  0.00    -0.092 F 
ENDROOT
TORSDOF 0
ENDMDL
