MODEL 1
REMARK minimizedAffinity 13.7218523
REMARK minimizedRMSD -1
REMARK  0 active torsions:
REMARK  status: ('A' for Active; 'I' for Inactive)
ROOT
ATOM      1  C   UNL d   1       4.291   5.740   2.379  0.00  0.00     0.124 A 
ATOM      2  C1  UNL d   1       4.693   5.778   3.707  0.00  0.00     0.062 A 
ATOM      3  C2  UNL d   1       3.745   5.811   4.725  0.00  0.00     0.162 A 
ATOM      4  C3  UNL d   1       2.384   5.805   4.420  0.00  0.00    -0.034 A 
ATOM      5  C4  UNL d   1       1.987   5.767   3.082  0.00  0.00     0.162 A 
ATOM      6  C5  UNL d   1       2.938   5.735   2.068  0.00  0.00     0.062 A 
ATOM      7  F   UNL d   1       2.548   5.698   0.786  0.00  0.00    -0.097 F 
ATOM      8  F1  UNL d   1       0.686   5.761   2.753  0.00  0.00    -0.096 F 
ATOM      9  I   UNL d   1       0.962   5.854   5.939  0.00  0.00    -0.060 I 
ATOM     10  F2  UNL d   1       4.162   5.847   5.999  0.00  0.00    -0.096 F 
ATOM     11  F3  UNL d   1       5.999   5.784   4.010  0.00  0.00    -0.097 F 
ATOM     12  F4  UNL d   1       5.205   5.709   1.401  0.00  0.00    -0.092 F 
ENDROOT
TORSDOF 0
ENDMDL
