MODEL 1
REMARK minimizedAffinity 2.28057599
REMARK minimizedRMSD -1
REMARK  0 active torsions:
REMARK  status: ('A' for Active; 'I' for Inactive)
ROOT
ATOM      1  C   UNL d   1      -0.058  -1.421   1.500  0.00  0.00     0.124 A 
ATOM      2  C1  UNL d   1      -1.304  -0.808   1.522  0.00  0.00     0.062 A 
ATOM      3  C2  UNL d   1      -1.920  -0.434   0.332  0.00  0.00     0.162 A 
ATOM      4  C3  UNL d   1      -1.293  -0.672  -0.891  0.00  0.00    -0.034 A 
ATOM      5  C4  UNL d   1      -0.040  -1.288  -0.905  0.00  0.00     0.162 A 
ATOM      6  C5  UNL d   1       0.572  -1.660   0.287  0.00  0.00     0.062 A 
ATOM      7  F   UNL d   1       1.775  -2.252   0.264  0.00  0.00    -0.097 F 
ATOM      8  F1  UNL d   1       0.591  -1.532  -2.063  0.00  0.00    -0.096 F 
ATOM      9  I   UNL d   1      -2.212  -0.114  -2.673  0.00  0.00    -0.060 I 
ATOM     10  F2  UNL d   1      -3.124   0.156   0.383  0.00  0.00    -0.096 F 
ATOM     11  F3  UNL d   1      -1.914  -0.576   2.693  0.00  0.00    -0.097 F 
ATOM     12  F4  UNL d   1       0.534  -1.779   2.647  0.00  0.00    -0.092 F 
ENDROOT
TORSDOF 0
ENDMDL
