MODEL 1
REMARK minimizedAffinity -2.49970436
REMARK minimizedRMSD -1
REMARK  0 active torsions:
REMARK  status: ('A' for Active; 'I' for Inactive)
ROOT
ATOM      1  C   UNL d   1      -5.995   3.053   5.190  0.00  0.00     0.172 C 
ATOM      2  N   UNL d   1      -5.782   4.039   4.157  0.00  0.00    -0.070 N 
ATOM      3  C1  UNL d   1      -5.753   5.396   4.341  0.00  0.00    -0.004 A 
ATOM      4  C2  UNL d   1      -5.526   5.983   3.116  0.00  0.00    -0.047 A 
ATOM      5  C3  UNL d   1      -5.415   4.944   2.161  0.00  0.00    -0.047 A 
ATOM      6  C4  UNL d   1      -5.578   3.751   2.833  0.00  0.00    -0.004 A 
ENDROOT
TORSDOF 0
ENDMDL
