MODEL 1
REMARK minimizedAffinity -1.35128713
REMARK minimizedRMSD -1
REMARK  0 active torsions:
REMARK  status: ('A' for Active; 'I' for Inactive)
ROOT
ATOM      1  C   UNL d   1      -5.857   4.864   2.859  0.00  0.00     0.172 C 
ATOM      2  N   UNL d   1      -5.431   4.033   3.960  0.00  0.00    -0.070 N 
ATOM      3  C1  UNL d   1      -5.190   2.686   3.898  0.00  0.00    -0.004 A 
ATOM      4  C2  UNL d   1      -4.805   2.268   5.153  0.00  0.00    -0.047 A 
ATOM      5  C3  UNL d   1      -4.815   3.402   5.999  0.00  0.00    -0.047 A 
ATOM      6  C4  UNL d   1      -5.206   4.481   5.235  0.00  0.00    -0.004 A 
ENDROOT
TORSDOF 0
ENDMDL
