MODEL 1
REMARK minimizedAffinity -2.10095668
REMARK minimizedRMSD -1
REMARK  0 active torsions:
REMARK  status: ('A' for Active; 'I' for Inactive)
ROOT
ATOM      1  C   UNL d   1      -4.481   3.700   2.580  0.00  0.00     0.172 C 
ATOM      2  N   UNL d   1      -4.170   3.262   3.921  0.00  0.00    -0.070 N 
ATOM      3  C1  UNL d   1      -2.916   3.188   4.466  0.00  0.00    -0.004 A 
ATOM      4  C2  UNL d   1      -3.044   2.726   5.758  0.00  0.00    -0.047 A 
ATOM      5  C3  UNL d   1      -4.422   2.514   5.997  0.00  0.00    -0.047 A 
ATOM      6  C4  UNL d   1      -5.096   2.854   4.843  0.00  0.00    -0.004 A 
ENDROOT
TORSDOF 0
ENDMDL
