MODEL 1
REMARK minimizedAffinity -2.00238943
REMARK minimizedRMSD -1
REMARK  0 active torsions:
REMARK  status: ('A' for Active; 'I' for Inactive)
ROOT
ATOM      1  C   UNL d   1      -5.975   3.394   4.876  0.00  0.00     0.172 C 
ATOM      2  N   UNL d   1      -5.981   4.197   3.675  0.00  0.00    -0.070 N 
ATOM      3  C1  UNL d   1      -5.971   5.566   3.630  0.00  0.00    -0.004 A 
ATOM      4  C2  UNL d   1      -5.981   5.944   2.305  0.00  0.00    -0.047 A 
ATOM      5  C3  UNL d   1      -6.000   4.762   1.527  0.00  0.00    -0.047 A 
ATOM      6  C4  UNL d   1      -5.999   3.696   2.401  0.00  0.00    -0.004 A 
ENDROOT
TORSDOF 0
ENDMDL
