MODEL 1
REMARK minimizedAffinity -2.62052655
REMARK minimizedRMSD -1
REMARK  0 active torsions:
REMARK  status: ('A' for Active; 'I' for Inactive)
ROOT
ATOM      1  C   UNL d   1      -5.271   5.471   5.565  0.00  0.00     0.172 C 
ATOM      2  N   UNL d   1      -5.365   4.696   4.350  0.00  0.00    -0.070 N 
ATOM      3  C1  UNL d   1      -5.171   5.174   3.081  0.00  0.00    -0.004 A 
ATOM      4  C2  UNL d   1      -5.349   4.127   2.204  0.00  0.00    -0.047 A 
ATOM      5  C3  UNL d   1      -5.663   2.980   2.971  0.00  0.00    -0.047 A 
ATOM      6  C4  UNL d   1      -5.666   3.361   4.296  0.00  0.00    -0.004 A 
ENDROOT
TORSDOF 0
ENDMDL
