MODEL 1
REMARK minimizedAffinity -2.17004418
REMARK minimizedRMSD -1
REMARK  0 active torsions:
REMARK  status: ('A' for Active; 'I' for Inactive)
ROOT
ATOM      1  C   UNL d   1      -5.526   3.047   5.250  0.00  0.00     0.172 C 
ATOM      2  N   UNL d   1      -5.586   4.054   4.217  0.00  0.00    -0.070 N 
ATOM      3  C1  UNL d   1      -5.249   3.870   2.903  0.00  0.00    -0.004 A 
ATOM      4  C2  UNL d   1      -5.445   5.065   2.245  0.00  0.00    -0.047 A 
ATOM      5  C3  UNL d   1      -5.916   6.000   3.197  0.00  0.00    -0.047 A 
ATOM      6  C4  UNL d   1      -5.994   5.348   4.409  0.00  0.00    -0.004 A 
ENDROOT
TORSDOF 0
ENDMDL
