MODEL 1
REMARK minimizedAffinity -1.95512187
REMARK minimizedRMSD -1
REMARK  0 active torsions:
REMARK  status: ('A' for Active; 'I' for Inactive)
ROOT
ATOM      1  C   UNL d   1      -5.556   4.315   5.466  0.00  0.00     0.172 C 
ATOM      2  N   UNL d   1      -5.516   4.723   4.082  0.00  0.00    -0.070 N 
ATOM      3  C1  UNL d   1      -5.699   6.000   3.621  0.00  0.00    -0.004 A 
ATOM      4  C2  UNL d   1      -5.585   5.973   2.248  0.00  0.00    -0.047 A 
ATOM      5  C3  UNL d   1      -5.326   4.634   1.870  0.00  0.00    -0.047 A 
ATOM      6  C4  UNL d   1      -5.288   3.882   3.025  0.00  0.00    -0.004 A 
ENDROOT
TORSDOF 0
ENDMDL
