MODEL 1
REMARK minimizedAffinity -0.885610163
REMARK minimizedRMSD -1
REMARK  0 active torsions:
REMARK  status: ('A' for Active; 'I' for Inactive)
ROOT
ATOM      1  C   UNL d   1      -5.844   5.858   0.556  0.00  0.00     0.172 C 
ATOM      2  N   UNL d   1      -5.591   5.385   1.897  0.00  0.00    -0.070 N 
ATOM      3  C1  UNL d   1      -6.000   5.999   3.051  0.00  0.00    -0.004 A 
ATOM      4  C2  UNL d   1      -5.563   5.236   4.112  0.00  0.00    -0.047 A 
ATOM      5  C3  UNL d   1      -4.867   4.126   3.578  0.00  0.00    -0.047 A 
ATOM      6  C4  UNL d   1      -4.899   4.243   2.205  0.00  0.00    -0.004 A 
ENDROOT
TORSDOF 0
ENDMDL
