MODEL 1
REMARK minimizedAffinity 0.850450575
REMARK minimizedRMSD -1
REMARK  0 active torsions:
REMARK  status: ('A' for Active; 'I' for Inactive)
ROOT
ATOM      1  C   UNL d   1      -5.850   5.998   2.699  0.00  0.00     0.172 C 
ATOM      2  N   UNL d   1      -5.783   5.360   1.405  0.00  0.00    -0.070 N 
ATOM      3  C1  UNL d   1      -5.613   6.000   0.207  0.00  0.00    -0.004 A 
ATOM      4  C2  UNL d   1      -5.602   5.043  -0.785  0.00  0.00    -0.047 A 
ATOM      5  C3  UNL d   1      -5.773   3.784  -0.161  0.00  0.00    -0.047 A 
ATOM      6  C4  UNL d   1      -5.882   4.009   1.195  0.00  0.00    -0.004 A 
ENDROOT
TORSDOF 0
ENDMDL
