MODEL 1
REMARK minimizedAffinity -1.82077944
REMARK minimizedRMSD -1
REMARK  0 active torsions:
REMARK  status: ('A' for Active; 'I' for Inactive)
ROOT
ATOM      1  C   UNL d   1      -5.238   5.954   0.786  0.00  0.00     0.172 C 
ATOM      2  N   UNL d   1      -5.163   5.352   2.096  0.00  0.00    -0.070 N 
ATOM      3  C1  UNL d   1      -5.366   6.000   3.285  0.00  0.00    -0.004 A 
ATOM      4  C2  UNL d   1      -5.205   5.081   4.299  0.00  0.00    -0.047 A 
ATOM      5  C3  UNL d   1      -4.894   3.838   3.699  0.00  0.00    -0.047 A 
ATOM      6  C4  UNL d   1      -4.874   4.034   2.334  0.00  0.00    -0.004 A 
ENDROOT
TORSDOF 0
ENDMDL
