MODEL 1
REMARK minimizedAffinity -1.78265274
REMARK minimizedRMSD -1
REMARK  0 active torsions:
REMARK  status: ('A' for Active; 'I' for Inactive)
ROOT
ATOM      1  C   UNL d   1      -5.505   5.513   2.342  0.00  0.00     0.172 C 
ATOM      2  N   UNL d   1      -5.629   5.131   3.729  0.00  0.00    -0.070 N 
ATOM      3  C1  UNL d   1      -6.000   5.958   4.755  0.00  0.00    -0.004 A 
ATOM      4  C2  UNL d   1      -5.998   5.216   5.917  0.00  0.00    -0.047 A 
ATOM      5  C3  UNL d   1      -5.612   3.898   5.577  0.00  0.00    -0.047 A 
ATOM      6  C4  UNL d   1      -5.389   3.873   4.217  0.00  0.00    -0.004 A 
ENDROOT
TORSDOF 0
ENDMDL
