MODEL 1
REMARK minimizedAffinity -2.37501431
REMARK minimizedRMSD -1
REMARK  0 active torsions:
REMARK  status: ('A' for Active; 'I' for Inactive)
ROOT
ATOM      1  C   UNL d   1      -4.876   2.751   4.828  0.00  0.00     0.172 C 
ATOM      2  N   UNL d   1      -5.132   3.997   4.143  0.00  0.00    -0.070 N 
ATOM      3  C1  UNL d   1      -4.553   4.395   2.968  0.00  0.00    -0.004 A 
ATOM      4  C2  UNL d   1      -5.058   5.637   2.649  0.00  0.00    -0.047 A 
ATOM      5  C3  UNL d   1      -5.972   5.997   3.667  0.00  0.00    -0.047 A 
ATOM      6  C4  UNL d   1      -5.998   4.964   4.580  0.00  0.00    -0.004 A 
ENDROOT
TORSDOF 0
ENDMDL
