MODEL 1
REMARK minimizedAffinity -2.14260125
REMARK minimizedRMSD -1
REMARK  0 active torsions:
REMARK  status: ('A' for Active; 'I' for Inactive)
ROOT
ATOM      1  C   UNL d   1      -5.286   5.089   2.442  0.00  0.00     0.172 C 
ATOM      2  N   UNL d   1      -5.489   4.979   3.867  0.00  0.00    -0.070 N 
ATOM      3  C1  UNL d   1      -5.944   5.976   4.688  0.00  0.00    -0.004 A 
ATOM      4  C2  UNL d   1      -6.000   5.475   5.970  0.00  0.00    -0.047 A 
ATOM      5  C3  UNL d   1      -5.562   4.131   5.919  0.00  0.00    -0.047 A 
ATOM      6  C4  UNL d   1      -5.252   3.850   4.605  0.00  0.00    -0.004 A 
ENDROOT
TORSDOF 0
ENDMDL
