MODEL 1
REMARK minimizedAffinity -2.36566138
REMARK minimizedRMSD -1
REMARK  0 active torsions:
REMARK  status: ('A' for Active; 'I' for Inactive)
ROOT
ATOM      1  C   UNL d   1      -4.703   5.984   2.192  0.00  0.00     0.172 C 
ATOM      2  N   UNL d   1      -4.919   5.402   3.495  0.00  0.00    -0.070 N 
ATOM      3  C1  UNL d   1      -4.467   4.176   3.907  0.00  0.00    -0.004 A 
ATOM      4  C2  UNL d   1      -4.879   3.990   5.208  0.00  0.00    -0.047 A 
ATOM      5  C3  UNL d   1      -5.605   5.142   5.592  0.00  0.00    -0.047 A 
ATOM      6  C4  UNL d   1      -5.614   6.000   4.513  0.00  0.00    -0.004 A 
ENDROOT
TORSDOF 0
ENDMDL
