MODEL 1
REMARK minimizedAffinity 22.8891258
REMARK minimizedRMSD -1
REMARK  0 active torsions:
REMARK  status: ('A' for Active; 'I' for Inactive)
ROOT
ATOM      1  C   UNL d   1      -1.622  -1.679  -0.893  0.00  0.00     0.124 A 
ATOM      2  C1  UNL d   1      -2.062  -1.587   0.420  0.00  0.00     0.062 A 
ATOM      3  C2  UNL d   1      -1.805  -2.618   1.319  0.00  0.00     0.162 A 
ATOM      4  C3  UNL d   1      -1.102  -3.751   0.907  0.00  0.00    -0.034 A 
ATOM      5  C4  UNL d   1      -0.663  -3.837  -0.415  0.00  0.00     0.162 A 
ATOM      6  C5  UNL d   1      -0.923  -2.803  -1.309  0.00  0.00     0.062 A 
ATOM      7  F   UNL d   1      -0.497  -2.894  -2.577  0.00  0.00    -0.097 F 
ATOM      8  F1  UNL d   1       0.016  -4.911  -0.844  0.00  0.00    -0.096 F 
ATOM      9  I   UNL d   1      -0.715  -5.295   2.248  0.00  0.00    -0.060 I 
ATOM     10  F2  UNL d   1      -2.242  -2.503   2.581  0.00  0.00    -0.096 F 
ATOM     11  F3  UNL d   1      -2.739  -0.502   0.825  0.00  0.00    -0.097 F 
ATOM     12  F4  UNL d   1      -1.872  -0.686  -1.756  0.00  0.00    -0.092 F 
ENDROOT
TORSDOF 0
ENDMDL
