MODEL 1
REMARK minimizedAffinity 9.55742455
REMARK minimizedRMSD -1
REMARK  0 active torsions:
REMARK  status: ('A' for Active; 'I' for Inactive)
ROOT
ATOM      1  C   UNL d   1      -1.381  -2.910   1.879  0.00  0.00     0.124 A 
ATOM      2  C1  UNL d   1      -2.089  -1.854   1.322  0.00  0.00     0.062 A 
ATOM      3  C2  UNL d   1      -2.281  -1.789  -0.055  0.00  0.00     0.162 A 
ATOM      4  C3  UNL d   1      -1.766  -2.784  -0.886  0.00  0.00    -0.034 A 
ATOM      5  C4  UNL d   1      -1.054  -3.842  -0.318  0.00  0.00     0.162 A 
ATOM      6  C5  UNL d   1      -0.864  -3.903   1.058  0.00  0.00     0.062 A 
ATOM      7  F   UNL d   1      -0.180  -4.924   1.594  0.00  0.00    -0.097 F 
ATOM      8  F1  UNL d   1      -0.545  -4.816  -1.088  0.00  0.00    -0.096 F 
ATOM      9  I   UNL d   1      -2.052  -2.690  -2.945  0.00  0.00    -0.060 I 
ATOM     10  F2  UNL d   1      -2.969  -0.757  -0.566  0.00  0.00    -0.096 F 
ATOM     11  F3  UNL d   1      -2.588  -0.892   2.112  0.00  0.00    -0.097 F 
ATOM     12  F4  UNL d   1      -1.196  -2.969   3.204  0.00  0.00    -0.092 F 
ENDROOT
TORSDOF 0
ENDMDL
