MODEL 1
REMARK minimizedAffinity 19.4181862
REMARK minimizedRMSD -1
REMARK  0 active torsions:
REMARK  status: ('A' for Active; 'I' for Inactive)
ROOT
ATOM      1  C   UNL d   1      -1.130  -2.991   1.482  0.00  0.00     0.124 A 
ATOM      2  C1  UNL d   1      -1.332  -3.438   2.780  0.00  0.00     0.062 A 
ATOM      3  C2  UNL d   1      -1.434  -2.526   3.827  0.00  0.00     0.162 A 
ATOM      4  C3  UNL d   1      -1.335  -1.157   3.579  0.00  0.00    -0.034 A 
ATOM      5  C4  UNL d   1      -1.131  -0.715   2.271  0.00  0.00     0.162 A 
ATOM      6  C5  UNL d   1      -1.030  -1.631   1.228  0.00  0.00     0.062 A 
ATOM      7  F   UNL d   1      -0.834  -1.197  -0.026  0.00  0.00    -0.097 F 
ATOM      8  F1  UNL d   1      -1.031   0.594   1.997  0.00  0.00    -0.096 F 
ATOM      9  I   UNL d   1      -1.487   0.210   5.141  0.00  0.00    -0.060 I 
ATOM     10  F2  UNL d   1      -1.629  -2.986   5.071  0.00  0.00    -0.096 F 
ATOM     11  F3  UNL d   1      -1.428  -4.753   3.028  0.00  0.00    -0.097 F 
ATOM     12  F4  UNL d   1      -1.031  -3.871   0.477  0.00  0.00    -0.092 F 
ENDROOT
TORSDOF 0
ENDMDL
