MODEL 1
REMARK minimizedAffinity 22.42342
REMARK minimizedRMSD -1
REMARK  0 active torsions:
REMARK  status: ('A' for Active; 'I' for Inactive)
ROOT
ATOM      1  C   UNL d   1      -2.078  -1.732  -1.360  0.00  0.00     0.124 A 
ATOM      2  C1  UNL d   1      -1.366  -2.869  -1.714  0.00  0.00     0.062 A 
ATOM      3  C2  UNL d   1      -0.889  -3.731  -0.730  0.00  0.00     0.162 A 
ATOM      4  C3  UNL d   1      -1.123  -3.458   0.618  0.00  0.00    -0.034 A 
ATOM      5  C4  UNL d   1      -1.840  -2.312   0.966  0.00  0.00     0.162 A 
ATOM      6  C5  UNL d   1      -2.314  -1.454  -0.021  0.00  0.00     0.062 A 
ATOM      7  F   UNL d   1      -3.002  -0.356   0.323  0.00  0.00    -0.097 F 
ATOM      8  F1  UNL d   1      -2.083  -2.020   2.252  0.00  0.00    -0.096 F 
ATOM      9  I   UNL d   1      -0.411  -4.744   2.092  0.00  0.00    -0.060 I 
ATOM     10  F2  UNL d   1      -0.203  -4.822  -1.101  0.00  0.00    -0.096 F 
ATOM     11  F3  UNL d   1      -1.136  -3.139  -3.007  0.00  0.00    -0.097 F 
ATOM     12  F4  UNL d   1      -2.536  -0.904  -2.308  0.00  0.00    -0.092 F 
ENDROOT
TORSDOF 0
ENDMDL
