MODEL 1
REMARK minimizedAffinity 5.91548824
REMARK minimizedRMSD -1
REMARK  0 active torsions:
REMARK  status: ('A' for Active; 'I' for Inactive)
ROOT
ATOM      1  C   UNL d   1      -1.573  -3.363  -1.068  0.00  0.00     0.124 A 
ATOM      2  C1  UNL d   1      -1.262  -4.330  -0.122  0.00  0.00     0.062 A 
ATOM      3  C2  UNL d   1      -1.033  -3.965   1.202  0.00  0.00     0.162 A 
ATOM      4  C3  UNL d   1      -1.116  -2.627   1.588  0.00  0.00    -0.034 A 
ATOM      5  C4  UNL d   1      -1.428  -1.661   0.630  0.00  0.00     0.162 A 
ATOM      6  C5  UNL d   1      -1.656  -2.030  -0.691  0.00  0.00     0.062 A 
ATOM      7  F   UNL d   1      -1.957  -1.095  -1.604  0.00  0.00    -0.097 F 
ATOM      8  F1  UNL d   1      -1.516  -0.365   0.967  0.00  0.00    -0.096 F 
ATOM      9  I   UNL d   1      -0.774  -2.078   3.566  0.00  0.00    -0.060 I 
ATOM     10  F2  UNL d   1      -0.734  -4.920   2.095  0.00  0.00    -0.096 F 
ATOM     11  F3  UNL d   1      -1.180  -5.618  -0.483  0.00  0.00    -0.097 F 
ATOM     12  F4  UNL d   1      -1.792  -3.716  -2.341  0.00  0.00    -0.092 F 
ENDROOT
TORSDOF 0
ENDMDL
