MODEL 1
REMARK minimizedAffinity 27.0723343
REMARK minimizedRMSD -1
REMARK  0 active torsions:
REMARK  status: ('A' for Active; 'I' for Inactive)
ROOT
ATOM      1  C   UNL d   1      -1.135  -2.844   2.105  0.00  0.00     0.124 A 
ATOM      2  C1  UNL d   1      -0.919  -3.706   1.038  0.00  0.00     0.062 A 
ATOM      3  C2  UNL d   1      -0.758  -3.200  -0.249  0.00  0.00     0.162 A 
ATOM      4  C3  UNL d   1      -0.812  -1.825  -0.476  0.00  0.00    -0.034 A 
ATOM      5  C4  UNL d   1      -1.031  -0.965   0.601  0.00  0.00     0.162 A 
ATOM      6  C5  UNL d   1      -1.191  -1.475   1.886  0.00  0.00     0.062 A 
ATOM      7  F   UNL d   1      -1.400  -0.641   2.915  0.00  0.00    -0.097 F 
ATOM      8  F1  UNL d   1      -1.089   0.363   0.418  0.00  0.00    -0.096 F 
ATOM      9  I   UNL d   1      -0.573  -1.064  -2.399  0.00  0.00    -0.060 I 
ATOM     10  F2  UNL d   1      -0.550  -4.055  -1.261  0.00  0.00    -0.096 F 
ATOM     11  F3  UNL d   1      -0.865  -5.029   1.247  0.00  0.00    -0.097 F 
ATOM     12  F4  UNL d   1      -1.290  -3.334   3.342  0.00  0.00    -0.092 F 
ENDROOT
TORSDOF 0
ENDMDL
