MODEL 1
REMARK minimizedAffinity 13.6438036
REMARK minimizedRMSD -1
REMARK  0 active torsions:
REMARK  status: ('A' for Active; 'I' for Inactive)
ROOT
ATOM      1  C   UNL d   1      -0.926  -3.309  -0.005  0.00  0.00     0.124 A 
ATOM      2  C1  UNL d   1      -1.267  -1.968   0.098  0.00  0.00     0.062 A 
ATOM      3  C2  UNL d   1      -1.540  -1.409   1.343  0.00  0.00     0.162 A 
ATOM      4  C3  UNL d   1      -1.472  -2.191   2.496  0.00  0.00    -0.034 A 
ATOM      5  C4  UNL d   1      -1.130  -3.539   2.384  0.00  0.00     0.162 A 
ATOM      6  C5  UNL d   1      -0.857  -4.094   1.138  0.00  0.00     0.062 A 
ATOM      7  F   UNL d   1      -0.528  -5.390   1.040  0.00  0.00    -0.097 F 
ATOM      8  F1  UNL d   1      -1.056  -4.320   3.472  0.00  0.00    -0.096 F 
ATOM      9  I   UNL d   1      -1.880  -1.358   4.359  0.00  0.00    -0.060 I 
ATOM     10  F2  UNL d   1      -1.867  -0.110   1.412  0.00  0.00    -0.096 F 
ATOM     11  F3  UNL d   1      -1.334  -1.208  -1.005  0.00  0.00    -0.097 F 
ATOM     12  F4  UNL d   1      -0.664  -3.845  -1.204  0.00  0.00    -0.092 F 
ENDROOT
TORSDOF 0
ENDMDL
