MODEL 1
REMARK minimizedAffinity 17.9182148
REMARK minimizedRMSD -1
REMARK  0 active torsions:
REMARK  status: ('A' for Active; 'I' for Inactive)
ROOT
ATOM      1  C   UNL d   1      -1.741  -3.249  -0.359  0.00  0.00     0.124 A 
ATOM      2  C1  UNL d   1      -0.981  -4.061   0.470  0.00  0.00     0.062 A 
ATOM      3  C2  UNL d   1      -0.685  -3.655   1.768  0.00  0.00     0.162 A 
ATOM      4  C3  UNL d   1      -1.151  -2.430   2.245  0.00  0.00    -0.034 A 
ATOM      5  C4  UNL d   1      -1.915  -1.618   1.405  0.00  0.00     0.162 A 
ATOM      6  C5  UNL d   1      -2.208  -2.028   0.109  0.00  0.00     0.062 A 
ATOM      7  F   UNL d   1      -2.943  -1.242  -0.692  0.00  0.00    -0.097 F 
ATOM      8  F1  UNL d   1      -2.379  -0.434   1.832  0.00  0.00    -0.096 F 
ATOM      9  I   UNL d   1      -0.712  -1.818   4.186  0.00  0.00    -0.060 I 
ATOM     10  F2  UNL d   1       0.052  -4.460   2.548  0.00  0.00    -0.096 F 
ATOM     11  F3  UNL d   1      -0.528  -5.240   0.020  0.00  0.00    -0.097 F 
ATOM     12  F4  UNL d   1      -2.024  -3.642  -1.608  0.00  0.00    -0.092 F 
ENDROOT
TORSDOF 0
ENDMDL
