MODEL 1
REMARK minimizedAffinity 11.6186314
REMARK minimizedRMSD -1
REMARK  0 active torsions:
REMARK  status: ('A' for Active; 'I' for Inactive)
ROOT
ATOM      1  C   UNL d   1      -1.079  -2.733   1.705  0.00  0.00     0.124 A 
ATOM      2  C1  UNL d   1      -0.791  -3.814   0.882  0.00  0.00     0.062 A 
ATOM      3  C2  UNL d   1      -1.097  -3.761  -0.474  0.00  0.00     0.162 A 
ATOM      4  C3  UNL d   1      -1.694  -2.624  -1.018  0.00  0.00    -0.034 A 
ATOM      5  C4  UNL d   1      -1.981  -1.542  -0.184  0.00  0.00     0.162 A 
ATOM      6  C5  UNL d   1      -1.674  -1.599   1.171  0.00  0.00     0.062 A 
ATOM      7  F   UNL d   1      -1.953  -0.554   1.964  0.00  0.00    -0.097 F 
ATOM      8  F1  UNL d   1      -2.555  -0.433  -0.674  0.00  0.00    -0.096 F 
ATOM      9  I   UNL d   1      -2.153  -2.542  -3.046  0.00  0.00    -0.060 I 
ATOM     10  F2  UNL d   1      -0.807  -4.820  -1.245  0.00  0.00    -0.096 F 
ATOM     11  F3  UNL d   1      -0.217  -4.911   1.396  0.00  0.00    -0.097 F 
ATOM     12  F4  UNL d   1      -0.785  -2.786   3.010  0.00  0.00    -0.092 F 
ENDROOT
TORSDOF 0
ENDMDL
