MODEL 1
REMARK minimizedAffinity 9.93540764
REMARK minimizedRMSD -1
REMARK  0 active torsions:
REMARK  status: ('A' for Active; 'I' for Inactive)
ROOT
ATOM      1  C   UNL d   1      -1.628  -3.021  -0.944  0.00  0.00     0.124 A 
ATOM      2  C1  UNL d   1      -1.979  -1.758  -0.489  0.00  0.00     0.062 A 
ATOM      3  C2  UNL d   1      -1.787  -1.416   0.846  0.00  0.00     0.162 A 
ATOM      4  C3  UNL d   1      -1.238  -2.339   1.737  0.00  0.00    -0.034 A 
ATOM      5  C4  UNL d   1      -0.888  -3.608   1.273  0.00  0.00     0.162 A 
ATOM      6  C5  UNL d   1      -1.082  -3.945  -0.063  0.00  0.00     0.062 A 
ATOM      7  F   UNL d   1      -0.742  -5.166  -0.501  0.00  0.00    -0.097 F 
ATOM      8  F1  UNL d   1      -0.358  -4.519   2.102  0.00  0.00    -0.096 F 
ATOM      9  I   UNL d   1      -0.948  -1.831   3.735  0.00  0.00    -0.060 I 
ATOM     10  F2  UNL d   1      -2.135  -0.188   1.258  0.00  0.00    -0.096 F 
ATOM     11  F3  UNL d   1      -2.507  -0.864  -1.338  0.00  0.00    -0.097 F 
ATOM     12  F4  UNL d   1      -1.815  -3.348  -2.229  0.00  0.00    -0.092 F 
ENDROOT
TORSDOF 0
ENDMDL
