MODEL 1
REMARK minimizedAffinity 22.4028149
REMARK minimizedRMSD -1
REMARK  0 active torsions:
REMARK  status: ('A' for Active; 'I' for Inactive)
ROOT
ATOM      1  C   UNL d   1      -0.968  -2.274   2.237  0.00  0.00     0.124 A 
ATOM      2  C1  UNL d   1      -1.109  -1.232   3.143  0.00  0.00     0.062 A 
ATOM      3  C2  UNL d   1      -1.638  -0.013   2.732  0.00  0.00     0.162 A 
ATOM      4  C3  UNL d   1      -2.032   0.172   1.406  0.00  0.00    -0.034 A 
ATOM      5  C4  UNL d   1      -1.887  -0.880   0.500  0.00  0.00     0.162 A 
ATOM      6  C5  UNL d   1      -1.357  -2.097   0.916  0.00  0.00     0.062 A 
ATOM      7  F   UNL d   1      -1.222  -3.102   0.039  0.00  0.00    -0.097 F 
ATOM      8  F1  UNL d   1      -2.255  -0.736  -0.782  0.00  0.00    -0.096 F 
ATOM      9  I   UNL d   1      -2.824   1.994   0.787  0.00  0.00    -0.060 I 
ATOM     10  F2  UNL d   1      -1.763   0.976   3.629  0.00  0.00    -0.096 F 
ATOM     11  F3  UNL d   1      -0.733  -1.401   4.419  0.00  0.00    -0.097 F 
ATOM     12  F4  UNL d   1      -0.458  -3.446   2.635  0.00  0.00    -0.092 F 
ENDROOT
TORSDOF 0
ENDMDL
