MODEL 1
REMARK minimizedAffinity 12.2820644
REMARK minimizedRMSD -1
REMARK  0 active torsions:
REMARK  status: ('A' for Active; 'I' for Inactive)
ROOT
ATOM      1  C   UNL d   1      -0.954  -2.225   1.512  0.00  0.00     0.124 A 
ATOM      2  C1  UNL d   1      -1.596  -1.184   0.855  0.00  0.00     0.062 A 
ATOM      3  C2  UNL d   1      -1.986  -1.330  -0.474  0.00  0.00     0.162 A 
ATOM      4  C3  UNL d   1      -1.735  -2.521  -1.154  0.00  0.00    -0.034 A 
ATOM      5  C4  UNL d   1      -1.088  -3.563  -0.487  0.00  0.00     0.162 A 
ATOM      6  C5  UNL d   1      -0.701  -3.413   0.840  0.00  0.00     0.062 A 
ATOM      7  F   UNL d   1      -0.080  -4.419   1.473  0.00  0.00    -0.097 F 
ATOM      8  F1  UNL d   1      -0.831  -4.722  -1.112  0.00  0.00    -0.096 F 
ATOM      9  I   UNL d   1      -2.316  -2.742  -3.141  0.00  0.00    -0.060 I 
ATOM     10  F2  UNL d   1      -2.604  -0.308  -1.083  0.00  0.00    -0.096 F 
ATOM     11  F3  UNL d   1      -1.841  -0.035   1.501  0.00  0.00    -0.097 F 
ATOM     12  F4  UNL d   1      -0.579  -2.082   2.789  0.00  0.00    -0.092 F 
ENDROOT
TORSDOF 0
ENDMDL
