MODEL 1
REMARK minimizedAffinity 19.6414585
REMARK minimizedRMSD -1
REMARK  0 active torsions:
REMARK  status: ('A' for Active; 'I' for Inactive)
ROOT
ATOM      1  C   UNL d   1      -1.551  -1.230   1.739  0.00  0.00     0.124 A 
ATOM      2  C1  UNL d   1      -1.163  -2.210   0.836  0.00  0.00     0.062 A 
ATOM      3  C2  UNL d   1      -0.670  -3.428   1.294  0.00  0.00     0.162 A 
ATOM      4  C3  UNL d   1      -0.563  -3.674   2.663  0.00  0.00    -0.034 A 
ATOM      5  C4  UNL d   1      -0.954  -2.683   3.565  0.00  0.00     0.162 A 
ATOM      6  C5  UNL d   1      -1.446  -1.467   3.102  0.00  0.00     0.062 A 
ATOM      7  F   UNL d   1      -1.820  -0.521   3.976  0.00  0.00    -0.097 F 
ATOM      8  F1  UNL d   1      -0.864  -2.886   4.888  0.00  0.00    -0.096 F 
ATOM      9  I   UNL d   1       0.174  -5.494   3.353  0.00  0.00    -0.060 I 
ATOM     10  F2  UNL d   1      -0.303  -4.357   0.399  0.00  0.00    -0.096 F 
ATOM     11  F3  UNL d   1      -1.263  -1.983  -0.482  0.00  0.00    -0.097 F 
ATOM     12  F4  UNL d   1      -2.024  -0.058   1.295  0.00  0.00    -0.092 F 
ENDROOT
TORSDOF 0
ENDMDL
