MODEL 1
REMARK minimizedAffinity 25.8869991
REMARK minimizedRMSD -1
REMARK  0 active torsions:
REMARK  status: ('A' for Active; 'I' for Inactive)
ROOT
ATOM      1  C   UNL d   1      -1.495  -2.631   2.376  0.00  0.00     0.124 A 
ATOM      2  C1  UNL d   1      -1.705  -2.257   3.696  0.00  0.00     0.062 A 
ATOM      3  C2  UNL d   1      -1.324  -3.105   4.732  0.00  0.00     0.162 A 
ATOM      4  C3  UNL d   1      -0.728  -4.335   4.453  0.00  0.00    -0.034 A 
ATOM      5  C4  UNL d   1      -0.522  -4.704   3.122  0.00  0.00     0.162 A 
ATOM      6  C5  UNL d   1      -0.904  -3.853   2.090  0.00  0.00     0.062 A 
ATOM      7  F   UNL d   1      -0.701  -4.216   0.815  0.00  0.00    -0.097 F 
ATOM      8  F1  UNL d   1       0.048  -5.880   2.818  0.00  0.00    -0.096 F 
ATOM      9  I   UNL d   1      -0.158  -5.605   5.999  0.00  0.00    -0.060 I 
ATOM     10  F2  UNL d   1      -1.538  -2.718   5.999  0.00  0.00    -0.096 F 
ATOM     11  F3  UNL d   1      -2.276  -1.077   3.975  0.00  0.00    -0.097 F 
ATOM     12  F4  UNL d   1      -1.863  -1.814   1.381  0.00  0.00    -0.092 F 
ENDROOT
TORSDOF 0
ENDMDL
