MODEL 1
REMARK minimizedAffinity 13.5867062
REMARK minimizedRMSD -1
REMARK  0 active torsions:
REMARK  status: ('A' for Active; 'I' for Inactive)
ROOT
ATOM      1  C   UNL d   1      -4.678   0.513   5.941  0.00  0.00     0.124 A 
ATOM      2  C1  UNL d   1      -4.789  -0.871   5.939  0.00  0.00     0.062 A 
ATOM      3  C2  UNL d   1      -3.648  -1.665   5.877  0.00  0.00     0.162 A 
ATOM      4  C3  UNL d   1      -2.384  -1.077   5.816  0.00  0.00    -0.034 A 
ATOM      5  C4  UNL d   1      -2.280   0.315   5.817  0.00  0.00     0.162 A 
ATOM      6  C5  UNL d   1      -3.424   1.104   5.880  0.00  0.00     0.062 A 
ATOM      7  F   UNL d   1      -3.314   2.441   5.881  0.00  0.00    -0.097 F 
ATOM      8  F1  UNL d   1      -1.081   0.913   5.760  0.00  0.00    -0.096 F 
ATOM      9  I   UNL d   1      -0.675  -2.261   5.722  0.00  0.00    -0.060 I 
ATOM     10  F2  UNL d   1      -3.786  -2.999   5.877  0.00  0.00    -0.096 F 
ATOM     11  F3  UNL d   1      -6.000  -1.444   5.997  0.00  0.00    -0.097 F 
ATOM     12  F4  UNL d   1      -5.778   1.275   6.000  0.00  0.00    -0.092 F 
ENDROOT
TORSDOF 0
ENDMDL
