MODEL 1
REMARK minimizedAffinity -1.51203609
REMARK minimizedRMSD -1
REMARK  0 active torsions:
REMARK  status: ('A' for Active; 'I' for Inactive)
ROOT
ATOM      1  C   UNL d   1       0.702  -2.224  -0.373  0.00  0.00     0.023 A 
ATOM      2  C1  UNL d   1      -0.238  -1.272  -0.770  0.00  0.00     0.003 A 
ATOM      3  C2  UNL d   1      -0.031   0.078  -0.481  0.00  0.00     0.048 A 
ATOM      4  C3  UNL d   1       1.118   0.470   0.205  0.00  0.00     0.023 A 
ATOM      5  C4  UNL d   1       2.061  -0.479   0.604  0.00  0.00     0.048 A 
ATOM      6  C5  UNL d   1       1.849  -1.828   0.314  0.00  0.00     0.003 A 
ATOM      7  I   UNL d   1       1.428   2.479   0.637  0.00  0.00    -0.146 I 
ENDROOT
TORSDOF 0
ENDMDL
