MODEL 1
REMARK minimizedAffinity -2.43034911
REMARK minimizedRMSD -1
REMARK  0 active torsions:
REMARK  status: ('A' for Active; 'I' for Inactive)
ROOT
ATOM      1  C   UNL d   1       2.407  -0.539  -0.603  0.00  0.00     0.023 A 
ATOM      2  C1  UNL d   1       1.503  -1.600  -0.547  0.00  0.00     0.003 A 
ATOM      3  C2  UNL d   1       0.138  -1.348  -0.393  0.00  0.00     0.048 A 
ATOM      4  C3  UNL d   1      -0.316  -0.033  -0.295  0.00  0.00     0.023 A 
ATOM      5  C4  UNL d   1       0.586   1.031  -0.351  0.00  0.00     0.048 A 
ATOM      6  C5  UNL d   1       1.949   0.775  -0.505  0.00  0.00     0.003 A 
ATOM      7  I   UNL d   1      -2.346   0.345  -0.066  0.00  0.00    -0.146 I 
ENDROOT
TORSDOF 0
ENDMDL
