MODEL 1
REMARK minimizedAffinity -3.08966613
REMARK minimizedRMSD -1
REMARK  0 active torsions:
REMARK  status: ('A' for Active; 'I' for Inactive)
ROOT
ATOM      1  C   UNL d   1       1.121  -2.064   0.106  0.00  0.00     0.023 A 
ATOM      2  C1  UNL d   1       2.264  -1.485   0.658  0.00  0.00     0.003 A 
ATOM      3  C2  UNL d   1       2.354  -0.098   0.784  0.00  0.00     0.048 A 
ATOM      4  C3  UNL d   1       1.297   0.706   0.357  0.00  0.00     0.023 A 
ATOM      5  C4  UNL d   1       0.151   0.131  -0.195  0.00  0.00     0.048 A 
ATOM      6  C5  UNL d   1       0.066  -1.257  -0.320  0.00  0.00     0.003 A 
ATOM      7  I   UNL d   1       1.429   2.771   0.545  0.00  0.00    -0.146 I 
ENDROOT
TORSDOF 0
ENDMDL
