MODEL 1
REMARK minimizedAffinity -3.37122846
REMARK minimizedRMSD -1
REMARK  0 active torsions:
REMARK  status: ('A' for Active; 'I' for Inactive)
ROOT
ATOM      1  C   UNL d   1       1.906  -1.615  -0.126  0.00  0.00     0.023 A 
ATOM      2  C1  UNL d   1       0.782  -1.503  -0.945  0.00  0.00     0.003 A 
ATOM      3  C2  UNL d   1      -0.252  -0.631  -0.598  0.00  0.00     0.048 A 
ATOM      4  C3  UNL d   1      -0.155   0.127   0.568  0.00  0.00     0.023 A 
ATOM      5  C4  UNL d   1       0.968   0.020   1.389  0.00  0.00     0.048 A 
ATOM      6  C5  UNL d   1       1.999  -0.854   1.039  0.00  0.00     0.003 A 
ATOM      7  I   UNL d   1      -1.693   1.426   1.086  0.00  0.00    -0.146 I 
ENDROOT
TORSDOF 0
ENDMDL
