MODEL 1
REMARK minimizedAffinity -4.21316338
REMARK minimizedRMSD -1
REMARK  0 active torsions:
REMARK  status: ('A' for Active; 'I' for Inactive)
ROOT
ATOM      1  C   UNL d   1       2.846  -1.009   0.412  0.00  0.00     0.023 A 
ATOM      2  C1  UNL d   1       2.497   0.297   0.757  0.00  0.00     0.003 A 
ATOM      3  C2  UNL d   1       1.167   0.712   0.668  0.00  0.00     0.048 A 
ATOM      4  C3  UNL d   1       0.191  -0.183   0.233  0.00  0.00     0.023 A 
ATOM      5  C4  UNL d   1       0.535  -1.491  -0.112  0.00  0.00     0.048 A 
ATOM      6  C5  UNL d   1       1.867  -1.902  -0.022  0.00  0.00     0.003 A 
ATOM      7  I   UNL d   1      -1.789   0.433   0.099  0.00  0.00    -0.146 I 
ENDROOT
TORSDOF 0
ENDMDL
