MODEL 1
REMARK minimizedAffinity -3.44750094
REMARK minimizedRMSD -1
REMARK  0 active torsions:
REMARK  status: ('A' for Active; 'I' for Inactive)
ROOT
ATOM      1  C   UNL d   1       0.498  -1.320  -0.207  0.00  0.00     0.023 A 
ATOM      2  C1  UNL d   1       0.131  -0.188  -0.936  0.00  0.00     0.003 A 
ATOM      3  C2  UNL d   1      -0.878   0.652  -0.461  0.00  0.00     0.048 A 
ATOM      4  C3  UNL d   1      -1.516   0.355   0.742  0.00  0.00     0.023 A 
ATOM      5  C4  UNL d   1      -1.152  -0.776   1.475  0.00  0.00     0.048 A 
ATOM      6  C5  UNL d   1      -0.143  -1.613   0.997  0.00  0.00     0.003 A 
ATOM      7  I   UNL d   1      -3.019   1.604   1.450  0.00  0.00    -0.146 I 
ENDROOT
TORSDOF 0
ENDMDL
