MODEL 1
REMARK minimizedAffinity 5.27003479
REMARK minimizedRMSD -1
REMARK  0 active torsions:
REMARK  status: ('A' for Active; 'I' for Inactive)
ROOT
ATOM      1  C   UNL d   1       0.603  -1.980  -0.218  0.00  0.00     0.023 A 
ATOM      2  C1  UNL d   1      -0.163  -2.384   0.876  0.00  0.00     0.003 A 
ATOM      3  C2  UNL d   1      -1.429  -1.835   1.085  0.00  0.00     0.048 A 
ATOM      4  C3  UNL d   1      -1.924  -0.882   0.196  0.00  0.00     0.023 A 
ATOM      5  C4  UNL d   1      -1.162  -0.474  -0.900  0.00  0.00     0.048 A 
ATOM      6  C5  UNL d   1       0.104  -1.026  -1.105  0.00  0.00     0.003 A 
ATOM      7  I   UNL d   1      -3.809  -0.062   0.504  0.00  0.00    -0.146 I 
ENDROOT
TORSDOF 0
ENDMDL
