MODEL 1
REMARK minimizedAffinity 4.36768961
REMARK minimizedRMSD -1
REMARK  0 active torsions:
REMARK  status: ('A' for Active; 'I' for Inactive)
ROOT
ATOM      1  C   UNL d   1       2.757  -2.470  -1.567  0.00  0.00     0.023 A 
ATOM      2  C1  UNL d   1       2.280  -2.410  -0.257  0.00  0.00     0.003 A 
ATOM      3  C2  UNL d   1       1.024  -1.859   0.006  0.00  0.00     0.048 A 
ATOM      4  C3  UNL d   1       0.250  -1.371  -1.046  0.00  0.00     0.023 A 
ATOM      5  C4  UNL d   1       0.722  -1.429  -2.358  0.00  0.00     0.048 A 
ATOM      6  C5  UNL d   1       1.979  -1.980  -2.616  0.00  0.00     0.003 A 
ATOM      7  I   UNL d   1      -1.620  -0.550  -0.657  0.00  0.00    -0.146 I 
ENDROOT
TORSDOF 0
ENDMDL
