MODEL 1
REMARK minimizedAffinity -1.97562146
REMARK minimizedRMSD -1
REMARK  0 active torsions:
REMARK  status: ('A' for Active; 'I' for Inactive)
ROOT
ATOM      1  C   UNL d   1      -0.963   1.722   0.551  0.00  0.00     0.020 A 
ATOM      2  C1  UNL d   1      -0.760   2.887   1.290  0.00  0.00     0.020 A 
ATOM      3  C2  UNL d   1       0.482   3.134   1.876  0.00  0.00     0.034 A 
ATOM      4  C3  UNL d   1       1.527   2.215   1.726  0.00  0.00     0.017 A 
ATOM      5  C4  UNL d   1       1.323   1.046   0.985  0.00  0.00     0.017 A 
ATOM      6  C5  UNL d   1       0.077   0.803   0.399  0.00  0.00     0.034 A 
ATOM      7 Cl   UNL d   1       2.564  -0.135   0.755  0.00  0.00    -0.070 Cl
ATOM      8 Cl1  UNL d   1       3.038   2.586   2.478  0.00  0.00    -0.070 Cl
ENDROOT
TORSDOF 0
ENDMDL
