MODEL 1
REMARK minimizedAffinity 0.384411335
REMARK minimizedRMSD -1
REMARK  0 active torsions:
REMARK  status: ('A' for Active; 'I' for Inactive)
ROOT
ATOM      1  C   UNL d   1       2.785   2.989   2.341  0.00  0.00     0.020 A 
ATOM      2  C1  UNL d   1       1.546   3.569   2.608  0.00  0.00     0.020 A 
ATOM      3  C2  UNL d   1       0.389   3.044   2.029  0.00  0.00     0.034 A 
ATOM      4  C3  UNL d   1       0.469   1.935   1.179  0.00  0.00     0.017 A 
ATOM      5  C4  UNL d   1       1.713   1.353   0.911  0.00  0.00     0.017 A 
ATOM      6  C5  UNL d   1       2.868   1.883   1.494  0.00  0.00     0.034 A 
ATOM      7 Cl   UNL d   1       1.891  -0.018  -0.127  0.00  0.00    -0.070 Cl
ATOM      8 Cl1  UNL d   1      -1.002   1.337   0.497  0.00  0.00    -0.070 Cl
ENDROOT
TORSDOF 0
ENDMDL
