MODEL 1
REMARK minimizedAffinity 5.691329
REMARK minimizedRMSD -1
REMARK  0 active torsions:
REMARK  status: ('A' for Active; 'I' for Inactive)
ROOT
ATOM      1  C   UNL d   1      -1.440   2.774   1.613  0.00  0.00     0.020 A 
ATOM      2  C1  UNL d   1      -2.515   1.891   1.713  0.00  0.00     0.020 A 
ATOM      3  C2  UNL d   1      -2.394   0.586   1.232  0.00  0.00     0.034 A 
ATOM      4  C3  UNL d   1      -1.195   0.159   0.649  0.00  0.00     0.017 A 
ATOM      5  C4  UNL d   1      -0.117   1.045   0.550  0.00  0.00     0.017 A 
ATOM      6  C5  UNL d   1      -0.244   2.351   1.033  0.00  0.00     0.034 A 
ATOM      7 Cl   UNL d   1       1.394   0.592  -0.157  0.00  0.00    -0.070 Cl
ATOM      8 Cl1  UNL d   1      -1.116  -1.469   0.076  0.00  0.00    -0.070 Cl
ENDROOT
TORSDOF 0
ENDMDL
