MODEL 1
REMARK minimizedAffinity 4.99221659
REMARK minimizedRMSD -1
REMARK  0 active torsions:
REMARK  status: ('A' for Active; 'I' for Inactive)
ROOT
ATOM      1  C   UNL d   1      -2.181   1.568   0.367  0.00  0.00     0.020 A 
ATOM      2  C1  UNL d   1      -2.020   2.590   1.302  0.00  0.00     0.020 A 
ATOM      3  C2  UNL d   1      -0.743   2.922   1.761  0.00  0.00     0.034 A 
ATOM      4  C3  UNL d   1       0.377   2.231   1.284  0.00  0.00     0.017 A 
ATOM      5  C4  UNL d   1       0.215   1.206   0.346  0.00  0.00     0.017 A 
ATOM      6  C5  UNL d   1      -1.065   0.878  -0.110  0.00  0.00     0.034 A 
ATOM      7 Cl   UNL d   1       1.550   0.310  -0.288  0.00  0.00    -0.070 Cl
ATOM      8 Cl1  UNL d   1       1.926   2.695   1.895  0.00  0.00    -0.070 Cl
ENDROOT
TORSDOF 0
ENDMDL
