MODEL 1
REMARK minimizedAffinity -2.01422763
REMARK minimizedRMSD -1
REMARK  0 active torsions:
REMARK  status: ('A' for Active; 'I' for Inactive)
ROOT
ATOM      1  C   UNL d   1      -2.109   2.615   2.010  0.00  0.00     0.020 A 
ATOM      2  C1  UNL d   1      -1.678   3.189   3.206  0.00  0.00     0.020 A 
ATOM      3  C2  UNL d   1      -0.315   3.239   3.505  0.00  0.00     0.034 A 
ATOM      4  C3  UNL d   1       0.622   2.713   2.609  0.00  0.00     0.017 A 
ATOM      5  C4  UNL d   1       0.189   2.137   1.409  0.00  0.00     0.017 A 
ATOM      6  C5  UNL d   1      -1.177   2.090   1.114  0.00  0.00     0.034 A 
ATOM      7 Cl   UNL d   1       1.286   1.468   0.253  0.00  0.00    -0.070 Cl
ATOM      8 Cl1  UNL d   1       2.292   2.809   3.044  0.00  0.00    -0.070 Cl
ENDROOT
TORSDOF 0
ENDMDL
