MODEL 1
REMARK minimizedAffinity 1.75993347
REMARK minimizedRMSD -1
REMARK  0 active torsions:
REMARK  status: ('A' for Active; 'I' for Inactive)
ROOT
ATOM      1  C   UNL d   1      -1.911   0.708   0.233  0.00  0.00     0.020 A 
ATOM      2  C1  UNL d   1      -2.015   1.953   0.852  0.00  0.00     0.020 A 
ATOM      3  C2  UNL d   1      -0.864   2.622   1.275  0.00  0.00     0.034 A 
ATOM      4  C3  UNL d   1       0.396   2.046   1.078  0.00  0.00     0.017 A 
ATOM      5  C4  UNL d   1       0.500   0.797   0.457  0.00  0.00     0.017 A 
ATOM      6  C5  UNL d   1      -0.655   0.131   0.036  0.00  0.00     0.034 A 
ATOM      7 Cl   UNL d   1       2.021   0.023   0.180  0.00  0.00    -0.070 Cl
ATOM      8 Cl1  UNL d   1       1.777   2.929   1.626  0.00  0.00    -0.070 Cl
ENDROOT
TORSDOF 0
ENDMDL
