MODEL 1
REMARK minimizedAffinity 1.53703749
REMARK minimizedRMSD -1
REMARK  0 active torsions:
REMARK  status: ('A' for Active; 'I' for Inactive)
ROOT
ATOM      1  C   UNL d   1      -5.288   4.644  -5.996  0.00  0.00     0.020 A 
ATOM      2  C1  UNL d   1      -5.137   3.258  -5.997  0.00  0.00     0.020 A 
ATOM      3  C2  UNL d   1      -3.859   2.695  -5.999  0.00  0.00     0.034 A 
ATOM      4  C3  UNL d   1      -2.727   3.518  -5.998  0.00  0.00     0.017 A 
ATOM      5  C4  UNL d   1      -2.880   4.909  -5.997  0.00  0.00     0.017 A 
ATOM      6  C5  UNL d   1      -4.161   5.468  -5.995  0.00  0.00     0.034 A 
ATOM      7 Cl   UNL d   1      -1.530   5.989  -5.997  0.00  0.00    -0.070 Cl
ATOM      8 Cl1  UNL d   1      -1.178   2.753  -6.000  0.00  0.00    -0.070 Cl
ENDROOT
TORSDOF 0
ENDMDL
