MODEL 1
REMARK minimizedAffinity 7.90017271
REMARK minimizedRMSD -1
REMARK  0 active torsions:
REMARK  status: ('A' for Active; 'I' for Inactive)
ROOT
ATOM      1  C   UNL d   1      -2.051   2.351   1.141  0.00  0.00     0.020 A 
ATOM      2  C1  UNL d   1      -3.017   1.347   1.181  0.00  0.00     0.020 A 
ATOM      3  C2  UNL d   1      -2.674   0.035   0.848  0.00  0.00     0.034 A 
ATOM      4  C3  UNL d   1      -1.362  -0.277   0.473  0.00  0.00     0.017 A 
ATOM      5  C4  UNL d   1      -0.393   0.733   0.433  0.00  0.00     0.017 A 
ATOM      6  C5  UNL d   1      -0.742   2.045   0.768  0.00  0.00     0.034 A 
ATOM      7 Cl   UNL d   1       1.247   0.426  -0.019  0.00  0.00    -0.070 Cl
ATOM      8 Cl1  UNL d   1      -1.009  -1.920   0.074  0.00  0.00    -0.070 Cl
ENDROOT
TORSDOF 0
ENDMDL
