MODEL 1
REMARK minimizedAffinity 7.16898394
REMARK minimizedRMSD -1
REMARK  0 active torsions:
REMARK  status: ('A' for Active; 'I' for Inactive)
ROOT
ATOM      1  C   UNL d   1      -2.491  -1.529  -1.263  0.00  0.00     0.020 A 
ATOM      2  C1  UNL d   1      -1.105  -1.641  -1.363  0.00  0.00     0.020 A 
ATOM      3  C2  UNL d   1      -0.487  -2.873  -1.138  0.00  0.00     0.034 A 
ATOM      4  C3  UNL d   1      -1.254  -3.997  -0.812  0.00  0.00     0.017 A 
ATOM      5  C4  UNL d   1      -2.645  -3.883  -0.713  0.00  0.00     0.017 A 
ATOM      6  C5  UNL d   1      -3.260  -2.648  -0.939  0.00  0.00     0.034 A 
ATOM      7 Cl   UNL d   1      -3.659  -5.226  -0.315  0.00  0.00    -0.070 Cl
ATOM      8 Cl1  UNL d   1      -0.423  -5.488  -0.548  0.00  0.00    -0.070 Cl
ENDROOT
TORSDOF 0
ENDMDL
