MODEL 1
REMARK minimizedAffinity 6.46316719
REMARK minimizedRMSD -1
REMARK  0 active torsions:
REMARK  status: ('A' for Active; 'I' for Inactive)
ROOT
ATOM      1  C   UNL d   1      -2.559  -0.238   0.761  0.00  0.00     0.020 A 
ATOM      2  C1  UNL d   1      -1.495  -1.036   0.342  0.00  0.00     0.020 A 
ATOM      3  C2  UNL d   1      -0.240  -0.465   0.118  0.00  0.00     0.034 A 
ATOM      4  C3  UNL d   1      -0.046   0.907   0.313  0.00  0.00     0.017 A 
ATOM      5  C4  UNL d   1      -1.115   1.707   0.733  0.00  0.00     0.017 A 
ATOM      6  C5  UNL d   1      -2.369   1.131   0.956  0.00  0.00     0.034 A 
ATOM      7 Cl   UNL d   1      -0.953   3.408   0.994  0.00  0.00    -0.070 Cl
ATOM      8 Cl1  UNL d   1       1.532   1.546   0.017  0.00  0.00    -0.070 Cl
ENDROOT
TORSDOF 0
ENDMDL
