MODEL 1
REMARK minimizedAffinity 8.6423111
REMARK minimizedRMSD -1
REMARK  0 active torsions:
REMARK  status: ('A' for Active; 'I' for Inactive)
ROOT
ATOM      1  C   UNL d   1      -2.031   1.152   0.889  0.00  0.00     0.020 A 
ATOM      2  C1  UNL d   1      -1.623   0.153   0.006  0.00  0.00     0.020 A 
ATOM      3  C2  UNL d   1      -0.272   0.017  -0.319  0.00  0.00     0.034 A 
ATOM      4  C3  UNL d   1       0.677   0.880   0.240  0.00  0.00     0.017 A 
ATOM      5  C4  UNL d   1       0.267   1.883   1.126  0.00  0.00     0.017 A 
ATOM      6  C5  UNL d   1      -1.087   2.015   1.448  0.00  0.00     0.034 A 
ATOM      7 Cl   UNL d   1       1.380   2.986   1.856  0.00  0.00    -0.070 Cl
ATOM      8 Cl1  UNL d   1       2.331   0.654  -0.206  0.00  0.00    -0.070 Cl
ENDROOT
TORSDOF 0
ENDMDL
