MODEL 1
REMARK minimizedAffinity 7.41150951
REMARK minimizedRMSD -1
REMARK  0 active torsions:
REMARK  status: ('A' for Active; 'I' for Inactive)
ROOT
ATOM      1  C   UNL d   1       1.936   3.756   4.245  0.00  0.00     0.020 A 
ATOM      2  C1  UNL d   1       2.497   3.538   2.988  0.00  0.00     0.020 A 
ATOM      3  C2  UNL d   1       1.675   3.231   1.901  0.00  0.00     0.034 A 
ATOM      4  C3  UNL d   1       0.288   3.143   2.070  0.00  0.00     0.017 A 
ATOM      5  C4  UNL d   1      -0.273   3.363   3.333  0.00  0.00     0.017 A 
ATOM      6  C5  UNL d   1       0.554   3.669   4.417  0.00  0.00     0.034 A 
ATOM      7 Cl   UNL d   1      -1.975   3.272   3.619  0.00  0.00    -0.070 Cl
ATOM      8 Cl1  UNL d   1      -0.667   2.761   0.682  0.00  0.00    -0.070 Cl
ENDROOT
TORSDOF 0
ENDMDL
