MODEL 1
REMARK minimizedAffinity 6.48903131
REMARK minimizedRMSD -1
REMARK  0 active torsions:
REMARK  status: ('A' for Active; 'I' for Inactive)
ROOT
ATOM      1  C   UNL d   1      -3.772  -5.926  -1.063  0.00  0.00     0.020 A 
ATOM      2  C1  UNL d   1      -4.127  -5.219   0.085  0.00  0.00     0.020 A 
ATOM      3  C2  UNL d   1      -3.510  -3.999   0.373  0.00  0.00     0.034 A 
ATOM      4  C3  UNL d   1      -2.535  -3.484  -0.489  0.00  0.00     0.017 A 
ATOM      5  C4  UNL d   1      -2.179  -4.194  -1.641  0.00  0.00     0.017 A 
ATOM      6  C5  UNL d   1      -2.800  -5.415  -1.924  0.00  0.00     0.034 A 
ATOM      7 Cl   UNL d   1      -0.984  -3.622  -2.751  0.00  0.00    -0.070 Cl
ATOM      8 Cl1  UNL d   1      -1.813  -1.970  -0.071  0.00  0.00    -0.070 Cl
ENDROOT
TORSDOF 0
ENDMDL
