MODEL 1
REMARK minimizedAffinity 3.60284996
REMARK minimizedRMSD -1
REMARK  0 active torsions:
REMARK  status: ('A' for Active; 'I' for Inactive)
ROOT
ATOM      1  C   UNL d   1      -2.178   0.876  -0.013  0.00  0.00     0.020 A 
ATOM      2  C1  UNL d   1      -2.483   1.949   0.823  0.00  0.00     0.020 A 
ATOM      3  C2  UNL d   1      -1.467   2.590   1.536  0.00  0.00     0.034 A 
ATOM      4  C3  UNL d   1      -0.142   2.157   1.414  0.00  0.00     0.017 A 
ATOM      5  C4  UNL d   1       0.163   1.080   0.574  0.00  0.00     0.017 A 
ATOM      6  C5  UNL d   1      -0.858   0.443  -0.137  0.00  0.00     0.034 A 
ATOM      7 Cl   UNL d   1       1.775   0.490   0.373  0.00  0.00    -0.070 Cl
ATOM      8 Cl1  UNL d   1       1.064   2.995   2.325  0.00  0.00    -0.070 Cl
ENDROOT
TORSDOF 0
ENDMDL
