MODEL 1
REMARK minimizedAffinity 0.939068615
REMARK minimizedRMSD -1
REMARK  0 active torsions:
REMARK  status: ('A' for Active; 'I' for Inactive)
ROOT
ATOM      1  C   UNL d   1      -3.367   0.530   0.748  0.00  0.00     0.020 A 
ATOM      2  C1  UNL d   1      -2.603  -0.628   0.890  0.00  0.00     0.020 A 
ATOM      3  C2  UNL d   1      -1.210  -0.543   0.945  0.00  0.00     0.034 A 
ATOM      4  C3  UNL d   1      -0.577   0.703   0.857  0.00  0.00     0.017 A 
ATOM      5  C4  UNL d   1      -1.345   1.864   0.714  0.00  0.00     0.017 A 
ATOM      6  C5  UNL d   1      -2.739   1.773   0.660  0.00  0.00     0.034 A 
ATOM      7 Cl   UNL d   1      -0.636   3.436   0.599  0.00  0.00    -0.070 Cl
ATOM      8 Cl1  UNL d   1       1.149   0.734   0.932  0.00  0.00    -0.070 Cl
ENDROOT
TORSDOF 0
ENDMDL
