MODEL 1
REMARK minimizedAffinity 2.43665743
REMARK minimizedRMSD -1
REMARK  0 active torsions:
REMARK  status: ('A' for Active; 'I' for Inactive)
ROOT
ATOM      1  C   UNL d   1      -2.140   0.448   0.952  0.00  0.00     0.020 A 
ATOM      2  C1  UNL d   1      -2.289   1.692   1.565  0.00  0.00     0.020 A 
ATOM      3  C2  UNL d   1      -1.163   2.462   1.865  0.00  0.00     0.034 A 
ATOM      4  C3  UNL d   1       0.117   1.989   1.553  0.00  0.00     0.017 A 
ATOM      5  C4  UNL d   1       0.265   0.741   0.938  0.00  0.00     0.017 A 
ATOM      6  C5  UNL d   1      -0.865  -0.026   0.639  0.00  0.00     0.034 A 
ATOM      7 Cl   UNL d   1       1.812   0.090   0.522  0.00  0.00    -0.070 Cl
ATOM      8 Cl1  UNL d   1       1.464   2.994   1.953  0.00  0.00    -0.070 Cl
ENDROOT
TORSDOF 0
ENDMDL
