MODEL 1
REMARK minimizedAffinity -3.13131356
REMARK minimizedRMSD -1
REMARK  1 active torsions:
REMARK  status: ('A' for Active; 'I' for Inactive)
REMARK    1  A    between atoms: C1_2  and  C2_3 
ROOT
ATOM      1  C2  UNL d   1       0.507  -0.546   2.022  0.00  0.00    -0.073 A 
ATOM      2  C3  UNL d   1      -0.790  -0.088   2.279  0.00  0.00    -0.002 A 
ATOM      3  C4  UNL d   1      -1.634   0.264   1.225  0.00  0.00     0.004 A 
ATOM      4  C5  UNL d   1      -1.193   0.156  -0.094  0.00  0.00    -0.004 A 
ATOM      5  C6  UNL d   1       0.095  -0.311  -0.371  0.00  0.00    -0.075 A 
ATOM      6  C7  UNL d   1       0.585  -0.431  -1.784  0.00  0.00     0.076 C 
ATOM      7  C8  UNL d   1       0.938  -0.660   0.693  0.00  0.00     0.001 A 
ENDROOT
BRANCH   1   8
ATOM      8  C1  UNL d   1       1.420  -0.934   3.157  0.00  0.00     0.053 C 
ATOM      9  C   UNL d   1       0.724  -0.846   4.505  0.00  0.00     0.018 C 
ENDBRANCH   1   8
TORSDOF 1
ENDMDL
