MODEL 1
REMARK minimizedAffinity -5.20094013
REMARK minimizedRMSD -1
REMARK  1 active torsions:
REMARK  status: ('A' for Active; 'I' for Inactive)
REMARK    1  A    between atoms: C1_2  and  C2_3 
ROOT
ATOM      1  C2  UNL d   1      -0.259  -0.422  -2.598  0.00  0.00    -0.073 A 
ATOM      2  C3  UNL d   1       0.713   0.501  -2.999  0.00  0.00    -0.002 A 
ATOM      3  C4  UNL d   1       0.941   0.742  -4.355  0.00  0.00     0.004 A 
ATOM      4  C5  UNL d   1       0.195   0.068  -5.322  0.00  0.00    -0.004 A 
ATOM      5  C6  UNL d   1      -0.790  -0.849  -4.941  0.00  0.00    -0.075 A 
ATOM      6  C7  UNL d   1      -1.600  -1.583  -5.969  0.00  0.00     0.076 C 
ATOM      7  C8  UNL d   1      -1.011  -1.087  -3.578  0.00  0.00     0.001 A 
ENDROOT
BRANCH   1   8
ATOM      8  C1  UNL d   1      -0.513  -0.680  -1.136  0.00  0.00     0.053 C 
ATOM      9  C   UNL d   1      -0.168   0.526  -0.276  0.00  0.00     0.018 C 
ENDBRANCH   1   8
TORSDOF 1
ENDMDL
