MODEL 1
REMARK minimizedAffinity -5.31047106
REMARK minimizedRMSD -1
REMARK  1 active torsions:
REMARK  status: ('A' for Active; 'I' for Inactive)
REMARK    1  A    between atoms: C1_2  and  C2_3 
ROOT
ATOM      1  C2  UNL d   1       0.976  -0.706  -1.049  0.00  0.00    -0.073 A 
ATOM      2  C3  UNL d   1       2.178  -1.109  -0.456  0.00  0.00    -0.002 A 
ATOM      3  C4  UNL d   1       2.343  -1.026   0.927  0.00  0.00     0.004 A 
ATOM      4  C5  UNL d   1       1.309  -0.546   1.730  0.00  0.00    -0.004 A 
ATOM      5  C6  UNL d   1       0.097  -0.149   1.157  0.00  0.00    -0.075 A 
ATOM      6  C7  UNL d   1      -1.025   0.371   2.008  0.00  0.00     0.076 C 
ATOM      7  C8  UNL d   1      -0.061  -0.233  -0.233  0.00  0.00     0.001 A 
ENDROOT
BRANCH   1   8
ATOM      8  C1  UNL d   1       0.790  -0.800  -2.542  0.00  0.00     0.053 C 
ATOM      9  C   UNL d   1       1.694   0.166  -3.291  0.00  0.00     0.018 C 
ENDBRANCH   1   8
TORSDOF 1
ENDMDL
