MODEL 1
REMARK minimizedAffinity -1.11380887
REMARK minimizedRMSD -1
REMARK  1 active torsions:
REMARK  status: ('A' for Active; 'I' for Inactive)
REMARK    1  A    between atoms: C1_2  and  C2_3 
ROOT
ATOM      1  C2  UNL d   1      -0.435  -0.026   0.680  0.00  0.00    -0.073 A 
ATOM      2  C3  UNL d   1       0.828  -0.086   1.280  0.00  0.00    -0.002 A 
ATOM      3  C4  UNL d   1       1.940  -0.498   0.543  0.00  0.00     0.004 A 
ATOM      4  C5  UNL d   1       1.801  -0.847  -0.800  0.00  0.00    -0.004 A 
ATOM      5  C6  UNL d   1       0.549  -0.781  -1.420  0.00  0.00    -0.075 A 
ATOM      6  C7  UNL d   1       0.383  -1.155  -2.864  0.00  0.00     0.076 C 
ATOM      7  C8  UNL d   1      -0.562  -0.369  -0.673  0.00  0.00     0.001 A 
ENDROOT
BRANCH   1   8
ATOM      8  C1  UNL d   1      -1.636   0.425   1.470  0.00  0.00     0.053 C 
ATOM      9  C   UNL d   1      -1.284   0.736   2.916  0.00  0.00     0.018 C 
ENDBRANCH   1   8
TORSDOF 1
ENDMDL
