MODEL 1
REMARK minimizedAffinity -2.26055694
REMARK minimizedRMSD -1
REMARK  1 active torsions:
REMARK  status: ('A' for Active; 'I' for Inactive)
REMARK    1  A    between atoms: C1_2  and  C2_3 
ROOT
ATOM      1  C2  UNL d   1       0.143  -0.188  -2.567  0.00  0.00    -0.073 A 
ATOM      2  C3  UNL d   1       1.044   0.856  -2.807  0.00  0.00    -0.002 A 
ATOM      3  C4  UNL d   1       1.079   1.486  -4.051  0.00  0.00     0.004 A 
ATOM      4  C5  UNL d   1       0.209   1.085  -5.065  0.00  0.00    -0.004 A 
ATOM      5  C6  UNL d   1      -0.707   0.052  -4.842  0.00  0.00    -0.075 A 
ATOM      6  C7  UNL d   1      -1.647  -0.393  -5.923  0.00  0.00     0.076 C 
ATOM      7  C8  UNL d   1      -0.733  -0.578  -3.590  0.00  0.00     0.001 A 
ENDROOT
BRANCH   1   8
ATOM      8  C1  UNL d   1       0.098  -0.867  -1.223  0.00  0.00     0.053 C 
ATOM      9  C   UNL d   1      -0.877  -0.190  -0.274  0.00  0.00     0.018 C 
ENDBRANCH   1   8
TORSDOF 1
ENDMDL
