MODEL 1
REMARK minimizedAffinity -4.08365774
REMARK minimizedRMSD -1
REMARK  0 active torsions:
REMARK  status: ('A' for Active; 'I' for Inactive)
ROOT
ATOM      1  O1  BZF d   1      -2.605  -3.266  -6.000  0.00  0.00    -0.204 OA
ATOM      2  C2  BZF d   1      -2.420  -4.412  -5.251  0.00  0.00     0.174 A 
ATOM      3  C3  BZF d   1      -3.376  -4.527  -4.307  0.00  0.00    -0.012 A 
ATOM      4  C3A BZF d   1      -4.264  -3.428  -4.536  0.00  0.00    -0.107 A 
ATOM      5  C4  BZF d   1      -5.416  -3.011  -3.933  0.00  0.00     0.055 A 
ATOM      6  C5  BZF d   1      -6.000  -1.857  -4.351  0.00  0.00    -0.016 A 
ATOM      7  C6  BZF d   1      -5.457  -1.094  -5.364  0.00  0.00     0.022 A 
ATOM      8  C7  BZF d   1      -4.319  -1.471  -5.996  0.00  0.00     0.029 A 
ATOM      9  C7A BZF d   1      -3.744  -2.653  -5.598  0.00  0.00     0.058 A 
ENDROOT
TORSDOF 0
ENDMDL
