MODEL 1
REMARK minimizedAffinity -0.790042877
REMARK minimizedRMSD -1
REMARK  0 active torsions:
REMARK  status: ('A' for Active; 'I' for Inactive)
ROOT
ATOM      1  O1  BZF d   1      -4.531  -3.644  -2.945  0.00  0.00    -0.204 OA
ATOM      2  C2  BZF d   1      -5.806  -3.372  -3.402  0.00  0.00     0.174 A 
ATOM      3  C3  BZF d   1      -5.995  -3.893  -4.632  0.00  0.00    -0.012 A 
ATOM      4  C3A BZF d   1      -4.792  -4.610  -4.926  0.00  0.00    -0.107 A 
ATOM      5  C4  BZF d   1      -4.380  -5.354  -5.994  0.00  0.00     0.055 A 
ATOM      6  C5  BZF d   1      -3.119  -5.859  -6.000  0.00  0.00    -0.016 A 
ATOM      7  C6  BZF d   1      -2.243  -5.636  -4.958  0.00  0.00     0.022 A 
ATOM      8  C7  BZF d   1      -2.608  -4.908  -3.875  0.00  0.00     0.029 A 
ATOM      9  C7A BZF d   1      -3.893  -4.424  -3.851  0.00  0.00     0.058 A 
ENDROOT
TORSDOF 0
ENDMDL
