MODEL 1
REMARK minimizedAffinity -3.38310671
REMARK minimizedRMSD -1
REMARK  0 active torsions:
REMARK  status: ('A' for Active; 'I' for Inactive)
ROOT
ATOM      1  O1  BZF d   1      -3.201  -5.866  -5.984  0.00  0.00    -0.204 OA
ATOM      2  C2  BZF d   1      -2.003  -5.665  -5.326  0.00  0.00     0.174 A 
ATOM      3  C3  BZF d   1      -2.056  -4.553  -4.565  0.00  0.00    -0.012 A 
ATOM      4  C3A BZF d   1      -3.399  -4.076  -4.688  0.00  0.00    -0.107 A 
ATOM      5  C4  BZF d   1      -4.070  -3.014  -4.154  0.00  0.00     0.055 A 
ATOM      6  C5  BZF d   1      -5.356  -2.787  -4.532  0.00  0.00    -0.016 A 
ATOM      7  C6  BZF d   1      -5.998  -3.597  -5.445  0.00  0.00     0.022 A 
ATOM      8  C7  BZF d   1      -5.374  -4.666  -5.998  0.00  0.00     0.029 A 
ATOM      9  C7A BZF d   1      -4.086  -4.918  -5.593  0.00  0.00     0.058 A 
ENDROOT
TORSDOF 0
ENDMDL
