MODEL 1
REMARK minimizedAffinity -2.83537436
REMARK minimizedRMSD -1
REMARK  0 active torsions:
REMARK  status: ('A' for Active; 'I' for Inactive)
ROOT
ATOM      1  O1  BZF d   1      -2.735  -4.575  -3.761  0.00  0.00    -0.204 OA
ATOM      2  C2  BZF d   1      -2.211  -5.091  -4.931  0.00  0.00     0.174 A 
ATOM      3  C3  BZF d   1      -3.008  -4.803  -5.980  0.00  0.00    -0.012 A 
ATOM      4  C3A BZF d   1      -4.050  -3.981  -5.446  0.00  0.00    -0.107 A 
ATOM      5  C4  BZF d   1      -5.137  -3.364  -5.998  0.00  0.00     0.055 A 
ATOM      6  C5  BZF d   1      -6.000  -2.696  -5.189  0.00  0.00    -0.016 A 
ATOM      7  C6  BZF d   1      -5.810  -2.627  -3.824  0.00  0.00     0.022 A 
ATOM      8  C7  BZF d   1      -4.744  -3.218  -3.231  0.00  0.00     0.029 A 
ATOM      9  C7A BZF d   1      -3.853  -3.867  -4.050  0.00  0.00     0.058 A 
ENDROOT
TORSDOF 0
ENDMDL
