MODEL 1
REMARK minimizedAffinity 3.23185539
REMARK minimizedRMSD -1
REMARK  0 active torsions:
REMARK  status: ('A' for Active; 'I' for Inactive)
ROOT
ATOM      1  O1  BZF d   1      -2.193  -4.615  -4.593  0.00  0.00    -0.204 OA
ATOM      2  C2  BZF d   1      -1.868  -4.110  -3.349  0.00  0.00     0.174 A 
ATOM      3  C3  BZF d   1      -2.894  -3.400  -2.838  0.00  0.00    -0.012 A 
ATOM      4  C3A BZF d   1      -3.959  -3.543  -3.783  0.00  0.00    -0.107 A 
ATOM      5  C4  BZF d   1      -5.243  -3.081  -3.828  0.00  0.00     0.055 A 
ATOM      6  C5  BZF d   1      -5.999  -3.339  -4.927  0.00  0.00    -0.016 A 
ATOM      7  C6  BZF d   1      -5.503  -4.050  -6.000  0.00  0.00     0.022 A 
ATOM      8  C7  BZF d   1      -4.237  -4.533  -5.999  0.00  0.00     0.029 A 
ATOM      9  C7A BZF d   1      -3.480  -4.303  -4.876  0.00  0.00     0.058 A 
ENDROOT
TORSDOF 0
ENDMDL
