MODEL 1
REMARK minimizedAffinity 2.19544983
REMARK minimizedRMSD -1
REMARK  0 active torsions:
REMARK  status: ('A' for Active; 'I' for Inactive)
ROOT
ATOM      1  O1  BZF d   1      -0.050  -2.250   1.381  0.00  0.00    -0.204 OA
ATOM      2  C2  BZF d   1       0.786  -1.157   1.257  0.00  0.00     0.174 A 
ATOM      3  C3  BZF d   1       0.185  -0.171   0.560  0.00  0.00    -0.012 A 
ATOM      4  C3A BZF d   1      -1.141  -0.644   0.306  0.00  0.00    -0.107 A 
ATOM      5  C4  BZF d   1      -2.224  -0.108  -0.331  0.00  0.00     0.055 A 
ATOM      6  C5  BZF d   1      -3.348  -0.859  -0.469  0.00  0.00    -0.016 A 
ATOM      7  C6  BZF d   1      -3.423  -2.150   0.012  0.00  0.00     0.022 A 
ATOM      8  C7  BZF d   1      -2.377  -2.723   0.656  0.00  0.00     0.029 A 
ATOM      9  C7A BZF d   1      -1.251  -1.955   0.826  0.00  0.00     0.058 A 
ENDROOT
TORSDOF 0
ENDMDL
