MODEL 1
REMARK minimizedAffinity -0.457967699
REMARK minimizedRMSD -1
REMARK  0 active torsions:
REMARK  status: ('A' for Active; 'I' for Inactive)
ROOT
ATOM      1  O1  BZF d   1      -1.947  -5.972  -3.872  0.00  0.00    -0.204 OA
ATOM      2  C2  BZF d   1      -1.067  -5.998  -4.936  0.00  0.00     0.174 A 
ATOM      3  C3  BZF d   1      -1.516  -5.227  -5.947  0.00  0.00    -0.012 A 
ATOM      4  C3A BZF d   1      -2.707  -4.610  -5.450  0.00  0.00    -0.107 A 
ATOM      5  C4  BZF d   1      -3.598  -3.723  -5.983  0.00  0.00     0.055 A 
ATOM      6  C5  BZF d   1      -4.697  -3.376  -5.263  0.00  0.00    -0.016 A 
ATOM      7  C6  BZF d   1      -4.939  -3.901  -4.010  0.00  0.00     0.022 A 
ATOM      8  C7  BZF d   1      -4.082  -4.781  -3.438  0.00  0.00     0.029 A 
ATOM      9  C7A BZF d   1      -2.953  -5.108  -4.150  0.00  0.00     0.058 A 
ENDROOT
TORSDOF 0
ENDMDL
