MODEL 1
REMARK minimizedAffinity -1.5740577
REMARK minimizedRMSD -1
REMARK  0 active torsions:
REMARK  status: ('A' for Active; 'I' for Inactive)
ROOT
ATOM      1  O1  BZF d   1      -3.123  -4.441  -5.999  0.00  0.00    -0.204 OA
ATOM      2  C2  BZF d   1      -2.452  -5.136  -5.011  0.00  0.00     0.174 A 
ATOM      3  C3  BZF d   1      -2.988  -4.882  -3.800  0.00  0.00    -0.012 A 
ATOM      4  C3A BZF d   1      -4.119  -4.043  -4.057  0.00  0.00    -0.107 A 
ATOM      5  C4  BZF d   1      -5.064  -3.470  -3.255  0.00  0.00     0.055 A 
ATOM      6  C5  BZF d   1      -5.991  -2.647  -3.812  0.00  0.00    -0.016 A 
ATOM      7  C6  BZF d   1      -6.000  -2.372  -5.164  0.00  0.00     0.022 A 
ATOM      8  C7  BZF d   1      -5.085  -2.922  -6.000  0.00  0.00     0.029 A 
ATOM      9  C7A BZF d   1      -4.167  -3.779  -5.445  0.00  0.00     0.058 A 
ENDROOT
TORSDOF 0
ENDMDL
