MODEL 1
REMARK minimizedAffinity -3.10402441
REMARK minimizedRMSD -1
REMARK  0 active torsions:
REMARK  status: ('A' for Active; 'I' for Inactive)
ROOT
ATOM      1  O1  BZF d   1      -2.206  -3.964  -5.041  0.00  0.00    -0.204 OA
ATOM      2  C2  BZF d   1      -1.497  -5.022  -5.575  0.00  0.00     0.174 A 
ATOM      3  C3  BZF d   1      -2.332  -5.999  -5.985  0.00  0.00    -0.012 A 
ATOM      4  C3A BZF d   1      -3.649  -5.482  -5.773  0.00  0.00    -0.107 A 
ATOM      5  C4  BZF d   1      -4.901  -5.980  -5.999  0.00  0.00     0.055 A 
ATOM      6  C5  BZF d   1      -5.981  -5.252  -5.612  0.00  0.00    -0.016 A 
ATOM      7  C6  BZF d   1      -5.846  -4.027  -4.992  0.00  0.00     0.022 A 
ATOM      8  C7  BZF d   1      -4.625  -3.490  -4.750  0.00  0.00     0.029 A 
ATOM      9  C7A BZF d   1      -3.532  -4.208  -5.170  0.00  0.00     0.058 A 
ENDROOT
TORSDOF 0
ENDMDL
