MODEL 1
REMARK minimizedAffinity -2.33658767
REMARK minimizedRMSD -1
REMARK  0 active torsions:
REMARK  status: ('A' for Active; 'I' for Inactive)
ROOT
ATOM      1  O1  BZF d   1      -5.470  -4.052  -4.112  0.00  0.00    -0.204 OA
ATOM      2  C2  BZF d   1      -5.850  -3.197  -5.128  0.00  0.00     0.174 A 
ATOM      3  C3  BZF d   1      -4.836  -3.006  -5.996  0.00  0.00    -0.012 A 
ATOM      4  C3A BZF d   1      -3.784  -3.863  -5.542  0.00  0.00    -0.107 A 
ATOM      5  C4  BZF d   1      -2.525  -4.129  -5.999  0.00  0.00     0.055 A 
ATOM      6  C5  BZF d   1      -1.725  -4.961  -5.284  0.00  0.00    -0.016 A 
ATOM      7  C6  BZF d   1      -2.148  -5.541  -4.105  0.00  0.00     0.022 A 
ATOM      8  C7  BZF d   1      -3.390  -5.311  -3.614  0.00  0.00     0.029 A 
ATOM      9  C7A BZF d   1      -4.213  -4.496  -4.352  0.00  0.00     0.058 A 
ENDROOT
TORSDOF 0
ENDMDL
