MODEL 1
REMARK minimizedAffinity -2.45802903
REMARK minimizedRMSD -1
REMARK  0 active torsions:
REMARK  status: ('A' for Active; 'I' for Inactive)
ROOT
ATOM      1  O1  BZF d   1      -4.830  -3.191  -3.425  0.00  0.00    -0.204 OA
ATOM      2  C2  BZF d   1      -5.996  -3.006  -4.142  0.00  0.00     0.174 A 
ATOM      3  C3  BZF d   1      -5.997  -3.764  -5.257  0.00  0.00    -0.012 A 
ATOM      4  C3A BZF d   1      -4.794  -4.536  -5.189  0.00  0.00    -0.107 A 
ATOM      5  C4  BZF d   1      -4.240  -5.485  -6.000  0.00  0.00     0.055 A 
ATOM      6  C5  BZF d   1      -3.018  -5.991  -5.685  0.00  0.00    -0.016 A 
ATOM      7  C6  BZF d   1      -2.322  -5.568  -4.572  0.00  0.00     0.022 A 
ATOM      8  C7  BZF d   1      -2.834  -4.633  -3.734  0.00  0.00     0.029 A 
ATOM      9  C7A BZF d   1      -4.082  -4.143  -4.032  0.00  0.00     0.058 A 
ENDROOT
TORSDOF 0
ENDMDL
