MODEL 1
REMARK minimizedAffinity 2.44617534
REMARK minimizedRMSD -1
REMARK  0 active torsions:
REMARK  status: ('A' for Active; 'I' for Inactive)
ROOT
ATOM      1  O1  BZF d   1       3.302   1.354  -4.255  0.00  0.00    -0.204 OA
ATOM      2  C2  BZF d   1       3.780   1.070  -2.990  0.00  0.00     0.174 A 
ATOM      3  C3  BZF d   1       2.876   1.410  -2.049  0.00  0.00    -0.012 A 
ATOM      4  C3A BZF d   1       1.726   1.855  -2.775  0.00  0.00    -0.107 A 
ATOM      5  C4  BZF d   1       0.494   2.308  -2.397  0.00  0.00     0.055 A 
ATOM      6  C5  BZF d   1      -0.375   2.731  -3.352  0.00  0.00    -0.016 A 
ATOM      7  C6  BZF d   1      -0.045   2.721  -4.691  0.00  0.00     0.022 A 
ATOM      8  C7  BZF d   1       1.163   2.276  -5.115  0.00  0.00     0.029 A 
ATOM      9  C7A BZF d   1       2.032   1.816  -4.155  0.00  0.00     0.058 A 
ENDROOT
TORSDOF 0
ENDMDL
