MODEL 1
REMARK minimizedAffinity 1.97566509
REMARK minimizedRMSD -1
REMARK  0 active torsions:
REMARK  status: ('A' for Active; 'I' for Inactive)
ROOT
ATOM      1  O1  BZF d   1      -4.358  -4.132  -3.150  0.00  0.00    -0.204 OA
ATOM      2  C2  BZF d   1      -4.880  -3.023  -3.787  0.00  0.00     0.174 A 
ATOM      3  C3  BZF d   1      -4.212  -2.769  -4.930  0.00  0.00    -0.012 A 
ATOM      4  C3A BZF d   1      -3.269  -3.837  -5.060  0.00  0.00    -0.107 A 
ATOM      5  C4  BZF d   1      -2.329  -4.151  -6.000  0.00  0.00     0.055 A 
ATOM      6  C5  BZF d   1      -1.520  -5.223  -5.793  0.00  0.00    -0.016 A 
ATOM      7  C6  BZF d   1      -1.620  -5.999  -4.657  0.00  0.00     0.022 A 
ATOM      8  C7  BZF d   1      -2.540  -5.730  -3.699  0.00  0.00     0.029 A 
ATOM      9  C7A BZF d   1      -3.381  -4.667  -3.921  0.00  0.00     0.058 A 
ENDROOT
TORSDOF 0
ENDMDL
