MODEL 1
REMARK minimizedAffinity 8.45137215
REMARK minimizedRMSD -1
REMARK  0 active torsions:
REMARK  status: ('A' for Active; 'I' for Inactive)
ROOT
ATOM      1  O1  BZF d   1      -5.813  -4.118  -4.117  0.00  0.00    -0.204 OA
ATOM      2  C2  BZF d   1      -6.000  -3.773  -5.442  0.00  0.00     0.174 A 
ATOM      3  C3  BZF d   1      -4.840  -3.371  -6.000  0.00  0.00    -0.012 A 
ATOM      4  C3A BZF d   1      -3.849  -3.559  -4.985  0.00  0.00    -0.107 A 
ATOM      5  C4  BZF d   1      -2.500  -3.354  -4.940  0.00  0.00     0.055 A 
ATOM      6  C5  BZF d   1      -1.837  -3.568  -3.773  0.00  0.00    -0.016 A 
ATOM      7  C6  BZF d   1      -2.492  -3.980  -2.631  0.00  0.00     0.022 A 
ATOM      8  C7  BZF d   1      -3.829  -4.201  -2.628  0.00  0.00     0.029 A 
ATOM      9  C7A BZF d   1      -4.496  -4.018  -3.814  0.00  0.00     0.058 A 
ENDROOT
TORSDOF 0
ENDMDL
