MODEL 1
REMARK minimizedAffinity 0.0892354473
REMARK minimizedRMSD -1
REMARK  0 active torsions:
REMARK  status: ('A' for Active; 'I' for Inactive)
ROOT
ATOM      1  O1  BZF d   1      -2.429  -5.416  -6.000  0.00  0.00    -0.204 OA
ATOM      2  C2  BZF d   1      -3.748  -5.005  -5.989  0.00  0.00     0.174 A 
ATOM      3  C3  BZF d   1      -4.213  -4.922  -4.725  0.00  0.00    -0.012 A 
ATOM      4  C3A BZF d   1      -3.088  -5.215  -3.891  0.00  0.00    -0.107 A 
ATOM      5  C4  BZF d   1      -2.913  -5.274  -2.538  0.00  0.00     0.055 A 
ATOM      6  C5  BZF d   1      -1.707  -5.660  -2.044  0.00  0.00    -0.016 A 
ATOM      7  C6  BZF d   1      -0.658  -6.000  -2.873  0.00  0.00     0.022 A 
ATOM      8  C7  BZF d   1      -0.783  -5.952  -4.222  0.00  0.00     0.029 A 
ATOM      9  C7A BZF d   1      -1.990  -5.530  -4.724  0.00  0.00     0.058 A 
ENDROOT
TORSDOF 0
ENDMDL
