MODEL 1
REMARK minimizedAffinity -1.62838912
REMARK minimizedRMSD -1
REMARK  0 active torsions:
REMARK  status: ('A' for Active; 'I' for Inactive)
ROOT
ATOM      1  O1  BZF d   1      -5.068  -3.171  -3.853  0.00  0.00    -0.204 OA
ATOM      2  C2  BZF d   1      -6.000  -3.094  -4.870  0.00  0.00     0.174 A 
ATOM      3  C3  BZF d   1      -5.668  -3.917  -5.886  0.00  0.00    -0.012 A 
ATOM      4  C3A BZF d   1      -4.503  -4.616  -5.439  0.00  0.00    -0.107 A 
ATOM      5  C4  BZF d   1      -3.714  -5.580  -5.999  0.00  0.00     0.055 A 
ATOM      6  C5  BZF d   1      -2.608  -5.999  -5.330  0.00  0.00    -0.016 A 
ATOM      7  C6  BZF d   1      -2.258  -5.472  -4.104  0.00  0.00     0.022 A 
ATOM      8  C7  BZF d   1      -3.012  -4.518  -3.506  0.00  0.00     0.029 A 
ATOM      9  C7A BZF d   1      -4.149  -4.116  -4.165  0.00  0.00     0.058 A 
ENDROOT
TORSDOF 0
ENDMDL
