MODEL 1
REMARK minimizedAffinity -0.792119563
REMARK minimizedRMSD -1
REMARK  0 active torsions:
REMARK  status: ('A' for Active; 'I' for Inactive)
ROOT
ATOM      1  O1  BZF d   1      -2.460  -5.009  -4.097  0.00  0.00    -0.204 OA
ATOM      2  C2  BZF d   1      -2.231  -5.947  -5.086  0.00  0.00     0.174 A 
ATOM      3  C3  BZF d   1      -3.263  -5.990  -5.953  0.00  0.00    -0.012 A 
ATOM      4  C3A BZF d   1      -4.155  -4.954  -5.529  0.00  0.00    -0.107 A 
ATOM      5  C4  BZF d   1      -5.351  -4.494  -6.000  0.00  0.00     0.055 A 
ATOM      6  C5  BZF d   1      -5.999  -3.516  -5.313  0.00  0.00    -0.016 A 
ATOM      7  C6  BZF d   1      -5.484  -2.981  -4.151  0.00  0.00     0.022 A 
ATOM      8  C7  BZF d   1      -4.298  -3.402  -3.647  0.00  0.00     0.029 A 
ATOM      9  C7A BZF d   1      -3.624  -4.367  -4.357  0.00  0.00     0.058 A 
ENDROOT
TORSDOF 0
ENDMDL
