MODEL 1
REMARK minimizedAffinity -2.91235065
REMARK minimizedRMSD -1
REMARK  0 active torsions:
REMARK  status: ('A' for Active; 'I' for Inactive)
ROOT
ATOM      1  O1  BZF d   1      -4.975  -3.774  -3.941  0.00  0.00    -0.204 OA
ATOM      2  C2  BZF d   1      -5.848  -3.894  -5.004  0.00  0.00     0.174 A 
ATOM      3  C3  BZF d   1      -5.296  -4.621  -5.997  0.00  0.00    -0.012 A 
ATOM      4  C3A BZF d   1      -4.032  -5.056  -5.487  0.00  0.00    -0.107 A 
ATOM      5  C4  BZF d   1      -3.027  -5.825  -6.000  0.00  0.00     0.055 A 
ATOM      6  C5  BZF d   1      -1.892  -6.000  -5.273  0.00  0.00    -0.016 A 
ATOM      7  C6  BZF d   1      -1.727  -5.416  -4.034  0.00  0.00     0.022 A 
ATOM      8  C7  BZF d   1      -2.698  -4.649  -3.482  0.00  0.00     0.029 A 
ATOM      9  C7A BZF d   1      -3.859  -4.498  -4.199  0.00  0.00     0.058 A 
ENDROOT
TORSDOF 0
ENDMDL
