MODEL 1
REMARK minimizedAffinity -2.57289505
REMARK minimizedRMSD -1
REMARK  0 active torsions:
REMARK  status: ('A' for Active; 'I' for Inactive)
ROOT
ATOM      1  O1  BZF d   1      -2.260  -4.054  -4.695  0.00  0.00    -0.204 OA
ATOM      2  C2  BZF d   1      -1.522  -5.070  -5.271  0.00  0.00     0.174 A 
ATOM      3  C3  BZF d   1      -2.333  -5.999  -5.818  0.00  0.00    -0.012 A 
ATOM      4  C3A BZF d   1      -3.658  -5.489  -5.649  0.00  0.00    -0.107 A 
ATOM      5  C4  BZF d   1      -4.894  -5.951  -6.000  0.00  0.00     0.055 A 
ATOM      6  C5  BZF d   1      -5.994  -5.247  -5.623  0.00  0.00    -0.016 A 
ATOM      7  C6  BZF d   1      -5.895  -4.082  -4.891  0.00  0.00     0.022 A 
ATOM      8  C7  BZF d   1      -4.691  -3.581  -4.524  0.00  0.00     0.029 A 
ATOM      9  C7A BZF d   1      -3.576  -4.272  -4.932  0.00  0.00     0.058 A 
ENDROOT
TORSDOF 0
ENDMDL
