MODEL 1
REMARK minimizedAffinity -4.58362198
REMARK minimizedRMSD -1
REMARK  1 active torsions:
REMARK  status: ('A' for Active; 'I' for Inactive)
REMARK    1  A    between atoms: C1_2  and  C2_3 
ROOT
ATOM      1  C2  UNL d   1      -0.772  -0.105   1.197  0.00  0.00    -0.076 A 
ATOM      2  C3  UNL d   1      -0.781  -0.502  -0.152  0.00  0.00     0.004 A 
ATOM      3  C4  UNL d   1       0.288  -0.203  -0.995  0.00  0.00    -0.003 A 
ATOM      4  C5  UNL d   1       1.384   0.496  -0.503  0.00  0.00     0.000 A 
ATOM      5  C6  UNL d   1       1.418   0.883   0.837  0.00  0.00     0.000 A 
ATOM      6  C7  UNL d   1       0.356   0.576   1.704  0.00  0.00    -0.073 A 
ATOM      7  C8  UNL d   1       0.442   1.022   3.138  0.00  0.00     0.078 C 
ENDROOT
BRANCH   1   8
ATOM      8  C1  UNL d   1      -1.972  -0.433   2.056  0.00  0.00     0.053 C 
ATOM      9  C   UNL d   1      -3.258   0.175   1.517  0.00  0.00     0.018 C 
ENDBRANCH   1   8
TORSDOF 1
ENDMDL
