MODEL 1
REMARK minimizedAffinity -5.25994349
REMARK minimizedRMSD -1
REMARK  1 active torsions:
REMARK  status: ('A' for Active; 'I' for Inactive)
REMARK    1  A    between atoms: C1_2  and  C2_3 
ROOT
ATOM      1  C2  UNL d   1      -0.804  -0.304   0.465  0.00  0.00    -0.076 A 
ATOM      2  C3  UNL d   1       0.471  -0.277   1.056  0.00  0.00     0.004 A 
ATOM      3  C4  UNL d   1       0.619  -0.184   2.439  0.00  0.00    -0.003 A 
ATOM      4  C5  UNL d   1      -0.507  -0.118   3.253  0.00  0.00     0.000 A 
ATOM      5  C6  UNL d   1      -1.779  -0.162   2.685  0.00  0.00     0.000 A 
ATOM      6  C7  UNL d   1      -1.946  -0.272   1.294  0.00  0.00    -0.073 A 
ATOM      7  C8  UNL d   1      -3.341  -0.309   0.734  0.00  0.00     0.078 C 
ENDROOT
BRANCH   1   8
ATOM      8  C1  UNL d   1      -0.902  -0.378  -1.042  0.00  0.00     0.053 C 
ATOM      9  C   UNL d   1       0.229   0.364  -1.737  0.00  0.00     0.018 C 
ENDBRANCH   1   8
TORSDOF 1
ENDMDL
