MODEL 1
REMARK minimizedAffinity -3.99781752
REMARK minimizedRMSD -1
REMARK  1 active torsions:
REMARK  status: ('A' for Active; 'I' for Inactive)
REMARK    1  A    between atoms: C1_2  and  C2_3 
ROOT
ATOM      1  C2  UNL d   1      -1.002   0.006   0.661  0.00  0.00    -0.076 A 
ATOM      2  C3  UNL d   1       0.227  -0.185   1.317  0.00  0.00     0.004 A 
ATOM      3  C4  UNL d   1       0.284  -0.338   2.702  0.00  0.00    -0.003 A 
ATOM      4  C5  UNL d   1      -0.885  -0.303   3.452  0.00  0.00     0.000 A 
ATOM      5  C6  UNL d   1      -2.114  -0.131   2.816  0.00  0.00     0.000 A 
ATOM      6  C7  UNL d   1      -2.192   0.008   1.420  0.00  0.00    -0.073 A 
ATOM      7  C8  UNL d   1      -3.543   0.196   0.787  0.00  0.00     0.078 C 
ENDROOT
BRANCH   1   8
ATOM      8  C1  UNL d   1      -1.000   0.193  -0.839  0.00  0.00     0.053 C 
ATOM      9  C   UNL d   1       0.396   0.102  -1.436  0.00  0.00     0.018 C 
ENDBRANCH   1   8
TORSDOF 1
ENDMDL
