MODEL 1
REMARK minimizedAffinity -1.47146833
REMARK minimizedRMSD -1
REMARK  1 active torsions:
REMARK  status: ('A' for Active; 'I' for Inactive)
REMARK    1  A    between atoms: C1_2  and  C2_3 
ROOT
ATOM      1  C2  UNL d   1       0.778   0.095  -0.972  0.00  0.00    -0.076 A 
ATOM      2  C3  UNL d   1       1.837  -0.218  -1.842  0.00  0.00     0.004 A 
ATOM      3  C4  UNL d   1       1.639  -1.052  -2.941  0.00  0.00    -0.003 A 
ATOM      4  C5  UNL d   1       0.379  -1.586  -3.189  0.00  0.00     0.000 A 
ATOM      5  C6  UNL d   1      -0.686  -1.271  -2.346  0.00  0.00     0.000 A 
ATOM      6  C7  UNL d   1      -0.508  -0.419  -1.243  0.00  0.00    -0.073 A 
ATOM      7  C8  UNL d   1      -1.691  -0.119  -0.364  0.00  0.00     0.078 C 
ENDROOT
BRANCH   1   8
ATOM      8  C1  UNL d   1       1.059   0.983   0.219  0.00  0.00     0.053 C 
ATOM      9  C   UNL d   1       1.414   0.189   1.467  0.00  0.00     0.018 C 
ENDBRANCH   1   8
TORSDOF 1
ENDMDL
