MODEL 1
REMARK minimizedAffinity -5.17676878
REMARK minimizedRMSD -1
REMARK  1 active torsions:
REMARK  status: ('A' for Active; 'I' for Inactive)
REMARK    1  A    between atoms: C1_2  and  C2_3 
ROOT
ATOM      1  C2  UNL d   1      -0.405   0.026   0.224  0.00  0.00    -0.076 A 
ATOM      2  C3  UNL d   1       0.853  -0.100   0.839  0.00  0.00     0.004 A 
ATOM      3  C4  UNL d   1       0.963  -0.481   2.176  0.00  0.00    -0.003 A 
ATOM      4  C5  UNL d   1      -0.184  -0.742   2.918  0.00  0.00     0.000 A 
ATOM      5  C6  UNL d   1      -1.438  -0.639   2.319  0.00  0.00     0.000 A 
ATOM      6  C7  UNL d   1      -1.566  -0.273   0.968  0.00  0.00    -0.073 A 
ATOM      7  C8  UNL d   1      -2.944  -0.171   0.375  0.00  0.00     0.078 C 
ENDROOT
BRANCH   1   8
ATOM      8  C1  UNL d   1      -0.463   0.468  -1.221  0.00  0.00     0.053 C 
ATOM      9  C   UNL d   1       0.274  -0.483  -2.152  0.00  0.00     0.018 C 
ENDBRANCH   1   8
TORSDOF 1
ENDMDL
