MODEL 1
REMARK minimizedAffinity -5.78723907
REMARK minimizedRMSD -1
REMARK  1 active torsions:
REMARK  status: ('A' for Active; 'I' for Inactive)
REMARK    1  A    between atoms: C1_2  and  C2_3 
ROOT
ATOM      1  C2  UNL d   1      -0.889  -0.047   0.495  0.00  0.00    -0.076 A 
ATOM      2  C3  UNL d   1      -2.259  -0.243   0.742  0.00  0.00     0.004 A 
ATOM      3  C4  UNL d   1      -2.735  -0.433   2.038  0.00  0.00    -0.003 A 
ATOM      4  C5  UNL d   1      -1.848  -0.430   3.109  0.00  0.00     0.000 A 
ATOM      5  C6  UNL d   1      -0.488  -0.219   2.884  0.00  0.00     0.000 A 
ATOM      6  C7  UNL d   1       0.006  -0.010   1.585  0.00  0.00    -0.073 A 
ATOM      7  C8  UNL d   1       1.483   0.206   1.400  0.00  0.00     0.078 C 
ENDROOT
BRANCH   1   8
ATOM      8  C1  UNL d   1      -0.428   0.126  -0.935  0.00  0.00     0.053 C 
ATOM      9  C   UNL d   1      -1.237   1.174  -1.684  0.00  0.00     0.018 C 
ENDBRANCH   1   8
TORSDOF 1
ENDMDL
