MODEL 1
REMARK minimizedAffinity 0.528232932
REMARK minimizedRMSD -1
REMARK  1 active torsions:
REMARK  status: ('A' for Active; 'I' for Inactive)
REMARK    1  A    between atoms: C1_2  and  C2_3 
ROOT
ATOM      1  C2  UNL d   1       0.015   0.191  -0.266  0.00  0.00    -0.076 A 
ATOM      2  C3  UNL d   1       1.324   0.116   0.240  0.00  0.00     0.004 A 
ATOM      3  C4  UNL d   1       1.566   0.151   1.613  0.00  0.00    -0.003 A 
ATOM      4  C5  UNL d   1       0.502   0.260   2.501  0.00  0.00     0.000 A 
ATOM      5  C6  UNL d   1      -0.805   0.318   2.017  0.00  0.00     0.000 A 
ATOM      6  C7  UNL d   1      -1.067   0.268   0.638  0.00  0.00    -0.073 A 
ATOM      7  C8  UNL d   1      -2.495   0.340   0.171  0.00  0.00     0.078 C 
ENDROOT
BRANCH   1   8
ATOM      8  C1  UNL d   1      -0.184   0.176  -1.765  0.00  0.00     0.053 C 
ATOM      9  C   UNL d   1       1.079  -0.214  -2.516  0.00  0.00     0.018 C 
ENDBRANCH   1   8
TORSDOF 1
ENDMDL
