MODEL 1
REMARK minimizedAffinity -6.10647202
REMARK minimizedRMSD -1
REMARK  1 active torsions:
REMARK  status: ('A' for Active; 'I' for Inactive)
REMARK    1  A    between atoms: C1_2  and  C2_3 
ROOT
ATOM      1  C2  UNL d   1      -0.215  -0.026   0.273  0.00  0.00    -0.076 A 
ATOM      2  C3  UNL d   1      -1.468  -0.474   0.725  0.00  0.00     0.004 A 
ATOM      3  C4  UNL d   1      -1.709  -0.680   2.083  0.00  0.00    -0.003 A 
ATOM      4  C5  UNL d   1      -0.701  -0.440   3.010  0.00  0.00     0.000 A 
ATOM      5  C6  UNL d   1       0.542   0.023   2.580  0.00  0.00     0.000 A 
ATOM      6  C7  UNL d   1       0.797   0.251   1.217  0.00  0.00    -0.073 A 
ATOM      7  C8  UNL d   1       2.158   0.744   0.809  0.00  0.00     0.078 C 
ENDROOT
BRANCH   1   8
ATOM      8  C1  UNL d   1      -0.004   0.154  -1.214  0.00  0.00     0.053 C 
ATOM      9  C   UNL d   1       0.141  -1.172  -1.946  0.00  0.00     0.018 C 
ENDBRANCH   1   8
TORSDOF 1
ENDMDL
