MODEL 1
REMARK minimizedAffinity -4.34464693
REMARK minimizedRMSD -1
REMARK  1 active torsions:
REMARK  status: ('A' for Active; 'I' for Inactive)
REMARK    1  A    between atoms: C1_2  and  C2_3 
ROOT
ATOM      1  C2  UNL d   1       0.530  -0.158  -1.398  0.00  0.00    -0.076 A 
ATOM      2  C3  UNL d   1       1.396  -1.188  -1.805  0.00  0.00     0.004 A 
ATOM      3  C4  UNL d   1       1.213  -1.841  -3.022  0.00  0.00    -0.003 A 
ATOM      4  C5  UNL d   1       0.160  -1.474  -3.853  0.00  0.00     0.000 A 
ATOM      5  C6  UNL d   1      -0.699  -0.444  -3.474  0.00  0.00     0.000 A 
ATOM      6  C7  UNL d   1      -0.519   0.236  -2.257  0.00  0.00    -0.073 A 
ATOM      7  C8  UNL d   1      -1.479   1.336  -1.895  0.00  0.00     0.078 C 
ENDROOT
BRANCH   1   8
ATOM      8  C1  UNL d   1       0.762   0.495  -0.054  0.00  0.00     0.053 C 
ATOM      9  C   UNL d   1       0.040  -0.223   1.076  0.00  0.00     0.018 C 
ENDBRANCH   1   8
TORSDOF 1
ENDMDL
