MODEL 1
REMARK minimizedAffinity -5.52679873
REMARK minimizedRMSD -1
REMARK  1 active torsions:
REMARK  status: ('A' for Active; 'I' for Inactive)
REMARK    1  A    between atoms: C1_2  and  C2_3 
ROOT
ATOM      1  C2  UNL d   1      -0.478  -0.266   0.491  0.00  0.00    -0.076 A 
ATOM      2  C3  UNL d   1      -1.852  -0.380   0.762  0.00  0.00     0.004 A 
ATOM      3  C4  UNL d   1      -2.347  -0.188   2.051  0.00  0.00    -0.003 A 
ATOM      4  C5  UNL d   1      -1.475   0.122   3.089  0.00  0.00     0.000 A 
ATOM      5  C6  UNL d   1      -0.111   0.256   2.834  0.00  0.00     0.000 A 
ATOM      6  C7  UNL d   1       0.402   0.082   1.538  0.00  0.00    -0.073 A 
ATOM      7  C8  UNL d   1       1.883   0.234   1.321  0.00  0.00     0.078 C 
ENDROOT
BRANCH   1   8
ATOM      8  C1  UNL d   1       0.004  -0.511  -0.921  0.00  0.00     0.053 C 
ATOM      9  C   UNL d   1      -0.084   0.733  -1.792  0.00  0.00     0.018 C 
ENDBRANCH   1   8
TORSDOF 1
ENDMDL
