MODEL 1
REMARK minimizedAffinity -4.60047626
REMARK minimizedRMSD -1
REMARK  0 active torsions:
REMARK  status: ('A' for Active; 'I' for Inactive)
ROOT
ATOM      1  C1  BNZ d   1      -0.743   0.261   1.114  0.00  0.00     0.000 A 
ATOM      2  C2  BNZ d   1      -1.349   1.336   1.708  0.00  0.00     0.000 A 
ATOM      3  C3  BNZ d   1      -1.294   2.576   1.135  0.00  0.00     0.000 A 
ATOM      4  C4  BNZ d   1      -0.601   2.747  -0.010  0.00  0.00     0.000 A 
ATOM      5  C5  BNZ d   1       0.023   1.675  -0.616  0.00  0.00     0.000 A 
ATOM      6  C6  BNZ d   1      -0.067   0.421  -0.056  0.00  0.00     0.000 A 
ENDROOT
TORSDOF 0
ENDMDL
