MODEL 1
REMARK minimizedAffinity -3.79674935
REMARK minimizedRMSD -1
REMARK  0 active torsions:
REMARK  status: ('A' for Active; 'I' for Inactive)
ROOT
ATOM      1  C1  BNZ d   1      -1.329   3.671   0.428  0.00  0.00     0.000 A 
ATOM      2  C2  BNZ d   1      -1.841   2.580   1.078  0.00  0.00     0.000 A 
ATOM      3  C3  BNZ d   1      -1.432   1.317   0.755  0.00  0.00     0.000 A 
ATOM      4  C4  BNZ d   1      -0.542   1.143  -0.243  0.00  0.00     0.000 A 
ATOM      5  C5  BNZ d   1      -0.023   2.232  -0.914  0.00  0.00     0.000 A 
ATOM      6  C6  BNZ d   1      -0.408   3.505  -0.560  0.00  0.00     0.000 A 
ENDROOT
TORSDOF 0
ENDMDL
