MODEL 1
REMARK minimizedAffinity -4.09992647
REMARK minimizedRMSD -1
REMARK  0 active torsions:
REMARK  status: ('A' for Active; 'I' for Inactive)
ROOT
ATOM      1  C1  BNZ d   1      -0.510   0.710  -0.603  0.00  0.00     0.000 A 
ATOM      2  C2  BNZ d   1      -0.144  -0.274   0.277  0.00  0.00     0.000 A 
ATOM      3  C3  BNZ d   1      -0.509  -0.207   1.593  0.00  0.00     0.000 A 
ATOM      4  C4  BNZ d   1      -1.204   0.860   2.035  0.00  0.00     0.000 A 
ATOM      5  C5  BNZ d   1      -1.573   1.864   1.162  0.00  0.00     0.000 A 
ATOM      6  C6  BNZ d   1      -1.238   1.775  -0.170  0.00  0.00     0.000 A 
ENDROOT
TORSDOF 0
ENDMDL
