MODEL 1
REMARK minimizedAffinity -4.11151934
REMARK minimizedRMSD -1
REMARK  0 active torsions:
REMARK  status: ('A' for Active; 'I' for Inactive)
ROOT
ATOM      1  C1  BNZ d   1      -0.084  -0.561   0.388  0.00  0.00     0.000 A 
ATOM      2  C2  BNZ d   1      -0.844  -0.540   1.527  0.00  0.00     0.000 A 
ATOM      3  C3  BNZ d   1      -1.585   0.561   1.854  0.00  0.00     0.000 A 
ATOM      4  C4  BNZ d   1      -1.534   1.653   1.065  0.00  0.00     0.000 A 
ATOM      5  C5  BNZ d   1      -0.765   1.651  -0.082  0.00  0.00     0.000 A 
ATOM      6  C6  BNZ d   1      -0.051   0.527  -0.429  0.00  0.00     0.000 A 
ENDROOT
TORSDOF 0
ENDMDL
