MODEL 1
REMARK minimizedAffinity -3.17644954
REMARK minimizedRMSD -1
REMARK  0 active torsions:
REMARK  status: ('A' for Active; 'I' for Inactive)
ROOT
ATOM      1  C1  BNZ d   1      -0.178  -0.103  -0.041  0.00  0.00     0.000 A 
ATOM      2  C2  BNZ d   1      -0.692  -0.135   1.228  0.00  0.00     0.000 A 
ATOM      3  C3  BNZ d   1      -1.359   0.943   1.741  0.00  0.00     0.000 A 
ATOM      4  C4  BNZ d   1      -1.475   2.064   1.000  0.00  0.00     0.000 A 
ATOM      5  C5  BNZ d   1      -0.955   2.115  -0.277  0.00  0.00     0.000 A 
ATOM      6  C6  BNZ d   1      -0.318   1.015  -0.804  0.00  0.00     0.000 A 
ENDROOT
TORSDOF 0
ENDMDL
