MODEL 1
REMARK minimizedAffinity -1.79664731
REMARK minimizedRMSD -1
REMARK  0 active torsions:
REMARK  status: ('A' for Active; 'I' for Inactive)
ROOT
ATOM      1  C1  BNZ d   1       0.269   2.096  -1.126  0.00  0.00     0.000 A 
ATOM      2  C2  BNZ d   1      -0.710   2.729  -0.408  0.00  0.00     0.000 A 
ATOM      3  C3  BNZ d   1      -1.410   2.063   0.560  0.00  0.00     0.000 A 
ATOM      4  C4  BNZ d   1      -1.158   0.757   0.779  0.00  0.00     0.000 A 
ATOM      5  C5  BNZ d   1      -0.180   0.102   0.057  0.00  0.00     0.000 A 
ATOM      6  C6  BNZ d   1       0.549   0.786  -0.889  0.00  0.00     0.000 A 
ENDROOT
TORSDOF 0
ENDMDL
