MODEL 1
REMARK minimizedAffinity -3.10801268
REMARK minimizedRMSD -1
REMARK  0 active torsions:
REMARK  status: ('A' for Active; 'I' for Inactive)
ROOT
ATOM      1  C1  BNZ d   1      -1.539   2.312   0.469  0.00  0.00     0.000 A 
ATOM      2  C2  BNZ d   1      -0.761   2.172  -0.649  0.00  0.00     0.000 A 
ATOM      3  C3  BNZ d   1      -0.060   1.020  -0.874  0.00  0.00     0.000 A 
ATOM      4  C4  BNZ d   1      -0.106   0.027   0.038  0.00  0.00     0.000 A 
ATOM      5  C5  BNZ d   1      -0.879   0.157   1.174  0.00  0.00     0.000 A 
ATOM      6  C6  BNZ d   1      -1.614   1.302   1.378  0.00  0.00     0.000 A 
ENDROOT
TORSDOF 0
ENDMDL
