MODEL 1
REMARK minimizedAffinity -4.15235329
REMARK minimizedRMSD -1
REMARK  0 active torsions:
REMARK  status: ('A' for Active; 'I' for Inactive)
ROOT
ATOM      1  C1  BNZ d   1      -0.015  -0.901   1.373  0.00  0.00     0.000 A 
ATOM      2  C2  BNZ d   1      -0.856   0.132   1.694  0.00  0.00     0.000 A 
ATOM      3  C3  BNZ d   1      -1.104   1.136   0.800  0.00  0.00     0.000 A 
ATOM      4  C4  BNZ d   1      -0.482   1.127  -0.396  0.00  0.00     0.000 A 
ATOM      5  C5  BNZ d   1       0.376   0.098  -0.731  0.00  0.00     0.000 A 
ATOM      6  C6  BNZ d   1       0.593  -0.931   0.156  0.00  0.00     0.000 A 
ENDROOT
TORSDOF 0
ENDMDL
