MODEL 1
REMARK minimizedAffinity -1.84964907
REMARK minimizedRMSD -1
REMARK  0 active torsions:
REMARK  status: ('A' for Active; 'I' for Inactive)
ROOT
ATOM      1  C1  BNZ d   1      -2.634   1.208   0.342  0.00  0.00     0.000 A 
ATOM      2  C2  BNZ d   1      -1.632   0.352  -0.031  0.00  0.00     0.000 A 
ATOM      3  C3  BNZ d   1      -0.497   0.235   0.720  0.00  0.00     0.000 A 
ATOM      4  C4  BNZ d   1      -0.347   1.001   1.820  0.00  0.00     0.000 A 
ATOM      5  C5  BNZ d   1      -1.344   1.876   2.204  0.00  0.00     0.000 A 
ATOM      6  C6  BNZ d   1      -2.503   1.963   1.466  0.00  0.00     0.000 A 
ENDROOT
TORSDOF 0
ENDMDL
