MODEL 1
REMARK minimizedAffinity -5.14709949
REMARK minimizedRMSD -1
REMARK  0 active torsions:
REMARK  status: ('A' for Active; 'I' for Inactive)
ROOT
ATOM      1  C1  BNZ d   1      -1.501   2.148  -0.125  0.00  0.00     0.000 A 
ATOM      2  C2  BNZ d   1      -0.804   1.087  -0.640  0.00  0.00     0.000 A 
ATOM      3  C3  BNZ d   1      -0.327   0.101   0.178  0.00  0.00     0.000 A 
ATOM      4  C4  BNZ d   1      -0.513   0.196   1.510  0.00  0.00     0.000 A 
ATOM      5  C5  BNZ d   1      -1.206   1.264   2.045  0.00  0.00     0.000 A 
ATOM      6  C6  BNZ d   1      -1.718   2.235   1.215  0.00  0.00     0.000 A 
ENDROOT
TORSDOF 0
ENDMDL
