MODEL 1
REMARK minimizedAffinity -4.77751541
REMARK minimizedRMSD -1
REMARK  0 active torsions:
REMARK  status: ('A' for Active; 'I' for Inactive)
ROOT
ATOM      1  C1  BNZ d   1      -0.946   1.472  -0.304  0.00  0.00     0.000 A 
ATOM      2  C2  BNZ d   1       0.001   0.535  -0.622  0.00  0.00     0.000 A 
ATOM      3  C3  BNZ d   1       0.359  -0.431   0.276  0.00  0.00     0.000 A 
ATOM      4  C4  BNZ d   1      -0.201  -0.436   1.503  0.00  0.00     0.000 A 
ATOM      5  C5  BNZ d   1      -1.151   0.507   1.841  0.00  0.00     0.000 A 
ATOM      6  C6  BNZ d   1      -1.537   1.455   0.921  0.00  0.00     0.000 A 
ENDROOT
TORSDOF 0
ENDMDL
