MODEL 1
REMARK minimizedAffinity -3.00417376
REMARK minimizedRMSD -1
REMARK  0 active torsions:
REMARK  status: ('A' for Active; 'I' for Inactive)
ROOT
ATOM      1  C1  BNZ d   1       0.858  -3.462  -1.939  0.00  0.00     0.000 A 
ATOM      2  C2  BNZ d   1       1.432  -2.841  -0.862  0.00  0.00     0.000 A 
ATOM      3  C3  BNZ d   1       1.176  -1.526  -0.594  0.00  0.00     0.000 A 
ATOM      4  C4  BNZ d   1       0.379  -0.823  -1.424  0.00  0.00     0.000 A 
ATOM      5  C5  BNZ d   1      -0.200  -1.432  -2.519  0.00  0.00     0.000 A 
ATOM      6  C6  BNZ d   1       0.029  -2.766  -2.765  0.00  0.00     0.000 A 
ENDROOT
TORSDOF 0
ENDMDL
