MODEL 1
REMARK minimizedAffinity -1.1081543
REMARK minimizedRMSD -1
REMARK  0 active torsions:
REMARK  status: ('A' for Active; 'I' for Inactive)
ROOT
ATOM      1  C1  BNZ d   1       0.727   1.465  -1.056  0.00  0.00     0.000 A 
ATOM      2  C2  BNZ d   1       0.085   2.673  -1.113  0.00  0.00     0.000 A 
ATOM      3  C3  BNZ d   1      -1.268   2.756  -0.935  0.00  0.00     0.000 A 
ATOM      4  C4  BNZ d   1      -1.981   1.628  -0.742  0.00  0.00     0.000 A 
ATOM      5  C5  BNZ d   1      -1.350   0.401  -0.692  0.00  0.00     0.000 A 
ATOM      6  C6  BNZ d   1       0.017   0.326  -0.832  0.00  0.00     0.000 A 
ENDROOT
TORSDOF 0
ENDMDL
