MODEL 1
REMARK minimizedAffinity -3.79032087
REMARK minimizedRMSD -1
REMARK  0 active torsions:
REMARK  status: ('A' for Active; 'I' for Inactive)
ROOT
ATOM      1  C1  BNZ d   1      -1.810   2.315   0.420  0.00  0.00     0.000 A 
ATOM      2  C2  BNZ d   1      -1.377   1.313  -0.407  0.00  0.00     0.000 A 
ATOM      3  C3  BNZ d   1      -0.747   0.210   0.099  0.00  0.00     0.000 A 
ATOM      4  C4  BNZ d   1      -0.515   0.130   1.425  0.00  0.00     0.000 A 
ATOM      5  C5  BNZ d   1      -0.937   1.136   2.271  0.00  0.00     0.000 A 
ATOM      6  C6  BNZ d   1      -1.605   2.226   1.763  0.00  0.00     0.000 A 
ENDROOT
TORSDOF 0
ENDMDL
