MODEL 1
REMARK minimizedAffinity -3.3016603
REMARK minimizedRMSD -1
REMARK  0 active torsions:
REMARK  status: ('A' for Active; 'I' for Inactive)
ROOT
ATOM      1  C1  BNZ d   1      -0.308   1.573  -0.636  0.00  0.00     0.000 A 
ATOM      2  C2  BNZ d   1       0.783   1.169  -1.358  0.00  0.00     0.000 A 
ATOM      3  C3  BNZ d   1       1.364  -0.046  -1.126  0.00  0.00     0.000 A 
ATOM      4  C4  BNZ d   1       0.880  -0.837  -0.146  0.00  0.00     0.000 A 
ATOM      5  C5  BNZ d   1      -0.213  -0.439   0.597  0.00  0.00     0.000 A 
ATOM      6  C6  BNZ d   1      -0.820   0.768   0.334  0.00  0.00     0.000 A 
ENDROOT
TORSDOF 0
ENDMDL
