MODEL 1
REMARK minimizedAffinity -3.75239015
REMARK minimizedRMSD -1
REMARK  0 active torsions:
REMARK  status: ('A' for Active; 'I' for Inactive)
ROOT
ATOM      1  C1  BNZ d   1      -1.789   1.206  -0.424  0.00  0.00     0.000 A 
ATOM      2  C2  BNZ d   1      -1.086   2.253  -0.956  0.00  0.00     0.000 A 
ATOM      3  C3  BNZ d   1       0.259   2.150  -1.183  0.00  0.00     0.000 A 
ATOM      4  C4  BNZ d   1       0.904   1.016  -0.841  0.00  0.00     0.000 A 
ATOM      5  C5  BNZ d   1       0.210  -0.045  -0.295  0.00  0.00     0.000 A 
ATOM      6  C6  BNZ d   1      -1.150   0.048  -0.105  0.00  0.00     0.000 A 
ENDROOT
TORSDOF 0
ENDMDL
