MODEL 1
REMARK minimizedAffinity 2.07985091
REMARK minimizedRMSD -1
REMARK  1 active torsions:
REMARK  status: ('A' for Active; 'I' for Inactive)
REMARK    1  A    between atoms: C3_4  and  O_7 
ROOT
ATOM      1  C   UNL d   1      -4.942  -3.563   6.000  0.00  0.00    -0.033 A 
ATOM      2  C1  UNL d   1      -6.000  -3.033   5.258  0.00  0.00     0.039 A 
ATOM      3  C2  UNL d   1      -5.742  -2.280   4.111  0.00  0.00    -0.080 A 
ATOM      4  C3  UNL d   1      -4.425  -2.065   3.717  0.00  0.00     0.150 A 
ATOM      5  C4  UNL d   1      -3.366  -2.593   4.449  0.00  0.00    -0.007 A 
ATOM      6  C5  UNL d   1      -3.625  -3.344   5.594  0.00  0.00     0.039 A 
ENDROOT
BRANCH   4   7
ATOM      7  O   UNL d   1      -4.124  -1.332   2.607  0.00  0.00    -0.526 OA
ATOM      8  H5  UNL d   1      -4.953  -1.007   2.218  0.00  0.00     0.418 HD
ENDBRANCH   4   7
TORSDOF 1
ENDMDL
