MODEL 1
REMARK minimizedAffinity -1.23589146
REMARK minimizedRMSD -1
REMARK  1 active torsions:
REMARK  status: ('A' for Active; 'I' for Inactive)
REMARK    1  A    between atoms: C3_4  and  O_7 
ROOT
ATOM      1  C   UNL d   1      -1.080  -3.679  -5.997  0.00  0.00    -0.033 A 
ATOM      2  C1  UNL d   1      -1.066  -5.075  -5.999  0.00  0.00     0.039 A 
ATOM      3  C2  UNL d   1      -2.266  -5.788  -5.998  0.00  0.00    -0.080 A 
ATOM      4  C3  UNL d   1      -3.473  -5.094  -5.997  0.00  0.00     0.150 A 
ATOM      5  C4  UNL d   1      -3.495  -3.703  -5.999  0.00  0.00    -0.007 A 
ATOM      6  C5  UNL d   1      -2.295  -2.993  -5.999  0.00  0.00     0.039 A 
ENDROOT
BRANCH   4   7
ATOM      7  O   UNL d   1      -4.670  -5.746  -5.992  0.00  0.00    -0.526 OA
ATOM      8  H5  UNL d   1      -4.500  -6.702  -5.962  0.00  0.00     0.418 HD
ENDBRANCH   4   7
TORSDOF 1
ENDMDL
