MODEL 1
REMARK minimizedAffinity -1.94591391
REMARK minimizedRMSD -1
REMARK  1 active torsions:
REMARK  status: ('A' for Active; 'I' for Inactive)
REMARK    1  A    between atoms: C3_4  and  O_7 
ROOT
ATOM      1  C   UNL d   1      -5.960  -3.547   5.680  0.00  0.00    -0.033 A 
ATOM      2  C1  UNL d   1      -5.994  -2.167   5.889  0.00  0.00     0.039 A 
ATOM      3  C2  UNL d   1      -5.994  -1.294   4.800  0.00  0.00    -0.080 A 
ATOM      4  C3  UNL d   1      -5.960  -1.812   3.509  0.00  0.00     0.150 A 
ATOM      5  C4  UNL d   1      -5.931  -3.186   3.292  0.00  0.00    -0.007 A 
ATOM      6  C5  UNL d   1      -5.930  -4.056   4.381  0.00  0.00     0.039 A 
ENDROOT
BRANCH   4   7
ATOM      7  O   UNL d   1      -5.954  -0.998   2.415  0.00  0.00    -0.526 OA
ATOM      8  H5  UNL d   1      -5.948  -0.075   2.718  0.00  0.00     0.418 HD
ENDBRANCH   4   7
TORSDOF 1
ENDMDL
