MODEL 1
REMARK minimizedAffinity -0.962655365
REMARK minimizedRMSD -1
REMARK  1 active torsions:
REMARK  status: ('A' for Active; 'I' for Inactive)
REMARK    1  A    between atoms: C3_4  and  O_7 
ROOT
ATOM      1  C   UNL d   1      -4.811  -4.846  -5.991  0.00  0.00    -0.033 A 
ATOM      2  C1  UNL d   1      -4.024  -6.000  -5.999  0.00  0.00     0.039 A 
ATOM      3  C2  UNL d   1      -2.632  -5.898  -5.992  0.00  0.00    -0.080 A 
ATOM      4  C3  UNL d   1      -2.039  -4.638  -5.976  0.00  0.00     0.150 A 
ATOM      5  C4  UNL d   1      -2.816  -3.485  -5.964  0.00  0.00    -0.007 A 
ATOM      6  C5  UNL d   1      -4.206  -3.588  -5.972  0.00  0.00     0.039 A 
ENDROOT
BRANCH   4   7
ATOM      7  O   UNL d   1      -0.684  -4.488  -5.973  0.00  0.00    -0.526 OA
ATOM      8  H5  UNL d   1      -0.277  -5.370  -6.012  0.00  0.00     0.418 HD
ENDBRANCH   4   7
TORSDOF 1
ENDMDL
