MODEL 1
REMARK minimizedAffinity 4.25926447
REMARK minimizedRMSD -1
REMARK  1 active torsions:
REMARK  status: ('A' for Active; 'I' for Inactive)
REMARK    1  A    between atoms: C3_4  and  O_7 
ROOT
ATOM      1  C   UNL d   1       0.123   3.763  -2.048  0.00  0.00    -0.033 A 
ATOM      2  C1  UNL d   1      -0.485   3.113  -0.972  0.00  0.00     0.039 A 
ATOM      3  C2  UNL d   1      -1.419   3.789  -0.184  0.00  0.00    -0.080 A 
ATOM      4  C3  UNL d   1      -1.736   5.111  -0.483  0.00  0.00     0.150 A 
ATOM      5  C4  UNL d   1      -1.137   5.763  -1.555  0.00  0.00    -0.007 A 
ATOM      6  C5  UNL d   1      -0.204   5.087  -2.340  0.00  0.00     0.039 A 
ENDROOT
BRANCH   4   7
ATOM      7  O   UNL d   1      -2.638   5.813   0.261  0.00  0.00    -0.526 OA
ATOM      8  H5  UNL d   1      -2.949   5.244   0.985  0.00  0.00     0.418 HD
ENDBRANCH   4   7
TORSDOF 1
ENDMDL
