MODEL 1
REMARK minimizedAffinity 6.05207729
REMARK minimizedRMSD -1
REMARK  1 active torsions:
REMARK  status: ('A' for Active; 'I' for Inactive)
REMARK    1  A    between atoms: C3_4  and  O_7 
ROOT
ATOM      1  C   UNL d   1      -0.094   4.822  -0.305  0.00  0.00    -0.033 A 
ATOM      2  C1  UNL d   1      -0.900   5.749  -0.966  0.00  0.00     0.039 A 
ATOM      3  C2  UNL d   1      -1.471   5.427  -2.199  0.00  0.00    -0.080 A 
ATOM      4  C3  UNL d   1      -1.228   4.175  -2.758  0.00  0.00     0.150 A 
ATOM      5  C4  UNL d   1      -0.428   3.245  -2.102  0.00  0.00    -0.007 A 
ATOM      6  C5  UNL d   1       0.141   3.569  -0.872  0.00  0.00     0.039 A 
ENDROOT
BRANCH   4   7
ATOM      7  O   UNL d   1      -1.759   3.817  -3.962  0.00  0.00    -0.526 OA
ATOM      8  H5  UNL d   1      -2.265   4.569  -4.311  0.00  0.00     0.418 HD
ENDBRANCH   4   7
TORSDOF 1
ENDMDL
