MODEL 1
REMARK minimizedAffinity -1.3762449
REMARK minimizedRMSD -1
REMARK  1 active torsions:
REMARK  status: ('A' for Active; 'I' for Inactive)
REMARK    1  A    between atoms: C3_4  and  O_7 
ROOT
ATOM      1  C   UNL d   1      -0.725  -4.216  -5.057  0.00  0.00    -0.033 A 
ATOM      2  C1  UNL d   1      -1.649  -3.388  -5.698  0.00  0.00     0.039 A 
ATOM      3  C2  UNL d   1      -2.926  -3.866  -6.000  0.00  0.00    -0.080 A 
ATOM      4  C3  UNL d   1      -3.266  -5.171  -5.655  0.00  0.00     0.150 A 
ATOM      5  C4  UNL d   1      -2.352  -6.000  -5.013  0.00  0.00    -0.007 A 
ATOM      6  C5  UNL d   1      -1.078  -5.522  -4.713  0.00  0.00     0.039 A 
ENDROOT
BRANCH   4   7
ATOM      7  O   UNL d   1      -4.498  -5.683  -5.934  0.00  0.00    -0.526 OA
ATOM      8  H5  UNL d   1      -5.014  -5.007  -6.404  0.00  0.00     0.418 HD
ENDBRANCH   4   7
TORSDOF 1
ENDMDL
