MODEL 1
REMARK minimizedAffinity 3.76273608
REMARK minimizedRMSD -1
REMARK  1 active torsions:
REMARK  status: ('A' for Active; 'I' for Inactive)
REMARK    1  A    between atoms: C1_2  and  C2_3 
ROOT
ATOM      1  C2  UNL d   1       3.156   0.175   2.311  0.00  0.00    -0.077 A 
ATOM      2  C3  UNL d   1       3.063   1.531   1.970  0.00  0.00     0.002 A 
ATOM      3  C4  UNL d   1       2.541   2.454   2.879  0.00  0.00     0.002 A 
ATOM      4  C5  UNL d   1       2.112   2.030   4.136  0.00  0.00    -0.004 A 
ATOM      5  C6  UNL d   1       2.198   0.682   4.483  0.00  0.00     0.002 A 
ATOM      6  C7  UNL d   1       2.719  -0.241   3.575  0.00  0.00     0.002 A 
ENDROOT
BRANCH   1   7
ATOM      7  C1  UNL d   1       3.764  -0.814   1.350  0.00  0.00     0.055 C 
ATOM      8  C   UNL d   1       4.836  -1.655   2.027  0.00  0.00     0.019 C 
ENDBRANCH   1   7
TORSDOF 1
ENDMDL
