MODEL 1
REMARK minimizedAffinity 4.60381889
REMARK minimizedRMSD -1
REMARK  1 active torsions:
REMARK  status: ('A' for Active; 'I' for Inactive)
REMARK    1  A    between atoms: C1_2  and  C2_3 
ROOT
ATOM      1  C2  UNL d   1       2.513  -5.953  -0.704  0.00  0.00    -0.077 A 
ATOM      2  C3  UNL d   1       3.527  -5.997   0.263  0.00  0.00     0.002 A 
ATOM      3  C4  UNL d   1       3.206  -6.000   1.622  0.00  0.00     0.002 A 
ATOM      4  C5  UNL d   1       1.873  -5.964   2.025  0.00  0.00    -0.004 A 
ATOM      5  C6  UNL d   1       0.858  -5.918   1.071  0.00  0.00     0.002 A 
ATOM      6  C7  UNL d   1       1.177  -5.914  -0.288  0.00  0.00     0.002 A 
ENDROOT
BRANCH   1   7
ATOM      7  C1  UNL d   1       2.856  -5.999  -2.171  0.00  0.00     0.055 C 
ATOM      8  C   UNL d   1       1.601  -5.992  -3.032  0.00  0.00     0.019 C 
ENDBRANCH   1   7
TORSDOF 1
ENDMDL
