MODEL 1
REMARK minimizedAffinity 3.89204144
REMARK minimizedRMSD -1
REMARK  1 active torsions:
REMARK  status: ('A' for Active; 'I' for Inactive)
REMARK    1  A    between atoms: C1_2  and  C2_3 
ROOT
ATOM      1  C2  UNL d   1       1.975  -0.587   3.015  0.00  0.00    -0.077 A 
ATOM      2  C3  UNL d   1       2.907  -0.977   2.043  0.00  0.00     0.002 A 
ATOM      3  C4  UNL d   1       3.495  -0.026   1.207  0.00  0.00     0.002 A 
ATOM      4  C5  UNL d   1       3.161   1.321   1.336  0.00  0.00    -0.004 A 
ATOM      5  C6  UNL d   1       2.233   1.718   2.298  0.00  0.00     0.002 A 
ATOM      6  C7  UNL d   1       1.643   0.769   3.134  0.00  0.00     0.002 A 
ENDROOT
BRANCH   1   7
ATOM      7  C1  UNL d   1       1.377  -1.604   3.951  0.00  0.00     0.055 C 
ATOM      8  C   UNL d   1       1.416  -1.120   5.393  0.00  0.00     0.019 C 
ENDBRANCH   1   7
TORSDOF 1
ENDMDL
