MODEL 1
REMARK minimizedAffinity -3.50954843
REMARK minimizedRMSD -1
REMARK  1 active torsions:
REMARK  status: ('A' for Active; 'I' for Inactive)
REMARK    1  A    between atoms: C1_2  and  C2_3 
ROOT
ATOM      1  C2  UNL d   1       4.839  -1.747  -5.128  0.00  0.00    -0.077 A 
ATOM      2  C3  UNL d   1       6.000  -2.533  -5.126  0.00  0.00     0.002 A 
ATOM      3  C4  UNL d   1       5.955  -3.860  -5.557  0.00  0.00     0.002 A 
ATOM      4  C5  UNL d   1       4.754  -4.412  -5.996  0.00  0.00    -0.004 A 
ATOM      5  C6  UNL d   1       3.593  -3.639  -6.000  0.00  0.00     0.002 A 
ATOM      6  C7  UNL d   1       3.636  -2.313  -5.568  0.00  0.00     0.002 A 
ENDROOT
BRANCH   1   7
ATOM      7  C1  UNL d   1       4.895  -0.301  -4.710  0.00  0.00     0.055 C 
ATOM      8  C   UNL d   1       4.609   0.625  -5.883  0.00  0.00     0.019 C 
ENDBRANCH   1   7
TORSDOF 1
ENDMDL
