MODEL 1
REMARK minimizedAffinity -3.04135251
REMARK minimizedRMSD -1
REMARK  1 active torsions:
REMARK  status: ('A' for Active; 'I' for Inactive)
REMARK    1  A    between atoms: C1_2  and  C2_3 
ROOT
ATOM      1  C2  UNL d   1       5.706  -1.833  -5.311  0.00  0.00    -0.077 A 
ATOM      2  C3  UNL d   1       5.854  -0.621  -6.000  0.00  0.00     0.002 A 
ATOM      3  C4  UNL d   1       5.626   0.593  -5.350  0.00  0.00     0.002 A 
ATOM      4  C5  UNL d   1       5.252   0.608  -4.008  0.00  0.00    -0.004 A 
ATOM      5  C6  UNL d   1       5.100  -0.592  -3.314  0.00  0.00     0.002 A 
ATOM      6  C7  UNL d   1       5.327  -1.807  -3.962  0.00  0.00     0.002 A 
ENDROOT
BRANCH   1   7
ATOM      7  C1  UNL d   1       6.000  -3.142  -5.996  0.00  0.00     0.055 C 
ATOM      8  C   UNL d   1       5.022  -4.225  -5.564  0.00  0.00     0.019 C 
ENDBRANCH   1   7
TORSDOF 1
ENDMDL
