MODEL 1
REMARK minimizedAffinity -2.02162838
REMARK minimizedRMSD -1
REMARK  0 active torsions:
REMARK  status: ('A' for Active; 'I' for Inactive)
ROOT
ATOM      1  C   UNL d   1      -1.490  -0.870   3.757  0.00  0.00     0.078 C 
ATOM      2  C1  UNL d   1      -0.850  -0.284   2.535  0.00  0.00    -0.077 A 
ATOM      3  C2  UNL d   1       0.476   0.166   2.560  0.00  0.00    -0.001 A 
ATOM      4  C3  UNL d   1       1.056   0.719   1.417  0.00  0.00     0.003 A 
ATOM      5  C4  UNL d   1       0.317   0.828   0.240  0.00  0.00    -0.005 A 
ATOM      6  C5  UNL d   1      -1.004   0.385   0.206  0.00  0.00     0.003 A 
ATOM      7  C6  UNL d   1      -1.585  -0.168   1.348  0.00  0.00    -0.001 A 
ENDROOT
TORSDOF 0
ENDMDL
