MODEL 1
REMARK minimizedAffinity -3.97983193
REMARK minimizedRMSD -1
REMARK  0 active torsions:
REMARK  status: ('A' for Active; 'I' for Inactive)
ROOT
ATOM      1  C   UNL d   1      -0.644   0.101  -0.290  0.00  0.00     0.078 C 
ATOM      2  C1  UNL d   1      -1.092  -0.015   1.136  0.00  0.00    -0.077 A 
ATOM      3  C2  UNL d   1      -2.442   0.129   1.482  0.00  0.00    -0.001 A 
ATOM      4  C3  UNL d   1      -2.843   0.028   2.815  0.00  0.00     0.003 A 
ATOM      5  C4  UNL d   1      -1.902  -0.214   3.813  0.00  0.00    -0.005 A 
ATOM      6  C5  UNL d   1      -0.557  -0.356   3.479  0.00  0.00     0.003 A 
ATOM      7  C6  UNL d   1      -0.153  -0.256   2.146  0.00  0.00    -0.001 A 
ENDROOT
TORSDOF 0
ENDMDL
