MODEL 1
REMARK minimizedAffinity -3.45337462
REMARK minimizedRMSD -1
REMARK  0 active torsions:
REMARK  status: ('A' for Active; 'I' for Inactive)
ROOT
ATOM      1  C   UNL d   1      -1.280  -1.537   3.608  0.00  0.00     0.078 C 
ATOM      2  C1  UNL d   1      -0.910  -0.768   2.375  0.00  0.00    -0.077 A 
ATOM      3  C2  UNL d   1      -1.766  -0.725   1.268  0.00  0.00    -0.001 A 
ATOM      4  C3  UNL d   1      -1.404  -0.012   0.124  0.00  0.00     0.003 A 
ATOM      5  C4  UNL d   1      -0.185   0.661   0.074  0.00  0.00    -0.005 A 
ATOM      6  C5  UNL d   1       0.674   0.622   1.170  0.00  0.00     0.003 A 
ATOM      7  C6  UNL d   1       0.315  -0.090   2.316  0.00  0.00    -0.001 A 
ENDROOT
TORSDOF 0
ENDMDL
