MODEL 1
REMARK minimizedAffinity 6.84762239
REMARK minimizedRMSD -1
REMARK  0 active torsions:
REMARK  status: ('A' for Active; 'I' for Inactive)
ROOT
ATOM      1  C   UNL d   1      -2.192   0.406  -0.315  0.00  0.00     0.078 C 
ATOM      2  C1  UNL d   1      -1.491   0.221   0.998  0.00  0.00    -0.077 A 
ATOM      3  C2  UNL d   1      -1.859  -0.808   1.873  0.00  0.00    -0.001 A 
ATOM      4  C3  UNL d   1      -1.204  -0.963   3.096  0.00  0.00     0.003 A 
ATOM      5  C4  UNL d   1      -0.178  -0.090   3.455  0.00  0.00    -0.005 A 
ATOM      6  C5  UNL d   1       0.193   0.939   2.592  0.00  0.00     0.003 A 
ATOM      7  C6  UNL d   1      -0.461   1.095   1.369  0.00  0.00    -0.001 A 
ENDROOT
TORSDOF 0
ENDMDL
