MODEL 1
REMARK minimizedAffinity 0.663841188
REMARK minimizedRMSD -1
REMARK  0 active torsions:
REMARK  status: ('A' for Active; 'I' for Inactive)
ROOT
ATOM      1  C   UNL d   1      -1.706   0.394  -0.330  0.00  0.00     0.078 C 
ATOM      2  C1  UNL d   1      -1.361   0.117   1.102  0.00  0.00    -0.077 A 
ATOM      3  C2  UNL d   1      -1.993  -0.912   1.810  0.00  0.00    -0.001 A 
ATOM      4  C3  UNL d   1      -1.668  -1.153   3.146  0.00  0.00     0.003 A 
ATOM      5  C4  UNL d   1      -0.712  -0.367   3.786  0.00  0.00    -0.005 A 
ATOM      6  C5  UNL d   1      -0.080   0.662   3.091  0.00  0.00     0.003 A 
ATOM      7  C6  UNL d   1      -0.403   0.903   1.755  0.00  0.00    -0.001 A 
ENDROOT
TORSDOF 0
ENDMDL
