MODEL 1
REMARK minimizedAffinity 6.59473991
REMARK minimizedRMSD -1
REMARK  0 active torsions:
REMARK  status: ('A' for Active; 'I' for Inactive)
ROOT
ATOM      1  C   UNL d   1       3.444  -0.024   1.484  0.00  0.00     0.078 C 
ATOM      2  C1  UNL d   1       1.965   0.050   1.717  0.00  0.00    -0.077 A 
ATOM      3  C2  UNL d   1       1.382  -0.543   2.844  0.00  0.00    -0.001 A 
ATOM      4  C3  UNL d   1       0.002  -0.475   3.044  0.00  0.00     0.003 A 
ATOM      5  C4  UNL d   1      -0.807   0.185   2.120  0.00  0.00    -0.005 A 
ATOM      6  C5  UNL d   1      -0.236   0.776   0.995  0.00  0.00     0.003 A 
ATOM      7  C6  UNL d   1       1.144   0.709   0.794  0.00  0.00    -0.001 A 
ENDROOT
TORSDOF 0
ENDMDL
