MODEL 1
REMARK minimizedAffinity 5.99579716
REMARK minimizedRMSD -1
REMARK  0 active torsions:
REMARK  status: ('A' for Active; 'I' for Inactive)
ROOT
ATOM      1  C   UNL d   1       0.969   0.922   3.428  0.00  0.00     0.078 C 
ATOM      2  C1  UNL d   1      -0.134   0.126   2.797  0.00  0.00    -0.077 A 
ATOM      3  C2  UNL d   1      -0.596  -1.058   3.384  0.00  0.00    -0.001 A 
ATOM      4  C3  UNL d   1      -1.616  -1.794   2.781  0.00  0.00     0.003 A 
ATOM      5  C4  UNL d   1      -2.183  -1.354   1.586  0.00  0.00    -0.005 A 
ATOM      6  C5  UNL d   1      -1.728  -0.179   0.993  0.00  0.00     0.003 A 
ATOM      7  C6  UNL d   1      -0.708   0.559   1.595  0.00  0.00    -0.001 A 
ENDROOT
TORSDOF 0
ENDMDL
