MODEL 1
REMARK minimizedAffinity 5.04799461
REMARK minimizedRMSD -1
REMARK  0 active torsions:
REMARK  status: ('A' for Active; 'I' for Inactive)
ROOT
ATOM      1  C   UNL d   1      -2.102  -0.264  -1.035  0.00  0.00     0.078 C 
ATOM      2  C1  UNL d   1      -2.237   0.142   0.402  0.00  0.00    -0.077 A 
ATOM      3  C2  UNL d   1      -3.451   0.627   0.903  0.00  0.00    -0.001 A 
ATOM      4  C3  UNL d   1      -3.560   1.010   2.241  0.00  0.00     0.003 A 
ATOM      5  C4  UNL d   1      -2.458   0.913   3.088  0.00  0.00    -0.005 A 
ATOM      6  C5  UNL d   1      -1.245   0.433   2.598  0.00  0.00     0.003 A 
ATOM      7  C6  UNL d   1      -1.134   0.049   1.261  0.00  0.00    -0.001 A 
ENDROOT
TORSDOF 0
ENDMDL
