MODEL 1
REMARK minimizedAffinity 12.229847
REMARK minimizedRMSD -1
REMARK  0 active torsions:
REMARK  status: ('A' for Active; 'I' for Inactive)
ROOT
ATOM      1  C   UNL d   1       5.194   3.764  -4.509  0.00  0.00     0.078 C 
ATOM      2  C1  UNL d   1       3.748   3.672  -4.894  0.00  0.00    -0.077 A 
ATOM      3  C2  UNL d   1       3.268   2.587  -5.639  0.00  0.00    -0.001 A 
ATOM      4  C3  UNL d   1       1.921   2.519  -5.999  0.00  0.00     0.003 A 
ATOM      5  C4  UNL d   1       1.043   3.533  -5.620  0.00  0.00    -0.005 A 
ATOM      6  C5  UNL d   1       1.512   4.617  -4.881  0.00  0.00     0.003 A 
ATOM      7  C6  UNL d   1       2.859   4.687  -4.520  0.00  0.00    -0.001 A 
ENDROOT
TORSDOF 0
ENDMDL
