MODEL 1
REMARK minimizedAffinity 2.16841078
REMARK minimizedRMSD -1
REMARK  0 active torsions:
REMARK  status: ('A' for Active; 'I' for Inactive)
ROOT
ATOM      1  C   UNL d   1      -3.393  -0.019   0.759  0.00  0.00     0.078 C 
ATOM      2  C1  UNL d   1      -2.449  -0.745  -0.153  0.00  0.00    -0.077 A 
ATOM      3  C2  UNL d   1      -2.500  -2.138  -0.284  0.00  0.00    -0.001 A 
ATOM      4  C3  UNL d   1      -1.609  -2.801  -1.129  0.00  0.00     0.003 A 
ATOM      5  C4  UNL d   1      -0.658  -2.079  -1.848  0.00  0.00    -0.005 A 
ATOM      6  C5  UNL d   1      -0.597  -0.693  -1.722  0.00  0.00     0.003 A 
ATOM      7  C6  UNL d   1      -1.488  -0.028  -0.878  0.00  0.00    -0.001 A 
ENDROOT
TORSDOF 0
ENDMDL
