MODEL 1
REMARK minimizedAffinity 5.54975224
REMARK minimizedRMSD -1
REMARK  0 active torsions:
REMARK  status: ('A' for Active; 'I' for Inactive)
ROOT
ATOM      1  C   UNL d   1      -1.823  -0.031   0.014  0.00  0.00     0.078 C 
ATOM      2  C1  UNL d   1      -1.395  -0.176   1.444  0.00  0.00    -0.077 A 
ATOM      3  C2  UNL d   1      -0.276   0.508   1.935  0.00  0.00    -0.001 A 
ATOM      4  C3  UNL d   1       0.116   0.356   3.266  0.00  0.00     0.003 A 
ATOM      5  C4  UNL d   1      -0.604  -0.480   4.116  0.00  0.00    -0.005 A 
ATOM      6  C5  UNL d   1      -1.718  -1.166   3.636  0.00  0.00     0.003 A 
ATOM      7  C6  UNL d   1      -2.111  -1.015   2.306  0.00  0.00    -0.001 A 
ENDROOT
TORSDOF 0
ENDMDL
