MODEL 1
REMARK minimizedAffinity 4.6340251
REMARK minimizedRMSD -1
REMARK  0 active torsions:
REMARK  status: ('A' for Active; 'I' for Inactive)
ROOT
ATOM      1  C   UNL d   1      -2.468   1.184   1.508  0.00  0.00     0.078 C 
ATOM      2  C1  UNL d   1      -1.016   0.814   1.562  0.00  0.00    -0.077 A 
ATOM      3  C2  UNL d   1      -0.371   0.599   2.786  0.00  0.00    -0.001 A 
ATOM      4  C3  UNL d   1       0.983   0.265   2.822  0.00  0.00     0.003 A 
ATOM      5  C4  UNL d   1       1.705   0.145   1.636  0.00  0.00    -0.005 A 
ATOM      6  C5  UNL d   1       1.073   0.359   0.413  0.00  0.00     0.003 A 
ATOM      7  C6  UNL d   1      -0.282   0.693   0.376  0.00  0.00    -0.001 A 
ENDROOT
TORSDOF 0
ENDMDL
