MODEL 1
REMARK minimizedAffinity 7.88971949
REMARK minimizedRMSD -1
REMARK  0 active torsions:
REMARK  status: ('A' for Active; 'I' for Inactive)
ROOT
ATOM      1  C   UNL d   1       3.449   2.742   0.550  0.00  0.00     0.078 C 
ATOM      2  C1  UNL d   1       2.287   2.426   1.444  0.00  0.00    -0.077 A 
ATOM      3  C2  UNL d   1       2.446   2.352   2.833  0.00  0.00    -0.001 A 
ATOM      4  C3  UNL d   1       1.357   2.047   3.652  0.00  0.00     0.003 A 
ATOM      5  C4  UNL d   1       0.103   1.814   3.091  0.00  0.00    -0.005 A 
ATOM      6  C5  UNL d   1      -0.063   1.884   1.710  0.00  0.00     0.003 A 
ATOM      7  C6  UNL d   1       1.024   2.188   0.889  0.00  0.00    -0.001 A 
ENDROOT
TORSDOF 0
ENDMDL
