MODEL 1
REMARK minimizedAffinity 0.0171607118
REMARK minimizedRMSD -1
REMARK  1 active torsions:
REMARK  status: ('A' for Active; 'I' for Inactive)
REMARK    1  A    between atoms: N_2  and  C1_3 
ROOT
ATOM      1  C1  UNL d   1       4.894  -4.337   3.216  0.00  0.00     0.143 A 
ATOM      2  C2  UNL d   1       5.248  -3.104   3.775  0.00  0.00    -0.057 A 
ATOM      3  C3  UNL d   1       5.463  -2.966   5.151  0.00  0.00     0.033 A 
ATOM      4  C4  UNL d   1       5.299  -4.056   6.000  0.00  0.00    -0.042 A 
ATOM      5  C5  UNL d   1       4.923  -5.285   5.469  0.00  0.00     0.033 A 
ATOM      6  C6  UNL d   1       4.716  -5.418   4.093  0.00  0.00    -0.057 A 
ENDROOT
BRANCH   1   7
ATOM      7  N   UNL d   1       4.571  -4.516   1.868  0.00  0.00    -0.732 N 
ATOM      8  C   UNL d   1       3.293  -4.074   1.352  0.00  0.00     0.284 C 
ATOM      9  H3  UNL d   1       5.357  -4.324   1.251  0.00  0.00     0.395 HD
ENDBRANCH   1   7
TORSDOF 1
ENDMDL
