MODEL 1
REMARK minimizedAffinity 0.712229848
REMARK minimizedRMSD -1
REMARK  1 active torsions:
REMARK  status: ('A' for Active; 'I' for Inactive)
REMARK    1  A    between atoms: N_2  and  C1_3 
ROOT
ATOM      1  C1  UNL d   1      -4.097  -0.631  -3.846  0.00  0.00     0.143 A 
ATOM      2  C2  UNL d   1      -5.466  -0.364  -3.956  0.00  0.00    -0.057 A 
ATOM      3  C3  UNL d   1      -5.971   0.420  -5.000  0.00  0.00     0.033 A 
ATOM      4  C4  UNL d   1      -5.109   0.977  -5.939  0.00  0.00    -0.042 A 
ATOM      5  C5  UNL d   1      -3.742   0.745  -5.835  0.00  0.00     0.033 A 
ATOM      6  C6  UNL d   1      -3.245  -0.044  -4.794  0.00  0.00    -0.057 A 
ENDROOT
BRANCH   1   7
ATOM      7  N   UNL d   1      -3.523  -1.322  -2.776  0.00  0.00    -0.732 N 
ATOM      8  C   UNL d   1      -3.191  -0.633  -1.547  0.00  0.00     0.284 C 
ATOM      9  H3  UNL d   1      -3.939  -2.240  -2.638  0.00  0.00     0.395 HD
ENDBRANCH   1   7
TORSDOF 1
ENDMDL
