MODEL 1
REMARK minimizedAffinity -3.28972292
REMARK minimizedRMSD -1
REMARK  1 active torsions:
REMARK  status: ('A' for Active; 'I' for Inactive)
REMARK    1  A    between atoms: N_2  and  C1_3 
ROOT
ATOM      1  C1  UNL d   1      -3.675  -0.913  -3.615  0.00  0.00     0.143 A 
ATOM      2  C2  UNL d   1      -5.017  -0.762  -3.983  0.00  0.00    -0.057 A 
ATOM      3  C3  UNL d   1      -5.375  -0.113  -5.171  0.00  0.00     0.033 A 
ATOM      4  C4  UNL d   1      -4.396   0.424  -6.000  0.00  0.00    -0.042 A 
ATOM      5  C5  UNL d   1      -3.058   0.308  -5.642  0.00  0.00     0.033 A 
ATOM      6  C6  UNL d   1      -2.706  -0.347  -4.458  0.00  0.00    -0.057 A 
ENDROOT
BRANCH   1   7
ATOM      7  N   UNL d   1      -3.259  -1.462  -2.400  0.00  0.00    -0.732 N 
ATOM      8  C   UNL d   1      -2.744  -0.614  -1.347  0.00  0.00     0.284 C 
ATOM      9  H3  UNL d   1      -3.880  -2.199  -2.074  0.00  0.00     0.395 HD
ENDBRANCH   1   7
TORSDOF 1
ENDMDL
