MODEL 1
REMARK minimizedAffinity -0.834708273
REMARK minimizedRMSD -1
REMARK  1 active torsions:
REMARK  status: ('A' for Active; 'I' for Inactive)
REMARK    1  A    between atoms: N_2  and  C1_3 
ROOT
ATOM      1  C1  UNL d   1      -3.851   0.770  -4.239  0.00  0.00     0.143 A 
ATOM      2  C2  UNL d   1      -3.626   1.068  -5.587  0.00  0.00    -0.057 A 
ATOM      3  C3  UNL d   1      -3.283   2.363  -5.997  0.00  0.00     0.033 A 
ATOM      4  C4  UNL d   1      -3.186   3.391  -5.065  0.00  0.00    -0.042 A 
ATOM      5  C5  UNL d   1      -3.429   3.122  -3.723  0.00  0.00     0.033 A 
ATOM      6  C6  UNL d   1      -3.765   1.827  -3.319  0.00  0.00    -0.057 A 
ENDROOT
BRANCH   1   7
ATOM      7  N   UNL d   1      -4.291  -0.474  -3.781  0.00  0.00    -0.732 N 
ATOM      8  C   UNL d   1      -3.660  -1.106  -2.641  0.00  0.00     0.284 C 
ATOM      9  H3  UNL d   1      -5.305  -0.556  -3.792  0.00  0.00     0.395 HD
ENDBRANCH   1   7
TORSDOF 1
ENDMDL
