MODEL 1
REMARK minimizedAffinity 3.10852766
REMARK minimizedRMSD -1
REMARK  1 active torsions:
REMARK  status: ('A' for Active; 'I' for Inactive)
REMARK    1  A    between atoms: N_2  and  C1_3 
ROOT
ATOM      1  C1  UNL d   1      -3.275  -0.604  -4.265  0.00  0.00     0.143 A 
ATOM      2  C2  UNL d   1      -3.219   0.518  -5.099  0.00  0.00    -0.057 A 
ATOM      3  C3  UNL d   1      -4.378   1.220  -5.451  0.00  0.00     0.033 A 
ATOM      4  C4  UNL d   1      -5.622   0.792  -4.998  0.00  0.00    -0.042 A 
ATOM      5  C5  UNL d   1      -5.704  -0.335  -4.189  0.00  0.00     0.033 A 
ATOM      6  C6  UNL d   1      -4.542  -1.028  -3.835  0.00  0.00    -0.057 A 
ENDROOT
BRANCH   1   7
ATOM      7  N   UNL d   1      -2.170  -1.402  -3.959  0.00  0.00    -0.732 N 
ATOM      8  C   UNL d   1      -1.595  -2.280  -4.956  0.00  0.00     0.284 C 
ATOM      9  H3  UNL d   1      -1.482  -0.911  -3.392  0.00  0.00     0.395 HD
ENDBRANCH   1   7
TORSDOF 1
ENDMDL
