MODEL 1
REMARK minimizedAffinity -0.889022291
REMARK minimizedRMSD -1
REMARK  1 active torsions:
REMARK  status: ('A' for Active; 'I' for Inactive)
REMARK    1  A    between atoms: N_2  and  C1_3 
ROOT
ATOM      1  C1  UNL d   1      -4.669   0.189  -5.030  0.00  0.00     0.143 A 
ATOM      2  C2  UNL d   1      -3.597   0.222  -5.929  0.00  0.00    -0.057 A 
ATOM      3  C3  UNL d   1      -2.418  -0.490  -5.679  0.00  0.00     0.033 A 
ATOM      4  C4  UNL d   1      -2.278  -1.227  -4.507  0.00  0.00    -0.042 A 
ATOM      5  C5  UNL d   1      -3.320  -1.254  -3.588  0.00  0.00     0.033 A 
ATOM      6  C6  UNL d   1      -4.498  -0.546  -3.846  0.00  0.00    -0.057 A 
ENDROOT
BRANCH   1   7
ATOM      7  N   UNL d   1      -5.829   0.953  -5.174  0.00  0.00    -0.732 N 
ATOM      8  C   UNL d   1      -5.749   2.360  -5.504  0.00  0.00     0.284 C 
ATOM      9  H3  UNL d   1      -6.565   0.453  -5.666  0.00  0.00     0.395 HD
ENDBRANCH   1   7
TORSDOF 1
ENDMDL
