MODEL 1
REMARK minimizedAffinity 2.741009
REMARK minimizedRMSD -1
REMARK  1 active torsions:
REMARK  status: ('A' for Active; 'I' for Inactive)
REMARK    1  A    between atoms: N_2  and  C1_3 
ROOT
ATOM      1  C1  UNL d   1      -3.247   0.278  -5.255  0.00  0.00     0.143 A 
ATOM      2  C2  UNL d   1      -2.402  -0.812  -5.020  0.00  0.00    -0.057 A 
ATOM      3  C3  UNL d   1      -2.790  -1.864  -4.181  0.00  0.00     0.033 A 
ATOM      4  C4  UNL d   1      -4.023  -1.830  -3.538  0.00  0.00    -0.042 A 
ATOM      5  C5  UNL d   1      -4.869  -0.745  -3.738  0.00  0.00     0.033 A 
ATOM      6  C6  UNL d   1      -4.478   0.299  -4.582  0.00  0.00    -0.057 A 
ENDROOT
BRANCH   1   7
ATOM      7  N   UNL d   1      -2.878   1.401  -6.000  0.00  0.00    -0.732 N 
ATOM      8  C   UNL d   1      -1.509   1.868  -6.000  0.00  0.00     0.284 C 
ATOM      9  H3  UNL d   1      -3.326   1.425  -6.913  0.00  0.00     0.395 HD
ENDBRANCH   1   7
TORSDOF 1
ENDMDL
