MODEL 1
REMARK minimizedAffinity 0.437955648
REMARK minimizedRMSD -1
REMARK  1 active torsions:
REMARK  status: ('A' for Active; 'I' for Inactive)
REMARK    1  A    between atoms: N_2  and  C1_3 
ROOT
ATOM      1  C1  UNL d   1      -3.195  -0.735  -4.451  0.00  0.00     0.143 A 
ATOM      2  C2  UNL d   1      -2.941   0.503  -5.051  0.00  0.00    -0.057 A 
ATOM      3  C3  UNL d   1      -3.985   1.323  -5.496  0.00  0.00     0.033 A 
ATOM      4  C4  UNL d   1      -5.306   0.904  -5.373  0.00  0.00    -0.042 A 
ATOM      5  C5  UNL d   1      -5.581  -0.333  -4.802  0.00  0.00     0.033 A 
ATOM      6  C6  UNL d   1      -4.534  -1.144  -4.354  0.00  0.00    -0.057 A 
ENDROOT
BRANCH   1   7
ATOM      7  N   UNL d   1      -2.197  -1.638  -4.078  0.00  0.00    -0.732 N 
ATOM      8  C   UNL d   1      -1.730  -2.645  -5.006  0.00  0.00     0.284 C 
ATOM      9  H3  UNL d   1      -1.457  -1.198  -3.536  0.00  0.00     0.395 HD
ENDBRANCH   1   7
TORSDOF 1
ENDMDL
