MODEL 1
REMARK minimizedAffinity 2.45819926
REMARK minimizedRMSD -1
REMARK  0 active torsions:
REMARK  status: ('A' for Active; 'I' for Inactive)
ROOT
ATOM      1  O1  BZF d   1      -1.515   3.686  -1.417  0.00  0.00    -0.204 OA
ATOM      2  C2  BZF d   1      -0.393   4.449  -1.156  0.00  0.00     0.174 A 
ATOM      3  C3  BZF d   1       0.617   3.676  -0.706  0.00  0.00    -0.012 A 
ATOM      4  C3A BZF d   1       0.123   2.335  -0.773  0.00  0.00    -0.107 A 
ATOM      5  C4  BZF d   1       0.666   1.118  -0.475  0.00  0.00     0.055 A 
ATOM      6  C5  BZF d   1      -0.107   0.005  -0.582  0.00  0.00    -0.016 A 
ATOM      7  C6  BZF d   1      -1.426   0.073  -0.977  0.00  0.00     0.022 A 
ATOM      8  C7  BZF d   1      -2.008   1.257  -1.288  0.00  0.00     0.029 A 
ATOM      9  C7A BZF d   1      -1.220   2.380  -1.213  0.00  0.00     0.058 A 
ENDROOT
TORSDOF 0
ENDMDL
