MODEL 1
REMARK minimizedAffinity 1.11138439
REMARK minimizedRMSD -1
REMARK  0 active torsions:
REMARK  status: ('A' for Active; 'I' for Inactive)
ROOT
ATOM      1  O1  BZF d   1       0.773  -3.883  -0.488  0.00  0.00    -0.204 OA
ATOM      2  C2  BZF d   1       0.056  -4.569  -1.449  0.00  0.00     0.174 A 
ATOM      3  C3  BZF d   1       0.880  -5.095  -2.377  0.00  0.00    -0.012 A 
ATOM      4  C3A BZF d   1       2.202  -4.792  -1.921  0.00  0.00    -0.107 A 
ATOM      5  C4  BZF d   1       3.449  -5.064  -2.408  0.00  0.00     0.055 A 
ATOM      6  C5  BZF d   1       4.534  -4.564  -1.762  0.00  0.00    -0.016 A 
ATOM      7  C6  BZF d   1       4.410  -3.784  -0.631  0.00  0.00     0.022 A 
ATOM      8  C7  BZF d   1       3.195  -3.491  -0.107  0.00  0.00     0.029 A 
ATOM      9  C7A BZF d   1       2.097  -4.023  -0.739  0.00  0.00     0.058 A 
ENDROOT
TORSDOF 0
ENDMDL
