MODEL 1
REMARK minimizedAffinity 9.85346603
REMARK minimizedRMSD -1
REMARK  0 active torsions:
REMARK  status: ('A' for Active; 'I' for Inactive)
ROOT
ATOM      1  O1  BZF d   1       3.997  -0.795   0.689  0.00  0.00    -0.204 OA
ATOM      2  C2  BZF d   1       3.177  -1.143   1.744  0.00  0.00     0.174 A 
ATOM      3  C3  BZF d   1       3.119  -2.484   1.883  0.00  0.00    -0.012 A 
ATOM      4  C3A BZF d   1       4.028  -3.003   0.908  0.00  0.00    -0.107 A 
ATOM      5  C4  BZF d   1       4.419  -4.266   0.568  0.00  0.00     0.055 A 
ATOM      6  C5  BZF d   1       5.269  -4.435  -0.480  0.00  0.00    -0.016 A 
ATOM      7  C6  BZF d   1       5.741  -3.365  -1.211  0.00  0.00     0.022 A 
ATOM      8  C7  BZF d   1       5.385  -2.093  -0.908  0.00  0.00     0.029 A 
ATOM      9  C7A BZF d   1       4.553  -1.916   0.170  0.00  0.00     0.058 A 
ENDROOT
TORSDOF 0
ENDMDL
