MODEL 1
REMARK minimizedAffinity 6.56529522
REMARK minimizedRMSD -1
REMARK  0 active torsions:
REMARK  status: ('A' for Active; 'I' for Inactive)
ROOT
ATOM      1  O1  BZF d   1      -1.219   2.736  -0.022  0.00  0.00    -0.204 OA
ATOM      2  C2  BZF d   1      -0.480   2.276   1.051  0.00  0.00     0.174 A 
ATOM      3  C3  BZF d   1       0.609   3.047   1.249  0.00  0.00    -0.012 A 
ATOM      4  C3A BZF d   1       0.498   4.107   0.293  0.00  0.00    -0.107 A 
ATOM      5  C4  BZF d   1       1.268   5.198   0.007  0.00  0.00     0.055 A 
ATOM      6  C5  BZF d   1       0.919   5.997  -1.035  0.00  0.00    -0.016 A 
ATOM      7  C6  BZF d   1      -0.188   5.733  -1.814  0.00  0.00     0.022 A 
ATOM      8  C7  BZF d   1      -0.985   4.665  -1.566  0.00  0.00     0.029 A 
ATOM      9  C7A BZF d   1      -0.655   3.874  -0.493  0.00  0.00     0.058 A 
ENDROOT
TORSDOF 0
ENDMDL
