MODEL 1
REMARK minimizedAffinity 8.70063686
REMARK minimizedRMSD -1
REMARK  0 active torsions:
REMARK  status: ('A' for Active; 'I' for Inactive)
ROOT
ATOM      1  O1  BZF d   1       1.873   5.550  -3.265  0.00  0.00    -0.204 OA
ATOM      2  C2  BZF d   1       1.218   5.992  -4.399  0.00  0.00     0.174 A 
ATOM      3  C3  BZF d   1      -0.117   5.998  -4.209  0.00  0.00    -0.012 A 
ATOM      4  C3A BZF d   1      -0.304   5.618  -2.842  0.00  0.00    -0.107 A 
ATOM      5  C4  BZF d   1      -1.409   5.458  -2.055  0.00  0.00     0.055 A 
ATOM      6  C5  BZF d   1      -1.253   5.007  -0.782  0.00  0.00    -0.016 A 
ATOM      7  C6  BZF d   1      -0.010   4.700  -0.267  0.00  0.00     0.022 A 
ATOM      8  C7  BZF d   1       1.115   4.847  -1.009  0.00  0.00     0.029 A 
ATOM      9  C7A BZF d   1       0.964   5.334  -2.284  0.00  0.00     0.058 A 
ENDROOT
TORSDOF 0
ENDMDL
