MODEL 1
REMARK minimizedAffinity 11.6907663
REMARK minimizedRMSD -1
REMARK  0 active torsions:
REMARK  status: ('A' for Active; 'I' for Inactive)
ROOT
ATOM      1  O1  BZF d   1       1.411   5.293  -0.865  0.00  0.00    -0.204 OA
ATOM      2  C2  BZF d   1       0.911   4.860   0.348  0.00  0.00     0.174 A 
ATOM      3  C3  BZF d   1      -0.435   4.786   0.312  0.00  0.00    -0.012 A 
ATOM      4  C3A BZF d   1      -0.793   5.112  -1.034  0.00  0.00    -0.107 A 
ATOM      5  C4  BZF d   1      -1.986   5.193  -1.695  0.00  0.00     0.055 A 
ATOM      6  C5  BZF d   1      -1.998   5.609  -2.989  0.00  0.00    -0.016 A 
ATOM      7  C6  BZF d   1      -0.838   5.955  -3.650  0.00  0.00     0.022 A 
ATOM      8  C7  BZF d   1       0.370   5.885  -3.039  0.00  0.00     0.029 A 
ATOM      9  C7A BZF d   1       0.388   5.434  -1.741  0.00  0.00     0.058 A 
ENDROOT
TORSDOF 0
ENDMDL
