MODEL 1
REMARK minimizedAffinity 18.1010399
REMARK minimizedRMSD -1
REMARK  0 active torsions:
REMARK  status: ('A' for Active; 'I' for Inactive)
ROOT
ATOM      1  O1  BZF d   1       0.923   2.010  -0.314  0.00  0.00    -0.204 OA
ATOM      2  C2  BZF d   1       0.098   2.979   0.223  0.00  0.00     0.174 A 
ATOM      3  C3  BZF d   1      -1.198   2.631   0.090  0.00  0.00    -0.012 A 
ATOM      4  C3A BZF d   1      -1.179   1.323  -0.489  0.00  0.00    -0.107 A 
ATOM      5  C4  BZF d   1      -2.158   0.440  -0.848  0.00  0.00     0.055 A 
ATOM      6  C5  BZF d   1      -1.807  -0.724  -1.456  0.00  0.00    -0.016 A 
ATOM      7  C6  BZF d   1      -0.490  -1.034  -1.724  0.00  0.00     0.022 A 
ATOM      8  C7  BZF d   1       0.516  -0.193  -1.382  0.00  0.00     0.029 A 
ATOM      9  C7A BZF d   1       0.167   0.969  -0.738  0.00  0.00     0.058 A 
ENDROOT
TORSDOF 0
ENDMDL
