MODEL 1
REMARK minimizedAffinity 10.0639095
REMARK minimizedRMSD -1
REMARK  0 active torsions:
REMARK  status: ('A' for Active; 'I' for Inactive)
ROOT
ATOM      1  O1  BZF d   1       1.117   2.677   0.406  0.00  0.00    -0.204 OA
ATOM      2  C2  BZF d   1       0.853   2.170   1.664  0.00  0.00     0.174 A 
ATOM      3  C3  BZF d   1       0.033   2.993   2.349  0.00  0.00    -0.012 A 
ATOM      4  C3A BZF d   1      -0.306   4.037   1.430  0.00  0.00    -0.107 A 
ATOM      5  C4  BZF d   1      -1.101   5.144   1.518  0.00  0.00     0.055 A 
ATOM      6  C5  BZF d   1      -1.161   6.000   0.465  0.00  0.00    -0.016 A 
ATOM      7  C6  BZF d   1      -0.435   5.783  -0.689  0.00  0.00     0.022 A 
ATOM      8  C7  BZF d   1       0.363   4.696  -0.825  0.00  0.00     0.029 A 
ATOM      9  C7A BZF d   1       0.400   3.812   0.226  0.00  0.00     0.058 A 
ENDROOT
TORSDOF 0
ENDMDL
