MODEL 1
REMARK minimizedAffinity 4.69269276
REMARK minimizedRMSD -1
REMARK  1 active torsions:
REMARK  status: ('A' for Active; 'I' for Inactive)
REMARK    1  A    between atoms: N_2  and  C1_3 
ROOT
ATOM      1  C1  UNL d   1      -0.475   3.272   0.494  0.00  0.00     0.143 A 
ATOM      2  C2  UNL d   1      -1.712   2.943   1.059  0.00  0.00    -0.057 A 
ATOM      3  C3  UNL d   1      -1.797   2.350   2.325  0.00  0.00     0.033 A 
ATOM      4  C4  UNL d   1      -0.641   2.046   3.036  0.00  0.00    -0.042 A 
ATOM      5  C5  UNL d   1       0.600   2.340   2.483  0.00  0.00     0.033 A 
ATOM      6  C6  UNL d   1       0.678   2.939   1.222  0.00  0.00    -0.057 A 
ENDROOT
BRANCH   1   7
ATOM      7  N   UNL d   1      -0.320   3.773  -0.801  0.00  0.00    -0.732 N 
ATOM      8  C   UNL d   1      -0.615   5.159  -1.095  0.00  0.00     0.284 C 
ATOM      9  H3  UNL d   1       0.519   3.421  -1.256  0.00  0.00     0.395 HD
ENDBRANCH   1   7
TORSDOF 1
ENDMDL
