MODEL 1
REMARK minimizedAffinity 5.63720894
REMARK minimizedRMSD -1
REMARK  1 active torsions:
REMARK  status: ('A' for Active; 'I' for Inactive)
REMARK    1  A    between atoms: N_2  and  C1_3 
ROOT
ATOM      1  C1  UNL d   1      -0.117   3.098   1.458  0.00  0.00     0.143 A 
ATOM      2  C2  UNL d   1      -0.004   4.414   0.997  0.00  0.00    -0.057 A 
ATOM      3  C3  UNL d   1      -0.270   4.742  -0.338  0.00  0.00     0.033 A 
ATOM      4  C4  UNL d   1      -0.627   3.750  -1.246  0.00  0.00    -0.042 A 
ATOM      5  C5  UNL d   1      -0.721   2.431  -0.816  0.00  0.00     0.033 A 
ATOM      6  C6  UNL d   1      -0.461   2.111   0.520  0.00  0.00    -0.057 A 
ENDROOT
BRANCH   1   7
ATOM      7  N   UNL d   1       0.229   2.693   2.749  0.00  0.00    -0.732 N 
ATOM      8  C   UNL d   1       0.038   1.321   3.168  0.00  0.00     0.284 C 
ATOM      9  H3  UNL d   1       1.105   3.105   3.064  0.00  0.00     0.395 HD
ENDBRANCH   1   7
TORSDOF 1
ENDMDL
