MODEL 1
REMARK minimizedAffinity 4.80465221
REMARK minimizedRMSD -1
REMARK  1 active torsions:
REMARK  status: ('A' for Active; 'I' for Inactive)
REMARK    1  A    between atoms: N_2  and  C1_3 
ROOT
ATOM      1  C1  UNL d   1      -3.784   0.311  -0.060  0.00  0.00     0.143 A 
ATOM      2  C2  UNL d   1      -3.333  -0.939  -0.498  0.00  0.00    -0.057 A 
ATOM      3  C3  UNL d   1      -3.161  -1.212  -1.860  0.00  0.00     0.033 A 
ATOM      4  C4  UNL d   1      -3.465  -0.246  -2.813  0.00  0.00    -0.042 A 
ATOM      5  C5  UNL d   1      -3.939   0.995  -2.402  0.00  0.00     0.033 A 
ATOM      6  C6  UNL d   1      -4.103   1.264  -1.040  0.00  0.00    -0.057 A 
ENDROOT
BRANCH   1   7
ATOM      7  N   UNL d   1      -4.070   0.611   1.274  0.00  0.00    -0.732 N 
ATOM      8  C   UNL d   1      -4.268  -0.447   2.242  0.00  0.00     0.284 C 
ATOM      9  H3  UNL d   1      -3.523   1.395   1.622  0.00  0.00     0.395 HD
ENDBRANCH   1   7
TORSDOF 1
ENDMDL
