MODEL 1
REMARK minimizedAffinity 9.24518108
REMARK minimizedRMSD -1
REMARK  1 active torsions:
REMARK  status: ('A' for Active; 'I' for Inactive)
REMARK    1  A    between atoms: N_2  and  C1_3 
ROOT
ATOM      1  C1  UNL d   1      -2.451   1.328   0.235  0.00  0.00     0.143 A 
ATOM      2  C2  UNL d   1      -2.247   1.196   1.613  0.00  0.00    -0.057 A 
ATOM      3  C3  UNL d   1      -1.060   1.630   2.217  0.00  0.00     0.033 A 
ATOM      4  C4  UNL d   1      -0.041   2.180   1.445  0.00  0.00    -0.042 A 
ATOM      5  C5  UNL d   1      -0.212   2.298   0.071  0.00  0.00     0.033 A 
ATOM      6  C6  UNL d   1      -1.402   1.868  -0.525  0.00  0.00    -0.057 A 
ENDROOT
BRANCH   1   7
ATOM      7  N   UNL d   1      -3.567   0.826  -0.437  0.00  0.00    -0.732 N 
ATOM      8  C   UNL d   1      -4.832   0.668   0.248  0.00  0.00     0.284 C 
ATOM      9  H3  UNL d   1      -3.650   1.194  -1.382  0.00  0.00     0.395 HD
ENDBRANCH   1   7
TORSDOF 1
ENDMDL
