MODEL 1
REMARK minimizedAffinity -1.78069246
REMARK minimizedRMSD -1
REMARK  0 active torsions:
REMARK  status: ('A' for Active; 'I' for Inactive)
ROOT
ATOM      1  C   UNL d   1       1.790   2.167   1.629  0.00  0.00     0.172 C 
ATOM      2  N   UNL d   1       0.794   1.420   0.898  0.00  0.00    -0.070 N 
ATOM      3  C1  UNL d   1       1.035   0.326   0.110  0.00  0.00    -0.004 A 
ATOM      4  C2  UNL d   1      -0.171  -0.094  -0.408  0.00  0.00    -0.047 A 
ATOM      5  C3  UNL d   1      -1.171   0.777   0.085  0.00  0.00    -0.047 A 
ATOM      6  C4  UNL d   1      -0.546   1.705   0.891  0.00  0.00    -0.004 A 
ENDROOT
TORSDOF 0
ENDMDL
