MODEL 1
REMARK minimizedAffinity 4.6601634
REMARK minimizedRMSD -1
REMARK  0 active torsions:
REMARK  status: ('A' for Active; 'I' for Inactive)
ROOT
ATOM      1  C   UNL d   1       5.121   5.343   2.838  0.00  0.00     0.172 C 
ATOM      2  N   UNL d   1       4.457   4.349   2.029  0.00  0.00    -0.070 N 
ATOM      3  C1  UNL d   1       4.151   4.475   0.700  0.00  0.00    -0.004 A 
ATOM      4  C2  UNL d   1       3.524   3.314   0.299  0.00  0.00    -0.047 A 
ATOM      5  C3  UNL d   1       3.450   2.462   1.427  0.00  0.00    -0.047 A 
ATOM      6  C4  UNL d   1       4.035   3.127   2.484  0.00  0.00    -0.004 A 
ENDROOT
TORSDOF 0
ENDMDL
