MODEL 1
REMARK minimizedAffinity 6.12470102
REMARK minimizedRMSD -1
REMARK  0 active torsions:
REMARK  status: ('A' for Active; 'I' for Inactive)
ROOT
ATOM      1  C   UNL d   1       6.000   2.686  -2.904  0.00  0.00     0.172 C 
ATOM      2  N   UNL d   1       5.640   3.875  -2.167  0.00  0.00    -0.070 N 
ATOM      3  C1  UNL d   1       5.999   5.155  -2.492  0.00  0.00    -0.004 A 
ATOM      4  C2  UNL d   1       5.459   5.999  -1.545  0.00  0.00    -0.047 A 
ATOM      5  C3  UNL d   1       4.752   5.197  -0.618  0.00  0.00    -0.047 A 
ATOM      6  C4  UNL d   1       4.881   3.886  -1.027  0.00  0.00    -0.004 A 
ENDROOT
TORSDOF 0
ENDMDL
