MODEL 1
REMARK minimizedAffinity -1.42704856
REMARK minimizedRMSD -1
REMARK  0 active torsions:
REMARK  status: ('A' for Active; 'I' for Inactive)
ROOT
ATOM      1  C   UNL d   1      -6.000   2.847  -0.344  0.00  0.00     0.172 C 
ATOM      2  N   UNL d   1      -5.998   3.896  -1.336  0.00  0.00    -0.070 N 
ATOM      3  C1  UNL d   1      -5.995   5.241  -1.077  0.00  0.00    -0.004 A 
ATOM      4  C2  UNL d   1      -5.994   5.904  -2.285  0.00  0.00    -0.047 A 
ATOM      5  C3  UNL d   1      -5.997   4.924  -3.306  0.00  0.00    -0.047 A 
ATOM      6  C4  UNL d   1      -6.000   3.690  -2.691  0.00  0.00    -0.004 A 
ENDROOT
TORSDOF 0
ENDMDL
