MODEL 1
REMARK minimizedAffinity 0.281542897
REMARK minimizedRMSD -1
REMARK  0 active torsions:
REMARK  status: ('A' for Active; 'I' for Inactive)
ROOT
ATOM      1  C   UNL d   1       4.467   1.945  -5.949  0.00  0.00     0.172 C 
ATOM      2  N   UNL d   1       4.752   3.360  -5.961  0.00  0.00    -0.070 N 
ATOM      3  C1  UNL d   1       6.000   3.924  -5.936  0.00  0.00    -0.004 A 
ATOM      4  C2  UNL d   1       5.845   5.293  -5.960  0.00  0.00    -0.047 A 
ATOM      5  C3  UNL d   1       4.456   5.562  -6.000  0.00  0.00    -0.047 A 
ATOM      6  C4  UNL d   1       3.803   4.347  -6.000  0.00  0.00    -0.004 A 
ENDROOT
TORSDOF 0
ENDMDL
