MODEL 1
REMARK minimizedAffinity 2.26461029
REMARK minimizedRMSD -1
REMARK  0 active torsions:
REMARK  status: ('A' for Active; 'I' for Inactive)
ROOT
ATOM      1  C   UNL d   1      -0.751  -5.234  -3.671  0.00  0.00     0.172 C 
ATOM      2  N   UNL d   1      -1.936  -4.843  -2.945  0.00  0.00    -0.070 N 
ATOM      3  C1  UNL d   1      -2.268  -3.564  -2.588  0.00  0.00    -0.004 A 
ATOM      4  C2  UNL d   1      -3.468  -3.612  -1.911  0.00  0.00    -0.047 A 
ATOM      5  C3  UNL d   1      -3.870  -4.968  -1.859  0.00  0.00    -0.047 A 
ATOM      6  C4  UNL d   1      -2.904  -5.708  -2.506  0.00  0.00    -0.004 A 
ENDROOT
TORSDOF 0
ENDMDL
