MODEL 1
REMARK minimizedAffinity 1.00116348
REMARK minimizedRMSD -1
REMARK  0 active torsions:
REMARK  status: ('A' for Active; 'I' for Inactive)
ROOT
ATOM      1  C   UNL d   1       2.937   3.692   2.182  0.00  0.00     0.172 C 
ATOM      2  N   UNL d   1       2.065   2.641   1.714  0.00  0.00    -0.070 N 
ATOM      3  C1  UNL d   1       0.697   2.651   1.776  0.00  0.00    -0.004 A 
ATOM      4  C2  UNL d   1       0.241   1.471   1.229  0.00  0.00    -0.047 A 
ATOM      5  C3  UNL d   1       1.374   0.725   0.825  0.00  0.00    -0.047 A 
ATOM      6  C4  UNL d   1       2.490   1.473   1.138  0.00  0.00    -0.004 A 
ENDROOT
TORSDOF 0
ENDMDL
