MODEL 1
REMARK minimizedAffinity 0.520482957
REMARK minimizedRMSD -1
REMARK  0 active torsions:
REMARK  status: ('A' for Active; 'I' for Inactive)
ROOT
ATOM      1  C   UNL d   1       5.008   5.999   2.482  0.00  0.00     0.172 C 
ATOM      2  N   UNL d   1       4.338   5.999   3.761  0.00  0.00    -0.070 N 
ATOM      3  C1  UNL d   1       4.953   5.999   4.984  0.00  0.00    -0.004 A 
ATOM      4  C2  UNL d   1       3.970   6.000   5.951  0.00  0.00    -0.047 A 
ATOM      5  C3  UNL d   1       2.721   5.999   5.285  0.00  0.00    -0.047 A 
ATOM      6  C4  UNL d   1       2.978   5.999   3.930  0.00  0.00    -0.004 A 
ENDROOT
TORSDOF 0
ENDMDL
