MODEL 1
REMARK minimizedAffinity 8.08546257
REMARK minimizedRMSD -1
REMARK  0 active torsions:
REMARK  status: ('A' for Active; 'I' for Inactive)
ROOT
ATOM      1  C   UNL d   1       1.120   3.334  -5.957  0.00  0.00     0.172 C 
ATOM      2  N   UNL d   1      -0.042   4.191  -5.969  0.00  0.00    -0.070 N 
ATOM      3  C1  UNL d   1      -0.024   5.560  -5.954  0.00  0.00    -0.004 A 
ATOM      4  C2  UNL d   1      -1.330   6.000  -5.973  0.00  0.00    -0.047 A 
ATOM      5  C3  UNL d   1      -2.162   4.855  -5.999  0.00  0.00    -0.047 A 
ATOM      6  C4  UNL d   1      -1.338   3.749  -5.996  0.00  0.00    -0.004 A 
ENDROOT
TORSDOF 0
ENDMDL
