MODEL 1
REMARK minimizedAffinity -1.57753825
REMARK minimizedRMSD -1
REMARK  0 active torsions:
REMARK  status: ('A' for Active; 'I' for Inactive)
ROOT
ATOM      1  C   UNL d   1      -0.428  -5.073  -4.134  0.00  0.00     0.172 C 
ATOM      2  N   UNL d   1      -1.635  -4.862  -3.370  0.00  0.00    -0.070 N 
ATOM      3  C1  UNL d   1      -2.556  -5.823  -3.051  0.00  0.00    -0.004 A 
ATOM      4  C2  UNL d   1      -3.556  -5.223  -2.317  0.00  0.00    -0.047 A 
ATOM      5  C3  UNL d   1      -3.225  -3.853  -2.192  0.00  0.00    -0.047 A 
ATOM      6  C4  UNL d   1      -2.031  -3.656  -2.853  0.00  0.00    -0.004 A 
ENDROOT
TORSDOF 0
ENDMDL
