MODEL 1
REMARK minimizedAffinity 2.54970694
REMARK minimizedRMSD -1
REMARK  0 active torsions:
REMARK  status: ('A' for Active; 'I' for Inactive)
ROOT
ATOM      1  C   UNL d   1       3.809   1.503  -5.849  0.00  0.00     0.172 C 
ATOM      2  N   UNL d   1       4.447   2.798  -5.881  0.00  0.00    -0.070 N 
ATOM      3  C1  UNL d   1       5.794   3.027  -5.800  0.00  0.00    -0.004 A 
ATOM      4  C2  UNL d   1       5.996   4.389  -5.867  0.00  0.00    -0.047 A 
ATOM      5  C3  UNL d   1       4.725   4.999  -5.992  0.00  0.00    -0.047 A 
ATOM      6  C4  UNL d   1       3.784   3.992  -5.998  0.00  0.00    -0.004 A 
ENDROOT
TORSDOF 0
ENDMDL
