MODEL 1
REMARK minimizedAffinity 1.25885475
REMARK minimizedRMSD -1
REMARK  0 active torsions:
REMARK  status: ('A' for Active; 'I' for Inactive)
ROOT
ATOM      1  C   UNL d   1      -3.362  -0.566   0.774  0.00  0.00     0.172 C 
ATOM      2  N   UNL d   1      -2.706  -1.778   1.206  0.00  0.00    -0.070 N 
ATOM      3  C1  UNL d   1      -2.634  -2.944   0.493  0.00  0.00    -0.004 A 
ATOM      4  C2  UNL d   1      -1.928  -3.857   1.247  0.00  0.00    -0.047 A 
ATOM      5  C3  UNL d   1      -1.565  -3.217   2.456  0.00  0.00    -0.047 A 
ATOM      6  C4  UNL d   1      -2.060  -1.931   2.404  0.00  0.00    -0.004 A 
ENDROOT
TORSDOF 0
ENDMDL
