MODEL 1
REMARK minimizedAffinity 4.09217787
REMARK minimizedRMSD -1
REMARK  0 active torsions:
REMARK  status: ('A' for Active; 'I' for Inactive)
ROOT
ATOM      1  C   UNL d   1       5.695   3.527  -1.222  0.00  0.00     0.172 C 
ATOM      2  N   UNL d   1       5.457   3.951   0.138  0.00  0.00    -0.070 N 
ATOM      3  C1  UNL d   1       5.734   3.220   1.262  0.00  0.00    -0.004 A 
ATOM      4  C2  UNL d   1       5.364   3.972   2.356  0.00  0.00    -0.047 A 
ATOM      5  C3  UNL d   1       4.847   5.197   1.873  0.00  0.00    -0.047 A 
ATOM      6  C4  UNL d   1       4.916   5.158   0.496  0.00  0.00    -0.004 A 
ENDROOT
TORSDOF 0
ENDMDL
