MODEL 1
REMARK minimizedAffinity 1.36468875
REMARK minimizedRMSD -1
REMARK  0 active torsions:
REMARK  status: ('A' for Active; 'I' for Inactive)
ROOT
ATOM      1  C   UNL d   1      -2.447  -1.776  -2.483  0.00  0.00     0.172 C 
ATOM      2  N   UNL d   1      -2.735  -2.984  -1.747  0.00  0.00    -0.070 N 
ATOM      3  C1  UNL d   1      -3.974  -3.542  -1.581  0.00  0.00    -0.004 A 
ATOM      4  C2  UNL d   1      -3.826  -4.682  -0.821  0.00  0.00    -0.047 A 
ATOM      5  C3  UNL d   1      -2.450  -4.813  -0.518  0.00  0.00    -0.047 A 
ATOM      6  C4  UNL d   1      -1.797  -3.749  -1.104  0.00  0.00    -0.004 A 
ENDROOT
TORSDOF 0
ENDMDL
