MODEL 1
REMARK minimizedAffinity 0.28770417
REMARK minimizedRMSD -1
REMARK  0 active torsions:
REMARK  status: ('A' for Active; 'I' for Inactive)
ROOT
ATOM      1  C   UNL d   1      -3.926  -0.208  -1.301  0.00  0.00     0.077 C 
ATOM      2  C1  UNL d   1      -2.603  -0.379  -0.616  0.00  0.00    -0.074 A 
ATOM      3  C2  UNL d   1      -1.504  -0.911  -1.298  0.00  0.00    -0.005 A 
ATOM      4  C3  UNL d   1      -0.277  -1.056  -0.651  0.00  0.00     0.006 A 
ATOM      5  C4  UNL d   1      -0.136  -0.671   0.683  0.00  0.00    -0.005 A 
ATOM      6  C5  UNL d   1      -1.224  -0.135   1.381  0.00  0.00    -0.074 A 
ATOM      7  C6  UNL d   1      -1.087   0.293   2.812  0.00  0.00     0.077 C 
ATOM      8  C7  UNL d   1      -2.451   0.013   0.722  0.00  0.00    -0.001 A 
ENDROOT
TORSDOF 0
ENDMDL
