MODEL 1
REMARK minimizedAffinity -3.02612853
REMARK minimizedRMSD -1
REMARK  0 active torsions:
REMARK  status: ('A' for Active; 'I' for Inactive)
ROOT
ATOM      1  C   UNL d   1      -2.617   1.123  -0.371  0.00  0.00     0.077 C 
ATOM      2  C1  UNL d   1      -1.332   0.354  -0.277  0.00  0.00    -0.074 A 
ATOM      3  C2  UNL d   1      -1.292  -1.016  -0.555  0.00  0.00    -0.005 A 
ATOM      4  C3  UNL d   1      -0.088  -1.716  -0.473  0.00  0.00     0.006 A 
ATOM      5  C4  UNL d   1       1.086  -1.053  -0.113  0.00  0.00    -0.005 A 
ATOM      6  C5  UNL d   1       1.066   0.317   0.167  0.00  0.00    -0.074 A 
ATOM      7  C6  UNL d   1       2.321   1.046   0.545  0.00  0.00     0.077 C 
ATOM      8  C7  UNL d   1      -0.147   1.014   0.075  0.00  0.00    -0.001 A 
ENDROOT
TORSDOF 0
ENDMDL
