MODEL 1
REMARK minimizedAffinity -0.603391051
REMARK minimizedRMSD -1
REMARK  0 active torsions:
REMARK  status: ('A' for Active; 'I' for Inactive)
ROOT
ATOM      1  C   UNL d   1       3.709   1.807   1.887  0.00  0.00     0.077 C 
ATOM      2  C1  UNL d   1       3.997   3.267   1.699  0.00  0.00    -0.074 A 
ATOM      3  C2  UNL d   1       3.435   3.980   0.635  0.00  0.00    -0.005 A 
ATOM      4  C3  UNL d   1       3.704   5.340   0.479  0.00  0.00     0.006 A 
ATOM      5  C4  UNL d   1       4.537   6.000   1.384  0.00  0.00    -0.005 A 
ATOM      6  C5  UNL d   1       5.107   5.304   2.455  0.00  0.00    -0.074 A 
ATOM      7  C6  UNL d   1       5.996   6.000   3.442  0.00  0.00     0.077 C 
ATOM      8  C7  UNL d   1       4.826   3.939   2.609  0.00  0.00    -0.001 A 
ENDROOT
TORSDOF 0
ENDMDL
