MODEL 1
REMARK minimizedAffinity 3.85389113
REMARK minimizedRMSD -1
REMARK  0 active torsions:
REMARK  status: ('A' for Active; 'I' for Inactive)
ROOT
ATOM      1  C   UNL d   1       0.418  -1.384   4.863  0.00  0.00     0.077 C 
ATOM      2  C1  UNL d   1       0.089  -0.786   3.528  0.00  0.00    -0.074 A 
ATOM      3  C2  UNL d   1       1.070  -0.650   2.540  0.00  0.00    -0.005 A 
ATOM      4  C3  UNL d   1       0.747  -0.100   1.299  0.00  0.00     0.006 A 
ATOM      5  C4  UNL d   1      -0.557   0.319   1.035  0.00  0.00    -0.005 A 
ATOM      6  C5  UNL d   1      -1.552   0.190   2.010  0.00  0.00    -0.074 A 
ATOM      7  C6  UNL d   1      -2.961   0.626   1.738  0.00  0.00     0.077 C 
ATOM      8  C7  UNL d   1      -1.221  -0.370   3.251  0.00  0.00    -0.001 A 
ENDROOT
TORSDOF 0
ENDMDL
