MODEL 1
REMARK minimizedAffinity 2.49158335
REMARK minimizedRMSD -1
REMARK  0 active torsions:
REMARK  status: ('A' for Active; 'I' for Inactive)
ROOT
ATOM      1  C   UNL d   1       1.080  -0.984   2.951  0.00  0.00     0.077 C 
ATOM      2  C1  UNL d   1      -0.087  -0.345   2.258  0.00  0.00    -0.074 A 
ATOM      3  C2  UNL d   1      -0.944   0.522   2.945  0.00  0.00    -0.005 A 
ATOM      4  C3  UNL d   1      -2.019   1.116   2.284  0.00  0.00     0.006 A 
ATOM      5  C4  UNL d   1      -2.249   0.850   0.934  0.00  0.00    -0.005 A 
ATOM      6  C5  UNL d   1      -1.402  -0.014   0.231  0.00  0.00    -0.074 A 
ATOM      7  C6  UNL d   1      -1.629  -0.303  -1.223  0.00  0.00     0.077 C 
ATOM      8  C7  UNL d   1      -0.319  -0.601   0.900  0.00  0.00    -0.001 A 
ENDROOT
TORSDOF 0
ENDMDL
