MODEL 1
REMARK minimizedAffinity 1.43453383
REMARK minimizedRMSD -1
REMARK  0 active torsions:
REMARK  status: ('A' for Active; 'I' for Inactive)
ROOT
ATOM      1  C   UNL d   1       1.417   0.719   1.384  0.00  0.00     0.077 C 
ATOM      2  C1  UNL d   1       0.098   0.456   2.048  0.00  0.00    -0.074 A 
ATOM      3  C2  UNL d   1      -0.947   1.381   1.963  0.00  0.00    -0.005 A 
ATOM      4  C3  UNL d   1      -2.171   1.118   2.578  0.00  0.00     0.006 A 
ATOM      5  C4  UNL d   1      -2.362  -0.071   3.282  0.00  0.00    -0.005 A 
ATOM      6  C5  UNL d   1      -1.329  -1.009   3.377  0.00  0.00    -0.074 A 
ATOM      7  C6  UNL d   1      -1.521  -2.296   4.122  0.00  0.00     0.077 C 
ATOM      8  C7  UNL d   1      -0.104  -0.740   2.750  0.00  0.00    -0.001 A 
ENDROOT
TORSDOF 0
ENDMDL
