MODEL 1
REMARK minimizedAffinity 0.372381508
REMARK minimizedRMSD -1
REMARK  0 active torsions:
REMARK  status: ('A' for Active; 'I' for Inactive)
ROOT
ATOM      1  C   UNL d   1       3.409   1.730   2.211  0.00  0.00     0.077 C 
ATOM      2  C1  UNL d   1       3.582   3.219   2.250  0.00  0.00    -0.074 A 
ATOM      3  C2  UNL d   1       2.672   4.066   1.610  0.00  0.00    -0.005 A 
ATOM      4  C3  UNL d   1       2.840   5.450   1.664  0.00  0.00     0.006 A 
ATOM      5  C4  UNL d   1       3.920   6.000   2.356  0.00  0.00    -0.005 A 
ATOM      6  C5  UNL d   1       4.840   5.169   3.003  0.00  0.00    -0.074 A 
ATOM      7  C6  UNL d   1       6.000   5.744   3.760  0.00  0.00     0.077 C 
ATOM      8  C7  UNL d   1       4.660   3.780   2.951  0.00  0.00    -0.001 A 
ENDROOT
TORSDOF 0
ENDMDL
