MODEL 1
REMARK minimizedAffinity 6.70157099
REMARK minimizedRMSD -1
REMARK  0 active torsions:
REMARK  status: ('A' for Active; 'I' for Inactive)
ROOT
ATOM      1  C   UNL d   1       2.292   2.140   0.896  0.00  0.00     0.077 C 
ATOM      2  C1  UNL d   1       3.038   3.234   1.602  0.00  0.00    -0.074 A 
ATOM      3  C2  UNL d   1       3.072   4.532   1.083  0.00  0.00    -0.005 A 
ATOM      4  C3  UNL d   1       3.762   5.541   1.756  0.00  0.00     0.006 A 
ATOM      5  C4  UNL d   1       4.424   5.262   2.952  0.00  0.00    -0.005 A 
ATOM      6  C5  UNL d   1       4.400   3.970   3.487  0.00  0.00    -0.074 A 
ATOM      7  C6  UNL d   1       5.099   3.656   4.776  0.00  0.00     0.077 C 
ATOM      8  C7  UNL d   1       3.699   2.963   2.809  0.00  0.00    -0.001 A 
ENDROOT
TORSDOF 0
ENDMDL
