MODEL 1
REMARK minimizedAffinity -4.16010094
REMARK minimizedRMSD -1
REMARK  0 active torsions:
REMARK  status: ('A' for Active; 'I' for Inactive)
ROOT
ATOM      1  C   UNL d   1      -1.369   0.671   1.380  0.00  0.00     0.077 C 
ATOM      2  C1  UNL d   1      -0.731  -0.297   0.428  0.00  0.00    -0.074 A 
ATOM      3  C2  UNL d   1      -1.491  -0.956  -0.543  0.00  0.00    -0.005 A 
ATOM      4  C3  UNL d   1      -0.882  -1.846  -1.428  0.00  0.00     0.006 A 
ATOM      5  C4  UNL d   1       0.491  -2.086  -1.350  0.00  0.00    -0.005 A 
ATOM      6  C5  UNL d   1       1.267  -1.435  -0.386  0.00  0.00    -0.074 A 
ATOM      7  C6  UNL d   1       2.745  -1.674  -0.295  0.00  0.00     0.077 C 
ATOM      8  C7  UNL d   1       0.649  -0.537   0.495  0.00  0.00    -0.001 A 
ENDROOT
TORSDOF 0
ENDMDL
