MODEL 1
REMARK minimizedAffinity -0.391537279
REMARK minimizedRMSD -1
REMARK  2 active torsions:
REMARK  status: ('A' for Active; 'I' for Inactive)
REMARK    1  A    between atoms: C2'_3  and  C1'_4 
REMARK    2  A    between atoms: C1'_4  and  C1_5 
ROOT
ATOM      1  C1  I4B d   1      -0.245   0.423  -0.298  0.00  0.00    -0.075 A 
ATOM      2  C2  I4B d   1      -1.337  -0.121   0.330  0.00  0.00     0.003 A 
ATOM      3  C3  I4B d   1      -1.700   0.309   1.630  0.00  0.00     0.002 A 
ATOM      4  C4  I4B d   1      -0.918   1.242   2.279  0.00  0.00    -0.004 A 
ATOM      5  C5  I4B d   1       0.176   1.809   1.631  0.00  0.00     0.002 A 
ATOM      6  C6  I4B d   1       0.507   1.406   0.330  0.00  0.00     0.003 A 
ENDROOT
BRANCH   1   7
ATOM      7  C1' I4B d   1       0.128  -0.079  -1.657  0.00  0.00     0.060 C 
BRANCH   7   8
ATOM      8  C2' I4B d   1       0.301   1.121  -2.566  0.00  0.00    -0.013 C 
ATOM      9  C4' I4B d   1       1.750   1.333  -2.920  0.00  0.00     0.013 C 
ATOM     10  C3' I4B d   1      -0.529   0.895  -3.794  0.00  0.00     0.013 C 
ENDBRANCH   7   8
ENDBRANCH   1   7
TORSDOF 2
ENDMDL
