MODEL 1
REMARK minimizedAffinity -5.63454247
REMARK minimizedRMSD -1
REMARK  2 active torsions:
REMARK  status: ('A' for Active; 'I' for Inactive)
REMARK    1  A    between atoms: C2'_3  and  C1'_4 
REMARK    2  A    between atoms: C1'_4  and  C1_5 
ROOT
ATOM      1  C1  I4B d   1       0.175  -0.374  -0.397  0.00  0.00    -0.075 A 
ATOM      2  C2  I4B d   1      -1.180  -0.536  -0.542  0.00  0.00     0.003 A 
ATOM      3  C3  I4B d   1      -2.069  -0.000   0.421  0.00  0.00     0.002 A 
ATOM      4  C4  I4B d   1      -1.561   0.642   1.532  0.00  0.00    -0.004 A 
ATOM      5  C5  I4B d   1      -0.188   0.825   1.665  0.00  0.00     0.002 A 
ATOM      6  C6  I4B d   1       0.686   0.325   0.689  0.00  0.00     0.003 A 
ENDROOT
BRANCH   1   7
ATOM      7  C1' I4B d   1       1.087  -0.981  -1.416  0.00  0.00     0.060 C 
BRANCH   7   8
ATOM      8  C2' I4B d   1       0.886  -0.241  -2.723  0.00  0.00    -0.013 C 
ATOM      9  C4' I4B d   1       2.138   0.487  -3.135  0.00  0.00     0.013 C 
ATOM     10  C3' I4B d   1       0.473  -1.240  -3.762  0.00  0.00     0.013 C 
ENDBRANCH   7   8
ENDBRANCH   1   7
TORSDOF 2
ENDMDL
