MODEL 1
REMARK minimizedAffinity -5.30348206
REMARK minimizedRMSD -1
REMARK  2 active torsions:
REMARK  status: ('A' for Active; 'I' for Inactive)
REMARK    1  A    between atoms: C2'_3  and  C1'_4 
REMARK    2  A    between atoms: C1'_4  and  C1_5 
ROOT
ATOM      1  C1  I4B d   1       0.136  -0.089  -0.586  0.00  0.00    -0.075 A 
ATOM      2  C2  I4B d   1       1.228  -0.108   0.245  0.00  0.00     0.003 A 
ATOM      3  C3  I4B d   1       1.095   0.261   1.606  0.00  0.00     0.002 A 
ATOM      4  C4  I4B d   1      -0.130   0.686   2.078  0.00  0.00    -0.004 A 
ATOM      5  C5  I4B d   1      -1.242   0.682   1.239  0.00  0.00     0.002 A 
ATOM      6  C6  I4B d   1      -1.111   0.280  -0.098  0.00  0.00     0.003 A 
ENDROOT
BRANCH   1   7
ATOM      7  C1' I4B d   1       0.319  -0.453  -2.026  0.00  0.00     0.060 C 
BRANCH   7   8
ATOM      8  C2' I4B d   1       0.624   0.818  -2.793  0.00  0.00    -0.013 C 
ATOM      9  C4' I4B d   1       2.107   1.063  -2.874  0.00  0.00     0.013 C 
ATOM     10  C3' I4B d   1       0.020   0.689  -4.160  0.00  0.00     0.013 C 
ENDBRANCH   7   8
ENDBRANCH   1   7
TORSDOF 2
ENDMDL
