MODEL 1
REMARK minimizedAffinity -4.88414001
REMARK minimizedRMSD -1
REMARK  2 active torsions:
REMARK  status: ('A' for Active; 'I' for Inactive)
REMARK    1  A    between atoms: C2'_3  and  C1'_4 
REMARK    2  A    between atoms: C1'_4  and  C1_5 
ROOT
ATOM      1  C1  I4B d   1       0.401  -0.317  -0.578  0.00  0.00    -0.075 A 
ATOM      2  C2  I4B d   1       1.318  -0.064   0.411  0.00  0.00     0.003 A 
ATOM      3  C3  I4B d   1       0.894   0.440   1.665  0.00  0.00     0.002 A 
ATOM      4  C4  I4B d   1      -0.442   0.722   1.866  0.00  0.00    -0.004 A 
ATOM      5  C5  I4B d   1      -1.373   0.443   0.870  0.00  0.00     0.002 A 
ATOM      6  C6  I4B d   1      -0.951  -0.091  -0.356  0.00  0.00     0.003 A 
ENDROOT
BRANCH   1   7
ATOM      7  C1' I4B d   1       0.888  -0.818  -1.901  0.00  0.00     0.060 C 
BRANCH   7   8
ATOM      8  C2' I4B d   1       1.070   0.377  -2.814  0.00  0.00    -0.013 C 
ATOM      9  C4' I4B d   1       2.529   0.676  -3.036  0.00  0.00     0.013 C 
ATOM     10  C3' I4B d   1       0.375   0.080  -4.110  0.00  0.00     0.013 C 
ENDBRANCH   7   8
ENDBRANCH   1   7
TORSDOF 2
ENDMDL
