MODEL 1
REMARK minimizedAffinity -6.06521749
REMARK minimizedRMSD -1
REMARK  2 active torsions:
REMARK  status: ('A' for Active; 'I' for Inactive)
REMARK    1  A    between atoms: C2'_3  and  C1'_4 
REMARK    2  A    between atoms: C1'_4  and  C1_5 
ROOT
ATOM      1  C1  I4B d   1       0.179  -0.004  -0.035  0.00  0.00    -0.075 A 
ATOM      2  C2  I4B d   1       0.869   0.658   0.949  0.00  0.00     0.003 A 
ATOM      3  C3  I4B d   1       0.169   1.345   1.971  0.00  0.00     0.002 A 
ATOM      4  C4  I4B d   1      -1.210   1.386   1.941  0.00  0.00    -0.004 A 
ATOM      5  C5  I4B d   1      -1.908   0.694   0.955  0.00  0.00     0.002 A 
ATOM      6  C6  I4B d   1      -1.210  -0.015  -0.033  0.00  0.00     0.003 A 
ENDROOT
BRANCH   1   7
ATOM      7  C1' I4B d   1       0.950  -0.692  -1.118  0.00  0.00     0.060 C 
BRANCH   7   8
ATOM      8  C2' I4B d   1       0.700   0.053  -2.413  0.00  0.00    -0.013 C 
ATOM      9  C4' I4B d   1       1.959   0.711  -2.915  0.00  0.00     0.013 C 
ATOM     10  C3' I4B d   1       0.166  -0.927  -3.415  0.00  0.00     0.013 C 
ENDBRANCH   7   8
ENDBRANCH   1   7
TORSDOF 2
ENDMDL
