MODEL 1
REMARK minimizedAffinity 4.08167791
REMARK minimizedRMSD -1
REMARK  1 active torsions:
REMARK  status: ('A' for Active; 'I' for Inactive)
REMARK    1  A    between atoms: C1_2  and  C2_3 
ROOT
ATOM      1  C2  UNL d   1      -1.239  -2.059   4.284  0.00  0.00    -0.081 A 
ATOM      2  C3  UNL d   1      -2.244  -2.420   5.190  0.00  0.00     0.006 A 
ATOM      3  C4  UNL d   1      -2.971  -3.599   5.008  0.00  0.00     0.002 A 
ATOM      4  C5  UNL d   1      -2.701  -4.440   3.923  0.00  0.00    -0.080 A 
ATOM      5  C6  UNL d   1      -3.453  -5.723   3.733  0.00  0.00     0.076 C 
ATOM      6  C7  UNL d   1      -1.709  -4.070   3.009  0.00  0.00     0.002 A 
ATOM      7  C8  UNL d   1      -0.982  -2.892   3.189  0.00  0.00     0.006 A 
ENDROOT
BRANCH   1   8
ATOM      8  C1  UNL d   1      -0.409  -0.822   4.513  0.00  0.00     0.054 C 
ATOM      9  C   UNL d   1      -1.250   0.310   5.086  0.00  0.00     0.018 C 
ENDBRANCH   1   8
TORSDOF 1
ENDMDL
