MODEL 1
REMARK minimizedAffinity -2.93003917
REMARK minimizedRMSD -1
REMARK  1 active torsions:
REMARK  status: ('A' for Active; 'I' for Inactive)
REMARK    1  A    between atoms: C1_2  and  C2_3 
ROOT
ATOM      1  C2  UNL d   1       1.320   3.744  -0.192  0.00  0.00    -0.081 A 
ATOM      2  C3  UNL d   1       1.511   2.636   0.643  0.00  0.00     0.006 A 
ATOM      3  C4  UNL d   1       1.513   1.343   0.115  0.00  0.00     0.002 A 
ATOM      4  C5  UNL d   1       1.333   1.137  -1.257  0.00  0.00    -0.080 A 
ATOM      5  C6  UNL d   1       1.364  -0.244  -1.841  0.00  0.00     0.076 C 
ATOM      6  C7  UNL d   1       1.124   2.242  -2.089  0.00  0.00     0.002 A 
ATOM      7  C8  UNL d   1       1.121   3.535  -1.561  0.00  0.00     0.006 A 
ENDROOT
BRANCH   1   8
ATOM      8  C1  UNL d   1       1.381   5.143   0.365  0.00  0.00     0.054 C 
ATOM      9  C   UNL d   1       2.381   6.000  -0.399  0.00  0.00     0.018 C 
ENDBRANCH   1   8
TORSDOF 1
ENDMDL
