MODEL 1
REMARK minimizedAffinity 4.7169466
REMARK minimizedRMSD -1
REMARK  1 active torsions:
REMARK  status: ('A' for Active; 'I' for Inactive)
REMARK    1  A    between atoms: C1_2  and  C2_3 
ROOT
ATOM      1  C2  UNL d   1      -2.176   0.752   3.723  0.00  0.00    -0.081 A 
ATOM      2  C3  UNL d   1      -1.170   0.542   4.674  0.00  0.00     0.006 A 
ATOM      3  C4  UNL d   1      -0.738  -0.752   4.975  0.00  0.00     0.002 A 
ATOM      4  C5  UNL d   1      -1.300  -1.856   4.325  0.00  0.00    -0.080 A 
ATOM      5  C6  UNL d   1      -0.824  -3.249   4.616  0.00  0.00     0.076 C 
ATOM      6  C7  UNL d   1      -2.317  -1.648   3.387  0.00  0.00     0.002 A 
ATOM      7  C8  UNL d   1      -2.749  -0.355   3.086  0.00  0.00     0.006 A 
ENDROOT
BRANCH   1   8
ATOM      8  C1  UNL d   1      -2.598   2.150   3.349  0.00  0.00     0.054 C 
ATOM      9  C   UNL d   1      -3.037   2.225   1.894  0.00  0.00     0.018 C 
ENDBRANCH   1   8
TORSDOF 1
ENDMDL
