MODEL 1
REMARK minimizedAffinity 2.95708537
REMARK minimizedRMSD -1
REMARK  1 active torsions:
REMARK  status: ('A' for Active; 'I' for Inactive)
REMARK    1  A    between atoms: C1_2  and  C2_3 
ROOT
ATOM      1  C2  UNL d   1       1.120   0.984   0.184  0.00  0.00    -0.081 A 
ATOM      2  C3  UNL d   1       1.069  -0.410   0.060  0.00  0.00     0.006 A 
ATOM      3  C4  UNL d   1       1.290  -1.019  -1.177  0.00  0.00     0.002 A 
ATOM      4  C5  UNL d   1       1.574  -0.247  -2.308  0.00  0.00    -0.080 A 
ATOM      5  C6  UNL d   1       1.844  -0.890  -3.636  0.00  0.00     0.076 C 
ATOM      6  C7  UNL d   1       1.608   1.147  -2.189  0.00  0.00     0.002 A 
ATOM      7  C8  UNL d   1       1.386   1.757  -0.952  0.00  0.00     0.006 A 
ENDROOT
BRANCH   1   8
ATOM      8  C1  UNL d   1       0.945   1.641   1.529  0.00  0.00     0.054 C 
ATOM      9  C   UNL d   1       2.249   1.648   2.315  0.00  0.00     0.018 C 
ENDBRANCH   1   8
TORSDOF 1
ENDMDL
