MODEL 1
REMARK minimizedAffinity -3.39526939
REMARK minimizedRMSD -1
REMARK  1 active torsions:
REMARK  status: ('A' for Active; 'I' for Inactive)
REMARK    1  A    between atoms: C1_2  and  C2_3 
ROOT
ATOM      1  C2  UNL d   1       1.401   2.199   0.322  0.00  0.00    -0.081 A 
ATOM      2  C3  UNL d   1       1.315   3.594   0.409  0.00  0.00     0.006 A 
ATOM      3  C4  UNL d   1       1.625   4.249   1.603  0.00  0.00     0.002 A 
ATOM      4  C5  UNL d   1       2.033   3.522   2.726  0.00  0.00    -0.080 A 
ATOM      5  C6  UNL d   1       2.398   4.216   4.005  0.00  0.00     0.076 C 
ATOM      6  C7  UNL d   1       2.103   2.128   2.645  0.00  0.00     0.002 A 
ATOM      7  C8  UNL d   1       1.792   1.472   1.451  0.00  0.00     0.006 A 
ENDROOT
BRANCH   1   8
ATOM      8  C1  UNL d   1       1.130   1.494  -0.983  0.00  0.00     0.054 C 
ATOM      9  C   UNL d   1       1.279   2.442  -2.165  0.00  0.00     0.018 C 
ENDBRANCH   1   8
TORSDOF 1
ENDMDL
