MODEL 1
REMARK minimizedAffinity -4.08932781
REMARK minimizedRMSD -1
REMARK  1 active torsions:
REMARK  status: ('A' for Active; 'I' for Inactive)
REMARK    1  A    between atoms: C1_2  and  C2_3 
ROOT
ATOM      1  C2  UNL d   1       1.370   0.346  -1.017  0.00  0.00    -0.081 A 
ATOM      2  C3  UNL d   1       1.584   1.345  -1.975  0.00  0.00     0.006 A 
ATOM      3  C4  UNL d   1       1.529   2.694  -1.615  0.00  0.00     0.002 A 
ATOM      4  C5  UNL d   1       1.267   3.066  -0.293  0.00  0.00    -0.080 A 
ATOM      5  C6  UNL d   1       1.236   4.510   0.113  0.00  0.00     0.076 C 
ATOM      6  C7  UNL d   1       1.036   2.068   0.660  0.00  0.00     0.002 A 
ATOM      7  C8  UNL d   1       1.090   0.720   0.302  0.00  0.00     0.006 A 
ENDROOT
BRANCH   1   8
ATOM      8  C1  UNL d   1       1.492  -1.110  -1.388  0.00  0.00     0.054 C 
ATOM      9  C   UNL d   1       0.630  -1.984  -0.488  0.00  0.00     0.018 C 
ENDBRANCH   1   8
TORSDOF 1
ENDMDL
