MODEL 1
REMARK minimizedAffinity -0.986037314
REMARK minimizedRMSD -1
REMARK  1 active torsions:
REMARK  status: ('A' for Active; 'I' for Inactive)
REMARK    1  A    between atoms: C1_2  and  C2_3 
ROOT
ATOM      1  C2  UNL d   1       1.432   4.005  -0.648  0.00  0.00    -0.081 A 
ATOM      2  C3  UNL d   1       1.521   3.115  -1.727  0.00  0.00     0.006 A 
ATOM      3  C4  UNL d   1       1.423   1.738  -1.518  0.00  0.00     0.002 A 
ATOM      4  C5  UNL d   1       1.227   1.227  -0.231  0.00  0.00    -0.080 A 
ATOM      5  C6  UNL d   1       1.089  -0.248   0.003  0.00  0.00     0.076 C 
ATOM      6  C7  UNL d   1       1.156   2.114   0.849  0.00  0.00     0.002 A 
ATOM      7  C8  UNL d   1       1.254   3.491   0.641  0.00  0.00     0.006 A 
ENDROOT
BRANCH   1   8
ATOM      8  C1  UNL d   1       1.473   5.494  -0.878  0.00  0.00     0.054 C 
ATOM      9  C   UNL d   1       2.853   5.946  -1.334  0.00  0.00     0.018 C 
ENDBRANCH   1   8
TORSDOF 1
ENDMDL
