MODEL 1
REMARK minimizedAffinity -1.93101108
REMARK minimizedRMSD -1
REMARK  1 active torsions:
REMARK  status: ('A' for Active; 'I' for Inactive)
REMARK    1  A    between atoms: C1_2  and  C2_3 
ROOT
ATOM      1  C2  UNL d   1       1.535   3.385   0.311  0.00  0.00    -0.081 A 
ATOM      2  C3  UNL d   1       1.303   2.486   1.359  0.00  0.00     0.006 A 
ATOM      3  C4  UNL d   1       1.031   1.143   1.092  0.00  0.00     0.002 A 
ATOM      4  C5  UNL d   1       0.994   0.674  -0.226  0.00  0.00    -0.080 A 
ATOM      5  C6  UNL d   1       0.732  -0.772  -0.524  0.00  0.00     0.076 C 
ATOM      6  C7  UNL d   1       1.208   1.575  -1.274  0.00  0.00     0.002 A 
ATOM      7  C8  UNL d   1       1.480   2.919  -1.008  0.00  0.00     0.006 A 
ENDROOT
BRANCH   1   8
ATOM      8  C1  UNL d   1       1.893   4.821   0.597  0.00  0.00     0.054 C 
ATOM      9  C   UNL d   1       1.644   5.706  -0.616  0.00  0.00     0.018 C 
ENDBRANCH   1   8
TORSDOF 1
ENDMDL
