MODEL 1
REMARK minimizedAffinity 0.381534576
REMARK minimizedRMSD -1
REMARK  1 active torsions:
REMARK  status: ('A' for Active; 'I' for Inactive)
REMARK    1  A    between atoms: C1_2  and  C2_3 
ROOT
ATOM      1  C2  UNL d   1      -5.365  -0.446   3.433  0.00  0.00    -0.081 A 
ATOM      2  C3  UNL d   1      -4.109  -0.236   2.849  0.00  0.00     0.006 A 
ATOM      3  C4  UNL d   1      -3.497   1.018   2.919  0.00  0.00     0.002 A 
ATOM      4  C5  UNL d   1      -4.125   2.078   3.581  0.00  0.00    -0.080 A 
ATOM      5  C6  UNL d   1      -3.465   3.421   3.690  0.00  0.00     0.076 C 
ATOM      6  C7  UNL d   1      -5.387   1.873   4.149  0.00  0.00     0.002 A 
ATOM      7  C8  UNL d   1      -6.000   0.620   4.078  0.00  0.00     0.006 A 
ENDROOT
BRANCH   1   8
ATOM      8  C1  UNL d   1      -5.999  -1.814   3.414  0.00  0.00     0.054 C 
ATOM      9  C   UNL d   1      -4.950  -2.908   3.274  0.00  0.00     0.018 C 
ENDBRANCH   1   8
TORSDOF 1
ENDMDL
