MODEL 1
REMARK minimizedAffinity -3.15691137
REMARK minimizedRMSD -1
REMARK  1 active torsions:
REMARK  status: ('A' for Active; 'I' for Inactive)
REMARK    1  A    between atoms: C1_2  and  C2_3 
ROOT
ATOM      1  C2  UNL d   1       1.573   3.719  -0.291  0.00  0.00    -0.081 A 
ATOM      2  C3  UNL d   1       1.355   2.849   0.784  0.00  0.00     0.006 A 
ATOM      3  C4  UNL d   1       1.136   1.488   0.561  0.00  0.00     0.002 A 
ATOM      4  C5  UNL d   1       1.138   0.972  -0.739  0.00  0.00    -0.080 A 
ATOM      5  C6  UNL d   1       0.934  -0.492  -0.991  0.00  0.00     0.076 C 
ATOM      6  C7  UNL d   1       1.338   1.844  -1.815  0.00  0.00     0.002 A 
ATOM      7  C8  UNL d   1       1.557   3.205  -1.593  0.00  0.00     0.006 A 
ENDROOT
BRANCH   1   8
ATOM      8  C1  UNL d   1       1.874   5.176  -0.050  0.00  0.00     0.054 C 
ATOM      9  C   UNL d   1       1.693   5.996  -1.319  0.00  0.00     0.018 C 
ENDBRANCH   1   8
TORSDOF 1
ENDMDL
