MODEL 1
REMARK minimizedAffinity 1.50531209
REMARK minimizedRMSD -1
REMARK  1 active torsions:
REMARK  status: ('A' for Active; 'I' for Inactive)
REMARK    1  A    between atoms: C1_2  and  C2_3 
ROOT
ATOM      1  C2  UNL d   1       1.321  -1.515  -0.103  0.00  0.00    -0.081 A 
ATOM      2  C3  UNL d   1       2.161  -0.547   0.461  0.00  0.00     0.006 A 
ATOM      3  C4  UNL d   1       2.216   0.742  -0.075  0.00  0.00     0.002 A 
ATOM      4  C5  UNL d   1       1.427   1.086  -1.178  0.00  0.00    -0.080 A 
ATOM      5  C6  UNL d   1       1.454   2.475  -1.744  0.00  0.00     0.076 C 
ATOM      6  C7  UNL d   1       0.601   0.114  -1.752  0.00  0.00     0.002 A 
ATOM      7  C8  UNL d   1       0.546  -1.175  -1.217  0.00  0.00     0.006 A 
ENDROOT
BRANCH   1   8
ATOM      8  C1  UNL d   1       1.211  -2.887   0.512  0.00  0.00     0.054 C 
ATOM      9  C   UNL d   1       2.470  -3.706   0.266  0.00  0.00     0.018 C 
ENDBRANCH   1   8
TORSDOF 1
ENDMDL
