MODEL 1
REMARK minimizedAffinity 8.66561508
REMARK minimizedRMSD -1
REMARK  1 active torsions:
REMARK  status: ('A' for Active; 'I' for Inactive)
REMARK    1  A    between atoms: C1_2  and  C2_3 
ROOT
ATOM      1  C2  UNL d   1       1.582   3.742  -0.679  0.00  0.00    -0.081 A 
ATOM      2  C3  UNL d   1       1.330   3.506  -2.036  0.00  0.00     0.006 A 
ATOM      3  C4  UNL d   1       1.098   2.208  -2.499  0.00  0.00     0.002 A 
ATOM      4  C5  UNL d   1       1.107   1.127  -1.611  0.00  0.00    -0.080 A 
ATOM      5  C6  UNL d   1       0.830  -0.268  -2.089  0.00  0.00     0.076 C 
ATOM      6  C7  UNL d   1       1.376   1.360  -0.258  0.00  0.00     0.002 A 
ATOM      7  C8  UNL d   1       1.609   2.657   0.204  0.00  0.00     0.006 A 
ENDROOT
BRANCH   1   8
ATOM      8  C1  UNL d   1       1.768   5.147  -0.167  0.00  0.00     0.054 C 
ATOM      9  C   UNL d   1       2.546   5.999  -1.160  0.00  0.00     0.018 C 
ENDBRANCH   1   8
TORSDOF 1
ENDMDL
