MODEL 1
REMARK minimizedAffinity -3.31919241
REMARK minimizedRMSD -1
REMARK  0 active torsions:
REMARK  status: ('A' for Active; 'I' for Inactive)
ROOT
ATOM      1  C   UNL d   1      -1.582   0.889   0.784  0.00  0.00     0.023 A 
ATOM      2  C1  UNL d   1      -0.549  -0.046   0.835  0.00  0.00     0.003 A 
ATOM      3  C2  UNL d   1       0.228  -0.293  -0.299  0.00  0.00     0.048 A 
ATOM      4  C3  UNL d   1      -0.035   0.400  -1.480  0.00  0.00     0.023 A 
ATOM      5  C4  UNL d   1      -1.067   1.338  -1.536  0.00  0.00     0.048 A 
ATOM      6  C5  UNL d   1      -1.842   1.580  -0.399  0.00  0.00     0.003 A 
ATOM      7  I   UNL d   1       1.120   0.035  -3.170  0.00  0.00    -0.146 I 
ENDROOT
TORSDOF 0
ENDMDL
