MODEL 1
REMARK minimizedAffinity -2.11888051
REMARK minimizedRMSD -1
REMARK  0 active torsions:
REMARK  status: ('A' for Active; 'I' for Inactive)
ROOT
ATOM      1  C   UNL d   1      -0.948   0.172   0.600  0.00  0.00     0.023 A 
ATOM      2  C1  UNL d   1      -1.001   1.317  -0.195  0.00  0.00     0.003 A 
ATOM      3  C2  UNL d   1      -0.328   1.352  -1.418  0.00  0.00     0.048 A 
ATOM      4  C3  UNL d   1       0.396   0.238  -1.840  0.00  0.00     0.023 A 
ATOM      5  C4  UNL d   1       0.452  -0.911  -1.049  0.00  0.00     0.048 A 
ATOM      6  C5  UNL d   1      -0.222  -0.941   0.173  0.00  0.00     0.003 A 
ATOM      7  I   UNL d   1       1.399   0.288  -3.660  0.00  0.00    -0.146 I 
ENDROOT
TORSDOF 0
ENDMDL
