MODEL 1
REMARK minimizedAffinity -3.31685233
REMARK minimizedRMSD -1
REMARK  0 active torsions:
REMARK  status: ('A' for Active; 'I' for Inactive)
ROOT
ATOM      1  C   UNL d   1      -1.272   0.066   0.729  0.00  0.00     0.023 A 
ATOM      2  C1  UNL d   1      -0.226  -0.848   0.603  0.00  0.00     0.003 A 
ATOM      3  C2  UNL d   1       0.659  -0.754  -0.473  0.00  0.00     0.048 A 
ATOM      4  C3  UNL d   1       0.493   0.257  -1.419  0.00  0.00     0.023 A 
ATOM      5  C4  UNL d   1      -0.551   1.175  -1.297  0.00  0.00     0.048 A 
ATOM      6  C5  UNL d   1      -1.434   1.076  -0.220  0.00  0.00     0.003 A 
ATOM      7  I   UNL d   1       1.810   0.398  -3.021  0.00  0.00    -0.146 I 
ENDROOT
TORSDOF 0
ENDMDL
