MODEL 1
REMARK minimizedAffinity -3.61876512
REMARK minimizedRMSD -1
REMARK  0 active torsions:
REMARK  status: ('A' for Active; 'I' for Inactive)
ROOT
ATOM      1  C   UNL d   1       1.026  -0.804  -2.913  0.00  0.00     0.023 A 
ATOM      2  C1  UNL d   1       0.499  -1.788  -2.076  0.00  0.00     0.003 A 
ATOM      3  C2  UNL d   1      -0.245  -1.424  -0.951  0.00  0.00     0.048 A 
ATOM      4  C3  UNL d   1      -0.460  -0.076  -0.671  0.00  0.00     0.023 A 
ATOM      5  C4  UNL d   1       0.064   0.912  -1.506  0.00  0.00     0.048 A 
ATOM      6  C5  UNL d   1       0.808   0.544  -2.628  0.00  0.00     0.003 A 
ATOM      7  I   UNL d   1      -1.568   0.467   1.002  0.00  0.00    -0.146 I 
ENDROOT
TORSDOF 0
ENDMDL
