MODEL 1
REMARK minimizedAffinity -3.84925175
REMARK minimizedRMSD -1
REMARK  0 active torsions:
REMARK  status: ('A' for Active; 'I' for Inactive)
ROOT
ATOM      1  C   UNL d   1       0.203  -0.170   0.870  0.00  0.00     0.023 A 
ATOM      2  C1  UNL d   1       1.048  -1.032   0.171  0.00  0.00     0.003 A 
ATOM      3  C2  UNL d   1       1.311  -0.810  -1.183  0.00  0.00     0.048 A 
ATOM      4  C3  UNL d   1       0.725   0.277  -1.831  0.00  0.00     0.023 A 
ATOM      5  C4  UNL d   1      -0.121   1.143  -1.135  0.00  0.00     0.048 A 
ATOM      6  C5  UNL d   1      -0.381   0.916   0.217  0.00  0.00     0.003 A 
ATOM      7  I   UNL d   1       1.114   0.611  -3.845  0.00  0.00    -0.146 I 
ENDROOT
TORSDOF 0
ENDMDL
