MODEL 1
REMARK minimizedAffinity -0.759364009
REMARK minimizedRMSD -1
REMARK  0 active torsions:
REMARK  status: ('A' for Active; 'I' for Inactive)
ROOT
ATOM      1  C   UNL d   1       1.319  -0.721   4.015  0.00  0.00     0.023 A 
ATOM      2  C1  UNL d   1       0.007  -0.311   3.780  0.00  0.00     0.003 A 
ATOM      3  C2  UNL d   1      -0.475  -0.224   2.472  0.00  0.00     0.048 A 
ATOM      4  C3  UNL d   1       0.360  -0.550   1.404  0.00  0.00     0.023 A 
ATOM      5  C4  UNL d   1       1.674  -0.962   1.635  0.00  0.00     0.048 A 
ATOM      6  C5  UNL d   1       2.152  -1.046   2.944  0.00  0.00     0.003 A 
ATOM      7  I   UNL d   1      -0.355  -0.421  -0.543  0.00  0.00    -0.146 I 
ENDROOT
TORSDOF 0
ENDMDL
