MODEL 1
REMARK minimizedAffinity -0.6617589
REMARK minimizedRMSD -1
REMARK  0 active torsions:
REMARK  status: ('A' for Active; 'I' for Inactive)
ROOT
ATOM      1  C   UNL d   1      -0.001  -0.721   0.178  0.00  0.00     0.023 A 
ATOM      2  C1  UNL d   1      -0.473   0.550  -0.151  0.00  0.00     0.003 A 
ATOM      3  C2  UNL d   1      -0.222   1.084  -1.416  0.00  0.00     0.048 A 
ATOM      4  C3  UNL d   1       0.501   0.341  -2.349  0.00  0.00     0.023 A 
ATOM      5  C4  UNL d   1       0.974  -0.932  -2.026  0.00  0.00     0.048 A 
ATOM      6  C5  UNL d   1       0.721  -1.461  -0.759  0.00  0.00     0.003 A 
ATOM      7  I   UNL d   1       0.875   1.133  -4.234  0.00  0.00    -0.146 I 
ENDROOT
TORSDOF 0
ENDMDL
