MODEL 1
REMARK minimizedAffinity -3.8330071
REMARK minimizedRMSD -1
REMARK  0 active torsions:
REMARK  status: ('A' for Active; 'I' for Inactive)
ROOT
ATOM      1  C   UNL d   1      -1.386   0.424   2.255  0.00  0.00     0.023 A 
ATOM      2  C1  UNL d   1      -2.156   0.661   1.117  0.00  0.00     0.003 A 
ATOM      3  C2  UNL d   1      -1.640   0.372  -0.149  0.00  0.00     0.048 A 
ATOM      4  C3  UNL d   1      -0.355  -0.155  -0.268  0.00  0.00     0.023 A 
ATOM      5  C4  UNL d   1       0.419  -0.395   0.869  0.00  0.00     0.048 A 
ATOM      6  C5  UNL d   1      -0.100  -0.104   2.132  0.00  0.00     0.003 A 
ATOM      7  I   UNL d   1       0.414  -0.586  -2.150  0.00  0.00    -0.146 I 
ENDROOT
TORSDOF 0
ENDMDL
