MODEL 1
REMARK minimizedAffinity -3.67616868
REMARK minimizedRMSD -1
REMARK  0 active torsions:
REMARK  status: ('A' for Active; 'I' for Inactive)
ROOT
ATOM      1  C   UNL d   1      -0.727   1.000  -0.067  0.00  0.00     0.172 C 
ATOM      2  N   UNL d   1      -1.315  -0.123   0.624  0.00  0.00    -0.070 N 
ATOM      3  C1  UNL d   1      -2.428  -0.077   1.420  0.00  0.00    -0.004 A 
ATOM      4  C2  UNL d   1      -2.664  -1.351   1.890  0.00  0.00    -0.047 A 
ATOM      5  C3  UNL d   1      -1.656  -2.191   1.360  0.00  0.00    -0.047 A 
ATOM      6  C4  UNL d   1      -0.834  -1.406   0.580  0.00  0.00    -0.004 A 
ENDROOT
TORSDOF 0
ENDMDL
