MODEL 1
REMARK minimizedAffinity -2.54334855
REMARK minimizedRMSD -1
REMARK  0 active torsions:
REMARK  status: ('A' for Active; 'I' for Inactive)
ROOT
ATOM      1  C   UNL d   1      -0.208  -2.601   1.896  0.00  0.00     0.172 C 
ATOM      2  N   UNL d   1      -0.154  -1.501   0.963  0.00  0.00    -0.070 N 
ATOM      3  C1  UNL d   1       0.984  -0.978   0.410  0.00  0.00    -0.004 A 
ATOM      4  C2  UNL d   1       0.612   0.054  -0.425  0.00  0.00    -0.047 A 
ATOM      5  C3  UNL d   1      -0.798   0.155  -0.371  0.00  0.00    -0.047 A 
ATOM      6  C4  UNL d   1      -1.247  -0.820   0.495  0.00  0.00    -0.004 A 
ENDROOT
TORSDOF 0
ENDMDL
