MODEL 1
REMARK minimizedAffinity -2.92898059
REMARK minimizedRMSD -1
REMARK  0 active torsions:
REMARK  status: ('A' for Active; 'I' for Inactive)
ROOT
ATOM      1  C   UNL d   1       0.570  -1.186   0.381  0.00  0.00     0.172 C 
ATOM      2  N   UNL d   1      -0.684  -1.359   1.076  0.00  0.00    -0.070 N 
ATOM      3  C1  UNL d   1      -1.673  -0.419   1.184  0.00  0.00    -0.004 A 
ATOM      4  C2  UNL d   1      -2.700  -0.970   1.919  0.00  0.00    -0.047 A 
ATOM      5  C3  UNL d   1      -2.314  -2.286   2.266  0.00  0.00    -0.047 A 
ATOM      6  C4  UNL d   1      -1.062  -2.501   1.731  0.00  0.00    -0.004 A 
ENDROOT
TORSDOF 0
ENDMDL
