MODEL 1
REMARK minimizedAffinity -4.26328135
REMARK minimizedRMSD -1
REMARK  0 active torsions:
REMARK  status: ('A' for Active; 'I' for Inactive)
ROOT
ATOM      1  C   UNL d   1       0.311  -0.047   0.592  0.00  0.00     0.172 C 
ATOM      2  N   UNL d   1      -0.833  -0.778   1.084  0.00  0.00    -0.070 N 
ATOM      3  C1  UNL d   1      -1.029  -2.128   0.967  0.00  0.00    -0.004 A 
ATOM      4  C2  UNL d   1      -2.234  -2.433   1.562  0.00  0.00    -0.047 A 
ATOM      5  C3  UNL d   1      -2.782  -1.223   2.053  0.00  0.00    -0.047 A 
ATOM      6  C4  UNL d   1      -1.894  -0.215   1.743  0.00  0.00    -0.004 A 
ENDROOT
TORSDOF 0
ENDMDL
