MODEL 1
REMARK minimizedAffinity -3.18176174
REMARK minimizedRMSD -1
REMARK  0 active torsions:
REMARK  status: ('A' for Active; 'I' for Inactive)
ROOT
ATOM      1  C   UNL d   1      -2.459   0.293   1.943  0.00  0.00     0.172 C 
ATOM      2  N   UNL d   1      -1.395  -0.499   1.372  0.00  0.00    -0.070 N 
ATOM      3  C1  UNL d   1      -0.509  -0.077   0.417  0.00  0.00    -0.004 A 
ATOM      4  C2  UNL d   1       0.345  -1.123   0.142  0.00  0.00    -0.047 A 
ATOM      5  C3  UNL d   1      -0.042  -2.211   0.959  0.00  0.00    -0.047 A 
ATOM      6  C4  UNL d   1      -1.121  -1.798   1.711  0.00  0.00    -0.004 A 
ENDROOT
TORSDOF 0
ENDMDL
