MODEL 1
REMARK minimizedAffinity -2.01422143
REMARK minimizedRMSD -1
REMARK  0 active torsions:
REMARK  status: ('A' for Active; 'I' for Inactive)
ROOT
ATOM      1  C   UNL d   1       0.026   0.931   0.091  0.00  0.00     0.172 C 
ATOM      2  N   UNL d   1      -0.386  -0.314   0.696  0.00  0.00    -0.070 N 
ATOM      3  C1  UNL d   1       0.278  -1.507   0.597  0.00  0.00    -0.004 A 
ATOM      4  C2  UNL d   1      -0.434  -2.446   1.312  0.00  0.00    -0.047 A 
ATOM      5  C3  UNL d   1      -1.564  -1.795   1.859  0.00  0.00    -0.047 A 
ATOM      6  C4  UNL d   1      -1.510  -0.475   1.462  0.00  0.00    -0.004 A 
ENDROOT
TORSDOF 0
ENDMDL
