MODEL 1
REMARK minimizedAffinity -0.277419299
REMARK minimizedRMSD -1
REMARK  0 active torsions:
REMARK  status: ('A' for Active; 'I' for Inactive)
ROOT
ATOM      1  C   UNL d   1      -0.019  -2.524   1.519  0.00  0.00     0.172 C 
ATOM      2  N   UNL d   1       0.154  -1.261   0.841  0.00  0.00    -0.070 N 
ATOM      3  C1  UNL d   1      -0.716  -0.205   0.886  0.00  0.00    -0.004 A 
ATOM      4  C2  UNL d   1      -0.192   0.807   0.111  0.00  0.00    -0.047 A 
ATOM      5  C3  UNL d   1       1.035   0.343  -0.419  0.00  0.00    -0.047 A 
ATOM      6  C4  UNL d   1       1.225  -0.940   0.049  0.00  0.00    -0.004 A 
ENDROOT
TORSDOF 0
ENDMDL
