MODEL 1
REMARK minimizedAffinity -3.41866708
REMARK minimizedRMSD -1
REMARK  0 active torsions:
REMARK  status: ('A' for Active; 'I' for Inactive)
ROOT
ATOM      1  C   UNL d   1       0.031   0.388   0.081  0.00  0.00     0.172 C 
ATOM      2  N   UNL d   1      -0.844  -0.568   0.718  0.00  0.00    -0.070 N 
ATOM      3  C1  UNL d   1      -2.210  -0.486   0.774  0.00  0.00    -0.004 A 
ATOM      4  C2  UNL d   1      -2.671  -1.586   1.464  0.00  0.00    -0.047 A 
ATOM      5  C3  UNL d   1      -1.543  -2.355   1.837  0.00  0.00    -0.047 A 
ATOM      6  C4  UNL d   1      -0.425  -1.702   1.362  0.00  0.00    -0.004 A 
ENDROOT
TORSDOF 0
ENDMDL
