MODEL 1
REMARK minimizedAffinity -2.92317939
REMARK minimizedRMSD -1
REMARK  0 active torsions:
REMARK  status: ('A' for Active; 'I' for Inactive)
ROOT
ATOM      1  C   UNL d   1      -0.064   1.218  -0.143  0.00  0.00     0.172 C 
ATOM      2  N   UNL d   1      -0.030  -0.112   0.419  0.00  0.00    -0.070 N 
ATOM      3  C1  UNL d   1      -1.093  -0.768   0.980  0.00  0.00    -0.004 A 
ATOM      4  C2  UNL d   1      -0.653  -2.006   1.396  0.00  0.00    -0.047 A 
ATOM      5  C3  UNL d   1       0.722  -2.097   1.074  0.00  0.00    -0.047 A 
ATOM      6  C4  UNL d   1       1.082  -0.910   0.471  0.00  0.00    -0.004 A 
ENDROOT
TORSDOF 0
ENDMDL
