MODEL 1
REMARK minimizedAffinity -3.80856109
REMARK minimizedRMSD -1
REMARK  0 active torsions:
REMARK  status: ('A' for Active; 'I' for Inactive)
ROOT
ATOM      1  C   UNL d   1      -3.082  -1.529   2.462  0.00  0.00     0.172 C 
ATOM      2  N   UNL d   1      -2.178  -1.206   1.384  0.00  0.00    -0.070 N 
ATOM      3  C1  UNL d   1      -1.946   0.048   0.885  0.00  0.00    -0.004 A 
ATOM      4  C2  UNL d   1      -1.023  -0.066  -0.132  0.00  0.00    -0.047 A 
ATOM      5  C3  UNL d   1      -0.688  -1.436  -0.248  0.00  0.00    -0.047 A 
ATOM      6  C4  UNL d   1      -1.418  -2.119   0.702  0.00  0.00    -0.004 A 
ENDROOT
TORSDOF 0
ENDMDL
