MODEL 1
REMARK minimizedAffinity 3.60740566
REMARK minimizedRMSD -1
REMARK  0 active torsions:
REMARK  status: ('A' for Active; 'I' for Inactive)
ROOT
ATOM      1  C   UNL d   1      -1.002   2.029  -2.677  0.00  0.00     0.172 C 
ATOM      2  N   UNL d   1       0.419   1.821  -2.827  0.00  0.00    -0.070 N 
ATOM      3  C1  UNL d   1       1.067   1.554  -4.004  0.00  0.00    -0.004 A 
ATOM      4  C2  UNL d   1       2.410   1.423  -3.726  0.00  0.00    -0.047 A 
ATOM      5  C3  UNL d   1       2.576   1.616  -2.334  0.00  0.00    -0.047 A 
ATOM      6  C4  UNL d   1       1.327   1.861  -1.802  0.00  0.00    -0.004 A 
ENDROOT
TORSDOF 0
ENDMDL
