MODEL 1
REMARK minimizedAffinity -2.33595395
REMARK minimizedRMSD -1
REMARK  0 active torsions:
REMARK  status: ('A' for Active; 'I' for Inactive)
ROOT
ATOM      1  C   UNL d   1       0.132  -2.438   0.415  0.00  0.00     0.172 C 
ATOM      2  N   UNL d   1      -1.129  -1.913   0.885  0.00  0.00    -0.070 N 
ATOM      3  C1  UNL d   1      -1.623  -0.665   0.615  0.00  0.00    -0.004 A 
ATOM      4  C2  UNL d   1      -2.845  -0.551   1.242  0.00  0.00    -0.047 A 
ATOM      5  C3  UNL d   1      -3.093  -1.772   1.913  0.00  0.00    -0.047 A 
ATOM      6  C4  UNL d   1      -2.014  -2.597   1.674  0.00  0.00    -0.004 A 
ENDROOT
TORSDOF 0
ENDMDL
