MODEL 1
REMARK minimizedAffinity -3.89727736
REMARK minimizedRMSD -1
REMARK  0 active torsions:
REMARK  status: ('A' for Active; 'I' for Inactive)
ROOT
ATOM      1  C   UNL d   1       0.341  -0.106   0.427  0.00  0.00     0.172 C 
ATOM      2  N   UNL d   1      -0.806  -0.869   0.859  0.00  0.00    -0.070 N 
ATOM      3  C1  UNL d   1      -0.772  -1.974   1.667  0.00  0.00    -0.004 A 
ATOM      4  C2  UNL d   1      -2.068  -2.408   1.844  0.00  0.00    -0.047 A 
ATOM      5  C3  UNL d   1      -2.910  -1.535   1.117  0.00  0.00    -0.047 A 
ATOM      6  C4  UNL d   1      -2.103  -0.591   0.516  0.00  0.00    -0.004 A 
ENDROOT
TORSDOF 0
ENDMDL
