MODEL 1
REMARK minimizedAffinity -2.00044942
REMARK minimizedRMSD -1
REMARK  0 active torsions:
REMARK  status: ('A' for Active; 'I' for Inactive)
ROOT
ATOM      1  C   UNL d   1      -1.039   1.388   0.960  0.00  0.00     0.172 C 
ATOM      2  N   UNL d   1      -0.334   0.129   1.012  0.00  0.00    -0.070 N 
ATOM      3  C1  UNL d   1       0.868  -0.137   0.413  0.00  0.00    -0.004 A 
ATOM      4  C2  UNL d   1       1.201  -1.444   0.698  0.00  0.00    -0.047 A 
ATOM      5  C3  UNL d   1       0.163  -1.982   1.495  0.00  0.00    -0.047 A 
ATOM      6  C4  UNL d   1      -0.775  -0.986   1.674  0.00  0.00    -0.004 A 
ENDROOT
TORSDOF 0
ENDMDL
