MODEL 1
REMARK minimizedAffinity -4.46997213
REMARK minimizedRMSD -1
REMARK  0 active torsions:
REMARK  status: ('A' for Active; 'I' for Inactive)
ROOT
ATOM      1  C   UNL d   1       0.170  -0.880   0.392  0.00  0.00     0.172 C 
ATOM      2  N   UNL d   1      -1.056  -1.280   1.041  0.00  0.00    -0.070 N 
ATOM      3  C1  UNL d   1      -1.404  -2.563   1.371  0.00  0.00    -0.004 A 
ATOM      4  C2  UNL d   1      -2.643  -2.523   1.972  0.00  0.00    -0.047 A 
ATOM      5  C3  UNL d   1      -3.055  -1.170   2.004  0.00  0.00    -0.047 A 
ATOM      6  C4  UNL d   1      -2.054  -0.422   1.421  0.00  0.00    -0.004 A 
ENDROOT
TORSDOF 0
ENDMDL
