MODEL 1
REMARK minimizedAffinity 5.6150713
REMARK minimizedRMSD -1
REMARK  0 active torsions:
REMARK  status: ('A' for Active; 'I' for Inactive)
ROOT
ATOM      1  C2' OXE d   1       1.264   2.377   2.100  0.00  0.00     0.078 C 
ATOM      2  C1' OXE d   1       3.447   4.096   1.709  0.00  0.00     0.078 C 
ATOM      3  C1  OXE d   1       3.585   2.668   1.246  0.00  0.00    -0.078 A 
ATOM      4  C2  OXE d   1       2.529   1.821   1.484  0.00  0.00    -0.078 A 
ATOM      5  C3  OXE d   1       2.583   0.507   1.028  0.00  0.00     0.003 A 
ATOM      6  C4  OXE d   1       3.761  -0.001   0.467  0.00  0.00    -0.002 A 
ATOM      7  C5  OXE d   1       4.863   0.834   0.252  0.00  0.00    -0.002 A 
ATOM      8  C6  OXE d   1       4.776   2.178   0.596  0.00  0.00     0.003 A 
ENDROOT
TORSDOF 0
ENDMDL
