MODEL 1
REMARK minimizedAffinity 7.98706913
REMARK minimizedRMSD -1
REMARK  0 active torsions:
REMARK  status: ('A' for Active; 'I' for Inactive)
ROOT
ATOM      1  C2' OXE d   1      -5.310   0.010   3.260  0.00  0.00     0.078 C 
ATOM      2  C1' OXE d   1      -6.000   0.112   5.979  0.00  0.00     0.078 C 
ATOM      3  C1  OXE d   1      -5.607   1.402   5.305  0.00  0.00    -0.078 A 
ATOM      4  C2  OXE d   1      -5.226   1.336   3.986  0.00  0.00    -0.078 A 
ATOM      5  C3  OXE d   1      -4.906   2.505   3.301  0.00  0.00     0.003 A 
ATOM      6  C4  OXE d   1      -4.821   3.725   3.983  0.00  0.00    -0.002 A 
ATOM      7  C5  OXE d   1      -5.166   3.808   5.336  0.00  0.00    -0.002 A 
ATOM      8  C6  OXE d   1      -5.601   2.666   6.000  0.00  0.00     0.003 A 
ENDROOT
TORSDOF 0
ENDMDL
