MODEL 1
REMARK minimizedAffinity 19.8233624
REMARK minimizedRMSD -1
REMARK  0 active torsions:
REMARK  status: ('A' for Active; 'I' for Inactive)
ROOT
ATOM      1  C2' OXE d   1      -4.500  -0.388   3.001  0.00  0.00     0.078 C 
ATOM      2  C1' OXE d   1      -5.534  -0.366   5.610  0.00  0.00     0.078 C 
ATOM      3  C1  OXE d   1      -4.747   0.838   5.155  0.00  0.00    -0.078 A 
ATOM      4  C2  OXE d   1      -4.206   0.798   3.893  0.00  0.00    -0.078 A 
ATOM      5  C3  OXE d   1      -3.517   1.905   3.403  0.00  0.00     0.003 A 
ATOM      6  C4  OXE d   1      -3.241   2.994   4.238  0.00  0.00    -0.002 A 
ATOM      7  C5  OXE d   1      -3.750   3.037   5.541  0.00  0.00    -0.002 A 
ATOM      8  C6  OXE d   1      -4.539   1.988   5.999  0.00  0.00     0.003 A 
ENDROOT
TORSDOF 0
ENDMDL
