MODEL 1
REMARK minimizedAffinity 13.1903009
REMARK minimizedRMSD -1
REMARK  0 active torsions:
REMARK  status: ('A' for Active; 'I' for Inactive)
ROOT
ATOM      1  C2' OXE d   1       4.833  -0.337   0.756  0.00  0.00     0.078 C 
ATOM      2  C1' OXE d   1       4.332   1.734  -1.072  0.00  0.00     0.078 C 
ATOM      3  C1  OXE d   1       3.306   1.482   0.005  0.00  0.00    -0.078 A 
ATOM      4  C2  OXE d   1       3.537   0.437   0.866  0.00  0.00    -0.078 A 
ATOM      5  C3  OXE d   1       2.649   0.196   1.911  0.00  0.00     0.003 A 
ATOM      6  C4  OXE d   1       1.448   0.910   2.000  0.00  0.00    -0.002 A 
ATOM      7  C5  OXE d   1       1.175   1.953   1.108  0.00  0.00    -0.002 A 
ATOM      8  C6  OXE d   1       2.111   2.279   0.133  0.00  0.00     0.003 A 
ENDROOT
TORSDOF 0
ENDMDL
