MODEL 1
REMARK minimizedAffinity 13.236907
REMARK minimizedRMSD -1
REMARK  0 active torsions:
REMARK  status: ('A' for Active; 'I' for Inactive)
ROOT
ATOM      1  C2' OXE d   1      -1.082  -6.000   2.249  0.00  0.00     0.078 C 
ATOM      2  C1' OXE d   1      -3.711  -5.348   1.513  0.00  0.00     0.078 C 
ATOM      3  C1  OXE d   1      -2.631  -4.334   1.234  0.00  0.00    -0.078 A 
ATOM      4  C2  OXE d   1      -1.355  -4.641   1.639  0.00  0.00    -0.078 A 
ATOM      5  C3  OXE d   1      -0.311  -3.764   1.357  0.00  0.00     0.003 A 
ATOM      6  C4  OXE d   1      -0.574  -2.506   0.802  0.00  0.00    -0.002 A 
ATOM      7  C5  OXE d   1      -1.873  -2.156   0.418  0.00  0.00    -0.002 A 
ATOM      8  C6  OXE d   1      -2.904  -3.074   0.588  0.00  0.00     0.003 A 
ENDROOT
TORSDOF 0
ENDMDL
