MODEL 1
REMARK minimizedAffinity 1.43492365
REMARK minimizedRMSD -1
REMARK  0 active torsions:
REMARK  status: ('A' for Active; 'I' for Inactive)
ROOT
ATOM      1  C2' OXE d   1      -4.886   0.376   2.629  0.00  0.00     0.078 C 
ATOM      2  C1' OXE d   1      -5.988  -0.590   5.024  0.00  0.00     0.078 C 
ATOM      3  C1  OXE d   1      -5.703   0.888   4.926  0.00  0.00    -0.078 A 
ATOM      4  C2  OXE d   1      -5.120   1.345   3.769  0.00  0.00    -0.078 A 
ATOM      5  C3  OXE d   1      -4.886   2.707   3.606  0.00  0.00     0.003 A 
ATOM      6  C4  OXE d   1      -5.096   3.595   4.668  0.00  0.00    -0.002 A 
ATOM      7  C5  OXE d   1      -5.652   3.144   5.870  0.00  0.00    -0.002 A 
ATOM      8  C6  OXE d   1      -6.000   1.804   6.000  0.00  0.00     0.003 A 
ENDROOT
TORSDOF 0
ENDMDL
