MODEL 1
REMARK minimizedAffinity 19.5568428
REMARK minimizedRMSD -1
REMARK  0 active torsions:
REMARK  status: ('A' for Active; 'I' for Inactive)
ROOT
ATOM      1  C2' OXE d   1       0.033  -0.198   4.283  0.00  0.00     0.078 C 
ATOM      2  C1' OXE d   1      -1.785   1.926   4.023  0.00  0.00     0.078 C 
ATOM      3  C1  OXE d   1      -0.522   1.976   3.200  0.00  0.00    -0.078 A 
ATOM      4  C2  OXE d   1       0.383   0.956   3.368  0.00  0.00    -0.078 A 
ATOM      5  C3  OXE d   1       1.539   0.926   2.593  0.00  0.00     0.003 A 
ATOM      6  C4  OXE d   1       1.861   2.002   1.758  0.00  0.00    -0.002 A 
ATOM      7  C5  OXE d   1       0.971   3.070   1.602  0.00  0.00    -0.002 A 
ATOM      8  C6  OXE d   1      -0.242   3.052   2.282  0.00  0.00     0.003 A 
ENDROOT
TORSDOF 0
ENDMDL
