MODEL 1
REMARK minimizedAffinity 19.8056755
REMARK minimizedRMSD -1
REMARK  0 active torsions:
REMARK  status: ('A' for Active; 'I' for Inactive)
ROOT
ATOM      1  C2' OXE d   1       2.534   4.720   1.277  0.00  0.00     0.078 C 
ATOM      2  C1' OXE d   1       2.864   3.389  -1.172  0.00  0.00     0.078 C 
ATOM      3  C1  OXE d   1       2.376   2.584   0.006  0.00  0.00    -0.078 A 
ATOM      4  C2  OXE d   1       2.262   3.233   1.212  0.00  0.00    -0.078 A 
ATOM      5  C3  OXE d   1       1.764   2.550   2.318  0.00  0.00     0.003 A 
ATOM      6  C4  OXE d   1       1.524   1.172   2.251  0.00  0.00    -0.002 A 
ATOM      7  C5  OXE d   1       1.671   0.483   1.042  0.00  0.00    -0.002 A 
ATOM      8  C6  OXE d   1       2.055   1.182  -0.098  0.00  0.00     0.003 A 
ENDROOT
TORSDOF 0
ENDMDL
