MODEL 1
REMARK minimizedAffinity 7.43303108
REMARK minimizedRMSD -1
REMARK  0 active torsions:
REMARK  status: ('A' for Active; 'I' for Inactive)
ROOT
ATOM      1  C2' OXE d   1      -2.247   4.443  -0.524  0.00  0.00     0.078 C 
ATOM      2  C1' OXE d   1      -1.003   2.357  -1.930  0.00  0.00     0.078 C 
ATOM      3  C1  OXE d   1      -0.348   2.836  -0.659  0.00  0.00    -0.078 A 
ATOM      4  C2  OXE d   1      -0.939   3.889  -0.002  0.00  0.00    -0.078 A 
ATOM      5  C3  OXE d   1      -0.407   4.334   1.205  0.00  0.00     0.003 A 
ATOM      6  C4  OXE d   1       0.809   3.823   1.675  0.00  0.00    -0.002 A 
ATOM      7  C5  OXE d   1       1.448   2.778   1.000  0.00  0.00    -0.002 A 
ATOM      8  C6  OXE d   1       0.862   2.245  -0.143  0.00  0.00     0.003 A 
ENDROOT
TORSDOF 0
ENDMDL
