MODEL 1
REMARK minimizedAffinity 19.0791492
REMARK minimizedRMSD -1
REMARK  0 active torsions:
REMARK  status: ('A' for Active; 'I' for Inactive)
ROOT
ATOM      1  C2' OXE d   1      -5.045  -0.142   2.708  0.00  0.00     0.078 C 
ATOM      2  C1' OXE d   1      -2.812   0.007   4.404  0.00  0.00     0.078 C 
ATOM      3  C1  OXE d   1      -3.230   1.262   3.679  0.00  0.00    -0.078 A 
ATOM      4  C2  OXE d   1      -4.295   1.169   2.816  0.00  0.00    -0.078 A 
ATOM      5  C3  OXE d   1      -4.756   2.309   2.164  0.00  0.00     0.003 A 
ATOM      6  C4  OXE d   1      -4.051   3.515   2.261  0.00  0.00    -0.002 A 
ATOM      7  C5  OXE d   1      -2.940   3.621   3.104  0.00  0.00    -0.002 A 
ATOM      8  C6  OXE d   1      -2.543   2.518   3.852  0.00  0.00     0.003 A 
ENDROOT
TORSDOF 0
ENDMDL
