MODEL 1
REMARK minimizedAffinity 15.286541
REMARK minimizedRMSD -1
REMARK  0 active torsions:
REMARK  status: ('A' for Active; 'I' for Inactive)
ROOT
ATOM      1  C2' OXE d   1      -4.069  -5.604   1.455  0.00  0.00     0.078 C 
ATOM      2  C1' OXE d   1      -1.467  -5.986   2.439  0.00  0.00     0.078 C 
ATOM      3  C1  OXE d   1      -1.800  -4.647   1.831  0.00  0.00    -0.078 A 
ATOM      4  C2  OXE d   1      -3.061  -4.484   1.310  0.00  0.00    -0.078 A 
ATOM      5  C3  OXE d   1      -3.437  -3.250   0.787  0.00  0.00     0.003 A 
ATOM      6  C4  OXE d   1      -2.497  -2.223   0.648  0.00  0.00    -0.002 A 
ATOM      7  C5  OXE d   1      -1.195  -2.381   1.136  0.00  0.00    -0.002 A 
ATOM      8  C6  OXE d   1      -0.844  -3.569   1.768  0.00  0.00     0.003 A 
ENDROOT
TORSDOF 0
ENDMDL
