MODEL 1
REMARK minimizedAffinity 16.4769821
REMARK minimizedRMSD -1
REMARK  0 active torsions:
REMARK  status: ('A' for Active; 'I' for Inactive)
ROOT
ATOM      1  C2' OXE d   1       1.895   3.989  -3.264  0.00  0.00     0.078 C 
ATOM      2  C1' OXE d   1      -0.427   3.573  -1.743  0.00  0.00     0.078 C 
ATOM      3  C1  OXE d   1       0.890   3.137  -1.150  0.00  0.00    -0.078 A 
ATOM      4  C2  OXE d   1       2.016   3.302  -1.921  0.00  0.00    -0.078 A 
ATOM      5  C3  OXE d   1       3.263   2.968  -1.400  0.00  0.00     0.003 A 
ATOM      6  C4  OXE d   1       3.364   2.324  -0.161  0.00  0.00    -0.002 A 
ATOM      7  C5  OXE d   1       2.225   2.111   0.623  0.00  0.00    -0.002 A 
ATOM      8  C6  OXE d   1       0.989   2.549   0.163  0.00  0.00     0.003 A 
ENDROOT
TORSDOF 0
ENDMDL
