MODEL 1
REMARK minimizedAffinity 18.5972786
REMARK minimizedRMSD -1
REMARK  0 active torsions:
REMARK  status: ('A' for Active; 'I' for Inactive)
ROOT
ATOM      1  C2' OXE d   1      -1.141  -5.998   2.617  0.00  0.00     0.078 C 
ATOM      2  C1' OXE d   1      -3.819  -5.784   1.805  0.00  0.00     0.078 C 
ATOM      3  C1  OXE d   1      -2.952  -4.555   1.699  0.00  0.00    -0.078 A 
ATOM      4  C2  OXE d   1      -1.655  -4.656   2.143  0.00  0.00    -0.078 A 
ATOM      5  C3  OXE d   1      -0.797  -3.567   2.017  0.00  0.00     0.003 A 
ATOM      6  C4  OXE d   1      -1.283  -2.327   1.587  0.00  0.00    -0.002 A 
ATOM      7  C5  OXE d   1      -2.611  -2.192   1.168  0.00  0.00    -0.002 A 
ATOM      8  C6  OXE d   1      -3.445  -3.304   1.177  0.00  0.00     0.003 A 
ENDROOT
TORSDOF 0
ENDMDL
