MODEL 1
REMARK minimizedAffinity 13.3572845
REMARK minimizedRMSD -1
REMARK  0 active torsions:
REMARK  status: ('A' for Active; 'I' for Inactive)
ROOT
ATOM      1  C2' OXE d   1      -6.000  -5.997  -2.456  0.00  0.00     0.078 C 
ATOM      2  C1' OXE d   1      -5.990  -3.196  -2.631  0.00  0.00     0.078 C 
ATOM      3  C1  OXE d   1      -4.670  -3.913  -2.761  0.00  0.00    -0.078 A 
ATOM      4  C2  OXE d   1      -4.678  -5.281  -2.627  0.00  0.00    -0.078 A 
ATOM      5  C3  OXE d   1      -3.495  -5.997  -2.792  0.00  0.00     0.003 A 
ATOM      6  C4  OXE d   1      -2.275  -5.326  -2.940  0.00  0.00    -0.002 A 
ATOM      7  C5  OXE d   1      -2.240  -3.931  -3.039  0.00  0.00    -0.002 A 
ATOM      8  C6  OXE d   1      -3.430  -3.214  -2.994  0.00  0.00     0.003 A 
ENDROOT
TORSDOF 0
ENDMDL
