MODEL 1
REMARK minimizedAffinity 23.5984058
REMARK minimizedRMSD -1
REMARK  0 active torsions:
REMARK  status: ('A' for Active; 'I' for Inactive)
ROOT
ATOM      1  C2' OXE d   1      -1.511  -6.000   2.320  0.00  0.00     0.078 C 
ATOM      2  C1' OXE d   1      -4.016  -5.342   1.236  0.00  0.00     0.078 C 
ATOM      3  C1  OXE d   1      -2.922  -4.308   1.156  0.00  0.00    -0.078 A 
ATOM      4  C2  OXE d   1      -1.713  -4.620   1.730  0.00  0.00    -0.078 A 
ATOM      5  C3  OXE d   1      -0.653  -3.724   1.637  0.00  0.00     0.003 A 
ATOM      6  C4  OXE d   1      -0.851  -2.446   1.099  0.00  0.00    -0.002 A 
ATOM      7  C5  OXE d   1      -2.085  -2.092   0.544  0.00  0.00    -0.002 A 
ATOM      8  C6  OXE d   1      -3.116  -3.025   0.527  0.00  0.00     0.003 A 
ENDROOT
TORSDOF 0
ENDMDL
