MODEL 1
REMARK minimizedAffinity 21.6648788
REMARK minimizedRMSD -1
REMARK  0 active torsions:
REMARK  status: ('A' for Active; 'I' for Inactive)
ROOT
ATOM      1  C2' OXE d   1       1.482  -0.017   1.700  0.00  0.00     0.078 C 
ATOM      2  C1' OXE d   1      -0.549  -1.932   1.994  0.00  0.00     0.078 C 
ATOM      3  C1  OXE d   1      -0.188  -1.099   3.198  0.00  0.00    -0.078 A 
ATOM      4  C2  OXE d   1       0.838  -0.197   3.058  0.00  0.00    -0.078 A 
ATOM      5  C3  OXE d   1       1.175   0.635   4.122  0.00  0.00     0.003 A 
ATOM      6  C4  OXE d   1       0.581   0.456   5.377  0.00  0.00    -0.002 A 
ATOM      7  C5  OXE d   1      -0.440  -0.485   5.552  0.00  0.00    -0.002 A 
ATOM      8  C6  OXE d   1      -0.865  -1.239   4.464  0.00  0.00     0.003 A 
ENDROOT
TORSDOF 0
ENDMDL
