MODEL 1
REMARK minimizedAffinity 22.7339363
REMARK minimizedRMSD -1
REMARK  0 active torsions:
REMARK  status: ('A' for Active; 'I' for Inactive)
ROOT
ATOM      1  C2' OXE d   1      -2.946  -2.572  -3.324  0.00  0.00     0.078 C 
ATOM      2  C1' OXE d   1      -5.672  -2.590  -3.994  0.00  0.00     0.078 C 
ATOM      3  C1  OXE d   1      -5.124  -3.778  -3.242  0.00  0.00    -0.078 A 
ATOM      4  C2  OXE d   1      -3.779  -3.782  -2.960  0.00  0.00    -0.078 A 
ATOM      5  C3  OXE d   1      -3.233  -4.827  -2.221  0.00  0.00     0.003 A 
ATOM      6  C4  OXE d   1      -4.008  -5.947  -1.897  0.00  0.00    -0.002 A 
ATOM      7  C5  OXE d   1      -5.371  -5.981  -2.210  0.00  0.00    -0.002 A 
ATOM      8  C6  OXE d   1      -5.953  -4.889  -2.844  0.00  0.00     0.003 A 
ENDROOT
TORSDOF 0
ENDMDL
