MODEL 1
REMARK minimizedAffinity 17.1330528
REMARK minimizedRMSD -1
REMARK  0 active torsions:
REMARK  status: ('A' for Active; 'I' for Inactive)
ROOT
ATOM      1  C2' OXE d   1      -5.253  -3.002  -4.243  0.00  0.00     0.078 C 
ATOM      2  C1' OXE d   1      -2.718  -3.000  -3.038  0.00  0.00     0.078 C 
ATOM      3  C1  OXE d   1      -3.696  -4.067  -2.617  0.00  0.00    -0.078 A 
ATOM      4  C2  OXE d   1      -4.950  -4.033  -3.177  0.00  0.00    -0.078 A 
ATOM      5  C3  OXE d   1      -5.873  -5.027  -2.865  0.00  0.00     0.003 A 
ATOM      6  C4  OXE d   1      -5.588  -5.971  -1.871  0.00  0.00    -0.002 A 
ATOM      7  C5  OXE d   1      -4.331  -6.000  -1.258  0.00  0.00    -0.002 A 
ATOM      8  C6  OXE d   1      -3.361  -5.083  -1.650  0.00  0.00     0.003 A 
ENDROOT
TORSDOF 0
ENDMDL
