MODEL 1
REMARK minimizedAffinity 18.2113247
REMARK minimizedRMSD -1
REMARK  0 active torsions:
REMARK  status: ('A' for Active; 'I' for Inactive)
ROOT
ATOM      1  C2' OXE d   1      -2.708  -2.395  -1.659  0.00  0.00     0.078 C 
ATOM      2  C1' OXE d   1      -1.888  -2.432  -4.344  0.00  0.00     0.078 C 
ATOM      3  C1  OXE d   1      -3.342  -2.704  -4.048  0.00  0.00    -0.078 A 
ATOM      4  C2  OXE d   1      -3.725  -2.730  -2.729  0.00  0.00    -0.078 A 
ATOM      5  C3  OXE d   1      -5.065  -2.921  -2.404  0.00  0.00     0.003 A 
ATOM      6  C4  OXE d   1      -5.997  -3.239  -3.398  0.00  0.00    -0.002 A 
ATOM      7  C5  OXE d   1      -5.620  -3.257  -4.745  0.00  0.00    -0.002 A 
ATOM      8  C6  OXE d   1      -4.308  -2.950  -5.090  0.00  0.00     0.003 A 
ENDROOT
TORSDOF 0
ENDMDL
