MODEL 1
REMARK minimizedAffinity 8.301898
REMARK minimizedRMSD -1
REMARK  0 active torsions:
REMARK  status: ('A' for Active; 'I' for Inactive)
ROOT
ATOM      1  C2' OXE d   1      -5.207  -2.973  -4.770  0.00  0.00     0.078 C 
ATOM      2  C1' OXE d   1      -2.931  -2.920  -3.127  0.00  0.00     0.078 C 
ATOM      3  C1  OXE d   1      -3.935  -4.023  -2.903  0.00  0.00    -0.078 A 
ATOM      4  C2  OXE d   1      -5.068  -4.014  -3.680  0.00  0.00    -0.078 A 
ATOM      5  C3  OXE d   1      -6.000  -5.040  -3.551  0.00  0.00     0.003 A 
ATOM      6  C4  OXE d   1      -5.869  -5.993  -2.534  0.00  0.00    -0.002 A 
ATOM      7  C5  OXE d   1      -4.742  -5.997  -1.705  0.00  0.00    -0.002 A 
ATOM      8  C6  OXE d   1      -3.747  -5.046  -1.904  0.00  0.00     0.003 A 
ENDROOT
TORSDOF 0
ENDMDL
