MODEL 1
REMARK minimizedAffinity -2.31092787
REMARK minimizedRMSD -1
REMARK  0 active torsions:
REMARK  status: ('A' for Active; 'I' for Inactive)
ROOT
ATOM      1  C   UNL d   1       2.754  -0.949   0.465  0.00  0.00     0.078 C 
ATOM      2  C1  UNL d   1       1.468  -0.645  -0.245  0.00  0.00    -0.077 A 
ATOM      3  C2  UNL d   1       1.351  -0.815  -1.629  0.00  0.00    -0.001 A 
ATOM      4  C3  UNL d   1       0.152  -0.519  -2.278  0.00  0.00     0.003 A 
ATOM      5  C4  UNL d   1      -0.940  -0.048  -1.550  0.00  0.00    -0.005 A 
ATOM      6  C5  UNL d   1      -0.832   0.127  -0.172  0.00  0.00     0.003 A 
ATOM      7  C6  UNL d   1       0.367  -0.169   0.478  0.00  0.00    -0.001 A 
ENDROOT
TORSDOF 0
ENDMDL
