MODEL 1
REMARK minimizedAffinity -5.09553146
REMARK minimizedRMSD -1
REMARK  0 active torsions:
REMARK  status: ('A' for Active; 'I' for Inactive)
ROOT
ATOM      1  C   UNL d   1      -0.575  -0.013  -1.108  0.00  0.00     0.078 C 
ATOM      2  C1  UNL d   1      -0.054  -0.337   0.260  0.00  0.00    -0.077 A 
ATOM      3  C2  UNL d   1      -0.924  -0.494   1.345  0.00  0.00    -0.001 A 
ATOM      4  C3  UNL d   1      -0.424  -0.786   2.615  0.00  0.00     0.003 A 
ATOM      5  C4  UNL d   1       0.949  -0.921   2.812  0.00  0.00    -0.005 A 
ATOM      6  C5  UNL d   1       1.823  -0.764   1.738  0.00  0.00     0.003 A 
ATOM      7  C6  UNL d   1       1.325  -0.472   0.468  0.00  0.00    -0.001 A 
ENDROOT
TORSDOF 0
ENDMDL
