MODEL 1
REMARK minimizedAffinity -4.55130529
REMARK minimizedRMSD -1
REMARK  0 active torsions:
REMARK  status: ('A' for Active; 'I' for Inactive)
ROOT
ATOM      1  C   UNL d   1       1.491  -0.367   2.683  0.00  0.00     0.078 C 
ATOM      2  C1  UNL d   1       0.799  -0.259   1.358  0.00  0.00    -0.077 A 
ATOM      3  C2  UNL d   1       1.506  -0.417   0.159  0.00  0.00    -0.001 A 
ATOM      4  C3  UNL d   1       0.850  -0.305  -1.067  0.00  0.00     0.003 A 
ATOM      5  C4  UNL d   1      -0.516  -0.034  -1.108  0.00  0.00    -0.005 A 
ATOM      6  C5  UNL d   1      -1.228   0.127   0.079  0.00  0.00     0.003 A 
ATOM      7  C6  UNL d   1      -0.574   0.015   1.307  0.00  0.00    -0.001 A 
ENDROOT
TORSDOF 0
ENDMDL
