MODEL 1
REMARK minimizedAffinity -4.08122587
REMARK minimizedRMSD -1
REMARK  0 active torsions:
REMARK  status: ('A' for Active; 'I' for Inactive)
ROOT
ATOM      1  C   UNL d   1       1.464  -1.138   2.969  0.00  0.00     0.078 C 
ATOM      2  C1  UNL d   1       0.941  -0.795   1.607  0.00  0.00    -0.077 A 
ATOM      3  C2  UNL d   1       1.720  -1.003   0.462  0.00  0.00    -0.001 A 
ATOM      4  C3  UNL d   1       1.224  -0.669  -0.800  0.00  0.00     0.003 A 
ATOM      5  C4  UNL d   1      -0.052  -0.125  -0.928  0.00  0.00    -0.005 A 
ATOM      6  C5  UNL d   1      -0.834   0.088   0.205  0.00  0.00     0.003 A 
ATOM      7  C6  UNL d   1      -0.340  -0.245   1.468  0.00  0.00    -0.001 A 
ENDROOT
TORSDOF 0
ENDMDL
