MODEL 1
REMARK minimizedAffinity -4.97417784
REMARK minimizedRMSD -1
REMARK  0 active torsions:
REMARK  status: ('A' for Active; 'I' for Inactive)
ROOT
ATOM      1  C   UNL d   1       1.470  -1.149   2.971  0.00  0.00     0.078 C 
ATOM      2  C1  UNL d   1       0.998  -0.703   1.619  0.00  0.00    -0.077 A 
ATOM      3  C2  UNL d   1       1.731  -1.000   0.464  0.00  0.00    -0.001 A 
ATOM      4  C3  UNL d   1       1.284  -0.570  -0.786  0.00  0.00     0.003 A 
ATOM      5  C4  UNL d   1       0.103   0.161  -0.893  0.00  0.00    -0.005 A 
ATOM      6  C5  UNL d   1      -0.633   0.463   0.251  0.00  0.00     0.003 A 
ATOM      7  C6  UNL d   1      -0.188   0.034   1.502  0.00  0.00    -0.001 A 
ENDROOT
TORSDOF 0
ENDMDL
