MODEL 1
REMARK minimizedAffinity 6.56682444
REMARK minimizedRMSD -1
REMARK  0 active torsions:
REMARK  status: ('A' for Active; 'I' for Inactive)
ROOT
ATOM      1  O1  BZF d   1       2.422  -0.025  -0.359  0.00  0.00    -0.204 OA
ATOM      2  C2  BZF d   1       2.802  -1.349  -0.465  0.00  0.00     0.174 A 
ATOM      3  C3  BZF d   1       4.124  -1.449  -0.715  0.00  0.00    -0.012 A 
ATOM      4  C3A BZF d   1       4.616  -0.106  -0.676  0.00  0.00    -0.107 A 
ATOM      5  C4  BZF d   1       5.856   0.444  -0.834  0.00  0.00     0.055 A 
ATOM      6  C5  BZF d   1       5.987   1.796  -0.810  0.00  0.00    -0.016 A 
ATOM      7  C6  BZF d   1       4.900   2.628  -0.636  0.00  0.00     0.022 A 
ATOM      8  C7  BZF d   1       3.651   2.128  -0.470  0.00  0.00     0.029 A 
ATOM      9  C7A BZF d   1       3.521   0.761  -0.461  0.00  0.00     0.058 A 
ENDROOT
TORSDOF 0
ENDMDL
