MODEL 1
REMARK minimizedAffinity 12.2865038
REMARK minimizedRMSD -1
REMARK  0 active torsions:
REMARK  status: ('A' for Active; 'I' for Inactive)
ROOT
ATOM      1  O1  BZF d   1      -2.972   1.660   0.773  0.00  0.00    -0.204 OA
ATOM      2  C2  BZF d   1      -2.184   2.496   1.540  0.00  0.00     0.174 A 
ATOM      3  C3  BZF d   1      -0.936   2.574   1.035  0.00  0.00    -0.012 A 
ATOM      4  C3A BZF d   1      -0.970   1.808  -0.173  0.00  0.00    -0.107 A 
ATOM      5  C4  BZF d   1      -0.039   1.522  -1.130  0.00  0.00     0.055 A 
ATOM      6  C5  BZF d   1      -0.373   0.683  -2.146  0.00  0.00    -0.016 A 
ATOM      7  C6  BZF d   1      -1.624   0.110  -2.233  0.00  0.00     0.022 A 
ATOM      8  C7  BZF d   1      -2.583   0.368  -1.310  0.00  0.00     0.029 A 
ATOM      9  C7A BZF d   1      -2.259   1.241  -0.300  0.00  0.00     0.058 A 
ENDROOT
TORSDOF 0
ENDMDL
