MODEL 1
REMARK minimizedAffinity 12.4274359
REMARK minimizedRMSD -1
REMARK  0 active torsions:
REMARK  status: ('A' for Active; 'I' for Inactive)
ROOT
ATOM      1  O1  BZF d   1       5.956   2.392   1.078  0.00  0.00    -0.204 OA
ATOM      2  C2  BZF d   1       5.943   1.447   0.070  0.00  0.00     0.174 A 
ATOM      3  C3  BZF d   1       5.897   2.040  -1.141  0.00  0.00    -0.012 A 
ATOM      4  C3A BZF d   1       5.973   3.444  -0.875  0.00  0.00    -0.107 A 
ATOM      5  C4  BZF d   1       5.988   4.552  -1.674  0.00  0.00     0.055 A 
ATOM      6  C5  BZF d   1       5.995   5.782  -1.098  0.00  0.00    -0.016 A 
ATOM      7  C6  BZF d   1       5.982   5.942   0.272  0.00  0.00     0.022 A 
ATOM      8  C7  BZF d   1       5.972   4.874   1.106  0.00  0.00     0.029 A 
ATOM      9  C7A BZF d   1       5.999   3.629   0.527  0.00  0.00     0.058 A 
ENDROOT
TORSDOF 0
ENDMDL
