MODEL 1
REMARK minimizedAffinity 15.0644255
REMARK minimizedRMSD -1
REMARK  0 active torsions:
REMARK  status: ('A' for Active; 'I' for Inactive)
ROOT
ATOM      1  O1  BZF d   1      -5.659   0.820  -4.877  0.00  0.00    -0.204 OA
ATOM      2  C2  BZF d   1      -6.000   1.484  -3.715  0.00  0.00     0.174 A 
ATOM      3  C3  BZF d   1      -4.999   1.415  -2.813  0.00  0.00    -0.012 A 
ATOM      4  C3A BZF d   1      -3.933   0.739  -3.486  0.00  0.00    -0.107 A 
ATOM      5  C4  BZF d   1      -2.666   0.384  -3.118  0.00  0.00     0.055 A 
ATOM      6  C5  BZF d   1      -1.903  -0.332  -3.985  0.00  0.00    -0.016 A 
ATOM      7  C6  BZF d   1      -2.375  -0.714  -5.224  0.00  0.00     0.022 A 
ATOM      8  C7  BZF d   1      -3.623  -0.380  -5.635  0.00  0.00     0.029 A 
ATOM      9  C7A BZF d   1      -4.385   0.372  -4.775  0.00  0.00     0.058 A 
ENDROOT
TORSDOF 0
ENDMDL
