MODEL 1
REMARK minimizedAffinity 17.3877525
REMARK minimizedRMSD -1
REMARK  0 active torsions:
REMARK  status: ('A' for Active; 'I' for Inactive)
ROOT
ATOM      1  O1  BZF d   1       4.701   2.454  -1.414  0.00  0.00    -0.204 OA
ATOM      2  C2  BZF d   1       5.995   2.004  -1.234  0.00  0.00     0.174 A 
ATOM      3  C3  BZF d   1       6.000   0.755  -0.725  0.00  0.00    -0.012 A 
ATOM      4  C3A BZF d   1       4.624   0.368  -0.664  0.00  0.00    -0.107 A 
ATOM      5  C4  BZF d   1       3.985  -0.771  -0.262  0.00  0.00     0.055 A 
ATOM      6  C5  BZF d   1       2.627  -0.800  -0.259  0.00  0.00    -0.016 A 
ATOM      7  C6  BZF d   1       1.876   0.290  -0.647  0.00  0.00     0.022 A 
ATOM      8  C7  BZF d   1       2.464   1.439  -1.059  0.00  0.00     0.029 A 
ATOM      9  C7A BZF d   1       3.837   1.461  -1.095  0.00  0.00     0.058 A 
ENDROOT
TORSDOF 0
ENDMDL
