MODEL 1
REMARK minimizedAffinity 9.40420055
REMARK minimizedRMSD -1
REMARK  0 active torsions:
REMARK  status: ('A' for Active; 'I' for Inactive)
ROOT
ATOM      1  O1  BZF d   1       3.973   2.033  -1.137  0.00  0.00    -0.204 OA
ATOM      2  C2  BZF d   1       5.053   2.825  -0.796  0.00  0.00     0.174 A 
ATOM      3  C3  BZF d   1       5.990   2.103  -0.148  0.00  0.00    -0.012 A 
ATOM      4  C3A BZF d   1       5.504   0.757  -0.161  0.00  0.00    -0.107 A 
ATOM      5  C4  BZF d   1       5.998  -0.424   0.314  0.00  0.00     0.055 A 
ATOM      6  C5  BZF d   1       5.242  -1.548   0.204  0.00  0.00    -0.016 A 
ATOM      7  C6  BZF d   1       3.988  -1.526  -0.370  0.00  0.00     0.022 A 
ATOM      8  C7  BZF d   1       3.457  -0.379  -0.860  0.00  0.00     0.029 A 
ATOM      9  C7A BZF d   1       4.232   0.752  -0.780  0.00  0.00     0.058 A 
ENDROOT
TORSDOF 0
ENDMDL
