MODEL 1
REMARK minimizedAffinity 17.1212883
REMARK minimizedRMSD -1
REMARK  0 active torsions:
REMARK  status: ('A' for Active; 'I' for Inactive)
ROOT
ATOM      1  O1  BZF d   1       4.749   0.521  -2.365  0.00  0.00    -0.204 OA
ATOM      2  C2  BZF d   1       4.933   1.204  -1.179  0.00  0.00     0.174 A 
ATOM      3  C3  BZF d   1       4.321   0.567  -0.160  0.00  0.00    -0.012 A 
ATOM      4  C3A BZF d   1       3.795  -0.636  -0.730  0.00  0.00    -0.107 A 
ATOM      5  C4  BZF d   1       3.096  -1.691  -0.217  0.00  0.00     0.055 A 
ATOM      6  C5  BZF d   1       2.669  -2.671  -1.056  0.00  0.00    -0.016 A 
ATOM      7  C6  BZF d   1       2.919  -2.626  -2.412  0.00  0.00     0.022 A 
ATOM      8  C7  BZF d   1       3.613  -1.602  -2.966  0.00  0.00     0.029 A 
ATOM      9  C7A BZF d   1       4.074  -0.627  -2.116  0.00  0.00     0.058 A 
ENDROOT
TORSDOF 0
ENDMDL
