MODEL 1
REMARK minimizedAffinity 1.9271723
REMARK minimizedRMSD -1
REMARK  0 active torsions:
REMARK  status: ('A' for Active; 'I' for Inactive)
ROOT
ATOM      1  O1  BZF d   1       1.855  -2.904   4.044  0.00  0.00    -0.204 OA
ATOM      2  C2  BZF d   1       0.726  -2.254   3.585  0.00  0.00     0.174 A 
ATOM      3  C3  BZF d   1      -0.388  -2.933   3.926  0.00  0.00    -0.012 A 
ATOM      4  C3A BZF d   1       0.068  -4.030   4.724  0.00  0.00    -0.107 A 
ATOM      5  C4  BZF d   1      -0.569  -5.051   5.369  0.00  0.00     0.055 A 
ATOM      6  C5  BZF d   1       0.174  -5.999   5.999  0.00  0.00    -0.016 A 
ATOM      7  C6  BZF d   1       1.552  -5.960   6.000  0.00  0.00     0.022 A 
ATOM      8  C7  BZF d   1       2.229  -4.964   5.378  0.00  0.00     0.029 A 
ATOM      9  C7A BZF d   1       1.481  -3.986   4.768  0.00  0.00     0.058 A 
ENDROOT
TORSDOF 0
ENDMDL
