MODEL 1
REMARK minimizedAffinity -5.67261314
REMARK minimizedRMSD -1
REMARK  2 active torsions:
REMARK  status: ('A' for Active; 'I' for Inactive)
REMARK    1  A    between atoms: C1_2  and  C2_3 
REMARK    2  A    between atoms: C2_3  and  C3_4 
ROOT
ATOM      1  C3  UNL d   1      -1.523  -0.147  -0.245  0.00  0.00    -0.075 A 
ATOM      2  C4  UNL d   1      -1.090   0.217  -1.528  0.00  0.00     0.002 A 
ATOM      3  C5  UNL d   1       0.272   0.305  -1.818  0.00  0.00     0.002 A 
ATOM      4  C6  UNL d   1       1.216   0.041  -0.829  0.00  0.00    -0.004 A 
ATOM      5  C7  UNL d   1       0.797  -0.305   0.454  0.00  0.00     0.002 A 
ATOM      6  C8  UNL d   1      -0.565  -0.399   0.746  0.00  0.00     0.002 A 
ENDROOT
BRANCH   1   7
ATOM      7  C2  UNL d   1      -2.995  -0.273   0.067  0.00  0.00     0.056 C 
BRANCH   7   8
ATOM      8  C1  UNL d   1      -3.529  -1.707  -0.014  0.00  0.00     0.007 C 
ATOM      9  C   UNL d   1      -2.613  -2.728   0.647  0.00  0.00     0.009 C 
ENDBRANCH   7   8
ENDBRANCH   1   7
TORSDOF 2
ENDMDL
