MODEL 1
REMARK minimizedAffinity -4.46572065
REMARK minimizedRMSD -1
REMARK  2 active torsions:
REMARK  status: ('A' for Active; 'I' for Inactive)
REMARK    1  A    between atoms: C1_2  and  C2_3 
REMARK    2  A    between atoms: C2_3  and  C3_4 
ROOT
ATOM      1  C3  UNL d   1      -0.775  -0.447   0.152  0.00  0.00    -0.075 A 
ATOM      2  C4  UNL d   1      -0.681  -1.311   1.253  0.00  0.00     0.002 A 
ATOM      3  C5  UNL d   1      -1.769  -2.097   1.632  0.00  0.00     0.002 A 
ATOM      4  C6  UNL d   1      -2.967  -2.022   0.924  0.00  0.00    -0.004 A 
ATOM      5  C7  UNL d   1      -3.077  -1.155  -0.161  0.00  0.00     0.002 A 
ATOM      6  C8  UNL d   1      -1.988  -0.371  -0.545  0.00  0.00     0.002 A 
ENDROOT
BRANCH   1   7
ATOM      7  C2  UNL d   1       0.409   0.384  -0.281  0.00  0.00     0.056 C 
BRANCH   7   8
ATOM      8  C1  UNL d   1       1.653   0.201   0.595  0.00  0.00     0.007 C 
ATOM      9  C   UNL d   1       2.500   1.462   0.704  0.00  0.00     0.009 C 
ENDBRANCH   7   8
ENDBRANCH   1   7
TORSDOF 2
ENDMDL
