MODEL 1
REMARK minimizedAffinity -5.49263763
REMARK minimizedRMSD -1
REMARK  2 active torsions:
REMARK  status: ('A' for Active; 'I' for Inactive)
REMARK    1  A    between atoms: C1_2  and  C2_3 
REMARK    2  A    between atoms: C2_3  and  C3_4 
ROOT
ATOM      1  C3  UNL d   1      -1.010  -1.002   0.726  0.00  0.00    -0.075 A 
ATOM      2  C4  UNL d   1      -0.887  -0.160  -0.389  0.00  0.00     0.002 A 
ATOM      3  C5  UNL d   1       0.351   0.387  -0.730  0.00  0.00     0.002 A 
ATOM      4  C6  UNL d   1       1.476   0.108   0.042  0.00  0.00    -0.004 A 
ATOM      5  C7  UNL d   1       1.362  -0.714   1.161  0.00  0.00     0.002 A 
ATOM      6  C8  UNL d   1       0.126  -1.266   1.502  0.00  0.00     0.002 A 
ENDROOT
BRANCH   1   7
ATOM      7  C2  UNL d   1      -2.340  -1.621   1.083  0.00  0.00     0.056 C 
BRANCH   7   8
ATOM      8  C1  UNL d   1      -3.440  -1.379   0.044  0.00  0.00     0.007 C 
ATOM      9  C   UNL d   1      -3.192  -2.103  -1.272  0.00  0.00     0.009 C 
ENDBRANCH   7   8
ENDBRANCH   1   7
TORSDOF 2
ENDMDL
