MODEL 1
REMARK minimizedAffinity -5.15740108
REMARK minimizedRMSD -1
REMARK  2 active torsions:
REMARK  status: ('A' for Active; 'I' for Inactive)
REMARK    1  A    between atoms: C1_2  and  C2_3 
REMARK    2  A    between atoms: C2_3  and  C3_4 
ROOT
ATOM      1  C3  UNL d   1      -1.718  -0.916   0.314  0.00  0.00    -0.075 A 
ATOM      2  C4  UNL d   1      -0.830  -1.345   1.312  0.00  0.00     0.002 A 
ATOM      3  C5  UNL d   1      -1.044  -2.551   1.979  0.00  0.00     0.002 A 
ATOM      4  C6  UNL d   1      -2.150  -3.338   1.666  0.00  0.00    -0.004 A 
ATOM      5  C7  UNL d   1      -3.047  -2.913   0.688  0.00  0.00     0.002 A 
ATOM      6  C8  UNL d   1      -2.834  -1.709   0.016  0.00  0.00     0.002 A 
ENDROOT
BRANCH   1   7
ATOM      7  C2  UNL d   1      -1.476   0.374  -0.432  0.00  0.00     0.056 C 
BRANCH   7   8
ATOM      8  C1  UNL d   1      -0.219   0.362  -1.309  0.00  0.00     0.007 C 
ATOM      9  C   UNL d   1       1.073   0.432  -0.506  0.00  0.00     0.009 C 
ENDBRANCH   7   8
ENDBRANCH   1   7
TORSDOF 2
ENDMDL
