MODEL 1
REMARK minimizedAffinity -4.54654455
REMARK minimizedRMSD -1
REMARK  2 active torsions:
REMARK  status: ('A' for Active; 'I' for Inactive)
REMARK    1  A    between atoms: C1_2  and  C2_3 
REMARK    2  A    between atoms: C2_3  and  C3_4 
ROOT
ATOM      1  C3  UNL d   1       0.050  -0.047  -0.192  0.00  0.00    -0.075 A 
ATOM      2  C4  UNL d   1      -0.651  -0.781   0.776  0.00  0.00     0.002 A 
ATOM      3  C5  UNL d   1      -1.981  -1.144   0.563  0.00  0.00     0.002 A 
ATOM      4  C6  UNL d   1      -2.629  -0.769  -0.611  0.00  0.00    -0.004 A 
ATOM      5  C7  UNL d   1      -1.948  -0.025  -1.572  0.00  0.00     0.002 A 
ATOM      6  C8  UNL d   1      -0.615   0.335  -1.364  0.00  0.00     0.002 A 
ENDROOT
BRANCH   1   7
ATOM      7  C2  UNL d   1       1.499   0.323   0.019  0.00  0.00     0.056 C 
BRANCH   7   8
ATOM      8  C1  UNL d   1       1.770   1.059   1.336  0.00  0.00     0.007 C 
ATOM      9  C   UNL d   1       2.752   2.213   1.187  0.00  0.00     0.009 C 
ENDBRANCH   7   8
ENDBRANCH   1   7
TORSDOF 2
ENDMDL
