MODEL 1
REMARK minimizedAffinity -6.18758917
REMARK minimizedRMSD -1
REMARK  2 active torsions:
REMARK  status: ('A' for Active; 'I' for Inactive)
REMARK    1  A    between atoms: C1_2  and  C2_3 
REMARK    2  A    between atoms: C2_3  and  C3_4 
ROOT
ATOM      1  C3  UNL d   1      -1.003  -0.286   0.258  0.00  0.00    -0.075 A 
ATOM      2  C4  UNL d   1      -0.709  -1.283   1.200  0.00  0.00     0.002 A 
ATOM      3  C5  UNL d   1      -1.698  -2.173   1.622  0.00  0.00     0.002 A 
ATOM      4  C6  UNL d   1      -2.992  -2.071   1.117  0.00  0.00    -0.004 A 
ATOM      5  C7  UNL d   1      -3.299  -1.074   0.193  0.00  0.00     0.002 A 
ATOM      6  C8  UNL d   1      -2.311  -0.186  -0.234  0.00  0.00     0.002 A 
ENDROOT
BRANCH   1   7
ATOM      7  C2  UNL d   1       0.070   0.661  -0.224  0.00  0.00     0.056 C 
BRANCH   7   8
ATOM      8  C1  UNL d   1       1.356   0.621   0.607  0.00  0.00     0.007 C 
ATOM      9  C   UNL d   1       1.678   1.949   1.279  0.00  0.00     0.009 C 
ENDBRANCH   7   8
ENDBRANCH   1   7
TORSDOF 2
ENDMDL
