MODEL 1
REMARK minimizedAffinity -6.32359076
REMARK minimizedRMSD -1
REMARK  2 active torsions:
REMARK  status: ('A' for Active; 'I' for Inactive)
REMARK    1  A    between atoms: C1_2  and  C2_3 
REMARK    2  A    between atoms: C2_3  and  C3_4 
ROOT
ATOM      1  C3  UNL d   1      -0.897  -0.431   0.358  0.00  0.00    -0.075 A 
ATOM      2  C4  UNL d   1      -0.659  -1.424   1.319  0.00  0.00     0.002 A 
ATOM      3  C5  UNL d   1      -1.680  -2.290   1.711  0.00  0.00     0.002 A 
ATOM      4  C6  UNL d   1      -2.952  -2.168   1.156  0.00  0.00    -0.004 A 
ATOM      5  C7  UNL d   1      -3.204  -1.174   0.213  0.00  0.00     0.002 A 
ATOM      6  C8  UNL d   1      -2.183  -0.309  -0.184  0.00  0.00     0.002 A 
ENDROOT
BRANCH   1   7
ATOM      7  C2  UNL d   1       0.212   0.490  -0.092  0.00  0.00     0.056 C 
BRANCH   7   8
ATOM      8  C1  UNL d   1       1.601   0.088   0.413  0.00  0.00     0.007 C 
ATOM      9  C   UNL d   1       2.494   1.280   0.727  0.00  0.00     0.009 C 
ENDBRANCH   7   8
ENDBRANCH   1   7
TORSDOF 2
ENDMDL
