MODEL 1
REMARK minimizedAffinity -5.51963043
REMARK minimizedRMSD -1
REMARK  2 active torsions:
REMARK  status: ('A' for Active; 'I' for Inactive)
REMARK    1  A    between atoms: C1_2  and  C2_3 
REMARK    2  A    between atoms: C2_3  and  C3_4 
ROOT
ATOM      1  C3  UNL d   1      -0.560  -0.715   0.520  0.00  0.00    -0.075 A 
ATOM      2  C4  UNL d   1      -1.077  -1.825   1.203  0.00  0.00     0.002 A 
ATOM      3  C5  UNL d   1      -2.350  -2.311   0.904  0.00  0.00     0.002 A 
ATOM      4  C6  UNL d   1      -3.125  -1.689  -0.073  0.00  0.00    -0.004 A 
ATOM      5  C7  UNL d   1      -2.628  -0.575  -0.746  0.00  0.00     0.002 A 
ATOM      6  C8  UNL d   1      -1.353  -0.089  -0.452  0.00  0.00     0.002 A 
ENDROOT
BRANCH   1   7
ATOM      7  C2  UNL d   1       0.829  -0.202   0.818  0.00  0.00     0.056 C 
BRANCH   7   8
ATOM      8  C1  UNL d   1       1.352   0.813  -0.204  0.00  0.00     0.007 C 
ATOM      9  C   UNL d   1       2.212   1.904   0.420  0.00  0.00     0.009 C 
ENDBRANCH   7   8
ENDBRANCH   1   7
TORSDOF 2
ENDMDL
