MODEL 1
REMARK minimizedAffinity -4.77563047
REMARK minimizedRMSD -1
REMARK  2 active torsions:
REMARK  status: ('A' for Active; 'I' for Inactive)
REMARK    1  A    between atoms: C1_2  and  C2_3 
REMARK    2  A    between atoms: C2_3  and  C3_4 
ROOT
ATOM      1  C3  UNL d   1       0.086   0.003  -0.127  0.00  0.00    -0.075 A 
ATOM      2  C4  UNL d   1      -0.479   0.711  -1.198  0.00  0.00     0.002 A 
ATOM      3  C5  UNL d   1      -1.837   0.586  -1.493  0.00  0.00     0.002 A 
ATOM      4  C6  UNL d   1      -2.644  -0.254  -0.729  0.00  0.00    -0.004 A 
ATOM      5  C7  UNL d   1      -2.090  -0.975   0.327  0.00  0.00     0.002 A 
ATOM      6  C8  UNL d   1      -0.733  -0.848   0.627  0.00  0.00     0.002 A 
ENDROOT
BRANCH   1   7
ATOM      7  C2  UNL d   1       1.548   0.157   0.216  0.00  0.00     0.056 C 
BRANCH   7   8
ATOM      8  C1  UNL d   1       1.894   1.487   0.893  0.00  0.00     0.007 C 
ATOM      9  C   UNL d   1       3.333   1.925   0.656  0.00  0.00     0.009 C 
ENDBRANCH   7   8
ENDBRANCH   1   7
TORSDOF 2
ENDMDL
