MODEL 1
REMARK minimizedAffinity -6.10184765
REMARK minimizedRMSD -1
REMARK  2 active torsions:
REMARK  status: ('A' for Active; 'I' for Inactive)
REMARK    1  A    between atoms: C1_2  and  C2_3 
REMARK    2  A    between atoms: C2_3  and  C3_4 
ROOT
ATOM      1  C3  UNL d   1      -1.014  -0.507  -0.245  0.00  0.00    -0.075 A 
ATOM      2  C4  UNL d   1      -0.880  -1.473   0.763  0.00  0.00     0.002 A 
ATOM      3  C5  UNL d   1      -1.995  -2.169   1.230  0.00  0.00     0.002 A 
ATOM      4  C6  UNL d   1      -3.257  -1.902   0.703  0.00  0.00    -0.004 A 
ATOM      5  C7  UNL d   1      -3.404  -0.934  -0.287  0.00  0.00     0.002 A 
ATOM      6  C8  UNL d   1      -2.289  -0.239  -0.759  0.00  0.00     0.002 A 
ENDROOT
BRANCH   1   7
ATOM      7  C2  UNL d   1       0.194   0.228  -0.775  0.00  0.00     0.056 C 
BRANCH   7   8
ATOM      8  C1  UNL d   1       1.480  -0.031   0.016  0.00  0.00     0.007 C 
ATOM      9  C   UNL d   1       1.864   1.123   0.932  0.00  0.00     0.009 C 
ENDBRANCH   7   8
ENDBRANCH   1   7
TORSDOF 2
ENDMDL
