MODEL 1
REMARK minimizedAffinity -5.92789459
REMARK minimizedRMSD -1
REMARK  2 active torsions:
REMARK  status: ('A' for Active; 'I' for Inactive)
REMARK    1  A    between atoms: C1_2  and  C2_3 
REMARK    2  A    between atoms: C2_3  and  C3_4 
ROOT
ATOM      1  C3  UNL d   1      -1.128  -0.592  -0.179  0.00  0.00    -0.075 A 
ATOM      2  C4  UNL d   1      -0.942  -1.457   0.909  0.00  0.00     0.002 A 
ATOM      3  C5  UNL d   1      -1.951  -2.341   1.293  0.00  0.00     0.002 A 
ATOM      4  C6  UNL d   1      -3.160  -2.364   0.602  0.00  0.00    -0.004 A 
ATOM      5  C7  UNL d   1      -3.363  -1.498  -0.470  0.00  0.00     0.002 A 
ATOM      6  C8  UNL d   1      -2.353  -0.616  -0.859  0.00  0.00     0.002 A 
ENDROOT
BRANCH   1   7
ATOM      7  C2  UNL d   1      -0.029   0.345  -0.617  0.00  0.00     0.056 C 
BRANCH   7   8
ATOM      8  C1  UNL d   1       1.352  -0.004  -0.052  0.00  0.00     0.007 C 
ATOM      9  C   UNL d   1       2.027   1.166   0.650  0.00  0.00     0.009 C 
ENDBRANCH   7   8
ENDBRANCH   1   7
TORSDOF 2
ENDMDL
