MODEL 1
REMARK minimizedAffinity -5.7417326
REMARK minimizedRMSD -1
REMARK  2 active torsions:
REMARK  status: ('A' for Active; 'I' for Inactive)
REMARK    1  A    between atoms: C1_2  and  C2_3 
REMARK    2  A    between atoms: C2_3  and  C3_4 
ROOT
ATOM      1  C3  UNL d   1      -0.452  -0.204  -0.118  0.00  0.00    -0.075 A 
ATOM      2  C4  UNL d   1      -1.099  -0.744   1.003  0.00  0.00     0.002 A 
ATOM      3  C5  UNL d   1      -2.369  -1.309   0.885  0.00  0.00     0.002 A 
ATOM      4  C6  UNL d   1      -3.011  -1.333  -0.351  0.00  0.00    -0.004 A 
ATOM      5  C7  UNL d   1      -2.385  -0.785  -1.468  0.00  0.00     0.002 A 
ATOM      6  C8  UNL d   1      -1.112  -0.223  -1.353  0.00  0.00     0.002 A 
ENDROOT
BRANCH   1   7
ATOM      7  C2  UNL d   1       0.935   0.382  -0.002  0.00  0.00     0.056 C 
BRANCH   7   8
ATOM      8  C1  UNL d   1       1.149   1.231   1.256  0.00  0.00     0.007 C 
ATOM      9  C   UNL d   1       2.018   2.458   1.010  0.00  0.00     0.009 C 
ENDBRANCH   7   8
ENDBRANCH   1   7
TORSDOF 2
ENDMDL
