MODEL 1
REMARK minimizedAffinity -3.60090256
REMARK minimizedRMSD -1
REMARK  0 active torsions:
REMARK  status: ('A' for Active; 'I' for Inactive)
ROOT
ATOM      1  C   UNL d   1       1.211   0.300   0.212  0.00  0.00     0.172 C 
ATOM      2  N   UNL d   1      -0.026  -0.434   0.333  0.00  0.00    -0.070 N 
ATOM      3  C1  UNL d   1      -1.279   0.116   0.386  0.00  0.00    -0.004 A 
ATOM      4  C2  UNL d   1      -2.188  -0.914   0.500  0.00  0.00    -0.047 A 
ATOM      5  C3  UNL d   1      -1.456  -2.125   0.519  0.00  0.00    -0.047 A 
ATOM      6  C4  UNL d   1      -0.120  -1.799   0.414  0.00  0.00    -0.004 A 
ENDROOT
TORSDOF 0
ENDMDL
