MODEL 1
REMARK minimizedAffinity -3.01396799
REMARK minimizedRMSD -1
REMARK  0 active torsions:
REMARK  status: ('A' for Active; 'I' for Inactive)
ROOT
ATOM      1  C   UNL d   1      -1.604  -2.023   0.350  0.00  0.00     0.172 C 
ATOM      2  N   UNL d   1      -0.813  -0.845   0.082  0.00  0.00    -0.070 N 
ATOM      3  C1  UNL d   1      -1.253   0.449   0.167  0.00  0.00    -0.004 A 
ATOM      4  C2  UNL d   1      -0.202   1.275  -0.165  0.00  0.00    -0.047 A 
ATOM      5  C3  UNL d   1       0.909   0.450  -0.462  0.00  0.00    -0.047 A 
ATOM      6  C4  UNL d   1       0.502  -0.858  -0.301  0.00  0.00    -0.004 A 
ENDROOT
TORSDOF 0
ENDMDL
