MODEL 1
REMARK minimizedAffinity -3.0043819
REMARK minimizedRMSD -1
REMARK  0 active torsions:
REMARK  status: ('A' for Active; 'I' for Inactive)
ROOT
ATOM      1  C   UNL d   1      -1.601  -2.343   1.293  0.00  0.00     0.172 C 
ATOM      2  N   UNL d   1      -0.987  -1.090   0.920  0.00  0.00    -0.070 N 
ATOM      3  C1  UNL d   1       0.263  -0.943   0.380  0.00  0.00    -0.004 A 
ATOM      4  C2  UNL d   1       0.475   0.402   0.167  0.00  0.00    -0.047 A 
ATOM      5  C3  UNL d   1      -0.687   1.087   0.595  0.00  0.00    -0.047 A 
ATOM      6  C4  UNL d   1      -1.576   0.139   1.056  0.00  0.00    -0.004 A 
ENDROOT
TORSDOF 0
ENDMDL
