MODEL 1
REMARK minimizedAffinity -3.68147421
REMARK minimizedRMSD -1
REMARK  0 active torsions:
REMARK  status: ('A' for Active; 'I' for Inactive)
ROOT
ATOM      1  C   UNL d   1       0.581   0.725  -0.611  0.00  0.00     0.172 C 
ATOM      2  N   UNL d   1       0.029  -0.372   0.150  0.00  0.00    -0.070 N 
ATOM      3  C1  UNL d   1      -1.093  -0.314   0.933  0.00  0.00    -0.004 A 
ATOM      4  C2  UNL d   1      -1.285  -1.562   1.486  0.00  0.00    -0.047 A 
ATOM      5  C3  UNL d   1      -0.243  -2.397   1.020  0.00  0.00    -0.047 A 
ATOM      6  C4  UNL d   1       0.556  -1.635   0.194  0.00  0.00    -0.004 A 
ENDROOT
TORSDOF 0
ENDMDL
