MODEL 1
REMARK minimizedAffinity -3.23132086
REMARK minimizedRMSD -1
REMARK  0 active torsions:
REMARK  status: ('A' for Active; 'I' for Inactive)
ROOT
ATOM      1  C   UNL d   1       0.954   1.460  -1.475  0.00  0.00     0.172 C 
ATOM      2  N   UNL d   1       0.727   0.246  -0.726  0.00  0.00    -0.070 N 
ATOM      3  C1  UNL d   1       1.129  -1.009  -1.097  0.00  0.00    -0.004 A 
ATOM      4  C2  UNL d   1       0.723  -1.889  -0.117  0.00  0.00    -0.047 A 
ATOM      5  C3  UNL d   1       0.052  -1.137   0.876  0.00  0.00    -0.047 A 
ATOM      6  C4  UNL d   1       0.069   0.182   0.474  0.00  0.00    -0.004 A 
ENDROOT
TORSDOF 0
ENDMDL
