MODEL 1
REMARK minimizedAffinity -2.0671978
REMARK minimizedRMSD -1
REMARK  0 active torsions:
REMARK  status: ('A' for Active; 'I' for Inactive)
ROOT
ATOM      1  C   UNL d   1      -1.921  -1.607   0.027  0.00  0.00     0.172 C 
ATOM      2  N   UNL d   1      -1.286  -0.322   0.196  0.00  0.00    -0.070 N 
ATOM      3  C1  UNL d   1       0.063  -0.087   0.161  0.00  0.00    -0.004 A 
ATOM      4  C2  UNL d   1       0.262   1.261   0.363  0.00  0.00    -0.047 A 
ATOM      5  C3  UNL d   1      -1.011   1.858   0.527  0.00  0.00    -0.047 A 
ATOM      6  C4  UNL d   1      -1.951   0.855   0.419  0.00  0.00    -0.004 A 
ENDROOT
TORSDOF 0
ENDMDL
