MODEL 1
REMARK minimizedAffinity -2.70075011
REMARK minimizedRMSD -1
REMARK  0 active torsions:
REMARK  status: ('A' for Active; 'I' for Inactive)
ROOT
ATOM      1  C   UNL d   1      -0.010   0.387  -0.300  0.00  0.00     0.172 C 
ATOM      2  N   UNL d   1      -0.512  -0.750   0.433  0.00  0.00    -0.070 N 
ATOM      3  C1  UNL d   1      -0.008  -2.022   0.377  0.00  0.00    -0.004 A 
ATOM      4  C2  UNL d   1      -0.761  -2.812   1.219  0.00  0.00    -0.047 A 
ATOM      5  C3  UNL d   1      -1.753  -1.987   1.800  0.00  0.00    -0.047 A 
ATOM      6  C4  UNL d   1      -1.575  -0.715   1.296  0.00  0.00    -0.004 A 
ENDROOT
TORSDOF 0
ENDMDL
