MODEL 1
REMARK minimizedAffinity -3.46960449
REMARK minimizedRMSD -1
REMARK  0 active torsions:
REMARK  status: ('A' for Active; 'I' for Inactive)
ROOT
ATOM      1  C   UNL d   1      -1.053  -2.190   1.175  0.00  0.00     0.172 C 
ATOM      2  N   UNL d   1      -0.333  -1.021   0.727  0.00  0.00    -0.070 N 
ATOM      3  C1  UNL d   1       0.988  -0.985   0.368  0.00  0.00    -0.004 A 
ATOM      4  C2  UNL d   1       1.291   0.308   0.002  0.00  0.00    -0.047 A 
ATOM      5  C3  UNL d   1       0.112   1.077   0.147  0.00  0.00    -0.047 A 
ATOM      6  C4  UNL d   1      -0.878   0.229   0.597  0.00  0.00    -0.004 A 
ENDROOT
TORSDOF 0
ENDMDL
