MODEL 1
REMARK minimizedAffinity -2.75999236
REMARK minimizedRMSD -1
REMARK  0 active torsions:
REMARK  status: ('A' for Active; 'I' for Inactive)
ROOT
ATOM      1  C   UNL d   1       0.392  -1.870   0.389  0.00  0.00     0.172 C 
ATOM      2  N   UNL d   1       0.140  -0.452   0.288  0.00  0.00    -0.070 N 
ATOM      3  C1  UNL d   1      -0.664   0.277   1.123  0.00  0.00    -0.004 A 
ATOM      4  C2  UNL d   1      -0.641   1.586   0.694  0.00  0.00    -0.047 A 
ATOM      5  C3  UNL d   1       0.204   1.646  -0.440  0.00  0.00    -0.047 A 
ATOM      6  C4  UNL d   1       0.674   0.370  -0.669  0.00  0.00    -0.004 A 
ENDROOT
TORSDOF 0
ENDMDL
