MODEL 1
REMARK minimizedAffinity -3.25979424
REMARK minimizedRMSD -1
REMARK  0 active torsions:
REMARK  status: ('A' for Active; 'I' for Inactive)
ROOT
ATOM      1  C   UNL d   1       0.252   1.478  -0.170  0.00  0.00     0.172 C 
ATOM      2  N   UNL d   1      -0.033   0.133   0.272  0.00  0.00    -0.070 N 
ATOM      3  C1  UNL d   1       0.890  -0.866   0.434  0.00  0.00    -0.004 A 
ATOM      4  C2  UNL d   1       0.222  -1.991   0.868  0.00  0.00    -0.047 A 
ATOM      5  C3  UNL d   1      -1.150  -1.656   0.969  0.00  0.00    -0.047 A 
ATOM      6  C4  UNL d   1      -1.279  -0.336   0.595  0.00  0.00    -0.004 A 
ENDROOT
TORSDOF 0
ENDMDL
