MODEL 1
REMARK minimizedAffinity -4.15102196
REMARK minimizedRMSD -1
REMARK  0 active torsions:
REMARK  status: ('A' for Active; 'I' for Inactive)
ROOT
ATOM      1  C   UNL d   1      -0.374   0.158  -0.318  0.00  0.00     0.172 C 
ATOM      2  N   UNL d   1      -1.266  -0.674   0.455  0.00  0.00    -0.070 N 
ATOM      3  C1  UNL d   1      -1.177  -2.034   0.585  0.00  0.00    -0.004 A 
ATOM      4  C2  UNL d   1      -2.208  -2.449   1.400  0.00  0.00    -0.047 A 
ATOM      5  C3  UNL d   1      -2.943  -1.298   1.772  0.00  0.00    -0.047 A 
ATOM      6  C4  UNL d   1      -2.338  -0.213   1.173  0.00  0.00    -0.004 A 
ENDROOT
TORSDOF 0
ENDMDL
