MODEL 1
REMARK minimizedAffinity -4.09584904
REMARK minimizedRMSD -1
REMARK  0 active torsions:
REMARK  status: ('A' for Active; 'I' for Inactive)
ROOT
ATOM      1  C   UNL d   1       1.010  -0.023   0.087  0.00  0.00     0.172 C 
ATOM      2  N   UNL d   1      -0.179  -0.712   0.529  0.00  0.00    -0.070 N 
ATOM      3  C1  UNL d   1      -1.410  -0.141   0.715  0.00  0.00    -0.004 A 
ATOM      4  C2  UNL d   1      -2.273  -1.128   1.139  0.00  0.00    -0.047 A 
ATOM      5  C3  UNL d   1      -1.536  -2.334   1.210  0.00  0.00    -0.047 A 
ATOM      6  C4  UNL d   1      -0.242  -2.047   0.827  0.00  0.00    -0.004 A 
ENDROOT
TORSDOF 0
ENDMDL
