MODEL 1
REMARK minimizedAffinity -3.68000937
REMARK minimizedRMSD -1
REMARK  0 active torsions:
REMARK  status: ('A' for Active; 'I' for Inactive)
ROOT
ATOM      1  C   UNL d   1      -0.027   0.442  -0.122  0.00  0.00     0.172 C 
ATOM      2  N   UNL d   1      -0.758  -0.591   0.573  0.00  0.00    -0.070 N 
ATOM      3  C1  UNL d   1      -0.422  -1.917   0.614  0.00  0.00    -0.004 A 
ATOM      4  C2  UNL d   1      -1.367  -2.569   1.376  0.00  0.00    -0.047 A 
ATOM      5  C3  UNL d   1      -2.304  -1.601   1.808  0.00  0.00    -0.047 A 
ATOM      6  C4  UNL d   1      -1.903  -0.385   1.297  0.00  0.00    -0.004 A 
ENDROOT
TORSDOF 0
ENDMDL
