MODEL 1
REMARK minimizedAffinity -3.44391203
REMARK minimizedRMSD -1
REMARK  0 active torsions:
REMARK  status: ('A' for Active; 'I' for Inactive)
ROOT
ATOM      1  C   UNL d   1       0.534   0.550  -0.589  0.00  0.00     0.172 C 
ATOM      2  N   UNL d   1      -0.038  -0.627   0.023  0.00  0.00    -0.070 N 
ATOM      3  C1  UNL d   1      -1.287  -1.129  -0.228  0.00  0.00    -0.004 A 
ATOM      4  C2  UNL d   1      -1.454  -2.254   0.551  0.00  0.00    -0.047 A 
ATOM      5  C3  UNL d   1      -0.264  -2.433   1.296  0.00  0.00    -0.047 A 
ATOM      6  C4  UNL d   1       0.595  -1.412   0.950  0.00  0.00    -0.004 A 
ENDROOT
TORSDOF 0
ENDMDL
