MODEL 1
REMARK minimizedAffinity -3.29414463
REMARK minimizedRMSD -1
REMARK  0 active torsions:
REMARK  status: ('A' for Active; 'I' for Inactive)
ROOT
ATOM      1  C   UNL d   1       1.479  -0.589   0.278  0.00  0.00     0.172 C 
ATOM      2  N   UNL d   1       0.087  -0.970   0.317  0.00  0.00    -0.070 N 
ATOM      3  C1  UNL d   1      -0.389  -2.226   0.582  0.00  0.00    -0.004 A 
ATOM      4  C2  UNL d   1      -1.765  -2.176   0.526  0.00  0.00    -0.047 A 
ATOM      5  C3  UNL d   1      -2.128  -0.844   0.215  0.00  0.00    -0.047 A 
ATOM      6  C4  UNL d   1      -0.962  -0.119   0.092  0.00  0.00    -0.004 A 
ENDROOT
TORSDOF 0
ENDMDL
