MODEL 1
REMARK minimizedAffinity 7.40336895
REMARK minimizedRMSD -1
REMARK  0 active torsions:
REMARK  status: ('A' for Active; 'I' for Inactive)
ROOT
ATOM      1  C   UNL d   1       1.063  -1.018   2.122  0.00  0.00    -0.002 A 
ATOM      2  C1  UNL d   1       0.903  -0.079   3.131  0.00  0.00     0.010 A 
ATOM      3  C2  UNL d   1      -0.258   0.693   3.205  0.00  0.00     0.041 A 
ATOM      4  C3  UNL d   1      -1.266   0.503   2.240  0.00  0.00    -0.075 A 
ATOM      5  S   UNL d   1      -2.773   1.334   2.132  0.00  0.00     0.015 SA
ATOM      6  C4  UNL d   1      -3.240   0.462   0.745  0.00  0.00     0.022 A 
ATOM      7  C5  UNL d   1      -2.282  -0.445   0.359  0.00  0.00     0.026 A 
ATOM      8  C6  UNL d   1      -1.128  -0.437   1.214  0.00  0.00    -0.082 A 
ATOM      9  C7  UNL d   1       0.061  -1.204   1.166  0.00  0.00     0.045 A 
ENDROOT
TORSDOF 0
ENDMDL
