MODEL 1
REMARK minimizedAffinity 4.69894314
REMARK minimizedRMSD -1
REMARK  0 active torsions:
REMARK  status: ('A' for Active; 'I' for Inactive)
ROOT
ATOM      1  C   UNL d   1       1.316   5.122   5.150  0.00  0.00    -0.002 A 
ATOM      2  C1  UNL d   1       1.503   4.851   3.802  0.00  0.00     0.010 A 
ATOM      3  C2  UNL d   1       2.769   4.960   3.224  0.00  0.00     0.041 A 
ATOM      4  C3  UNL d   1       3.856   5.348   4.032  0.00  0.00    -0.075 A 
ATOM      5  S   UNL d   1       5.497   5.547   3.542  0.00  0.00     0.015 SA
ATOM      6  C4  UNL d   1       5.989   5.996   5.110  0.00  0.00     0.022 A 
ATOM      7  C5  UNL d   1       4.940   6.000   5.999  0.00  0.00     0.026 A 
ATOM      8  C6  UNL d   1       3.693   5.626   5.392  0.00  0.00    -0.082 A 
ATOM      9  C7  UNL d   1       2.397   5.507   5.948  0.00  0.00     0.045 A 
ENDROOT
TORSDOF 0
ENDMDL
