MODEL 1
REMARK minimizedAffinity 6.85351324
REMARK minimizedRMSD -1
REMARK  0 active torsions:
REMARK  status: ('A' for Active; 'I' for Inactive)
ROOT
ATOM      1  C   UNL d   1       5.936   5.285   3.562  0.00  0.00    -0.002 A 
ATOM      2  C1  UNL d   1       5.967   5.955   4.777  0.00  0.00     0.010 A 
ATOM      3  C2  UNL d   1       4.834   6.000   5.592  0.00  0.00     0.041 A 
ATOM      4  C3  UNL d   1       3.659   5.352   5.163  0.00  0.00    -0.075 A 
ATOM      5  S   UNL d   1       2.152   5.273   5.996  0.00  0.00     0.015 SA
ATOM      6  C4  UNL d   1       1.432   4.347   4.760  0.00  0.00     0.022 A 
ATOM      7  C5  UNL d   1       2.306   4.095   3.729  0.00  0.00     0.026 A 
ATOM      8  C6  UNL d   1       3.604   4.670   3.944  0.00  0.00    -0.082 A 
ATOM      9  C7  UNL d   1       4.768   4.643   3.140  0.00  0.00     0.045 A 
ENDROOT
TORSDOF 0
ENDMDL
