MODEL 1
REMARK minimizedAffinity 14.6777163
REMARK minimizedRMSD -1
REMARK  0 active torsions:
REMARK  status: ('A' for Active; 'I' for Inactive)
ROOT
ATOM      1  C   UNL d   1      -1.136   4.950  -5.571  0.00  0.00    -0.002 A 
ATOM      2  C1  UNL d   1      -1.847   5.880  -4.825  0.00  0.00     0.010 A 
ATOM      3  C2  UNL d   1      -3.184   5.651  -4.493  0.00  0.00     0.041 A 
ATOM      4  C3  UNL d   1      -3.800   4.460  -4.927  0.00  0.00    -0.075 A 
ATOM      5  S   UNL d   1      -5.427   3.967  -4.638  0.00  0.00     0.015 SA
ATOM      6  C4  UNL d   1      -5.216   2.510  -5.498  0.00  0.00     0.022 A 
ATOM      7  C5  UNL d   1      -3.942   2.387  -6.000  0.00  0.00     0.026 A 
ATOM      8  C6  UNL d   1      -3.105   3.509  -5.678  0.00  0.00    -0.082 A 
ATOM      9  C7  UNL d   1      -1.751   3.770  -5.999  0.00  0.00     0.045 A 
ENDROOT
TORSDOF 0
ENDMDL
