MODEL 1
REMARK minimizedAffinity 6.03869581
REMARK minimizedRMSD -1
REMARK  0 active torsions:
REMARK  status: ('A' for Active; 'I' for Inactive)
ROOT
ATOM      1  C   UNL d   1       1.247   5.690   5.277  0.00  0.00    -0.002 A 
ATOM      2  C1  UNL d   1       1.335   5.172   3.993  0.00  0.00     0.010 A 
ATOM      3  C2  UNL d   1       2.580   4.946   3.402  0.00  0.00     0.041 A 
ATOM      4  C3  UNL d   1       3.746   5.250   4.132  0.00  0.00    -0.075 A 
ATOM      5  S   UNL d   1       5.378   5.055   3.612  0.00  0.00     0.015 SA
ATOM      6  C4  UNL d   1       5.997   5.654   5.083  0.00  0.00     0.022 A 
ATOM      7  C5  UNL d   1       4.996   6.000   5.960  0.00  0.00     0.026 A 
ATOM      8  C6  UNL d   1       3.683   5.772   5.427  0.00  0.00    -0.082 A 
ATOM      9  C7  UNL d   1       2.406   5.991   5.998  0.00  0.00     0.045 A 
ENDROOT
TORSDOF 0
ENDMDL
