MODEL 1
REMARK minimizedAffinity 10.3800888
REMARK minimizedRMSD -1
REMARK  0 active torsions:
REMARK  status: ('A' for Active; 'I' for Inactive)
ROOT
ATOM      1  C   UNL d   1       1.794   3.749   5.065  0.00  0.00    -0.002 A 
ATOM      2  C1  UNL d   1       1.798   4.059   3.712  0.00  0.00     0.010 A 
ATOM      3  C2  UNL d   1       2.867   4.757   3.146  0.00  0.00     0.041 A 
ATOM      4  C3  UNL d   1       3.944   5.139   3.970  0.00  0.00    -0.075 A 
ATOM      5  S   UNL d   1       5.361   5.999   3.496  0.00  0.00     0.015 SA
ATOM      6  C4  UNL d   1       5.995   5.975   5.078  0.00  0.00     0.022 A 
ATOM      7  C5  UNL d   1       5.159   5.330   5.959  0.00  0.00     0.026 A 
ATOM      8  C6  UNL d   1       3.963   4.838   5.335  0.00  0.00    -0.082 A 
ATOM      9  C7  UNL d   1       2.864   4.130   5.879  0.00  0.00     0.045 A 
ENDROOT
TORSDOF 0
ENDMDL
