MODEL 1
REMARK minimizedAffinity -1.15805018
REMARK minimizedRMSD -1
REMARK  0 active torsions:
REMARK  status: ('A' for Active; 'I' for Inactive)
ROOT
ATOM      1  C   UNL d   1       1.234   4.713   4.081  0.00  0.00    -0.002 A 
ATOM      2  C1  UNL d   1       1.141   5.541   5.191  0.00  0.00     0.010 A 
ATOM      3  C2  UNL d   1       2.293   5.984   5.845  0.00  0.00     0.041 A 
ATOM      4  C3  UNL d   1       3.551   5.578   5.359  0.00  0.00    -0.075 A 
ATOM      5  S   UNL d   1       5.097   5.997   5.999  0.00  0.00     0.015 SA
ATOM      6  C4  UNL d   1       5.917   5.087   4.814  0.00  0.00     0.022 A 
ATOM      7  C5  UNL d   1       5.048   4.472   3.943  0.00  0.00     0.026 A 
ATOM      8  C6  UNL d   1       3.671   4.745   4.243  0.00  0.00    -0.082 A 
ATOM      9  C7  UNL d   1       2.485   4.312   3.602  0.00  0.00     0.045 A 
ENDROOT
TORSDOF 0
ENDMDL
