MODEL 1
REMARK minimizedAffinity 21.1406612
REMARK minimizedRMSD -1
REMARK  0 active torsions:
REMARK  status: ('A' for Active; 'I' for Inactive)
ROOT
ATOM      1  C   UNL d   1      -0.679  -2.734   1.799  0.00  0.00    -0.002 A 
ATOM      2  C1  UNL d   1       0.241  -2.751   0.760  0.00  0.00     0.010 A 
ATOM      3  C2  UNL d   1       1.516  -2.207   0.932  0.00  0.00     0.041 A 
ATOM      4  C3  UNL d   1       1.854  -1.643   2.178  0.00  0.00    -0.075 A 
ATOM      5  S   UNL d   1       3.356  -0.920   2.619  0.00  0.00     0.015 SA
ATOM      6  C4  UNL d   1       2.812  -0.573   4.196  0.00  0.00     0.022 A 
ATOM      7  C5  UNL d   1       1.518  -0.991   4.398  0.00  0.00     0.026 A 
ATOM      8  C6  UNL d   1       0.945  -1.615   3.239  0.00  0.00    -0.082 A 
ATOM      9  C7  UNL d   1      -0.340  -2.173   3.033  0.00  0.00     0.045 A 
ENDROOT
TORSDOF 0
ENDMDL
