MODEL 1
REMARK minimizedAffinity -4.51717377
REMARK minimizedRMSD -1
REMARK  0 active torsions:
REMARK  status: ('A' for Active; 'I' for Inactive)
ROOT
ATOM      1  C   UNL d   1      -1.607   1.083  -0.259  0.00  0.00     0.023 A 
ATOM      2  C1  UNL d   1      -1.067  -0.038   0.372  0.00  0.00     0.003 A 
ATOM      3  C2  UNL d   1       0.220  -0.472   0.046  0.00  0.00     0.048 A 
ATOM      4  C3  UNL d   1       0.961   0.218  -0.911  0.00  0.00     0.023 A 
ATOM      5  C4  UNL d   1       0.425   1.341  -1.545  0.00  0.00     0.048 A 
ATOM      6  C5  UNL d   1      -0.861   1.771  -1.217  0.00  0.00     0.003 A 
ATOM      7  I   UNL d   1       2.876  -0.427  -1.398  0.00  0.00    -0.146 I 
ENDROOT
TORSDOF 0
ENDMDL
