MODEL 1
REMARK minimizedAffinity -4.00536108
REMARK minimizedRMSD -1
REMARK  0 active torsions:
REMARK  status: ('A' for Active; 'I' for Inactive)
ROOT
ATOM      1  C   UNL d   1       3.273  -0.248  -1.757  0.00  0.00     0.023 A 
ATOM      2  C1  UNL d   1       2.295   0.359  -2.545  0.00  0.00     0.003 A 
ATOM      3  C2  UNL d   1       1.035   0.633  -2.009  0.00  0.00     0.048 A 
ATOM      4  C3  UNL d   1       0.761   0.299  -0.683  0.00  0.00     0.023 A 
ATOM      5  C4  UNL d   1       1.737  -0.307   0.110  0.00  0.00     0.048 A 
ATOM      6  C5  UNL d   1       2.994  -0.580  -0.431  0.00  0.00     0.003 A 
ATOM      7  I   UNL d   1      -1.114   0.706   0.118  0.00  0.00    -0.146 I 
ENDROOT
TORSDOF 0
ENDMDL
