MODEL 1
REMARK minimizedAffinity -1.39494121
REMARK minimizedRMSD -1
REMARK  0 active torsions:
REMARK  status: ('A' for Active; 'I' for Inactive)
ROOT
ATOM      1  C   UNL d   1       0.916  -1.785  -0.776  0.00  0.00     0.023 A 
ATOM      2  C1  UNL d   1      -0.473  -1.695  -0.684  0.00  0.00     0.003 A 
ATOM      3  C2  UNL d   1      -1.059  -0.712   0.116  0.00  0.00     0.048 A 
ATOM      4  C3  UNL d   1      -0.250   0.179   0.821  0.00  0.00     0.023 A 
ATOM      5  C4  UNL d   1       1.141   0.093   0.731  0.00  0.00     0.048 A 
ATOM      6  C5  UNL d   1       1.722  -0.892  -0.069  0.00  0.00     0.003 A 
ATOM      7  I   UNL d   1      -1.119   1.643   2.012  0.00  0.00    -0.146 I 
ENDROOT
TORSDOF 0
ENDMDL
