MODEL 1
REMARK minimizedAffinity -5.21242476
REMARK minimizedRMSD -1
REMARK  0 active torsions:
REMARK  status: ('A' for Active; 'I' for Inactive)
ROOT
ATOM      1  C   UNL d   1       2.246  -1.052  -1.294  0.00  0.00     0.023 A 
ATOM      2  C1  UNL d   1       2.234   0.218  -0.718  0.00  0.00     0.003 A 
ATOM      3  C2  UNL d   1       1.112   0.654  -0.010  0.00  0.00     0.048 A 
ATOM      4  C3  UNL d   1       0.006  -0.186   0.119  0.00  0.00     0.023 A 
ATOM      5  C4  UNL d   1       0.015  -1.458  -0.455  0.00  0.00     0.048 A 
ATOM      6  C5  UNL d   1       1.138  -1.889  -1.163  0.00  0.00     0.003 A 
ATOM      7  I   UNL d   1      -1.664   0.460   1.173  0.00  0.00    -0.146 I 
ENDROOT
TORSDOF 0
ENDMDL
