MODEL 1
REMARK minimizedAffinity -3.01193833
REMARK minimizedRMSD -1
REMARK  0 active torsions:
REMARK  status: ('A' for Active; 'I' for Inactive)
ROOT
ATOM      1  C   UNL d   1       2.477  -1.262  -1.029  0.00  0.00     0.023 A 
ATOM      2  C1  UNL d   1       1.281  -1.979  -1.055  0.00  0.00     0.003 A 
ATOM      3  C2  UNL d   1       0.133  -1.445  -0.465  0.00  0.00     0.048 A 
ATOM      4  C3  UNL d   1       0.188  -0.194   0.148  0.00  0.00     0.023 A 
ATOM      5  C4  UNL d   1       1.383   0.527   0.176  0.00  0.00     0.048 A 
ATOM      6  C5  UNL d   1       2.528  -0.011  -0.414  0.00  0.00     0.003 A 
ATOM      7  I   UNL d   1      -1.519   0.602   1.026  0.00  0.00    -0.146 I 
ENDROOT
TORSDOF 0
ENDMDL
