MODEL 1
REMARK minimizedAffinity -0.184200898
REMARK minimizedRMSD -1
REMARK  0 active torsions:
REMARK  status: ('A' for Active; 'I' for Inactive)
ROOT
ATOM      1  C   UNL d   1       2.262  -0.978  -1.536  0.00  0.00     0.023 A 
ATOM      2  C1  UNL d   1       1.072  -1.705  -1.508  0.00  0.00     0.003 A 
ATOM      3  C2  UNL d   1       0.014  -1.284  -0.700  0.00  0.00     0.048 A 
ATOM      4  C3  UNL d   1       0.153  -0.135   0.078  0.00  0.00     0.023 A 
ATOM      5  C4  UNL d   1       1.342   0.596   0.053  0.00  0.00     0.048 A 
ATOM      6  C5  UNL d   1       2.397   0.171  -0.757  0.00  0.00     0.003 A 
ATOM      7  I   UNL d   1      -1.420   0.493   1.282  0.00  0.00    -0.146 I 
ENDROOT
TORSDOF 0
ENDMDL
