MODEL 1
REMARK minimizedAffinity -2.32026172
REMARK minimizedRMSD -1
REMARK  0 active torsions:
REMARK  status: ('A' for Active; 'I' for Inactive)
ROOT
ATOM      1  C   UNL d   1       3.637  -0.573  -0.967  0.00  0.00     0.023 A 
ATOM      2  C1  UNL d   1       3.272   0.312   0.048  0.00  0.00     0.003 A 
ATOM      3  C2  UNL d   1       1.922   0.541   0.324  0.00  0.00     0.048 A 
ATOM      4  C3  UNL d   1       0.943  -0.120  -0.417  0.00  0.00     0.023 A 
ATOM      5  C4  UNL d   1       1.304  -1.007  -1.432  0.00  0.00     0.048 A 
ATOM      6  C5  UNL d   1       2.655  -1.232  -1.706  0.00  0.00     0.003 A 
ATOM      7  I   UNL d   1      -1.066   0.219  -0.007  0.00  0.00    -0.146 I 
ENDROOT
TORSDOF 0
ENDMDL
