MODEL 1
REMARK minimizedAffinity -3.94494987
REMARK minimizedRMSD -1
REMARK  0 active torsions:
REMARK  status: ('A' for Active; 'I' for Inactive)
ROOT
ATOM      1  C   UNL d   1      -1.352   1.277  -0.163  0.00  0.00     0.023 A 
ATOM      2  C1  UNL d   1      -0.499   1.917  -1.062  0.00  0.00     0.003 A 
ATOM      3  C2  UNL d   1       0.715   1.326  -1.417  0.00  0.00     0.048 A 
ATOM      4  C3  UNL d   1       1.070   0.093  -0.869  0.00  0.00     0.023 A 
ATOM      5  C4  UNL d   1       0.220  -0.552   0.030  0.00  0.00     0.048 A 
ATOM      6  C5  UNL d   1      -0.993   0.044   0.382  0.00  0.00     0.003 A 
ATOM      7  I   UNL d   1       2.877  -0.789  -1.396  0.00  0.00    -0.146 I 
ENDROOT
TORSDOF 0
ENDMDL
