MODEL 1
REMARK minimizedAffinity -3.98497367
REMARK minimizedRMSD -1
REMARK  0 active torsions:
REMARK  status: ('A' for Active; 'I' for Inactive)
ROOT
ATOM      1  C   UNL d   1       1.769  -1.284  -1.634  0.00  0.00     0.023 A 
ATOM      2  C1  UNL d   1       1.850   0.020  -1.143  0.00  0.00     0.003 A 
ATOM      3  C2  UNL d   1       0.961   0.452  -0.158  0.00  0.00     0.048 A 
ATOM      4  C3  UNL d   1      -0.006  -0.424   0.335  0.00  0.00     0.023 A 
ATOM      5  C4  UNL d   1      -0.090  -1.729  -0.152  0.00  0.00     0.048 A 
ATOM      6  C5  UNL d   1       0.800  -2.157  -1.139  0.00  0.00     0.003 A 
ATOM      7  I   UNL d   1      -1.330   0.218   1.802  0.00  0.00    -0.146 I 
ENDROOT
TORSDOF 0
ENDMDL
