MODEL 1
REMARK minimizedAffinity -3.8544867
REMARK minimizedRMSD -1
REMARK  0 active torsions:
REMARK  status: ('A' for Active; 'I' for Inactive)
ROOT
ATOM      1  C   UNL d   1       2.601  -0.663  -1.297  0.00  0.00     0.023 A 
ATOM      2  C1  UNL d   1       2.148   0.656  -1.332  0.00  0.00     0.003 A 
ATOM      3  C2  UNL d   1       0.946   0.999  -0.709  0.00  0.00     0.048 A 
ATOM      4  C3  UNL d   1       0.204   0.018  -0.051  0.00  0.00     0.023 A 
ATOM      5  C4  UNL d   1       0.654  -1.302  -0.013  0.00  0.00     0.048 A 
ATOM      6  C5  UNL d   1       1.856  -1.641  -0.639  0.00  0.00     0.003 A 
ATOM      7  I   UNL d   1      -1.585   0.526   0.877  0.00  0.00    -0.146 I 
ENDROOT
TORSDOF 0
ENDMDL
