MODEL 1
REMARK minimizedAffinity -4.72002029
REMARK minimizedRMSD -1
REMARK  0 active torsions:
REMARK  status: ('A' for Active; 'I' for Inactive)
ROOT
ATOM      1  C   UNL d   1       2.815  -0.628  -1.914  0.00  0.00     0.023 A 
ATOM      2  C1  UNL d   1       1.797  -1.582  -1.902  0.00  0.00     0.003 A 
ATOM      3  C2  UNL d   1       0.632  -1.353  -1.168  0.00  0.00     0.048 A 
ATOM      4  C3  UNL d   1       0.489  -0.167  -0.449  0.00  0.00     0.023 A 
ATOM      5  C4  UNL d   1       1.504   0.791  -0.459  0.00  0.00     0.048 A 
ATOM      6  C5  UNL d   1       2.668   0.557  -1.194  0.00  0.00     0.003 A 
ATOM      7  I   UNL d   1      -1.245   0.176   0.644  0.00  0.00    -0.146 I 
ENDROOT
TORSDOF 0
ENDMDL
