MODEL 1
REMARK minimizedAffinity -2.69727039
REMARK minimizedRMSD -1
REMARK  0 active torsions:
REMARK  status: ('A' for Active; 'I' for Inactive)
ROOT
ATOM      1  C   UNL d   1      -0.800  -0.417   0.717  0.00  0.00     0.023 A 
ATOM      2  C1  UNL d   1      -0.057   0.761   0.631  0.00  0.00     0.003 A 
ATOM      3  C2  UNL d   1       0.943   0.888  -0.335  0.00  0.00     0.048 A 
ATOM      4  C3  UNL d   1       1.196  -0.166  -1.212  0.00  0.00     0.023 A 
ATOM      5  C4  UNL d   1       0.455  -1.346  -1.130  0.00  0.00     0.048 A 
ATOM      6  C5  UNL d   1      -0.544  -1.470  -0.162  0.00  0.00     0.003 A 
ATOM      7  I   UNL d   1       2.684   0.021  -2.650  0.00  0.00    -0.146 I 
ENDROOT
TORSDOF 0
ENDMDL
