MODEL 1
REMARK minimizedAffinity -1.14153373
REMARK minimizedRMSD -1
REMARK  0 active torsions:
REMARK  status: ('A' for Active; 'I' for Inactive)
ROOT
ATOM      1  C   UNL d   1       1.417  -0.631  -1.127  0.00  0.00     0.023 A 
ATOM      2  C1  UNL d   1       0.362  -1.488  -0.816  0.00  0.00     0.003 A 
ATOM      3  C2  UNL d   1      -0.603  -1.100   0.116  0.00  0.00     0.048 A 
ATOM      4  C3  UNL d   1      -0.507   0.148   0.731  0.00  0.00     0.023 A 
ATOM      5  C4  UNL d   1       0.546   1.010   0.422  0.00  0.00     0.048 A 
ATOM      6  C5  UNL d   1       1.509   0.617  -0.510  0.00  0.00     0.003 A 
ATOM      7  I   UNL d   1      -1.943   0.728   2.118  0.00  0.00    -0.146 I 
ENDROOT
TORSDOF 0
ENDMDL
