MODEL 1
REMARK minimizedAffinity -4.31839561
REMARK minimizedRMSD -1
REMARK  0 active torsions:
REMARK  status: ('A' for Active; 'I' for Inactive)
ROOT
ATOM      1  C   UNL d   1       2.097  -1.361  -1.683  0.00  0.00     0.023 A 
ATOM      2  C1  UNL d   1       2.238  -0.046  -1.239  0.00  0.00     0.003 A 
ATOM      3  C2  UNL d   1       1.330   0.482  -0.319  0.00  0.00     0.048 A 
ATOM      4  C3  UNL d   1       0.285  -0.311   0.155  0.00  0.00     0.023 A 
ATOM      5  C4  UNL d   1       0.141  -1.627  -0.286  0.00  0.00     0.048 A 
ATOM      6  C5  UNL d   1       1.051  -2.151  -1.207  0.00  0.00     0.003 A 
ATOM      7  I   UNL d   1      -1.066   0.473   1.525  0.00  0.00    -0.146 I 
ENDROOT
TORSDOF 0
ENDMDL
