MODEL 1
REMARK minimizedAffinity -3.00657582
REMARK minimizedRMSD -1
REMARK  0 active torsions:
REMARK  status: ('A' for Active; 'I' for Inactive)
ROOT
ATOM      1  C   UNL d   1       0.721  -1.719  -0.697  0.00  0.00     0.023 A 
ATOM      2  C1  UNL d   1       1.816  -1.515  -1.537  0.00  0.00     0.003 A 
ATOM      3  C2  UNL d   1       2.215  -0.217  -1.864  0.00  0.00     0.048 A 
ATOM      4  C3  UNL d   1       1.514   0.872  -1.347  0.00  0.00     0.023 A 
ATOM      5  C4  UNL d   1       0.418   0.673  -0.506  0.00  0.00     0.048 A 
ATOM      6  C5  UNL d   1       0.023  -0.626  -0.183  0.00  0.00     0.003 A 
ATOM      7  I   UNL d   1       2.106   2.805  -1.832  0.00  0.00    -0.146 I 
ENDROOT
TORSDOF 0
ENDMDL
