MODEL 1
REMARK minimizedAffinity -2.16821504
REMARK minimizedRMSD -1
REMARK  0 active torsions:
REMARK  status: ('A' for Active; 'I' for Inactive)
ROOT
ATOM      1  C   UNL d   1       2.139  -1.189  -1.533  0.00  0.00     0.023 A 
ATOM      2  C1  UNL d   1       2.162   0.164  -1.195  0.00  0.00     0.003 A 
ATOM      3  C2  UNL d   1       1.132   0.710  -0.426  0.00  0.00     0.048 A 
ATOM      4  C3  UNL d   1       0.083  -0.103   0.002  0.00  0.00     0.023 A 
ATOM      5  C4  UNL d   1       0.057  -1.457  -0.333  0.00  0.00     0.048 A 
ATOM      6  C5  UNL d   1       1.088  -1.999  -1.103  0.00  0.00     0.003 A 
ATOM      7  I   UNL d   1      -1.451   0.708   1.147  0.00  0.00    -0.146 I 
ENDROOT
TORSDOF 0
ENDMDL
