MODEL 1
REMARK minimizedAffinity 16.2691498
REMARK minimizedRMSD -1
REMARK  0 active torsions:
REMARK  status: ('A' for Active; 'I' for Inactive)
ROOT
ATOM      1  C   UNL d   1       2.222   1.761   1.581  0.00  0.00     0.124 A 
ATOM      2  C1  UNL d   1       1.268   2.154   0.653  0.00  0.00     0.062 A 
ATOM      3  C2  UNL d   1       1.591   2.214  -0.700  0.00  0.00     0.162 A 
ATOM      4  C3  UNL d   1       2.874   1.879  -1.133  0.00  0.00    -0.034 A 
ATOM      5  C4  UNL d   1       3.828   1.486  -0.193  0.00  0.00     0.162 A 
ATOM      6  C5  UNL d   1       3.500   1.427   1.158  0.00  0.00     0.062 A 
ATOM      7  F   UNL d   1       4.423   1.047   2.053  0.00  0.00    -0.097 F 
ATOM      8  F1  UNL d   1       5.071   1.157  -0.575  0.00  0.00    -0.096 F 
ATOM      9  I   UNL d   1       3.360   1.968  -3.154  0.00  0.00    -0.060 I 
ATOM     10  F2  UNL d   1       0.649   2.598  -1.575  0.00  0.00    -0.096 F 
ATOM     11  F3  UNL d   1       0.032   2.478   1.059  0.00  0.00    -0.097 F 
ATOM     12  F4  UNL d   1       1.909   1.705   2.882  0.00  0.00    -0.092 F 
ENDROOT
TORSDOF 0
ENDMDL
