MODEL 1
REMARK minimizedAffinity 33.6135521
REMARK minimizedRMSD -1
REMARK  0 active torsions:
REMARK  status: ('A' for Active; 'I' for Inactive)
ROOT
ATOM      1  C   UNL d   1      -0.104  -0.573   1.352  0.00  0.00     0.124 A 
ATOM      2  C1  UNL d   1      -1.111  -0.751   2.290  0.00  0.00     0.062 A 
ATOM      3  C2  UNL d   1      -1.646   0.345   2.960  0.00  0.00     0.162 A 
ATOM      4  C3  UNL d   1      -1.177   1.631   2.693  0.00  0.00    -0.034 A 
ATOM      5  C4  UNL d   1      -0.163   1.803   1.748  0.00  0.00     0.162 A 
ATOM      6  C5  UNL d   1       0.369   0.704   1.082  0.00  0.00     0.062 A 
ATOM      7  F   UNL d   1       1.342   0.878   0.175  0.00  0.00    -0.097 F 
ATOM      8  F1  UNL d   1       0.312   3.025   1.467  0.00  0.00    -0.096 F 
ATOM      9  I   UNL d   1      -1.975   3.273   3.692  0.00  0.00    -0.060 I 
ATOM     10  F2  UNL d   1      -2.619   0.143   3.862  0.00  0.00    -0.096 F 
ATOM     11  F3  UNL d   1      -1.569  -1.984   2.554  0.00  0.00    -0.097 F 
ATOM     12  F4  UNL d   1       0.410  -1.630   0.710  0.00  0.00    -0.092 F 
ENDROOT
TORSDOF 0
ENDMDL
