MODEL 1
REMARK minimizedAffinity 15.4224186
REMARK minimizedRMSD -1
REMARK  0 active torsions:
REMARK  status: ('A' for Active; 'I' for Inactive)
ROOT
ATOM      1  C   UNL d   1       2.389   2.159   0.543  0.00  0.00     0.124 A 
ATOM      2  C1  UNL d   1       2.103   1.847   1.865  0.00  0.00     0.062 A 
ATOM      3  C2  UNL d   1       3.132   1.730   2.794  0.00  0.00     0.162 A 
ATOM      4  C3  UNL d   1       4.457   1.926   2.406  0.00  0.00    -0.034 A 
ATOM      5  C4  UNL d   1       4.737   2.239   1.074  0.00  0.00     0.162 A 
ATOM      6  C5  UNL d   1       3.705   2.355   0.149  0.00  0.00     0.062 A 
ATOM      7  F   UNL d   1       3.983   2.656  -1.128  0.00  0.00    -0.097 F 
ATOM      8  F1  UNL d   1       6.000   2.434   0.667  0.00  0.00    -0.096 F 
ATOM      9  I   UNL d   1       5.999   1.752   3.793  0.00  0.00    -0.060 I 
ATOM     10  F2  UNL d   1       2.827   1.428   4.065  0.00  0.00    -0.096 F 
ATOM     11  F3  UNL d   1       0.832   1.657   2.247  0.00  0.00    -0.097 F 
ATOM     12  F4  UNL d   1       1.397   2.270  -0.350  0.00  0.00    -0.092 F 
ENDROOT
TORSDOF 0
ENDMDL
