MODEL 1
REMARK minimizedAffinity 20.9805164
REMARK minimizedRMSD -1
REMARK  0 active torsions:
REMARK  status: ('A' for Active; 'I' for Inactive)
ROOT
ATOM      1  C   UNL d   1       4.047   2.342   1.574  0.00  0.00     0.124 A 
ATOM      2  C1  UNL d   1       3.613   2.121   2.874  0.00  0.00     0.062 A 
ATOM      3  C2  UNL d   1       2.252   2.026   3.150  0.00  0.00     0.162 A 
ATOM      4  C3  UNL d   1       1.315   2.150   2.124  0.00  0.00    -0.034 A 
ATOM      5  C4  UNL d   1       1.759   2.373   0.820  0.00  0.00     0.162 A 
ATOM      6  C5  UNL d   1       3.121   2.468   0.549  0.00  0.00     0.062 A 
ATOM      7  F   UNL d   1       3.538   2.681  -0.708  0.00  0.00    -0.097 F 
ATOM      8  F1  UNL d   1       0.886   2.498  -0.190  0.00  0.00    -0.096 F 
ATOM      9  I   UNL d   1      -0.721   2.009   2.534  0.00  0.00    -0.060 I 
ATOM     10  F2  UNL d   1       1.861   1.812   4.415  0.00  0.00    -0.096 F 
ATOM     11  F3  UNL d   1       4.506   2.000   3.866  0.00  0.00    -0.097 F 
ATOM     12  F4  UNL d   1       5.357   2.434   1.311  0.00  0.00    -0.092 F 
ENDROOT
TORSDOF 0
ENDMDL
