MODEL 1
REMARK minimizedAffinity 12.6857462
REMARK minimizedRMSD -1
REMARK  0 active torsions:
REMARK  status: ('A' for Active; 'I' for Inactive)
ROOT
ATOM      1  C   UNL d   1      -0.303   2.460   0.791  0.00  0.00     0.124 A 
ATOM      2  C1  UNL d   1       0.294   3.481   0.065  0.00  0.00     0.062 A 
ATOM      3  C2  UNL d   1       1.656   3.436  -0.216  0.00  0.00     0.162 A 
ATOM      4  C3  UNL d   1       2.432   2.366   0.230  0.00  0.00    -0.034 A 
ATOM      5  C4  UNL d   1       1.825   1.343   0.961  0.00  0.00     0.162 A 
ATOM      6  C5  UNL d   1       0.462   1.392   1.239  0.00  0.00     0.062 A 
ATOM      7  F   UNL d   1      -0.113   0.405   1.941  0.00  0.00    -0.097 F 
ATOM      8  F1  UNL d   1       2.541   0.299   1.405  0.00  0.00    -0.096 F 
ATOM      9  I   UNL d   1       4.470   2.295  -0.188  0.00  0.00    -0.060 I 
ATOM     10  F2  UNL d   1       2.206   4.436  -0.920  0.00  0.00    -0.096 F 
ATOM     11  F3  UNL d   1      -0.444   4.513  -0.368  0.00  0.00    -0.097 F 
ATOM     12  F4  UNL d   1      -1.614   2.506   1.061  0.00  0.00    -0.092 F 
ENDROOT
TORSDOF 0
ENDMDL
