MODEL 1
REMARK minimizedAffinity 8.27438068
REMARK minimizedRMSD -1
REMARK  0 active torsions:
REMARK  status: ('A' for Active; 'I' for Inactive)
ROOT
ATOM      1  C   UNL d   1       2.752   1.648   2.583  0.00  0.00     0.124 A 
ATOM      2  C1  UNL d   1       2.428   1.676   1.234  0.00  0.00     0.062 A 
ATOM      3  C2  UNL d   1       1.125   1.956   0.833  0.00  0.00     0.162 A 
ATOM      4  C3  UNL d   1       0.135   2.212   1.783  0.00  0.00    -0.034 A 
ATOM      5  C4  UNL d   1       0.469   2.180   3.138  0.00  0.00     0.162 A 
ATOM      6  C5  UNL d   1       1.773   1.900   3.534  0.00  0.00     0.062 A 
ATOM      7  F   UNL d   1       2.084   1.873   4.838  0.00  0.00    -0.097 F 
ATOM      8  F1  UNL d   1      -0.458   2.421   4.078  0.00  0.00    -0.096 F 
ATOM      9  I   UNL d   1      -1.814   2.631   1.187  0.00  0.00    -0.060 I 
ATOM     10  F2  UNL d   1       0.840   1.977  -0.478  0.00  0.00    -0.096 F 
ATOM     11  F3  UNL d   1       3.372   1.432   0.314  0.00  0.00    -0.097 F 
ATOM     12  F4  UNL d   1       4.006   1.377   2.966  0.00  0.00    -0.092 F 
ENDROOT
TORSDOF 0
ENDMDL
