MODEL 1
REMARK minimizedAffinity 16.8096409
REMARK minimizedRMSD -1
REMARK  0 active torsions:
REMARK  status: ('A' for Active; 'I' for Inactive)
ROOT
ATOM      1  C   UNL d   1       0.214   2.415   2.927  0.00  0.00     0.124 A 
ATOM      2  C1  UNL d   1       1.548   2.149   3.200  0.00  0.00     0.062 A 
ATOM      3  C2  UNL d   1       2.488   2.155   2.173  0.00  0.00     0.162 A 
ATOM      4  C3  UNL d   1       2.096   2.428   0.863  0.00  0.00    -0.034 A 
ATOM      5  C4  UNL d   1       0.752   2.694   0.595  0.00  0.00     0.162 A 
ATOM      6  C5  UNL d   1      -0.183   2.687   1.625  0.00  0.00     0.062 A 
ATOM      7  F   UNL d   1      -1.472   2.945   1.359  0.00  0.00    -0.097 F 
ATOM      8  F1  UNL d   1       0.341   2.961  -0.653  0.00  0.00    -0.096 F 
ATOM      9  I   UNL d   1       3.498   2.438  -0.676  0.00  0.00    -0.060 I 
ATOM     10  F2  UNL d   1       3.770   1.894   2.466  0.00  0.00    -0.096 F 
ATOM     11  F3  UNL d   1       1.934   1.885   4.457  0.00  0.00    -0.097 F 
ATOM     12  F4  UNL d   1      -0.688   2.408   3.917  0.00  0.00    -0.092 F 
ENDROOT
TORSDOF 0
ENDMDL
