MODEL 1
REMARK minimizedAffinity 18.2043877
REMARK minimizedRMSD -1
REMARK  0 active torsions:
REMARK  status: ('A' for Active; 'I' for Inactive)
ROOT
ATOM      1  C   UNL d   1       1.813   0.054   1.262  0.00  0.00     0.124 A 
ATOM      2  C1  UNL d   1       0.528  -0.435   1.451  0.00  0.00     0.062 A 
ATOM      3  C2  UNL d   1      -0.569   0.411   1.318  0.00  0.00     0.162 A 
ATOM      4  C3  UNL d   1      -0.386   1.756   0.994  0.00  0.00    -0.034 A 
ATOM      5  C4  UNL d   1       0.910   2.240   0.807  0.00  0.00     0.162 A 
ATOM      6  C5  UNL d   1       2.003   1.390   0.940  0.00  0.00     0.062 A 
ATOM      7  F   UNL d   1       3.244   1.864   0.757  0.00  0.00    -0.097 F 
ATOM      8  F1  UNL d   1       1.122   3.527   0.494  0.00  0.00    -0.096 F 
ATOM      9  I   UNL d   1      -2.024   3.024   0.795  0.00  0.00    -0.060 I 
ATOM     10  F2  UNL d   1      -1.800  -0.088   1.506  0.00  0.00    -0.096 F 
ATOM     11  F3  UNL d   1       0.342  -1.725   1.763  0.00  0.00    -0.097 F 
ATOM     12  F4  UNL d   1       2.867  -0.762   1.391  0.00  0.00    -0.092 F 
ENDROOT
TORSDOF 0
ENDMDL
