MODEL 1
REMARK minimizedAffinity 12.6738405
REMARK minimizedRMSD -1
REMARK  0 active torsions:
REMARK  status: ('A' for Active; 'I' for Inactive)
ROOT
ATOM      1  C   UNL d   1      -1.243   2.547   1.423  0.00  0.00     0.124 A 
ATOM      2  C1  UNL d   1      -1.007   2.522   2.790  0.00  0.00     0.062 A 
ATOM      3  C2  UNL d   1       0.294   2.427   3.274  0.00  0.00     0.162 A 
ATOM      4  C3  UNL d   1       1.371   2.356   2.390  0.00  0.00    -0.034 A 
ATOM      5  C4  UNL d   1       1.126   2.381   1.016  0.00  0.00     0.162 A 
ATOM      6  C5  UNL d   1      -0.177   2.477   0.537  0.00  0.00     0.062 A 
ATOM      7  F   UNL d   1      -0.403   2.500  -0.785  0.00  0.00    -0.097 F 
ATOM      8  F1  UNL d   1       2.138   2.315   0.138  0.00  0.00    -0.096 F 
ATOM      9  I   UNL d   1       3.318   2.214   3.110  0.00  0.00    -0.060 I 
ATOM     10  F2  UNL d   1       0.493   2.405   4.601  0.00  0.00    -0.096 F 
ATOM     11  F3  UNL d   1      -2.035   2.590   3.648  0.00  0.00    -0.097 F 
ATOM     12  F4  UNL d   1      -2.496   2.638   0.959  0.00  0.00    -0.092 F 
ENDROOT
TORSDOF 0
ENDMDL
