MODEL 1
REMARK minimizedAffinity 13.8471937
REMARK minimizedRMSD -1
REMARK  0 active torsions:
REMARK  status: ('A' for Active; 'I' for Inactive)
ROOT
ATOM      1  C   UNL d   1       1.286   3.119   0.747  0.00  0.00     0.124 A 
ATOM      2  C1  UNL d   1       1.663   1.878   1.242  0.00  0.00     0.062 A 
ATOM      3  C2  UNL d   1       3.008   1.587   1.451  0.00  0.00     0.162 A 
ATOM      4  C3  UNL d   1       3.986   2.540   1.167  0.00  0.00    -0.034 A 
ATOM      5  C4  UNL d   1       3.600   3.785   0.669  0.00  0.00     0.162 A 
ATOM      6  C5  UNL d   1       2.254   4.071   0.461  0.00  0.00     0.062 A 
ATOM      7  F   UNL d   1       1.892   5.270  -0.016  0.00  0.00    -0.097 F 
ATOM      8  F1  UNL d   1       4.514   4.724   0.385  0.00  0.00    -0.096 F 
ATOM      9  I   UNL d   1       5.998   2.109   1.479  0.00  0.00    -0.060 I 
ATOM     10  F2  UNL d   1       3.343   0.380   1.930  0.00  0.00    -0.096 F 
ATOM     11  F3  UNL d   1       0.729   0.956   1.518  0.00  0.00    -0.097 F 
ATOM     12  F4  UNL d   1      -0.009   3.396   0.546  0.00  0.00    -0.092 F 
ENDROOT
TORSDOF 0
ENDMDL
