MODEL 1
REMARK minimizedAffinity 28.2469273
REMARK minimizedRMSD -1
REMARK  0 active torsions:
REMARK  status: ('A' for Active; 'I' for Inactive)
ROOT
ATOM      1  C   UNL d   1       3.356   2.775   0.735  0.00  0.00     0.124 A 
ATOM      2  C1  UNL d   1       2.741   1.620   1.199  0.00  0.00     0.062 A 
ATOM      3  C2  UNL d   1       1.356   1.569   1.331  0.00  0.00     0.162 A 
ATOM      4  C3  UNL d   1       0.576   2.676   0.998  0.00  0.00    -0.034 A 
ATOM      5  C4  UNL d   1       1.201   3.835   0.533  0.00  0.00     0.162 A 
ATOM      6  C5  UNL d   1       2.586   3.881   0.402  0.00  0.00     0.062 A 
ATOM      7  F   UNL d   1       3.178   4.997  -0.046  0.00  0.00    -0.097 F 
ATOM      8  F1  UNL d   1       0.481   4.917   0.203  0.00  0.00    -0.096 F 
ATOM      9  I   UNL d   1      -1.495   2.604   1.194  0.00  0.00    -0.060 I 
ATOM     10  F2  UNL d   1       0.789   0.440   1.781  0.00  0.00    -0.096 F 
ATOM     11  F3  UNL d   1       3.483   0.551   1.521  0.00  0.00    -0.097 F 
ATOM     12  F4  UNL d   1       4.688   2.822   0.610  0.00  0.00    -0.092 F 
ENDROOT
TORSDOF 0
ENDMDL
