MODEL 1
REMARK minimizedAffinity 20.8733311
REMARK minimizedRMSD -1
REMARK  0 active torsions:
REMARK  status: ('A' for Active; 'I' for Inactive)
ROOT
ATOM      1  C   UNL d   1       1.020   1.168   2.484  0.00  0.00     0.124 A 
ATOM      2  C1  UNL d   1       0.885   1.226   3.864  0.00  0.00     0.062 A 
ATOM      3  C2  UNL d   1       2.006   1.411   4.669  0.00  0.00     0.162 A 
ATOM      4  C3  UNL d   1       3.271   1.540   4.096  0.00  0.00    -0.034 A 
ATOM      5  C4  UNL d   1       3.398   1.480   2.707  0.00  0.00     0.162 A 
ATOM      6  C5  UNL d   1       2.275   1.295   1.907  0.00  0.00     0.062 A 
ATOM      7  F   UNL d   1       2.407   1.239   0.573  0.00  0.00    -0.097 F 
ATOM      8  F1  UNL d   1       4.599   1.600   2.123  0.00  0.00    -0.096 F 
ATOM      9  I   UNL d   1       4.948   1.816   5.296  0.00  0.00    -0.060 I 
ATOM     10  F2  UNL d   1       1.846   1.463   6.000  0.00  0.00    -0.096 F 
ATOM     11  F3  UNL d   1      -0.327   1.103   4.424  0.00  0.00    -0.097 F 
ATOM     12  F4  UNL d   1      -0.060   0.989   1.712  0.00  0.00    -0.092 F 
ENDROOT
TORSDOF 0
ENDMDL
