MODEL 1
REMARK minimizedAffinity 15.2837763
REMARK minimizedRMSD -1
REMARK  0 active torsions:
REMARK  status: ('A' for Active; 'I' for Inactive)
ROOT
ATOM      1  C   UNL d   1       2.409   1.163   0.529  0.00  0.00     0.124 A 
ATOM      2  C1  UNL d   1       3.754   1.249   0.196  0.00  0.00     0.062 A 
ATOM      3  C2  UNL d   1       4.708   1.465   1.186  0.00  0.00     0.162 A 
ATOM      4  C3  UNL d   1       4.321   1.594   2.520  0.00  0.00    -0.034 A 
ATOM      5  C4  UNL d   1       2.967   1.507   2.847  0.00  0.00     0.162 A 
ATOM      6  C5  UNL d   1       2.017   1.292   1.854  0.00  0.00     0.062 A 
ATOM      7  F   UNL d   1       0.718   1.208   2.178  0.00  0.00    -0.097 F 
ATOM      8  F1  UNL d   1       2.560   1.627   4.120  0.00  0.00    -0.096 F 
ATOM      9  I   UNL d   1       5.745   1.917   4.003  0.00  0.00    -0.060 I 
ATOM     10  F2  UNL d   1       6.000   1.544   0.835  0.00  0.00    -0.096 F 
ATOM     11  F3  UNL d   1       4.135   1.126  -1.084  0.00  0.00    -0.097 F 
ATOM     12  F4  UNL d   1       1.493   0.956  -0.426  0.00  0.00    -0.092 F 
ENDROOT
TORSDOF 0
ENDMDL
