MODEL 1
REMARK minimizedAffinity 4.84276724
REMARK minimizedRMSD -1
REMARK  0 active torsions:
REMARK  status: ('A' for Active; 'I' for Inactive)
ROOT
ATOM      1  C   UNL d   1      -0.187   1.822  -4.510  0.00  0.00     0.124 A 
ATOM      2  C1  UNL d   1       0.178   2.928  -5.265  0.00  0.00     0.062 A 
ATOM      3  C2  UNL d   1       1.497   3.373  -5.261  0.00  0.00     0.162 A 
ATOM      4  C3  UNL d   1       2.461   2.712  -4.500  0.00  0.00    -0.034 A 
ATOM      5  C4  UNL d   1       2.085   1.601  -3.742  0.00  0.00     0.162 A 
ATOM      6  C5  UNL d   1       0.766   1.160  -3.750  0.00  0.00     0.062 A 
ATOM      7  F   UNL d   1       0.415   0.091  -3.020  0.00  0.00    -0.097 F 
ATOM      8  F1  UNL d   1       2.986   0.942  -2.999  0.00  0.00    -0.096 F 
ATOM      9  I   UNL d   1       4.434   3.374  -4.491  0.00  0.00    -0.060 I 
ATOM     10  F2  UNL d   1       1.822   4.444  -6.000  0.00  0.00    -0.096 F 
ATOM     11  F3  UNL d   1      -0.741   3.570  -6.000  0.00  0.00    -0.097 F 
ATOM     12  F4  UNL d   1      -1.457   1.396  -4.515  0.00  0.00    -0.092 F 
ENDROOT
TORSDOF 0
ENDMDL
