MODEL 1
REMARK minimizedAffinity 17.4005756
REMARK minimizedRMSD -1
REMARK  0 active torsions:
REMARK  status: ('A' for Active; 'I' for Inactive)
ROOT
ATOM      1  C   UNL d   1       0.541   2.409   2.545  0.00  0.00     0.124 A 
ATOM      2  C1  UNL d   1      -0.711   2.907   2.211  0.00  0.00     0.062 A 
ATOM      3  C2  UNL d   1      -1.069   3.062   0.875  0.00  0.00     0.162 A 
ATOM      4  C3  UNL d   1      -0.174   2.718  -0.138  0.00  0.00    -0.034 A 
ATOM      5  C4  UNL d   1       1.083   2.219   0.205  0.00  0.00     0.162 A 
ATOM      6  C5  UNL d   1       1.437   2.066   1.542  0.00  0.00     0.062 A 
ATOM      7  F   UNL d   1       2.647   1.585   1.862  0.00  0.00    -0.097 F 
ATOM      8  F1  UNL d   1       1.968   1.878  -0.744  0.00  0.00    -0.096 F 
ATOM      9  I   UNL d   1      -0.706   2.948  -2.137  0.00  0.00    -0.060 I 
ATOM     10  F2  UNL d   1      -2.285   3.545   0.582  0.00  0.00    -0.096 F 
ATOM     11  F3  UNL d   1      -1.577   3.240   3.178  0.00  0.00    -0.097 F 
ATOM     12  F4  UNL d   1       0.884   2.262   3.831  0.00  0.00    -0.092 F 
ENDROOT
TORSDOF 0
ENDMDL
