MODEL 1
REMARK minimizedAffinity 20.7040672
REMARK minimizedRMSD -1
REMARK  0 active torsions:
REMARK  status: ('A' for Active; 'I' for Inactive)
ROOT
ATOM      1  C   UNL d   1      -3.069   4.566  -5.467  0.00  0.00     0.124 A 
ATOM      2  C1  UNL d   1      -3.628   3.296  -5.432  0.00  0.00     0.062 A 
ATOM      3  C2  UNL d   1      -2.913   2.232  -4.888  0.00  0.00     0.162 A 
ATOM      4  C3  UNL d   1      -1.632   2.434  -4.375  0.00  0.00    -0.034 A 
ATOM      5  C4  UNL d   1      -1.076   3.714  -4.416  0.00  0.00     0.162 A 
ATOM      6  C5  UNL d   1      -1.794   4.774  -4.960  0.00  0.00     0.062 A 
ATOM      7  F   UNL d   1      -1.252   6.000  -4.993  0.00  0.00    -0.097 F 
ATOM      8  F1  UNL d   1       0.154   3.942  -3.931  0.00  0.00    -0.096 F 
ATOM      9  I   UNL d   1      -0.561   0.845  -3.562  0.00  0.00    -0.060 I 
ATOM     10  F2  UNL d   1      -3.478   1.016  -4.867  0.00  0.00    -0.096 F 
ATOM     11  F3  UNL d   1      -4.859   3.093  -5.922  0.00  0.00    -0.097 F 
ATOM     12  F4  UNL d   1      -3.758   5.588  -5.991  0.00  0.00    -0.092 F 
ENDROOT
TORSDOF 0
ENDMDL
