MODEL 1
REMARK minimizedAffinity 14.5176811
REMARK minimizedRMSD -1
REMARK  0 active torsions:
REMARK  status: ('A' for Active; 'I' for Inactive)
ROOT
ATOM      1  C   UNL d   1       3.657   3.997   1.925  0.00  0.00     0.124 A 
ATOM      2  C1  UNL d   1       4.550   4.974   1.507  0.00  0.00     0.062 A 
ATOM      3  C2  UNL d   1       5.139   4.893   0.249  0.00  0.00     0.162 A 
ATOM      4  C3  UNL d   1       4.837   3.830  -0.602  0.00  0.00    -0.034 A 
ATOM      5  C4  UNL d   1       3.938   2.850  -0.175  0.00  0.00     0.162 A 
ATOM      6  C5  UNL d   1       3.352   2.936   1.083  0.00  0.00     0.062 A 
ATOM      7  F   UNL d   1       2.490   1.991   1.485  0.00  0.00    -0.097 F 
ATOM      8  F1  UNL d   1       3.625   1.815  -0.968  0.00  0.00    -0.096 F 
ATOM      9  I   UNL d   1       5.715   3.705  -2.485  0.00  0.00    -0.060 I 
ATOM     10  F2  UNL d   1       5.998   5.852  -0.128  0.00  0.00    -0.096 F 
ATOM     11  F3  UNL d   1       4.847   6.000   2.319  0.00  0.00    -0.097 F 
ATOM     12  F4  UNL d   1       3.092   4.077   3.136  0.00  0.00    -0.092 F 
ENDROOT
TORSDOF 0
ENDMDL
