MODEL 1
REMARK minimizedAffinity 18.6690426
REMARK minimizedRMSD -1
REMARK  0 active torsions:
REMARK  status: ('A' for Active; 'I' for Inactive)
ROOT
ATOM      1  C   UNL d   1       1.364   2.261   0.751  0.00  0.00     0.124 A 
ATOM      2  C1  UNL d   1       0.875   3.558   0.680  0.00  0.00     0.062 A 
ATOM      3  C2  UNL d   1       1.666   4.627   1.090  0.00  0.00     0.162 A 
ATOM      4  C3  UNL d   1       2.955   4.404   1.575  0.00  0.00    -0.034 A 
ATOM      5  C4  UNL d   1       3.439   3.096   1.645  0.00  0.00     0.162 A 
ATOM      6  C5  UNL d   1       2.644   2.031   1.233  0.00  0.00     0.062 A 
ATOM      7  F   UNL d   1       3.118   0.778   1.303  0.00  0.00    -0.097 F 
ATOM      8  F1  UNL d   1       4.673   2.846   2.106  0.00  0.00    -0.096 F 
ATOM      9  I   UNL d   1       4.141   6.000   2.190  0.00  0.00    -0.060 I 
ATOM     10  F2  UNL d   1       1.169   5.870   1.010  0.00  0.00    -0.096 F 
ATOM     11  F3  UNL d   1      -0.362   3.783   0.215  0.00  0.00    -0.097 F 
ATOM     12  F4  UNL d   1       0.600   1.234   0.357  0.00  0.00    -0.092 F 
ENDROOT
TORSDOF 0
ENDMDL
