MODEL 1
REMARK minimizedAffinity 21.2748795
REMARK minimizedRMSD -1
REMARK  0 active torsions:
REMARK  status: ('A' for Active; 'I' for Inactive)
ROOT
ATOM      1  C   UNL d   1       0.714   2.084   2.031  0.00  0.00     0.124 A 
ATOM      2  C1  UNL d   1      -0.431   2.599   1.440  0.00  0.00     0.062 A 
ATOM      3  C2  UNL d   1      -0.565   2.600   0.055  0.00  0.00     0.162 A 
ATOM      4  C3  UNL d   1       0.450   2.082  -0.750  0.00  0.00    -0.034 A 
ATOM      5  C4  UNL d   1       1.600   1.567  -0.149  0.00  0.00     0.162 A 
ATOM      6  C5  UNL d   1       1.728   1.569   1.236  0.00  0.00     0.062 A 
ATOM      7  F   UNL d   1       2.836   1.071   1.806  0.00  0.00    -0.097 F 
ATOM      8  F1  UNL d   1       2.595   1.061  -0.893  0.00  0.00    -0.096 F 
ATOM      9  I   UNL d   1       0.255   2.081  -2.822  0.00  0.00    -0.060 I 
ATOM     10  F2  UNL d   1      -1.683   3.103  -0.489  0.00  0.00    -0.096 F 
ATOM     11  F3  UNL d   1      -1.412   3.099   2.206  0.00  0.00    -0.097 F 
ATOM     12  F4  UNL d   1       0.840   2.086   3.364  0.00  0.00    -0.092 F 
ENDROOT
TORSDOF 0
ENDMDL
