MODEL 1
REMARK minimizedAffinity 10.5643234
REMARK minimizedRMSD -1
REMARK  0 active torsions:
REMARK  status: ('A' for Active; 'I' for Inactive)
ROOT
ATOM      1  C4' PXY d   1      -1.471   2.650  -2.982  0.00  0.00     0.077 C 
ATOM      2  C1' PXY d   1      -4.002  -1.980  -0.621  0.00  0.00     0.077 C 
ATOM      3  C1  PXY d   1      -3.328  -0.767  -1.232  0.00  0.00    -0.082 A 
ATOM      4  C2  PXY d   1      -4.061   0.151  -1.841  0.00  0.00     0.003 A 
ATOM      5  C3  PXY d   1      -3.465   1.238  -2.427  0.00  0.00     0.003 A 
ATOM      6  C4  PXY d   1      -2.110   1.414  -2.343  0.00  0.00    -0.082 A 
ATOM      7  C5  PXY d   1      -1.356   0.487  -1.714  0.00  0.00     0.003 A 
ATOM      8  C6  PXY d   1      -1.976  -0.630  -1.161  0.00  0.00     0.003 A 
ENDROOT
TORSDOF 0
ENDMDL
