MODEL 1
REMARK minimizedAffinity 7.61051464
REMARK minimizedRMSD -1
REMARK  0 active torsions:
REMARK  status: ('A' for Active; 'I' for Inactive)
ROOT
ATOM      1  C4' PXY d   1       1.229   0.042   3.351  0.00  0.00     0.077 C 
ATOM      2  C1' PXY d   1       3.243  -4.737   0.798  0.00  0.00     0.077 C 
ATOM      3  C1  PXY d   1       2.721  -3.487   1.478  0.00  0.00    -0.082 A 
ATOM      4  C2  PXY d   1       1.605  -2.922   1.044  0.00  0.00     0.003 A 
ATOM      5  C3  PXY d   1       1.137  -1.774   1.627  0.00  0.00     0.003 A 
ATOM      6  C4  PXY d   1       1.787  -1.226   2.700  0.00  0.00    -0.082 A 
ATOM      7  C5  PXY d   1       2.920  -1.802   3.156  0.00  0.00     0.003 A 
ATOM      8  C6  PXY d   1       3.402  -2.944   2.524  0.00  0.00     0.003 A 
ENDROOT
TORSDOF 0
ENDMDL
