MODEL 1
REMARK minimizedAffinity 2.39080358
REMARK minimizedRMSD -1
REMARK  0 active torsions:
REMARK  status: ('A' for Active; 'I' for Inactive)
ROOT
ATOM      1  C4' PXY d   1       5.999  -1.106   0.593  0.00  0.00     0.077 C 
ATOM      2  C1' PXY d   1       3.016  -6.000  -0.164  0.00  0.00     0.077 C 
ATOM      3  C1  PXY d   1       3.810  -4.723   0.035  0.00  0.00    -0.082 A 
ATOM      4  C2  PXY d   1       3.219  -3.661   0.559  0.00  0.00     0.003 A 
ATOM      5  C3  PXY d   1       3.913  -2.489   0.716  0.00  0.00     0.003 A 
ATOM      6  C4  PXY d   1       5.240  -2.419   0.383  0.00  0.00    -0.082 A 
ATOM      7  C5  PXY d   1       5.852  -3.502  -0.142  0.00  0.00     0.003 A 
ATOM      8  C6  PXY d   1       5.119  -4.670  -0.332  0.00  0.00     0.003 A 
ENDROOT
TORSDOF 0
ENDMDL
