MODEL 1
REMARK minimizedAffinity 12.2054024
REMARK minimizedRMSD -1
REMARK  0 active torsions:
REMARK  status: ('A' for Active; 'I' for Inactive)
ROOT
ATOM      1  C4' PXY d   1       4.068  -1.638   3.975  0.00  0.00     0.077 C 
ATOM      2  C1' PXY d   1       0.452  -1.611  -0.535  0.00  0.00     0.077 C 
ATOM      3  C1  PXY d   1       1.409  -1.625   0.641  0.00  0.00    -0.082 A 
ATOM      4  C2  PXY d   1       0.937  -1.497   1.870  0.00  0.00     0.003 A 
ATOM      5  C3  PXY d   1       1.791  -1.475   2.942  0.00  0.00     0.003 A 
ATOM      6  C4  PXY d   1       3.138  -1.639   2.758  0.00  0.00    -0.082 A 
ATOM      7  C5  PXY d   1       3.626  -1.781   1.508  0.00  0.00     0.003 A 
ATOM      8  C6  PXY d   1       2.746  -1.759   0.430  0.00  0.00     0.003 A 
ENDROOT
TORSDOF 0
ENDMDL
