MODEL 1
REMARK minimizedAffinity 6.85167742
REMARK minimizedRMSD -1
REMARK  0 active torsions:
REMARK  status: ('A' for Active; 'I' for Inactive)
ROOT
ATOM      1  C4' PXY d   1       2.706  -5.917   0.320  0.00  0.00     0.077 C 
ATOM      2  C1' PXY d   1       1.663  -0.298   1.189  0.00  0.00     0.077 C 
ATOM      3  C1  PXY d   1       1.924  -1.774   0.964  0.00  0.00    -0.082 A 
ATOM      4  C2  PXY d   1       3.148  -2.253   1.117  0.00  0.00     0.003 A 
ATOM      5  C3  PXY d   1       3.408  -3.579   0.886  0.00  0.00     0.003 A 
ATOM      6  C4  PXY d   1       2.395  -4.435   0.546  0.00  0.00    -0.082 A 
ATOM      7  C5  PXY d   1       1.141  -3.956   0.397  0.00  0.00     0.003 A 
ATOM      8  C6  PXY d   1       0.906  -2.599   0.596  0.00  0.00     0.003 A 
ENDROOT
TORSDOF 0
ENDMDL
