MODEL 1
REMARK minimizedAffinity 11.2437162
REMARK minimizedRMSD -1
REMARK  0 active torsions:
REMARK  status: ('A' for Active; 'I' for Inactive)
ROOT
ATOM      1  C4' PXY d   1      -3.667   0.905  -1.288  0.00  0.00     0.077 C 
ATOM      2  C1' PXY d   1       0.483   3.265  -4.547  0.00  0.00     0.077 C 
ATOM      3  C1  PXY d   1      -0.613   2.656  -3.695  0.00  0.00    -0.082 A 
ATOM      4  C2  PXY d   1      -0.296   1.817  -2.722  0.00  0.00     0.003 A 
ATOM      5  C3  PXY d   1      -1.277   1.233  -1.963  0.00  0.00     0.003 A 
ATOM      6  C4  PXY d   1      -2.593   1.551  -2.167  0.00  0.00    -0.082 A 
ATOM      7  C5  PXY d   1      -2.924   2.414  -3.151  0.00  0.00     0.003 A 
ATOM      8  C6  PXY d   1      -1.916   2.965  -3.937  0.00  0.00     0.003 A 
ENDROOT
TORSDOF 0
ENDMDL
