MODEL 1
REMARK minimizedAffinity 10.695015
REMARK minimizedRMSD -1
REMARK  0 active torsions:
REMARK  status: ('A' for Active; 'I' for Inactive)
ROOT
ATOM      1  C4' PXY d   1      -0.181   3.450  -5.063  0.00  0.00     0.077 C 
ATOM      2  C1' PXY d   1       4.921   6.000  -6.000  0.00  0.00     0.077 C 
ATOM      3  C1  PXY d   1       3.589   5.319  -5.756  0.00  0.00    -0.082 A 
ATOM      4  C2  PXY d   1       2.465   5.978  -5.991  0.00  0.00     0.003 A 
ATOM      5  C3  PXY d   1       1.252   5.388  -5.745  0.00  0.00     0.003 A 
ATOM      6  C4  PXY d   1       1.187   4.094  -5.304  0.00  0.00    -0.082 A 
ATOM      7  C5  PXY d   1       2.328   3.412  -5.072  0.00  0.00     0.003 A 
ATOM      8  C6  PXY d   1       3.550   4.042  -5.288  0.00  0.00     0.003 A 
ENDROOT
TORSDOF 0
ENDMDL
