MODEL 1
REMARK minimizedAffinity 1.03233254
REMARK minimizedRMSD -1
REMARK  0 active torsions:
REMARK  status: ('A' for Active; 'I' for Inactive)
ROOT
ATOM      1  C4' PXY d   1       4.137  -6.000   0.222  0.00  0.00     0.077 C 
ATOM      2  C1' PXY d   1       0.989  -1.543   2.128  0.00  0.00     0.077 C 
ATOM      3  C1  PXY d   1       1.806  -2.720   1.632  0.00  0.00    -0.082 A 
ATOM      4  C2  PXY d   1       3.114  -2.592   1.485  0.00  0.00     0.003 A 
ATOM      5  C3  PXY d   1       3.863  -3.637   1.008  0.00  0.00     0.003 A 
ATOM      6  C4  PXY d   1       3.275  -4.841   0.728  0.00  0.00    -0.082 A 
ATOM      7  C5  PXY d   1       1.941  -4.982   0.886  0.00  0.00     0.003 A 
ATOM      8  C6  PXY d   1       1.193  -3.897   1.333  0.00  0.00     0.003 A 
ENDROOT
TORSDOF 0
ENDMDL
