MODEL 1
REMARK minimizedAffinity -2.25671816
REMARK minimizedRMSD -1
REMARK  3 active torsions:
REMARK  status: ('A' for Active; 'I' for Inactive)
REMARK    1  A    between atoms: C3'_2  and  C2'_3 
REMARK    2  A    between atoms: C2'_3  and  C1'_4 
REMARK    3  A    between atoms: C1'_4  and  C1_5 
ROOT
ATOM      1  C1  N4B d   1      -1.208   0.056   1.361  0.00  0.00    -0.075 A 
ATOM      2  C2  N4B d   1      -1.480   1.180   2.171  0.00  0.00     0.002 A 
ATOM      3  C3  N4B d   1      -2.565   1.977   1.898  0.00  0.00     0.002 A 
ATOM      4  C4  N4B d   1      -3.377   1.681   0.814  0.00  0.00    -0.004 A 
ATOM      5  C5  N4B d   1      -3.122   0.578   0.052  0.00  0.00     0.002 A 
ATOM      6  C6  N4B d   1      -2.038  -0.233   0.317  0.00  0.00     0.002 A 
ENDROOT
BRANCH   1   7
ATOM      7  C1' N4B d   1       0.016  -0.795   1.569  0.00  0.00     0.057 C 
BRANCH   7   8
ATOM      8  C2' N4B d   1       0.338  -1.532   0.272  0.00  0.00     0.009 C 
BRANCH   8   9
ATOM      9  C3' N4B d   1       0.539  -3.021   0.500  0.00  0.00     0.004 C 
ATOM     10  C4' N4B d   1       1.734  -3.563  -0.226  0.00  0.00     0.003 C 
ENDBRANCH   8   9
ENDBRANCH   7   8
ENDBRANCH   1   7
TORSDOF 3
ENDMDL
