MODEL 1
REMARK minimizedAffinity 0.252696216
REMARK minimizedRMSD -1
REMARK  3 active torsions:
REMARK  status: ('A' for Active; 'I' for Inactive)
REMARK    1  A    between atoms: C3'_2  and  C2'_3 
REMARK    2  A    between atoms: C2'_3  and  C1'_4 
REMARK    3  A    between atoms: C1'_4  and  C1_5 
ROOT
ATOM      1  C1  N4B d   1       1.170  -2.913   0.281  0.00  0.00    -0.075 A 
ATOM      2  C2  N4B d   1       1.961  -1.758   0.469  0.00  0.00     0.002 A 
ATOM      3  C3  N4B d   1       1.371  -0.575   0.840  0.00  0.00     0.002 A 
ATOM      4  C4  N4B d   1      -0.004  -0.518   1.011  0.00  0.00    -0.004 A 
ATOM      5  C5  N4B d   1      -0.758  -1.644   0.853  0.00  0.00     0.002 A 
ATOM      6  C6  N4B d   1      -0.178  -2.841   0.483  0.00  0.00     0.002 A 
ENDROOT
BRANCH   1   7
ATOM      7  C1' N4B d   1       1.759  -4.208  -0.209  0.00  0.00     0.057 C 
BRANCH   7   8
ATOM      8  C2' N4B d   1       3.261  -4.207   0.058  0.00  0.00     0.009 C 
BRANCH   8   9
ATOM      9  C3' N4B d   1       3.849  -5.606  -0.001  0.00  0.00     0.004 C 
ATOM     10  C4' N4B d   1       5.263  -5.663   0.494  0.00  0.00     0.003 C 
ENDBRANCH   8   9
ENDBRANCH   7   8
ENDBRANCH   1   7
TORSDOF 3
ENDMDL
