MODEL 1
REMARK minimizedAffinity -1.65996528
REMARK minimizedRMSD -1
REMARK  3 active torsions:
REMARK  status: ('A' for Active; 'I' for Inactive)
REMARK    1  A    between atoms: C3'_2  and  C2'_3 
REMARK    2  A    between atoms: C2'_3  and  C1'_4 
REMARK    3  A    between atoms: C1'_4  and  C1_5 
ROOT
ATOM      1  C1  N4B d   1       1.704  -2.370   0.184  0.00  0.00    -0.075 A 
ATOM      2  C2  N4B d   1       0.543  -3.168   0.281  0.00  0.00     0.002 A 
ATOM      3  C3  N4B d   1      -0.666  -2.588   0.580  0.00  0.00     0.002 A 
ATOM      4  C4  N4B d   1      -0.734  -1.221   0.803  0.00  0.00    -0.004 A 
ATOM      5  C5  N4B d   1       0.387  -0.454   0.682  0.00  0.00     0.002 A 
ATOM      6  C6  N4B d   1       1.608  -1.022   0.378  0.00  0.00     0.002 A 
ENDROOT
BRANCH   1   7
ATOM      7  C1' N4B d   1       3.062  -2.970  -0.055  0.00  0.00     0.057 C 
BRANCH   7   8
ATOM      8  C2' N4B d   1       2.938  -4.491  -0.091  0.00  0.00     0.009 C 
BRANCH   8   9
ATOM      9  C3' N4B d   1       4.230  -5.156  -0.535  0.00  0.00     0.004 C 
ATOM     10  C4' N4B d   1       4.850  -5.997   0.540  0.00  0.00     0.003 C 
ENDBRANCH   8   9
ENDBRANCH   7   8
ENDBRANCH   1   7
TORSDOF 3
ENDMDL
