MODEL 1
REMARK minimizedAffinity -4.92971706
REMARK minimizedRMSD -1
REMARK  3 active torsions:
REMARK  status: ('A' for Active; 'I' for Inactive)
REMARK    1  A    between atoms: C3'_2  and  C2'_3 
REMARK    2  A    between atoms: C2'_3  and  C1'_4 
REMARK    3  A    between atoms: C1'_4  and  C1_5 
ROOT
ATOM      1  C1  N4B d   1       2.082  -1.650   0.192  0.00  0.00    -0.075 A 
ATOM      2  C2  N4B d   1       0.891  -2.064  -0.443  0.00  0.00     0.002 A 
ATOM      3  C3  N4B d   1      -0.310  -1.503  -0.084  0.00  0.00     0.002 A 
ATOM      4  C4  N4B d   1      -0.347  -0.544   0.917  0.00  0.00    -0.004 A 
ATOM      5  C5  N4B d   1       0.811  -0.131   1.508  0.00  0.00     0.002 A 
ATOM      6  C6  N4B d   1       2.026  -0.683   1.154  0.00  0.00     0.002 A 
ENDROOT
BRANCH   1   7
ATOM      7  C1' N4B d   1       3.408  -2.295  -0.107  0.00  0.00     0.057 C 
BRANCH   7   8
ATOM      8  C2' N4B d   1       3.238  -3.812  -0.104  0.00  0.00     0.009 C 
BRANCH   8   9
ATOM      9  C3' N4B d   1       4.531  -4.529  -0.454  0.00  0.00     0.004 C 
ATOM     10  C4' N4B d   1       4.605  -5.908   0.128  0.00  0.00     0.003 C 
ENDBRANCH   8   9
ENDBRANCH   7   8
ENDBRANCH   1   7
TORSDOF 3
ENDMDL
