MODEL 1
REMARK minimizedAffinity 4.32183313
REMARK minimizedRMSD -1
REMARK  3 active torsions:
REMARK  status: ('A' for Active; 'I' for Inactive)
REMARK    1  A    between atoms: C3'_2  and  C2'_3 
REMARK    2  A    between atoms: C2'_3  and  C1'_4 
REMARK    3  A    between atoms: C1'_4  and  C1_5 
ROOT
ATOM      1  C1  N4B d   1       0.748  -2.410   0.134  0.00  0.00    -0.075 A 
ATOM      2  C2  N4B d   1      -0.583  -1.938   0.138  0.00  0.00     0.002 A 
ATOM      3  C3  N4B d   1      -0.881  -0.731   0.720  0.00  0.00     0.002 A 
ATOM      4  C4  N4B d   1       0.127   0.010   1.318  0.00  0.00    -0.004 A 
ATOM      5  C5  N4B d   1       1.414  -0.440   1.287  0.00  0.00     0.002 A 
ATOM      6  C6  N4B d   1       1.729  -1.650   0.702  0.00  0.00     0.002 A 
ENDROOT
BRANCH   1   7
ATOM      7  C1' N4B d   1       1.109  -3.763  -0.415  0.00  0.00     0.057 C 
BRANCH   7   8
ATOM      8  C2' N4B d   1       2.440  -4.208   0.184  0.00  0.00     0.009 C 
BRANCH   8   9
ATOM      9  C3' N4B d   1       3.309  -4.928  -0.832  0.00  0.00     0.004 C 
ATOM     10  C4' N4B d   1       4.448  -5.671  -0.200  0.00  0.00     0.003 C 
ENDBRANCH   8   9
ENDBRANCH   7   8
ENDBRANCH   1   7
TORSDOF 3
ENDMDL
