MODEL 1
REMARK minimizedAffinity 2.9468894
REMARK minimizedRMSD -1
REMARK  3 active torsions:
REMARK  status: ('A' for Active; 'I' for Inactive)
REMARK    1  A    between atoms: C3'_2  and  C2'_3 
REMARK    2  A    between atoms: C2'_3  and  C1'_4 
REMARK    3  A    between atoms: C1'_4  and  C1_5 
ROOT
ATOM      1  C1  N4B d   1       1.046  -2.705   1.076  0.00  0.00    -0.075 A 
ATOM      2  C2  N4B d   1       1.971  -1.660   1.293  0.00  0.00     0.002 A 
ATOM      3  C3  N4B d   1       1.573  -0.352   1.157  0.00  0.00     0.002 A 
ATOM      4  C4  N4B d   1       0.266  -0.068   0.789  0.00  0.00    -0.004 A 
ATOM      5  C5  N4B d   1      -0.627  -1.083   0.607  0.00  0.00     0.002 A 
ATOM      6  C6  N4B d   1      -0.242  -2.401   0.743  0.00  0.00     0.002 A 
ENDROOT
BRANCH   1   7
ATOM      7  C1' N4B d   1       1.457  -4.152   1.128  0.00  0.00     0.057 C 
BRANCH   7   8
ATOM      8  C2' N4B d   1       2.925  -4.270   0.731  0.00  0.00     0.009 C 
BRANCH   8   9
ATOM      9  C3' N4B d   1       3.399  -5.713   0.730  0.00  0.00     0.004 C 
ATOM     10  C4' N4B d   1       4.852  -5.848   0.386  0.00  0.00     0.003 C 
ENDBRANCH   8   9
ENDBRANCH   7   8
ENDBRANCH   1   7
TORSDOF 3
ENDMDL
