MODEL 1
REMARK minimizedAffinity -4.41268778
REMARK minimizedRMSD -1
REMARK  1 active torsions:
REMARK  status: ('A' for Active; 'I' for Inactive)
REMARK    1  A    between atoms: C3_4  and  O_7 
ROOT
ATOM      1  C   UNL d   1       1.263  -2.357  -1.431  0.00  0.00    -0.033 A 
ATOM      2  C1  UNL d   1       0.687  -3.626  -1.507  0.00  0.00     0.039 A 
ATOM      3  C2  UNL d   1      -0.578  -3.854  -0.961  0.00  0.00    -0.080 A 
ATOM      4  C3  UNL d   1      -1.255  -2.806  -0.344  0.00  0.00     0.150 A 
ATOM      5  C4  UNL d   1      -0.688  -1.538  -0.268  0.00  0.00    -0.007 A 
ATOM      6  C5  UNL d   1       0.575  -1.312  -0.813  0.00  0.00     0.039 A 
ENDROOT
BRANCH   4   7
ATOM      7  O   UNL d   1      -2.489  -2.981   0.207  0.00  0.00    -0.526 OA
ATOM      8  H5  UNL d   1      -2.742  -3.914   0.105  0.00  0.00     0.418 HD
ENDBRANCH   4   7
TORSDOF 1
ENDMDL
