MODEL 1
REMARK minimizedAffinity -4.37351418
REMARK minimizedRMSD -1
REMARK  1 active torsions:
REMARK  status: ('A' for Active; 'I' for Inactive)
REMARK    1  A    between atoms: C3_4  and  O_7 
ROOT
ATOM      1  C   UNL d   1      -0.457   0.354   0.114  0.00  0.00    -0.033 A 
ATOM      2  C1  UNL d   1       0.335  -0.248  -0.865  0.00  0.00     0.039 A 
ATOM      3  C2  UNL d   1       0.544  -1.628  -0.846  0.00  0.00    -0.080 A 
ATOM      4  C3  UNL d   1      -0.045  -2.395   0.156  0.00  0.00     0.150 A 
ATOM      5  C4  UNL d   1      -0.839  -1.802   1.133  0.00  0.00    -0.007 A 
ATOM      6  C5  UNL d   1      -1.046  -0.423   1.112  0.00  0.00     0.039 A 
ENDROOT
BRANCH   4   7
ATOM      7  O   UNL d   1       0.134  -3.745   0.220  0.00  0.00    -0.526 OA
ATOM      8  H5  UNL d   1       0.728  -4.010  -0.502  0.00  0.00     0.418 HD
ENDBRANCH   4   7
TORSDOF 1
ENDMDL
