MODEL 1
REMARK minimizedAffinity -4.13435125
REMARK minimizedRMSD -1
REMARK  1 active torsions:
REMARK  status: ('A' for Active; 'I' for Inactive)
REMARK    1  A    between atoms: C3_4  and  O_7 
ROOT
ATOM      1  C   UNL d   1       0.184   0.748  -0.703  0.00  0.00    -0.033 A 
ATOM      2  C1  UNL d   1       0.543  -0.203  -1.660  0.00  0.00     0.039 A 
ATOM      3  C2  UNL d   1       0.533  -1.561  -1.336  0.00  0.00    -0.080 A 
ATOM      4  C3  UNL d   1       0.161  -1.954  -0.053  0.00  0.00     0.150 A 
ATOM      5  C4  UNL d   1      -0.201  -1.013   0.904  0.00  0.00    -0.007 A 
ATOM      6  C5  UNL d   1      -0.190   0.343   0.579  0.00  0.00     0.039 A 
ENDROOT
BRANCH   4   7
ATOM      7  O   UNL d   1       0.141  -3.268   0.311  0.00  0.00    -0.526 OA
ATOM      8  H5  UNL d   1       0.443  -3.801  -0.443  0.00  0.00     0.418 HD
ENDBRANCH   4   7
TORSDOF 1
ENDMDL
