MODEL 1
REMARK minimizedAffinity -4.74792242
REMARK minimizedRMSD -1
REMARK  1 active torsions:
REMARK  status: ('A' for Active; 'I' for Inactive)
REMARK    1  A    between atoms: C3_4  and  O_7 
ROOT
ATOM      1  C   UNL d   1      -0.327  -2.763  -0.168  0.00  0.00    -0.033 A 
ATOM      2  C1  UNL d   1      -0.881  -2.073   0.912  0.00  0.00     0.039 A 
ATOM      3  C2  UNL d   1      -0.978  -0.680   0.877  0.00  0.00    -0.080 A 
ATOM      4  C3  UNL d   1      -0.518   0.009  -0.241  0.00  0.00     0.150 A 
ATOM      5  C4  UNL d   1       0.032  -0.672  -1.322  0.00  0.00    -0.007 A 
ATOM      6  C5  UNL d   1       0.128  -2.062  -1.286  0.00  0.00     0.039 A 
ENDROOT
BRANCH   4   7
ATOM      7  O   UNL d   1      -0.587   1.368  -0.319  0.00  0.00    -0.526 OA
ATOM      8  H5  UNL d   1      -0.963   1.705   0.512  0.00  0.00     0.418 HD
ENDBRANCH   4   7
TORSDOF 1
ENDMDL
