MODEL 1
REMARK minimizedAffinity -2.0759449
REMARK minimizedRMSD -1
REMARK  1 active torsions:
REMARK  status: ('A' for Active; 'I' for Inactive)
REMARK    1  A    between atoms: C3_4  and  O_7 
ROOT
ATOM      1  C   UNL d   1      -0.713  -0.488   0.364  0.00  0.00    -0.033 A 
ATOM      2  C1  UNL d   1      -1.760  -1.342   0.714  0.00  0.00     0.039 A 
ATOM      3  C2  UNL d   1      -1.573  -2.726   0.690  0.00  0.00    -0.080 A 
ATOM      4  C3  UNL d   1      -0.335  -3.241   0.316  0.00  0.00     0.150 A 
ATOM      5  C4  UNL d   1       0.714  -2.396  -0.030  0.00  0.00    -0.007 A 
ATOM      6  C5  UNL d   1       0.525  -1.015  -0.007  0.00  0.00     0.039 A 
ENDROOT
BRANCH   4   7
ATOM      7  O   UNL d   1      -0.106  -4.584   0.273  0.00  0.00    -0.526 OA
ATOM      8  H5  UNL d   1      -0.929  -5.044   0.510  0.00  0.00     0.418 HD
ENDBRANCH   4   7
TORSDOF 1
ENDMDL
