MODEL 1
REMARK minimizedAffinity -4.27460289
REMARK minimizedRMSD -1
REMARK  1 active torsions:
REMARK  status: ('A' for Active; 'I' for Inactive)
REMARK    1  A    between atoms: C3_4  and  O_7 
ROOT
ATOM      1  C   UNL d   1      -0.116  -3.236   0.382  0.00  0.00    -0.033 A 
ATOM      2  C1  UNL d   1      -0.737  -2.459   1.362  0.00  0.00     0.039 A 
ATOM      3  C2  UNL d   1      -0.719  -1.066   1.266  0.00  0.00    -0.080 A 
ATOM      4  C3  UNL d   1      -0.077  -0.464   0.187  0.00  0.00     0.150 A 
ATOM      5  C4  UNL d   1       0.540  -1.232  -0.794  0.00  0.00    -0.007 A 
ATOM      6  C5  UNL d   1       0.522  -2.623  -0.696  0.00  0.00     0.039 A 
ENDROOT
BRANCH   4   7
ATOM      7  O   UNL d   1      -0.029   0.892   0.054  0.00  0.00    -0.526 OA
ATOM      8  H5  UNL d   1      -0.472   1.293   0.820  0.00  0.00     0.418 HD
ENDBRANCH   4   7
TORSDOF 1
ENDMDL
