MODEL 1
REMARK minimizedAffinity -5.05539131
REMARK minimizedRMSD -1
REMARK  1 active torsions:
REMARK  status: ('A' for Active; 'I' for Inactive)
REMARK    1  A    between atoms: C3_4  and  O_7 
ROOT
ATOM      1  C   UNL d   1       0.094  -2.688  -0.014  0.00  0.00    -0.033 A 
ATOM      2  C1  UNL d   1      -0.425  -2.120   1.150  0.00  0.00     0.039 A 
ATOM      3  C2  UNL d   1      -0.469  -0.731   1.292  0.00  0.00    -0.080 A 
ATOM      4  C3  UNL d   1       0.007   0.076   0.262  0.00  0.00     0.150 A 
ATOM      5  C4  UNL d   1       0.522  -0.484  -0.903  0.00  0.00    -0.007 A 
ATOM      6  C5  UNL d   1       0.566  -1.871  -1.042  0.00  0.00     0.039 A 
ENDROOT
BRANCH   4   7
ATOM      7  O   UNL d   1      -0.011   1.436   0.356  0.00  0.00    -0.526 OA
ATOM      8  H5  UNL d   1      -0.366   1.679   1.227  0.00  0.00     0.418 HD
ENDBRANCH   4   7
TORSDOF 1
ENDMDL
