MODEL 1
REMARK minimizedAffinity -2.20426321
REMARK minimizedRMSD -1
REMARK  1 active torsions:
REMARK  status: ('A' for Active; 'I' for Inactive)
REMARK    1  A    between atoms: C3_4  and  O_7 
ROOT
ATOM      1  C   UNL d   1       0.521   0.716  -0.966  0.00  0.00    -0.033 A 
ATOM      2  C1  UNL d   1       0.497  -0.377  -1.834  0.00  0.00     0.039 A 
ATOM      3  C2  UNL d   1       0.067  -1.624  -1.378  0.00  0.00    -0.080 A 
ATOM      4  C3  UNL d   1      -0.337  -1.765  -0.054  0.00  0.00     0.150 A 
ATOM      5  C4  UNL d   1      -0.320  -0.680   0.816  0.00  0.00    -0.007 A 
ATOM      6  C5  UNL d   1       0.111   0.565   0.359  0.00  0.00     0.039 A 
ENDROOT
BRANCH   4   7
ATOM      7  O   UNL d   1      -0.761  -2.964   0.439  0.00  0.00    -0.526 OA
ATOM      8  H5  UNL d   1      -0.692  -3.628  -0.267  0.00  0.00     0.418 HD
ENDBRANCH   4   7
TORSDOF 1
ENDMDL
