MODEL 1
REMARK minimizedAffinity -3.52288079
REMARK minimizedRMSD -1
REMARK  1 active torsions:
REMARK  status: ('A' for Active; 'I' for Inactive)
REMARK    1  A    between atoms: C3_4  and  O_7 
ROOT
ATOM      1  C   UNL d   1       0.186  -3.340  -0.453  0.00  0.00    -0.033 A 
ATOM      2  C1  UNL d   1       0.089  -3.036   0.906  0.00  0.00     0.039 A 
ATOM      3  C2  UNL d   1      -0.021  -1.707   1.320  0.00  0.00    -0.080 A 
ATOM      4  C3  UNL d   1      -0.034  -0.693   0.367  0.00  0.00     0.150 A 
ATOM      5  C4  UNL d   1       0.058  -0.989  -0.989  0.00  0.00    -0.007 A 
ATOM      6  C5  UNL d   1       0.169  -2.316  -1.401  0.00  0.00     0.039 A 
ENDROOT
BRANCH   4   7
ATOM      7  O   UNL d   1      -0.136   0.619   0.723  0.00  0.00    -0.526 OA
ATOM      8  H5  UNL d   1      -0.163   0.673   1.693  0.00  0.00     0.418 HD
ENDBRANCH   4   7
TORSDOF 1
ENDMDL
