MODEL 1
REMARK minimizedAffinity -4.93845177
REMARK minimizedRMSD -1
REMARK  1 active torsions:
REMARK  status: ('A' for Active; 'I' for Inactive)
REMARK    1  A    between atoms: C3_4  and  O_7 
ROOT
ATOM      1  C   UNL d   1       0.282  -3.636  -0.084  0.00  0.00    -0.033 A 
ATOM      2  C1  UNL d   1      -0.003  -2.942   1.093  0.00  0.00     0.039 A 
ATOM      3  C2  UNL d   1      -0.228  -1.564   1.056  0.00  0.00    -0.080 A 
ATOM      4  C3  UNL d   1      -0.167  -0.894  -0.163  0.00  0.00     0.150 A 
ATOM      5  C4  UNL d   1       0.112  -1.581  -1.340  0.00  0.00    -0.007 A 
ATOM      6  C5  UNL d   1       0.338  -2.956  -1.301  0.00  0.00     0.039 A 
ENDROOT
BRANCH   4   7
ATOM      7  O   UNL d   1      -0.374   0.450  -0.248  0.00  0.00    -0.526 OA
ATOM      8  H5  UNL d   1      -0.528   0.796   0.647  0.00  0.00     0.418 HD
ENDBRANCH   4   7
TORSDOF 1
ENDMDL
