MODEL 1
REMARK minimizedAffinity -5.08452034
REMARK minimizedRMSD -1
REMARK  1 active torsions:
REMARK  status: ('A' for Active; 'I' for Inactive)
REMARK    1  A    between atoms: C3_4  and  O_7 
ROOT
ATOM      1  C   UNL d   1      -0.458   0.376  -1.065  0.00  0.00    -0.033 A 
ATOM      2  C1  UNL d   1      -0.867   0.106   0.243  0.00  0.00     0.039 A 
ATOM      3  C2  UNL d   1      -0.658  -1.159   0.794  0.00  0.00    -0.080 A 
ATOM      4  C3  UNL d   1      -0.037  -2.144   0.030  0.00  0.00     0.150 A 
ATOM      5  C4  UNL d   1       0.377  -1.880  -1.272  0.00  0.00    -0.007 A 
ATOM      6  C5  UNL d   1       0.166  -0.616  -1.821  0.00  0.00     0.039 A 
ENDROOT
BRANCH   4   7
ATOM      7  O   UNL d   1       0.184  -3.395   0.523  0.00  0.00    -0.526 OA
ATOM      8  H5  UNL d   1      -0.180  -3.440   1.423  0.00  0.00     0.418 HD
ENDBRANCH   4   7
TORSDOF 1
ENDMDL
