MODEL 1
REMARK minimizedAffinity -4.58794641
REMARK minimizedRMSD -1
REMARK  1 active torsions:
REMARK  status: ('A' for Active; 'I' for Inactive)
REMARK    1  A    between atoms: C3_4  and  O_7 
ROOT
ATOM      1  C   UNL d   1      -1.043  -2.508   0.216  0.00  0.00    -0.033 A 
ATOM      2  C1  UNL d   1      -0.752  -3.240  -0.937  0.00  0.00     0.039 A 
ATOM      3  C2  UNL d   1      -0.284  -2.588  -2.079  0.00  0.00    -0.080 A 
ATOM      4  C3  UNL d   1      -0.110  -1.207  -2.056  0.00  0.00     0.150 A 
ATOM      5  C4  UNL d   1      -0.394  -0.473  -0.909  0.00  0.00    -0.007 A 
ATOM      6  C5  UNL d   1      -0.863  -1.125   0.231  0.00  0.00     0.039 A 
ENDROOT
BRANCH   4   7
ATOM      7  O   UNL d   1       0.340  -0.527  -3.148  0.00  0.00    -0.526 OA
ATOM      8  H5  UNL d   1       0.467  -1.160  -3.874  0.00  0.00     0.418 HD
ENDBRANCH   4   7
TORSDOF 1
ENDMDL
