MODEL 1
REMARK minimizedAffinity -3.96362734
REMARK minimizedRMSD -1
REMARK  1 active torsions:
REMARK  status: ('A' for Active; 'I' for Inactive)
REMARK    1  A    between atoms: C3_4  and  O_7 
ROOT
ATOM      1  C   UNL d   1      -1.098  -0.130   1.149  0.00  0.00    -0.033 A 
ATOM      2  C1  UNL d   1      -0.554   0.782   0.242  0.00  0.00     0.039 A 
ATOM      3  C2  UNL d   1      -0.127   0.350  -1.015  0.00  0.00    -0.080 A 
ATOM      4  C3  UNL d   1      -0.249  -0.995  -1.352  0.00  0.00     0.150 A 
ATOM      5  C4  UNL d   1      -0.793  -1.909  -0.455  0.00  0.00    -0.007 A 
ATOM      6  C5  UNL d   1      -1.218  -1.475   0.800  0.00  0.00     0.039 A 
ENDROOT
BRANCH   4   7
ATOM      7  O   UNL d   1       0.158  -1.465  -2.565  0.00  0.00    -0.526 OA
ATOM      8  H5  UNL d   1       0.539  -0.727  -3.069  0.00  0.00     0.418 HD
ENDBRANCH   4   7
TORSDOF 1
ENDMDL
