MODEL 1
REMARK minimizedAffinity 0.218027353
REMARK minimizedRMSD -1
REMARK  0 active torsions:
REMARK  status: ('A' for Active; 'I' for Inactive)
ROOT
ATOM      1  C   UNL d   1      -0.728   0.502   1.063  0.00  0.00     0.124 A 
ATOM      2  C1  UNL d   1       0.558  -0.018   1.050  0.00  0.00     0.062 A 
ATOM      3  C2  UNL d   1       1.049  -0.643  -0.093  0.00  0.00     0.162 A 
ATOM      4  C3  UNL d   1       0.253  -0.750  -1.233  0.00  0.00    -0.034 A 
ATOM      5  C4  UNL d   1      -1.040  -0.225  -1.212  0.00  0.00     0.162 A 
ATOM      6  C5  UNL d   1      -1.526   0.398  -0.068  0.00  0.00     0.062 A 
ATOM      7  F   UNL d   1      -2.769   0.901  -0.057  0.00  0.00    -0.097 F 
ATOM      8  F1  UNL d   1      -1.832  -0.311  -2.291  0.00  0.00    -0.096 F 
ATOM      9  I   UNL d   1       0.983  -1.684  -2.944  0.00  0.00    -0.060 I 
ATOM     10  F2  UNL d   1       2.296  -1.137  -0.077  0.00  0.00    -0.096 F 
ATOM     11  F3  UNL d   1       1.331   0.080   2.142  0.00  0.00    -0.097 F 
ATOM     12  F4  UNL d   1      -1.198   1.102   2.164  0.00  0.00    -0.092 F 
ENDROOT
TORSDOF 0
ENDMDL
