MODEL 1
REMARK minimizedAffinity 6.92519999
REMARK minimizedRMSD -1
REMARK  0 active torsions:
REMARK  status: ('A' for Active; 'I' for Inactive)
ROOT
ATOM      1  C   UNL d   1      -1.671   0.251  -0.391  0.00  0.00     0.124 A 
ATOM      2  C1  UNL d   1      -0.334   0.624  -0.366  0.00  0.00     0.062 A 
ATOM      3  C2  UNL d   1       0.567   0.055  -1.262  0.00  0.00     0.162 A 
ATOM      4  C3  UNL d   1       0.135  -0.892  -2.190  0.00  0.00    -0.034 A 
ATOM      5  C4  UNL d   1      -1.211  -1.262  -2.208  0.00  0.00     0.162 A 
ATOM      6  C5  UNL d   1      -2.108  -0.691  -1.311  0.00  0.00     0.062 A 
ATOM      7  F   UNL d   1      -3.399  -1.053  -1.336  0.00  0.00    -0.097 F 
ATOM      8  F1  UNL d   1      -1.661  -2.170  -3.087  0.00  0.00    -0.096 F 
ATOM      9  I   UNL d   1       1.480  -1.744  -3.531  0.00  0.00    -0.060 I 
ATOM     10  F2  UNL d   1       1.853   0.434  -1.216  0.00  0.00    -0.096 F 
ATOM     11  F3  UNL d   1       0.091   1.533   0.523  0.00  0.00    -0.097 F 
ATOM     12  F4  UNL d   1      -2.536   0.799   0.473  0.00  0.00    -0.092 F 
ENDROOT
TORSDOF 0
ENDMDL
