MODEL 1
REMARK minimizedAffinity -3.01506424
REMARK minimizedRMSD -1
REMARK  0 active torsions:
REMARK  status: ('A' for Active; 'I' for Inactive)
ROOT
ATOM      1  C   UNL d   1       1.161   0.048   2.230  0.00  0.00     0.124 A 
ATOM      2  C1  UNL d   1      -0.009  -0.644   2.510  0.00  0.00     0.062 A 
ATOM      3  C2  UNL d   1      -1.070  -0.619   1.609  0.00  0.00     0.162 A 
ATOM      4  C3  UNL d   1      -0.964   0.101   0.418  0.00  0.00    -0.034 A 
ATOM      5  C4  UNL d   1       0.215   0.795   0.145  0.00  0.00     0.162 A 
ATOM      6  C5  UNL d   1       1.272   0.767   1.048  0.00  0.00     0.062 A 
ATOM      7  F   UNL d   1       2.402   1.436   0.777  0.00  0.00    -0.097 F 
ATOM      8  F1  UNL d   1       0.350   1.497  -0.990  0.00  0.00    -0.096 F 
ATOM      9  I   UNL d   1      -2.548   0.141  -0.932  0.00  0.00    -0.060 I 
ATOM     10  F2  UNL d   1      -2.188  -1.297   1.905  0.00  0.00    -0.096 F 
ATOM     11  F3  UNL d   1      -0.119  -1.339   3.652  0.00  0.00    -0.097 F 
ATOM     12  F4  UNL d   1       2.180   0.023   3.100  0.00  0.00    -0.092 F 
ENDROOT
TORSDOF 0
ENDMDL
