MODEL 1
REMARK minimizedAffinity -3.13191366
REMARK minimizedRMSD -1
REMARK  0 active torsions:
REMARK  status: ('A' for Active; 'I' for Inactive)
ROOT
ATOM      1  C   UNL d   1      -1.563  -0.313   0.507  0.00  0.00     0.124 A 
ATOM      2  C1  UNL d   1      -0.286   0.195   0.698  0.00  0.00     0.062 A 
ATOM      3  C2  UNL d   1       0.604   0.273  -0.370  0.00  0.00     0.162 A 
ATOM      4  C3  UNL d   1       0.218  -0.158  -1.640  0.00  0.00    -0.034 A 
ATOM      5  C4  UNL d   1      -1.068  -0.669  -1.824  0.00  0.00     0.162 A 
ATOM      6  C5  UNL d   1      -1.953  -0.744  -0.754  0.00  0.00     0.062 A 
ATOM      7  F   UNL d   1      -3.187  -1.235  -0.940  0.00  0.00    -0.097 F 
ATOM      8  F1  UNL d   1      -1.471  -1.091  -3.031  0.00  0.00    -0.096 F 
ATOM      9  I   UNL d   1       1.545  -0.043  -3.239  0.00  0.00    -0.060 I 
ATOM     10  F2  UNL d   1       1.832   0.768  -0.157  0.00  0.00    -0.096 F 
ATOM     11  F3  UNL d   1       0.094   0.611   1.914  0.00  0.00    -0.097 F 
ATOM     12  F4  UNL d   1      -2.416  -0.388   1.536  0.00  0.00    -0.092 F 
ENDROOT
TORSDOF 0
ENDMDL
