MODEL 1
REMARK minimizedAffinity -6.75289774
REMARK minimizedRMSD -1
REMARK  0 active torsions:
REMARK  status: ('A' for Active; 'I' for Inactive)
ROOT
ATOM      1  C   UNL d   1      -1.990   0.049   1.788  0.00  0.00     0.124 A 
ATOM      2  C1  UNL d   1      -2.676   0.330   0.615  0.00  0.00     0.062 A 
ATOM      3  C2  UNL d   1      -2.032   0.224  -0.615  0.00  0.00     0.162 A 
ATOM      4  C3  UNL d   1      -0.695  -0.165  -0.677  0.00  0.00    -0.034 A 
ATOM      5  C4  UNL d   1      -0.011  -0.445   0.507  0.00  0.00     0.162 A 
ATOM      6  C5  UNL d   1      -0.659  -0.338   1.734  0.00  0.00     0.062 A 
ATOM      7  F   UNL d   1       0.006  -0.610   2.866  0.00  0.00    -0.097 F 
ATOM      8  F1  UNL d   1       1.276  -0.822   0.483  0.00  0.00    -0.096 F 
ATOM      9  I   UNL d   1       0.272  -0.325  -2.514  0.00  0.00    -0.060 I 
ATOM     10  F2  UNL d   1      -2.720   0.501  -1.732  0.00  0.00    -0.096 F 
ATOM     11  F3  UNL d   1      -3.962   0.705   0.665  0.00  0.00    -0.097 F 
ATOM     12  F4  UNL d   1      -2.612   0.152   2.970  0.00  0.00    -0.092 F 
ENDROOT
TORSDOF 0
ENDMDL
