MODEL 1
REMARK minimizedAffinity -2.24718761
REMARK minimizedRMSD -1
REMARK  0 active torsions:
REMARK  status: ('A' for Active; 'I' for Inactive)
ROOT
ATOM      1  C   UNL d   1      -1.517  -0.256   2.812  0.00  0.00     0.124 A 
ATOM      2  C1  UNL d   1      -0.166   0.024   2.659  0.00  0.00     0.062 A 
ATOM      3  C2  UNL d   1       0.360   0.260   1.392  0.00  0.00     0.162 A 
ATOM      4  C3  UNL d   1      -0.464   0.217   0.268  0.00  0.00    -0.034 A 
ATOM      5  C4  UNL d   1      -1.822  -0.067   0.430  0.00  0.00     0.162 A 
ATOM      6  C5  UNL d   1      -2.343  -0.301   1.698  0.00  0.00     0.062 A 
ATOM      7  F   UNL d   1      -3.648  -0.572   1.844  0.00  0.00    -0.097 F 
ATOM      8  F1  UNL d   1      -2.643  -0.115  -0.630  0.00  0.00    -0.096 F 
ATOM      9  I   UNL d   1       0.320   0.569  -1.628  0.00  0.00    -0.060 I 
ATOM     10  F2  UNL d   1       1.669   0.528   1.274  0.00  0.00    -0.096 F 
ATOM     11  F3  UNL d   1       0.634   0.067   3.734  0.00  0.00    -0.097 F 
ATOM     12  F4  UNL d   1      -2.021  -0.483   4.032  0.00  0.00    -0.092 F 
ENDROOT
TORSDOF 0
ENDMDL
