MODEL 1
REMARK minimizedAffinity -6.13459206
REMARK minimizedRMSD -1
REMARK  0 active torsions:
REMARK  status: ('A' for Active; 'I' for Inactive)
ROOT
ATOM      1  C   UNL d   1      -1.524  -0.064   2.865  0.00  0.00     0.124 A 
ATOM      2  C1  UNL d   1      -0.183  -0.214   2.540  0.00  0.00     0.062 A 
ATOM      3  C2  UNL d   1       0.222  -0.182   1.208  0.00  0.00     0.162 A 
ATOM      4  C3  UNL d   1      -0.716   0.001   0.192  0.00  0.00    -0.034 A 
ATOM      5  C4  UNL d   1      -2.063   0.150   0.527  0.00  0.00     0.162 A 
ATOM      6  C5  UNL d   1      -2.462   0.118   1.859  0.00  0.00     0.062 A 
ATOM      7  F   UNL d   1      -3.758   0.263   2.171  0.00  0.00    -0.097 F 
ATOM      8  F1  UNL d   1      -2.990   0.328  -0.425  0.00  0.00    -0.096 F 
ATOM      9  I   UNL d   1      -0.114   0.048  -1.800  0.00  0.00    -0.060 I 
ATOM     10  F2  UNL d   1       1.524  -0.330   0.923  0.00  0.00    -0.096 F 
ATOM     11  F3  UNL d   1       0.725  -0.390   3.510  0.00  0.00    -0.097 F 
ATOM     12  F4  UNL d   1      -1.911  -0.096   4.147  0.00  0.00    -0.092 F 
ENDROOT
TORSDOF 0
ENDMDL
