MODEL 1
REMARK minimizedAffinity -6.51019764
REMARK minimizedRMSD -1
REMARK  0 active torsions:
REMARK  status: ('A' for Active; 'I' for Inactive)
ROOT
ATOM      1  C   UNL d   1      -1.493  -0.253   2.202  0.00  0.00     0.124 A 
ATOM      2  C1  UNL d   1      -0.165  -0.630   2.060  0.00  0.00     0.062 A 
ATOM      3  C2  UNL d   1       0.456  -0.554   0.816  0.00  0.00     0.162 A 
ATOM      4  C3  UNL d   1      -0.251  -0.096  -0.296  0.00  0.00    -0.034 A 
ATOM      5  C4  UNL d   1      -1.587   0.281  -0.146  0.00  0.00     0.162 A 
ATOM      6  C5  UNL d   1      -2.202   0.203   1.099  0.00  0.00     0.062 A 
ATOM      7  F   UNL d   1      -3.485   0.568   1.235  0.00  0.00    -0.097 F 
ATOM      8  F1  UNL d   1      -2.295   0.725  -1.194  0.00  0.00    -0.096 F 
ATOM      9  I   UNL d   1       0.673   0.020  -2.157  0.00  0.00    -0.060 I 
ATOM     10  F2  UNL d   1       1.740  -0.925   0.708  0.00  0.00    -0.096 F 
ATOM     11  F3  UNL d   1       0.523  -1.071   3.123  0.00  0.00    -0.097 F 
ATOM     12  F4  UNL d   1      -2.087  -0.328   3.399  0.00  0.00    -0.092 F 
ENDROOT
TORSDOF 0
ENDMDL
