MODEL 1
REMARK minimizedAffinity -1.12960815
REMARK minimizedRMSD -1
REMARK  0 active torsions:
REMARK  status: ('A' for Active; 'I' for Inactive)
ROOT
ATOM      1  C   UNL d   1      -0.346   0.618  -0.901  0.00  0.00     0.124 A 
ATOM      2  C1  UNL d   1      -1.254  -0.382  -1.220  0.00  0.00     0.062 A 
ATOM      3  C2  UNL d   1      -1.600  -1.342  -0.273  0.00  0.00     0.162 A 
ATOM      4  C3  UNL d   1      -1.038  -1.305   1.003  0.00  0.00    -0.034 A 
ATOM      5  C4  UNL d   1      -0.125  -0.297   1.316  0.00  0.00     0.162 A 
ATOM      6  C5  UNL d   1       0.218   0.659   0.366  0.00  0.00     0.062 A 
ATOM      7  F   UNL d   1       1.096   1.625   0.676  0.00  0.00    -0.097 F 
ATOM      8  F1  UNL d   1       0.435  -0.233   2.534  0.00  0.00    -0.096 F 
ATOM      9  I   UNL d   1      -1.553  -2.738   2.422  0.00  0.00    -0.060 I 
ATOM     10  F2  UNL d   1      -2.480  -2.296  -0.609  0.00  0.00    -0.096 F 
ATOM     11  F3  UNL d   1      -1.799  -0.425  -2.445  0.00  0.00    -0.097 F 
ATOM     12  F4  UNL d   1      -0.014   1.539  -1.815  0.00  0.00    -0.092 F 
ENDROOT
TORSDOF 0
ENDMDL
