MODEL 1
REMARK minimizedAffinity 0.681527317
REMARK minimizedRMSD -1
REMARK  0 active torsions:
REMARK  status: ('A' for Active; 'I' for Inactive)
ROOT
ATOM      1  C   UNL d   1      -1.618  -1.030  -1.616  0.00  0.00     0.124 A 
ATOM      2  C1  UNL d   1      -0.823  -0.111  -0.946  0.00  0.00     0.062 A 
ATOM      3  C2  UNL d   1       0.442   0.207  -1.432  0.00  0.00     0.162 A 
ATOM      4  C3  UNL d   1       0.920  -0.394  -2.596  0.00  0.00    -0.034 A 
ATOM      5  C4  UNL d   1       0.115  -1.318  -3.265  0.00  0.00     0.162 A 
ATOM      6  C5  UNL d   1      -1.148  -1.633  -2.775  0.00  0.00     0.062 A 
ATOM      7  F   UNL d   1      -1.915  -2.521  -3.424  0.00  0.00    -0.097 F 
ATOM      8  F1  UNL d   1       0.544  -1.915  -4.387  0.00  0.00    -0.096 F 
ATOM      9  I   UNL d   1       2.811   0.078  -3.326  0.00  0.00    -0.060 I 
ATOM     10  F2  UNL d   1       1.188   1.099  -0.763  0.00  0.00    -0.096 F 
ATOM     11  F3  UNL d   1      -1.274   0.472   0.174  0.00  0.00    -0.097 F 
ATOM     12  F4  UNL d   1      -2.834  -1.335  -1.146  0.00  0.00    -0.092 F 
ENDROOT
TORSDOF 0
ENDMDL
