MODEL 1
REMARK minimizedAffinity 0.31804508
REMARK minimizedRMSD -1
REMARK  0 active torsions:
REMARK  status: ('A' for Active; 'I' for Inactive)
ROOT
ATOM      1  C   UNL d   1      -0.650   0.253   1.931  0.00  0.00     0.124 A 
ATOM      2  C1  UNL d   1       0.737   0.213   1.875  0.00  0.00     0.062 A 
ATOM      3  C2  UNL d   1       1.386   0.143   0.647  0.00  0.00     0.162 A 
ATOM      4  C3  UNL d   1       0.650   0.114  -0.538  0.00  0.00    -0.034 A 
ATOM      5  C4  UNL d   1      -0.744   0.154  -0.475  0.00  0.00     0.162 A 
ATOM      6  C5  UNL d   1      -1.388   0.224   0.756  0.00  0.00     0.062 A 
ATOM      7  F   UNL d   1      -2.728   0.263   0.807  0.00  0.00    -0.097 F 
ATOM      8  F1  UNL d   1      -1.482   0.128  -1.594  0.00  0.00    -0.096 F 
ATOM      9  I   UNL d   1       1.618   0.010  -2.378  0.00  0.00    -0.060 I 
ATOM     10  F2  UNL d   1       2.727   0.105   0.623  0.00  0.00    -0.096 F 
ATOM     11  F3  UNL d   1       1.452   0.240   3.009  0.00  0.00    -0.097 F 
ATOM     12  F4  UNL d   1      -1.272   0.319   3.114  0.00  0.00    -0.092 F 
ENDROOT
TORSDOF 0
ENDMDL
