MODEL 1
REMARK minimizedAffinity -2.3318367
REMARK minimizedRMSD -1
REMARK  0 active torsions:
REMARK  status: ('A' for Active; 'I' for Inactive)
ROOT
ATOM      1  C   UNL d   1      -1.203  -1.129  -1.516  0.00  0.00     0.124 A 
ATOM      2  C1  UNL d   1      -0.455  -0.139  -0.893  0.00  0.00     0.062 A 
ATOM      3  C2  UNL d   1       0.777   0.242  -1.418  0.00  0.00     0.162 A 
ATOM      4  C3  UNL d   1       1.268  -0.366  -2.573  0.00  0.00    -0.034 A 
ATOM      5  C4  UNL d   1       0.511  -1.362  -3.193  0.00  0.00     0.162 A 
ATOM      6  C5  UNL d   1      -0.719  -1.739  -2.664  0.00  0.00     0.062 A 
ATOM      7  F   UNL d   1      -1.440  -2.696  -3.267  0.00  0.00    -0.097 F 
ATOM      8  F1  UNL d   1       0.954  -1.968  -4.305  0.00  0.00    -0.096 F 
ATOM      9  I   UNL d   1       3.109   0.201  -3.361  0.00  0.00    -0.060 I 
ATOM     10  F2  UNL d   1       1.478   1.201  -0.796  0.00  0.00    -0.096 F 
ATOM     11  F3  UNL d   1      -0.919   0.451   0.217  0.00  0.00    -0.097 F 
ATOM     12  F4  UNL d   1      -2.387  -1.495  -1.008  0.00  0.00    -0.092 F 
ENDROOT
TORSDOF 0
ENDMDL
