MODEL 1
REMARK minimizedAffinity -3.29120874
REMARK minimizedRMSD -1
REMARK  0 active torsions:
REMARK  status: ('A' for Active; 'I' for Inactive)
ROOT
ATOM      1  C   UNL d   1      -0.896   0.021   1.082  0.00  0.00     0.124 A 
ATOM      2  C1  UNL d   1      -1.488   0.239  -0.154  0.00  0.00     0.062 A 
ATOM      3  C2  UNL d   1      -0.792  -0.049  -1.325  0.00  0.00     0.162 A 
ATOM      4  C3  UNL d   1       0.505  -0.558  -1.265  0.00  0.00    -0.034 A 
ATOM      5  C4  UNL d   1       1.095  -0.773  -0.018  0.00  0.00     0.162 A 
ATOM      6  C5  UNL d   1       0.395  -0.485   1.149  0.00  0.00     0.062 A 
ATOM      7  F   UNL d   1       0.969  -0.696   2.342  0.00  0.00    -0.097 F 
ATOM      8  F1  UNL d   1       2.341  -1.262   0.076  0.00  0.00    -0.096 F 
ATOM      9  I   UNL d   1       1.550  -0.989  -3.013  0.00  0.00    -0.060 I 
ATOM     10  F2  UNL d   1      -1.389   0.172  -2.505  0.00  0.00    -0.096 F 
ATOM     11  F3  UNL d   1      -2.735   0.728  -0.222  0.00  0.00    -0.097 F 
ATOM     12  F4  UNL d   1      -1.567   0.299   2.206  0.00  0.00    -0.092 F 
ENDROOT
TORSDOF 0
ENDMDL
