MODEL 1
REMARK minimizedAffinity -5.06162119
REMARK minimizedRMSD -1
REMARK  0 active torsions:
REMARK  status: ('A' for Active; 'I' for Inactive)
ROOT
ATOM      1  C   UNL d   1       0.255  -0.086   1.951  0.00  0.00     0.124 A 
ATOM      2  C1  UNL d   1       0.880   0.322   0.781  0.00  0.00     0.062 A 
ATOM      3  C2  UNL d   1       0.391  -0.093  -0.454  0.00  0.00     0.162 A 
ATOM      4  C3  UNL d   1      -0.729  -0.920  -0.526  0.00  0.00    -0.034 A 
ATOM      5  C4  UNL d   1      -1.352  -1.327   0.655  0.00  0.00     0.162 A 
ATOM      6  C5  UNL d   1      -0.859  -0.910   1.887  0.00  0.00     0.062 A 
ATOM      7  F   UNL d   1      -1.464  -1.306   3.017  0.00  0.00    -0.097 F 
ATOM      8  F1  UNL d   1      -2.431  -2.123   0.622  0.00  0.00    -0.096 F 
ATOM      9  I   UNL d   1      -1.463  -1.542  -2.372  0.00  0.00    -0.060 I 
ATOM     10  F2  UNL d   1       1.015   0.317  -1.569  0.00  0.00    -0.096 F 
ATOM     11  F3  UNL d   1       1.958   1.117   0.840  0.00  0.00    -0.097 F 
ATOM     12  F4  UNL d   1       0.728   0.313   3.139  0.00  0.00    -0.092 F 
ENDROOT
TORSDOF 0
ENDMDL
