MODEL 1
REMARK minimizedAffinity -2.7869277
REMARK minimizedRMSD -1
REMARK  0 active torsions:
REMARK  status: ('A' for Active; 'I' for Inactive)
ROOT
ATOM      1  C1  DEN d   1       0.214  -2.271  -0.393  0.00  0.00     0.130 A 
ATOM      2  C2  DEN d   1       1.649  -2.425  -0.168  0.00  0.00    -0.031 A 
ATOM      3  C3  DEN d   1       2.249  -1.078  -0.110  0.00  0.00     0.027 A 
ATOM      4  C4  DEN d   1       1.103   1.221  -0.341  0.00  0.00     0.027 A 
ATOM      5  C5  DEN d   1      -0.099   1.860  -0.554  0.00  0.00    -0.003 A 
ATOM      6  C6  DEN d   1      -1.265   1.172  -0.760  0.00  0.00     0.001 A 
ATOM      7  C7  DEN d   1      -1.263  -0.197  -0.713  0.00  0.00     0.017 A 
ATOM      8  C8  DEN d   1      -0.054  -0.848  -0.507  0.00  0.00    -0.094 A 
ATOM      9  C9  DEN d   1       1.112  -0.135  -0.288  0.00  0.00    -0.072 A 
ENDROOT
TORSDOF 0
ENDMDL
