MODEL 1
REMARK minimizedAffinity -5.45125437
REMARK minimizedRMSD -1
REMARK  0 active torsions:
REMARK  status: ('A' for Active; 'I' for Inactive)
ROOT
ATOM      1  C1  DEN d   1       0.628   1.962  -0.048  0.00  0.00     0.130 A 
ATOM      2  C2  DEN d   1      -0.684   1.330  -0.161  0.00  0.00    -0.031 A 
ATOM      3  C3  DEN d   1      -0.483  -0.131  -0.223  0.00  0.00     0.027 A 
ATOM      4  C4  DEN d   1       1.720  -1.470  -0.151  0.00  0.00     0.027 A 
ATOM      5  C5  DEN d   1       3.092  -1.371  -0.072  0.00  0.00    -0.003 A 
ATOM      6  C6  DEN d   1       3.735  -0.163  -0.014  0.00  0.00     0.001 A 
ATOM      7  C7  DEN d   1       3.003   0.994   0.011  0.00  0.00     0.017 A 
ATOM      8  C8  DEN d   1       1.620   0.903  -0.076  0.00  0.00    -0.094 A 
ATOM      9  C9  DEN d   1       0.988  -0.328  -0.121  0.00  0.00    -0.072 A 
ENDROOT
TORSDOF 0
ENDMDL
