MODEL 1
REMARK minimizedAffinity -0.660606205
REMARK minimizedRMSD -1
REMARK  0 active torsions:
REMARK  status: ('A' for Active; 'I' for Inactive)
ROOT
ATOM      1  C1  DEN d   1      -3.236  -0.258   1.554  0.00  0.00     0.130 A 
ATOM      2  C2  DEN d   1      -3.738   1.088   1.294  0.00  0.00    -0.031 A 
ATOM      3  C3  DEN d   1      -2.786   1.763   0.390  0.00  0.00     0.027 A 
ATOM      4  C4  DEN d   1      -0.597   0.858  -0.631  0.00  0.00     0.027 A 
ATOM      5  C5  DEN d   1       0.249  -0.228  -0.691  0.00  0.00    -0.003 A 
ATOM      6  C6  DEN d   1       0.012  -1.378   0.015  0.00  0.00     0.001 A 
ATOM      7  C7  DEN d   1      -1.122  -1.486   0.776  0.00  0.00     0.017 A 
ATOM      8  C8  DEN d   1      -1.976  -0.393   0.847  0.00  0.00    -0.094 A 
ATOM      9  C9  DEN d   1      -1.725   0.756   0.117  0.00  0.00    -0.072 A 
ENDROOT
TORSDOF 0
ENDMDL
