MODEL 1
REMARK minimizedAffinity -2.84050441
REMARK minimizedRMSD -1
REMARK  0 active torsions:
REMARK  status: ('A' for Active; 'I' for Inactive)
ROOT
ATOM      1  C1  DEN d   1      -0.098  -0.741  -0.689  0.00  0.00     0.130 A 
ATOM      2  C2  DEN d   1      -0.793   0.533  -0.533  0.00  0.00    -0.031 A 
ATOM      3  C3  DEN d   1       0.224   1.589  -0.355  0.00  0.00     0.027 A 
ATOM      4  C4  DEN d   1       2.794   1.375  -0.312  0.00  0.00     0.027 A 
ATOM      5  C5  DEN d   1       3.849   0.492  -0.391  0.00  0.00    -0.003 A 
ATOM      6  C6  DEN d   1       3.662  -0.856  -0.540  0.00  0.00     0.001 A 
ATOM      7  C7  DEN d   1       2.393  -1.357  -0.660  0.00  0.00     0.017 A 
ATOM      8  C8  DEN d   1       1.324  -0.474  -0.573  0.00  0.00    -0.094 A 
ATOM      9  C9  DEN d   1       1.534   0.888  -0.435  0.00  0.00    -0.072 A 
ENDROOT
TORSDOF 0
ENDMDL
