MODEL 1
REMARK minimizedAffinity -6.56845284
REMARK minimizedRMSD -1
REMARK  0 active torsions:
REMARK  status: ('A' for Active; 'I' for Inactive)
ROOT
ATOM      1  C1  DEN d   1       3.155   1.009   0.479  0.00  0.00     0.130 A 
ATOM      2  C2  DEN d   1       3.674  -0.322   0.782  0.00  0.00    -0.031 A 
ATOM      3  C3  DEN d   1       2.567  -1.288   0.635  0.00  0.00     0.027 A 
ATOM      4  C4  DEN d   1       0.114  -0.856  -0.035  0.00  0.00     0.027 A 
ATOM      5  C5  DEN d   1      -0.801   0.115  -0.378  0.00  0.00    -0.003 A 
ATOM      6  C6  DEN d   1      -0.473   1.444  -0.426  0.00  0.00     0.001 A 
ATOM      7  C7  DEN d   1       0.814   1.835  -0.170  0.00  0.00     0.017 A 
ATOM      8  C8  DEN d   1       1.741   0.863   0.184  0.00  0.00    -0.094 A 
ATOM      9  C9  DEN d   1       1.393  -0.477   0.215  0.00  0.00    -0.072 A 
ENDROOT
TORSDOF 0
ENDMDL
