MODEL 1
REMARK minimizedAffinity -1.00827396
REMARK minimizedRMSD -1
REMARK  0 active torsions:
REMARK  status: ('A' for Active; 'I' for Inactive)
ROOT
ATOM      1  C1  DEN d   1       3.319   0.272  -0.021  0.00  0.00     0.130 A 
ATOM      2  C2  DEN d   1       3.074   1.701   0.158  0.00  0.00    -0.031 A 
ATOM      3  C3  DEN d   1       1.620   1.932   0.049  0.00  0.00     0.027 A 
ATOM      4  C4  DEN d   1      -0.267   0.225  -0.372  0.00  0.00     0.027 A 
ATOM      5  C5  DEN d   1      -0.549  -1.104  -0.599  0.00  0.00    -0.003 A 
ATOM      6  C6  DEN d   1       0.434  -2.054  -0.683  0.00  0.00     0.001 A 
ATOM      7  C7  DEN d   1       1.742  -1.696  -0.493  0.00  0.00     0.017 A 
ATOM      8  C8  DEN d   1       2.035  -0.357  -0.271  0.00  0.00    -0.094 A 
ATOM      9  C9  DEN d   1       1.026   0.587  -0.178  0.00  0.00    -0.072 A 
ENDROOT
TORSDOF 0
ENDMDL
