MODEL 1
REMARK minimizedAffinity -0.973485172
REMARK minimizedRMSD -1
REMARK  0 active torsions:
REMARK  status: ('A' for Active; 'I' for Inactive)
ROOT
ATOM      1  C1  DEN d   1       2.204  -1.381  -0.178  0.00  0.00     0.130 A 
ATOM      2  C2  DEN d   1       1.402  -2.492  -0.682  0.00  0.00    -0.031 A 
ATOM      3  C3  DEN d   1       0.095  -1.955  -1.108  0.00  0.00     0.027 A 
ATOM      4  C4  DEN d   1      -0.760   0.477  -1.042  0.00  0.00     0.027 A 
ATOM      5  C5  DEN d   1      -0.442   1.769  -0.687  0.00  0.00    -0.003 A 
ATOM      6  C6  DEN d   1       0.757   2.094  -0.110  0.00  0.00     0.001 A 
ATOM      7  C7  DEN d   1       1.701   1.121   0.086  0.00  0.00     0.017 A 
ATOM      8  C8  DEN d   1       1.385  -0.185  -0.262  0.00  0.00    -0.094 A 
ATOM      9  C9  DEN d   1       0.172  -0.491  -0.855  0.00  0.00    -0.072 A 
ENDROOT
TORSDOF 0
ENDMDL
