MODEL 1
REMARK minimizedAffinity 1.1691438
REMARK minimizedRMSD -1
REMARK  0 active torsions:
REMARK  status: ('A' for Active; 'I' for Inactive)
ROOT
ATOM      1  C1  DEN d   1       2.198  -1.427  -1.109  0.00  0.00     0.130 A 
ATOM      2  C2  DEN d   1       1.246  -2.532  -1.034  0.00  0.00    -0.031 A 
ATOM      3  C3  DEN d   1      -0.063  -1.979  -0.632  0.00  0.00     0.027 A 
ATOM      4  C4  DEN d   1      -0.705   0.467  -0.123  0.00  0.00     0.027 A 
ATOM      5  C5  DEN d   1      -0.231   1.758  -0.041  0.00  0.00    -0.003 A 
ATOM      6  C6  DEN d   1       1.082   2.070  -0.274  0.00  0.00     0.001 A 
ATOM      7  C7  DEN d   1       1.958   1.085  -0.645  0.00  0.00     0.017 A 
ATOM      8  C8  DEN d   1       1.490  -0.220  -0.722  0.00  0.00    -0.094 A 
ATOM      9  C9  DEN d   1       0.156  -0.514  -0.495  0.00  0.00    -0.072 A 
ENDROOT
TORSDOF 0
ENDMDL
