MODEL 1
REMARK minimizedAffinity 7.248456
REMARK minimizedRMSD -1
REMARK  1 active torsions:
REMARK  status: ('A' for Active; 'I' for Inactive)
REMARK    1  A    between atoms: N_2  and  C1_3 
ROOT
ATOM      1  C1  UNL d   1       2.207  -1.731   2.572  0.00  0.00     0.143 A 
ATOM      2  C2  UNL d   1       1.924  -3.071   2.286  0.00  0.00    -0.057 A 
ATOM      3  C3  UNL d   1       1.292  -3.441   1.093  0.00  0.00     0.033 A 
ATOM      4  C4  UNL d   1       0.903  -2.471   0.175  0.00  0.00    -0.042 A 
ATOM      5  C5  UNL d   1       1.151  -1.131   0.449  0.00  0.00     0.033 A 
ATOM      6  C6  UNL d   1       1.789  -0.769   1.639  0.00  0.00    -0.057 A 
ENDROOT
BRANCH   1   7
ATOM      7  N   UNL d   1       2.745  -1.291   3.784  0.00  0.00    -0.732 N 
ATOM      8  C   UNL d   1       3.674  -2.120   4.521  0.00  0.00     0.284 C 
ATOM      9  H3  UNL d   1       2.993  -0.305   3.763  0.00  0.00     0.395 HD
ENDBRANCH   1   7
TORSDOF 1
ENDMDL
