MODEL 1
REMARK minimizedAffinity 8.2109375
REMARK minimizedRMSD -1
REMARK  1 active torsions:
REMARK  status: ('A' for Active; 'I' for Inactive)
REMARK    1  A    between atoms: N_2  and  C1_3 
ROOT
ATOM      1  C1  UNL d   1       1.813   4.363   3.521  0.00  0.00     0.143 A 
ATOM      2  C2  UNL d   1       3.210   4.397   3.455  0.00  0.00    -0.057 A 
ATOM      3  C3  UNL d   1       3.959   5.195   4.328  0.00  0.00     0.033 A 
ATOM      4  C4  UNL d   1       3.320   5.998   5.267  0.00  0.00    -0.042 A 
ATOM      5  C5  UNL d   1       1.932   5.999   5.334  0.00  0.00     0.033 A 
ATOM      6  C6  UNL d   1       1.189   5.195   4.464  0.00  0.00    -0.057 A 
ENDROOT
BRANCH   1   7
ATOM      7  N   UNL d   1       1.009   3.666   2.617  0.00  0.00    -0.732 N 
ATOM      8  C   UNL d   1       1.602   2.856   1.574  0.00  0.00     0.284 C 
ATOM      9  H3  UNL d   1       0.200   3.240   3.064  0.00  0.00     0.395 HD
ENDBRANCH   1   7
TORSDOF 1
ENDMDL
