MODEL 1
REMARK minimizedAffinity 1.09746349
REMARK minimizedRMSD -1
REMARK  1 active torsions:
REMARK  status: ('A' for Active; 'I' for Inactive)
REMARK    1  A    between atoms: N_2  and  C1_3 
ROOT
ATOM      1  C1  UNL d   1       3.147   4.753  -5.854  0.00  0.00     0.143 A 
ATOM      2  C2  UNL d   1       3.826   3.534  -5.751  0.00  0.00    -0.057 A 
ATOM      3  C3  UNL d   1       5.225   3.480  -5.744  0.00  0.00     0.033 A 
ATOM      4  C4  UNL d   1       5.973   4.647  -5.870  0.00  0.00    -0.042 A 
ATOM      5  C5  UNL d   1       5.319   5.867  -5.998  0.00  0.00     0.033 A 
ATOM      6  C6  UNL d   1       3.922   5.915  -5.998  0.00  0.00    -0.057 A 
ENDROOT
BRANCH   1   7
ATOM      7  N   UNL d   1       1.759   4.864  -5.965  0.00  0.00    -0.732 N 
ATOM      8  C   UNL d   1       0.893   3.833  -5.436  0.00  0.00     0.284 C 
ATOM      9  H3  UNL d   1       1.430   5.811  -5.795  0.00  0.00     0.395 HD
ENDBRANCH   1   7
TORSDOF 1
ENDMDL
