MODEL 1
REMARK minimizedAffinity -0.597062171
REMARK minimizedRMSD -1
REMARK  1 active torsions:
REMARK  status: ('A' for Active; 'I' for Inactive)
REMARK    1  A    between atoms: N_2  and  C1_3 
ROOT
ATOM      1  C1  UNL d   1       5.008   3.473  -5.825  0.00  0.00     0.143 A 
ATOM      2  C2  UNL d   1       3.615   3.583  -5.900  0.00  0.00    -0.057 A 
ATOM      3  C3  UNL d   1       2.989   4.831  -5.999  0.00  0.00     0.033 A 
ATOM      4  C4  UNL d   1       3.747   5.998  -5.996  0.00  0.00    -0.042 A 
ATOM      5  C5  UNL d   1       5.132   5.914  -5.897  0.00  0.00     0.033 A 
ATOM      6  C6  UNL d   1       5.751   4.663  -5.805  0.00  0.00    -0.057 A 
ENDROOT
BRANCH   1   7
ATOM      7  N   UNL d   1       5.683   2.266  -5.626  0.00  0.00    -0.732 N 
ATOM      8  C   UNL d   1       5.346   1.408  -4.511  0.00  0.00     0.284 C 
ATOM      9  H3  UNL d   1       5.854   1.768  -6.497  0.00  0.00     0.395 HD
ENDBRANCH   1   7
TORSDOF 1
ENDMDL
