MODEL 1
REMARK minimizedAffinity 1.87729883
REMARK minimizedRMSD -1
REMARK  1 active torsions:
REMARK  status: ('A' for Active; 'I' for Inactive)
REMARK    1  A    between atoms: N_2  and  C1_3 
ROOT
ATOM      1  C1  UNL d   1       2.739  -3.294   1.168  0.00  0.00     0.143 A 
ATOM      2  C2  UNL d   1       4.093  -3.535   0.912  0.00  0.00    -0.057 A 
ATOM      3  C3  UNL d   1       4.545  -4.805   0.532  0.00  0.00     0.033 A 
ATOM      4  C4  UNL d   1       3.651  -5.866   0.431  0.00  0.00    -0.042 A 
ATOM      5  C5  UNL d   1       2.305  -5.655   0.705  0.00  0.00     0.033 A 
ATOM      6  C6  UNL d   1       1.859  -4.383   1.077  0.00  0.00    -0.057 A 
ENDROOT
BRANCH   1   7
ATOM      7  N   UNL d   1       2.242  -2.078   1.645  0.00  0.00    -0.732 N 
ATOM      8  C   UNL d   1       0.908  -1.993   2.200  0.00  0.00     0.284 C 
ATOM      9  H3  UNL d   1       2.941  -1.548   2.160  0.00  0.00     0.395 HD
ENDBRANCH   1   7
TORSDOF 1
ENDMDL
