MODEL 1
REMARK minimizedAffinity -4.87756348
REMARK minimizedRMSD -1
REMARK  1 active torsions:
REMARK  status: ('A' for Active; 'I' for Inactive)
REMARK    1  A    between atoms: C1_2  and  C2_3 
ROOT
ATOM      1  C2  UNL d   1      -0.291   0.766  -0.341  0.00  0.00    -0.081 A 
ATOM      2  C3  UNL d   1       1.036   0.477  -0.684  0.00  0.00     0.006 A 
ATOM      3  C4  UNL d   1       1.658  -0.676  -0.198  0.00  0.00     0.002 A 
ATOM      4  C5  UNL d   1       0.962  -1.562   0.631  0.00  0.00    -0.080 A 
ATOM      5  C6  UNL d   1       1.609  -2.818   1.135  0.00  0.00     0.076 C 
ATOM      6  C7  UNL d   1      -0.358  -1.265   0.987  0.00  0.00     0.002 A 
ATOM      7  C8  UNL d   1      -0.980  -0.112   0.503  0.00  0.00     0.006 A 
ENDROOT
BRANCH   1   8
ATOM      8  C1  UNL d   1      -0.985   1.974  -0.916  0.00  0.00     0.054 C 
ATOM      9  C   UNL d   1      -2.092   1.570  -1.880  0.00  0.00     0.018 C 
ENDBRANCH   1   8
TORSDOF 1
ENDMDL
