MODEL 1
REMARK minimizedAffinity -4.75779343
REMARK minimizedRMSD -1
REMARK  1 active torsions:
REMARK  status: ('A' for Active; 'I' for Inactive)
REMARK    1  A    between atoms: C1_2  and  C2_3 
ROOT
ATOM      1  C2  UNL d   1      -0.337   0.366  -0.289  0.00  0.00    -0.081 A 
ATOM      2  C3  UNL d   1       0.957  -0.089  -0.573  0.00  0.00     0.006 A 
ATOM      3  C4  UNL d   1       1.525  -1.121   0.177  0.00  0.00     0.002 A 
ATOM      4  C5  UNL d   1       0.806  -1.721   1.217  0.00  0.00    -0.080 A 
ATOM      5  C6  UNL d   1       1.393  -2.851   2.010  0.00  0.00     0.076 C 
ATOM      6  C7  UNL d   1      -0.480  -1.255   1.512  0.00  0.00     0.002 A 
ATOM      7  C8  UNL d   1      -1.048  -0.223   0.762  0.00  0.00     0.006 A 
ENDROOT
BRANCH   1   8
ATOM      8  C1  UNL d   1      -0.977   1.435  -1.138  0.00  0.00     0.054 C 
ATOM      9  C   UNL d   1      -2.069   0.856  -2.026  0.00  0.00     0.018 C 
ENDBRANCH   1   8
TORSDOF 1
ENDMDL
