MODEL 1
REMARK minimizedAffinity -5.35094738
REMARK minimizedRMSD -1
REMARK  1 active torsions:
REMARK  status: ('A' for Active; 'I' for Inactive)
REMARK    1  A    between atoms: C1_2  and  C2_3 
ROOT
ATOM      1  C2  UNL d   1      -0.176   0.264  -0.016  0.00  0.00    -0.081 A 
ATOM      2  C3  UNL d   1      -0.950  -0.615   0.752  0.00  0.00     0.006 A 
ATOM      3  C4  UNL d   1      -0.379  -1.762   1.307  0.00  0.00     0.002 A 
ATOM      4  C5  UNL d   1       0.977  -2.046   1.111  0.00  0.00    -0.080 A 
ATOM      5  C6  UNL d   1       1.609  -3.258   1.727  0.00  0.00     0.076 C 
ATOM      6  C7  UNL d   1       1.747  -1.178   0.329  0.00  0.00     0.002 A 
ATOM      7  C8  UNL d   1       1.176  -0.031  -0.227  0.00  0.00     0.006 A 
ENDROOT
BRANCH   1   8
ATOM      8  C1  UNL d   1      -0.773   1.535  -0.563  0.00  0.00     0.054 C 
ATOM      9  C   UNL d   1      -1.945   1.242  -1.488  0.00  0.00     0.018 C 
ENDBRANCH   1   8
TORSDOF 1
ENDMDL
