MODEL 1
REMARK minimizedAffinity -5.64644384
REMARK minimizedRMSD -1
REMARK  1 active torsions:
REMARK  status: ('A' for Active; 'I' for Inactive)
REMARK    1  A    between atoms: C1_2  and  C2_3 
ROOT
ATOM      1  C2  UNL d   1      -0.618   0.535  -0.167  0.00  0.00    -0.081 A 
ATOM      2  C3  UNL d   1       0.397  -0.283  -0.677  0.00  0.00     0.006 A 
ATOM      3  C4  UNL d   1       0.879  -1.362   0.068  0.00  0.00     0.002 A 
ATOM      4  C5  UNL d   1       0.348  -1.646   1.330  0.00  0.00    -0.080 A 
ATOM      5  C6  UNL d   1       0.835  -2.819   2.128  0.00  0.00     0.076 C 
ATOM      6  C7  UNL d   1      -0.655  -0.818   1.848  0.00  0.00     0.002 A 
ATOM      7  C8  UNL d   1      -1.136   0.261   1.103  0.00  0.00     0.006 A 
ENDROOT
BRANCH   1   8
ATOM      8  C1  UNL d   1      -1.184   1.660  -0.995  0.00  0.00     0.054 C 
ATOM      9  C   UNL d   1      -2.002   1.130  -2.165  0.00  0.00     0.018 C 
ENDBRANCH   1   8
TORSDOF 1
ENDMDL
