MODEL 1
REMARK minimizedAffinity -5.06592655
REMARK minimizedRMSD -1
REMARK  1 active torsions:
REMARK  status: ('A' for Active; 'I' for Inactive)
REMARK    1  A    between atoms: C1_2  and  C2_3 
ROOT
ATOM      1  C2  UNL d   1      -0.140   0.476  -0.475  0.00  0.00    -0.081 A 
ATOM      2  C3  UNL d   1       1.158  -0.034  -0.610  0.00  0.00     0.006 A 
ATOM      3  C4  UNL d   1       1.561  -1.147   0.132  0.00  0.00     0.002 A 
ATOM      4  C5  UNL d   1       0.673  -1.773   1.013  0.00  0.00    -0.080 A 
ATOM      5  C6  UNL d   1       1.084  -2.987   1.792  0.00  0.00     0.076 C 
ATOM      6  C7  UNL d   1      -0.618  -1.253   1.160  0.00  0.00     0.002 A 
ATOM      7  C8  UNL d   1      -1.021  -0.140   0.420  0.00  0.00     0.006 A 
ENDROOT
BRANCH   1   8
ATOM      8  C1  UNL d   1      -0.598   1.637  -1.321  0.00  0.00     0.054 C 
ATOM      9  C   UNL d   1      -1.743   1.234  -2.240  0.00  0.00     0.018 C 
ENDBRANCH   1   8
TORSDOF 1
ENDMDL
