MODEL 1
REMARK minimizedAffinity -5.85577106
REMARK minimizedRMSD -1
REMARK  1 active torsions:
REMARK  status: ('A' for Active; 'I' for Inactive)
REMARK    1  A    between atoms: C1_2  and  C2_3 
ROOT
ATOM      1  C2  UNL d   1      -0.097   0.835  -1.029  0.00  0.00    -0.081 A 
ATOM      2  C3  UNL d   1       1.255   0.473  -1.012  0.00  0.00     0.006 A 
ATOM      3  C4  UNL d   1       1.687  -0.619  -0.255  0.00  0.00     0.002 A 
ATOM      4  C5  UNL d   1       0.772  -1.371   0.491  0.00  0.00    -0.080 A 
ATOM      5  C6  UNL d   1       1.217  -2.563   1.285  0.00  0.00     0.076 C 
ATOM      6  C7  UNL d   1      -0.576  -0.998   0.488  0.00  0.00     0.002 A 
ATOM      7  C8  UNL d   1      -1.008   0.094  -0.268  0.00  0.00     0.006 A 
ENDROOT
BRANCH   1   8
ATOM      8  C1  UNL d   1      -0.575   1.972  -1.896  0.00  0.00     0.054 C 
ATOM      9  C   UNL d   1      -1.840   1.596  -2.653  0.00  0.00     0.018 C 
ENDBRANCH   1   8
TORSDOF 1
ENDMDL
