MODEL 1
REMARK minimizedAffinity -3.91042924
REMARK minimizedRMSD -1
REMARK  1 active torsions:
REMARK  status: ('A' for Active; 'I' for Inactive)
REMARK    1  A    between atoms: C1_2  and  C2_3 
ROOT
ATOM      1  C2  UNL d   1       0.911  -1.349   0.984  0.00  0.00    -0.081 A 
ATOM      2  C3  UNL d   1      -0.451  -1.162   1.254  0.00  0.00     0.006 A 
ATOM      3  C4  UNL d   1      -1.184  -0.197   0.560  0.00  0.00     0.002 A 
ATOM      4  C5  UNL d   1      -0.571   0.592  -0.419  0.00  0.00    -0.080 A 
ATOM      5  C6  UNL d   1      -1.353   1.611  -1.193  0.00  0.00     0.076 C 
ATOM      6  C7  UNL d   1       0.793   0.418  -0.676  0.00  0.00     0.002 A 
ATOM      7  C8  UNL d   1       1.527  -0.547   0.018  0.00  0.00     0.006 A 
ENDROOT
BRANCH   1   8
ATOM      8  C1  UNL d   1       1.689  -2.434   1.685  0.00  0.00     0.054 C 
ATOM      9  C   UNL d   1       2.064  -2.019   3.100  0.00  0.00     0.018 C 
ENDBRANCH   1   8
TORSDOF 1
ENDMDL
