MODEL 1
REMARK minimizedAffinity -5.49279928
REMARK minimizedRMSD -1
REMARK  1 active torsions:
REMARK  status: ('A' for Active; 'I' for Inactive)
REMARK    1  A    between atoms: C1_2  and  C2_3 
ROOT
ATOM      1  C2  UNL d   1       0.024   0.485  -0.081  0.00  0.00    -0.081 A 
ATOM      2  C3  UNL d   1       1.245   0.011  -0.576  0.00  0.00     0.006 A 
ATOM      3  C4  UNL d   1       1.766  -1.205  -0.130  0.00  0.00     0.002 A 
ATOM      4  C5  UNL d   1       1.072  -1.972   0.812  0.00  0.00    -0.080 A 
ATOM      5  C6  UNL d   1       1.605  -3.294   1.278  0.00  0.00     0.076 C 
ATOM      6  C7  UNL d   1      -0.140  -1.490   1.320  0.00  0.00     0.002 A 
ATOM      7  C8  UNL d   1      -0.661  -0.274   0.874  0.00  0.00     0.006 A 
ENDROOT
BRANCH   1   8
ATOM      8  C1  UNL d   1      -0.573   1.765  -0.609  0.00  0.00     0.054 C 
ATOM      9  C   UNL d   1      -1.738   1.487  -1.547  0.00  0.00     0.018 C 
ENDBRANCH   1   8
TORSDOF 1
ENDMDL
