MODEL 1
REMARK minimizedAffinity -5.39841127
REMARK minimizedRMSD -1
REMARK  1 active torsions:
REMARK  status: ('A' for Active; 'I' for Inactive)
REMARK    1  A    between atoms: C1_2  and  C2_3 
ROOT
ATOM      1  C2  UNL d   1      -0.132   0.448  -0.150  0.00  0.00    -0.081 A 
ATOM      2  C3  UNL d   1       1.211   0.064  -0.241  0.00  0.00     0.006 A 
ATOM      3  C4  UNL d   1       1.684  -1.035   0.479  0.00  0.00     0.002 A 
ATOM      4  C5  UNL d   1       0.821  -1.773   1.297  0.00  0.00    -0.080 A 
ATOM      5  C6  UNL d   1       1.310  -2.973   2.052  0.00  0.00     0.076 C 
ATOM      6  C7  UNL d   1      -0.517  -1.379   1.402  0.00  0.00     0.002 A 
ATOM      7  C8  UNL d   1      -0.991  -0.279   0.682  0.00  0.00     0.006 A 
ENDROOT
BRANCH   1   8
ATOM      8  C1  UNL d   1      -0.660   1.594  -0.975  0.00  0.00     0.054 C 
ATOM      9  C   UNL d   1      -1.807   1.147  -1.872  0.00  0.00     0.018 C 
ENDBRANCH   1   8
TORSDOF 1
ENDMDL
