MODEL 1
REMARK minimizedAffinity -4.5443306
REMARK minimizedRMSD -1
REMARK  1 active torsions:
REMARK  status: ('A' for Active; 'I' for Inactive)
REMARK    1  A    between atoms: C1_2  and  C2_3 
ROOT
ATOM      1  C2  UNL d   1       0.209  -1.809   1.616  0.00  0.00    -0.081 A 
ATOM      2  C3  UNL d   1       1.497  -2.131   1.170  0.00  0.00     0.006 A 
ATOM      3  C4  UNL d   1       2.108  -1.376   0.166  0.00  0.00     0.002 A 
ATOM      4  C5  UNL d   1       1.445  -0.282  -0.403  0.00  0.00    -0.080 A 
ATOM      5  C6  UNL d   1       2.102   0.555  -1.459  0.00  0.00     0.076 C 
ATOM      6  C7  UNL d   1       0.152   0.028   0.031  0.00  0.00     0.002 A 
ATOM      7  C8  UNL d   1      -0.460  -0.727   1.034  0.00  0.00     0.006 A 
ENDROOT
BRANCH   1   8
ATOM      8  C1  UNL d   1      -0.427  -2.582   2.743  0.00  0.00     0.054 C 
ATOM      9  C   UNL d   1      -1.436  -1.729   3.498  0.00  0.00     0.018 C 
ENDBRANCH   1   8
TORSDOF 1
ENDMDL
