MODEL 1
REMARK minimizedAffinity -5.11658621
REMARK minimizedRMSD -1
REMARK  1 active torsions:
REMARK  status: ('A' for Active; 'I' for Inactive)
REMARK    1  A    between atoms: C1_2  and  C2_3 
ROOT
ATOM      1  C2  UNL d   1      -0.098   0.412   0.186  0.00  0.00    -0.081 A 
ATOM      2  C3  UNL d   1       1.089  -0.135  -0.317  0.00  0.00     0.006 A 
ATOM      3  C4  UNL d   1       1.588  -1.336   0.194  0.00  0.00     0.002 A 
ATOM      4  C5  UNL d   1       0.905  -2.014   1.209  0.00  0.00    -0.080 A 
ATOM      5  C6  UNL d   1       1.413  -3.319   1.745  0.00  0.00     0.076 C 
ATOM      6  C7  UNL d   1      -0.272  -1.459   1.724  0.00  0.00     0.002 A 
ATOM      7  C8  UNL d   1      -0.771  -0.258   1.215  0.00  0.00     0.006 A 
ENDROOT
BRANCH   1   8
ATOM      8  C1  UNL d   1      -0.673   1.673  -0.406  0.00  0.00     0.054 C 
ATOM      9  C   UNL d   1      -1.511   1.372  -1.641  0.00  0.00     0.018 C 
ENDBRANCH   1   8
TORSDOF 1
ENDMDL
