MODEL 1
REMARK minimizedAffinity -3.36196446
REMARK minimizedRMSD -1
REMARK  1 active torsions:
REMARK  status: ('A' for Active; 'I' for Inactive)
REMARK    1  A    between atoms: C1_2  and  C2_3 
ROOT
ATOM      1  C2  UNL d   1       0.927  -1.384   0.659  0.00  0.00    -0.081 A 
ATOM      2  C3  UNL d   1      -0.464  -1.221   0.677  0.00  0.00     0.006 A 
ATOM      3  C4  UNL d   1      -1.057  -0.123   0.049  0.00  0.00     0.002 A 
ATOM      4  C5  UNL d   1      -0.270   0.826  -0.612  0.00  0.00    -0.080 A 
ATOM      5  C6  UNL d   1      -0.896   1.994  -1.316  0.00  0.00     0.076 C 
ATOM      6  C7  UNL d   1       1.120   0.674  -0.615  0.00  0.00     0.002 A 
ATOM      7  C8  UNL d   1       1.713  -0.424   0.013  0.00  0.00     0.006 A 
ENDROOT
BRANCH   1   8
ATOM      8  C1  UNL d   1       1.564  -2.601   1.279  0.00  0.00     0.054 C 
ATOM      9  C   UNL d   1       0.884  -2.975   2.589  0.00  0.00     0.018 C 
ENDBRANCH   1   8
TORSDOF 1
ENDMDL
