MODEL 1
REMARK minimizedAffinity -4.99722624
REMARK minimizedRMSD -1
REMARK  1 active torsions:
REMARK  status: ('A' for Active; 'I' for Inactive)
REMARK    1  A    between atoms: C1_2  and  C2_3 
ROOT
ATOM      1  C2  UNL d   1      -0.010   0.286  -0.117  0.00  0.00    -0.081 A 
ATOM      2  C3  UNL d   1      -0.819  -0.459   0.750  0.00  0.00     0.006 A 
ATOM      3  C4  UNL d   1      -0.303  -1.572   1.419  0.00  0.00     0.002 A 
ATOM      4  C5  UNL d   1       1.031  -1.953   1.239  0.00  0.00    -0.080 A 
ATOM      5  C6  UNL d   1       1.606  -3.127   1.974  0.00  0.00     0.076 C 
ATOM      6  C7  UNL d   1       1.834  -1.219   0.359  0.00  0.00     0.002 A 
ATOM      7  C8  UNL d   1       1.319  -0.107  -0.311  0.00  0.00     0.006 A 
ENDROOT
BRANCH   1   8
ATOM      8  C1  UNL d   1      -0.545   1.524  -0.790  0.00  0.00     0.054 C 
ATOM      9  C   UNL d   1      -1.402   1.171  -1.997  0.00  0.00     0.018 C 
ENDBRANCH   1   8
TORSDOF 1
ENDMDL
