MODEL 1
REMARK minimizedAffinity -5.68047905
REMARK minimizedRMSD -1
REMARK  3 active torsions:
REMARK  status: ('A' for Active; 'I' for Inactive)
REMARK    1  A    between atoms: C3'_2  and  C2'_3 
REMARK    2  A    between atoms: C2'_3  and  C1'_4 
REMARK    3  A    between atoms: C1'_4  and  C1_5 
ROOT
ATOM      1  C1  N4B d   1       0.970  -0.344   0.500  0.00  0.00    -0.075 A 
ATOM      2  C2  N4B d   1       0.951  -0.542   1.899  0.00  0.00     0.002 A 
ATOM      3  C3  N4B d   1       1.969  -1.235   2.507  0.00  0.00     0.002 A 
ATOM      4  C4  N4B d   1       3.001  -1.753   1.740  0.00  0.00    -0.004 A 
ATOM      5  C5  N4B d   1       3.024  -1.536   0.393  0.00  0.00     0.002 A 
ATOM      6  C6  N4B d   1       2.010  -0.838  -0.232  0.00  0.00     0.002 A 
ENDROOT
BRANCH   1   7
ATOM      7  C1' N4B d   1      -0.164   0.332  -0.221  0.00  0.00     0.057 C 
BRANCH   7   8
ATOM      8  C2' N4B d   1      -0.003   0.115  -1.722  0.00  0.00     0.009 C 
BRANCH   8   9
ATOM      9  C3' N4B d   1      -0.715   1.185  -2.531  0.00  0.00     0.004 C 
ATOM     10  C4' N4B d   1      -0.208   1.283  -3.939  0.00  0.00     0.003 C 
ENDBRANCH   8   9
ENDBRANCH   7   8
ENDBRANCH   1   7
TORSDOF 3
ENDMDL
