MODEL 1
REMARK minimizedAffinity -3.76537442
REMARK minimizedRMSD -1
REMARK  3 active torsions:
REMARK  status: ('A' for Active; 'I' for Inactive)
REMARK    1  A    between atoms: C3'_2  and  C2'_3 
REMARK    2  A    between atoms: C2'_3  and  C1'_4 
REMARK    3  A    between atoms: C1'_4  and  C1_5 
ROOT
ATOM      1  C1  N4B d   1      -0.112  -0.132   0.058  0.00  0.00    -0.075 A 
ATOM      2  C2  N4B d   1      -1.210  -0.391   0.908  0.00  0.00     0.002 A 
ATOM      3  C3  N4B d   1      -1.002  -0.636   2.243  0.00  0.00     0.002 A 
ATOM      4  C4  N4B d   1       0.291  -0.646   2.745  0.00  0.00    -0.004 A 
ATOM      5  C5  N4B d   1       1.344  -0.370   1.923  0.00  0.00     0.002 A 
ATOM      6  C6  N4B d   1       1.149  -0.118   0.579  0.00  0.00     0.002 A 
ENDROOT
BRANCH   1   7
ATOM      7  C1' N4B d   1      -0.283   0.057  -1.425  0.00  0.00     0.057 C 
BRANCH   7   8
ATOM      8  C2' N4B d   1      -0.039   1.522  -1.774  0.00  0.00     0.009 C 
BRANCH   8   9
ATOM      9  C3' N4B d   1      -1.244   2.152  -2.452  0.00  0.00     0.004 C 
ATOM     10  C4' N4B d   1      -1.256   3.647  -2.342  0.00  0.00     0.003 C 
ENDBRANCH   8   9
ENDBRANCH   7   8
ENDBRANCH   1   7
TORSDOF 3
ENDMDL
