MODEL 1
REMARK minimizedAffinity -5.22146463
REMARK minimizedRMSD -1
REMARK  3 active torsions:
REMARK  status: ('A' for Active; 'I' for Inactive)
REMARK    1  A    between atoms: C3'_2  and  C2'_3 
REMARK    2  A    between atoms: C2'_3  and  C1'_4 
REMARK    3  A    between atoms: C1'_4  and  C1_5 
ROOT
ATOM      1  C1  N4B d   1      -0.087  -0.044  -0.165  0.00  0.00    -0.075 A 
ATOM      2  C2  N4B d   1      -0.941  -0.054   0.960  0.00  0.00     0.002 A 
ATOM      3  C3  N4B d   1      -0.444  -0.384   2.197  0.00  0.00     0.002 A 
ATOM      4  C4  N4B d   1       0.894  -0.724   2.329  0.00  0.00    -0.004 A 
ATOM      5  C5  N4B d   1       1.718  -0.688   1.242  0.00  0.00     0.002 A 
ATOM      6  C6  N4B d   1       1.232  -0.355  -0.006  0.00  0.00     0.002 A 
ENDROOT
BRANCH   1   7
ATOM      7  C1' N4B d   1      -0.603   0.226  -1.552  0.00  0.00     0.057 C 
BRANCH   7   8
ATOM      8  C2' N4B d   1       0.206   1.359  -2.176  0.00  0.00     0.009 C 
BRANCH   8   9
ATOM      9  C3' N4B d   1      -0.678   2.354  -2.907  0.00  0.00     0.004 C 
ATOM     10  C4' N4B d   1      -0.625   3.728  -2.307  0.00  0.00     0.003 C 
ENDBRANCH   8   9
ENDBRANCH   7   8
ENDBRANCH   1   7
TORSDOF 3
ENDMDL
