MODEL 1
REMARK minimizedAffinity -5.78011608
REMARK minimizedRMSD -1
REMARK  3 active torsions:
REMARK  status: ('A' for Active; 'I' for Inactive)
REMARK    1  A    between atoms: C3'_2  and  C2'_3 
REMARK    2  A    between atoms: C2'_3  and  C1'_4 
REMARK    3  A    between atoms: C1'_4  and  C1_5 
ROOT
ATOM      1  C1  N4B d   1      -0.136  -0.035   0.915  0.00  0.00    -0.075 A 
ATOM      2  C2  N4B d   1      -0.535  -1.067   1.794  0.00  0.00     0.002 A 
ATOM      3  C3  N4B d   1       0.215  -1.346   2.910  0.00  0.00     0.002 A 
ATOM      4  C4  N4B d   1       1.373  -0.623   3.157  0.00  0.00    -0.004 A 
ATOM      5  C5  N4B d   1       1.737   0.389   2.317  0.00  0.00     0.002 A 
ATOM      6  C6  N4B d   1       0.990   0.683   1.194  0.00  0.00     0.002 A 
ENDROOT
BRANCH   1   7
ATOM      7  C1' N4B d   1      -0.877   0.250  -0.363  0.00  0.00     0.057 C 
BRANCH   7   8
ATOM      8  C2' N4B d   1      -0.023  -0.195  -1.546  0.00  0.00     0.009 C 
BRANCH   8   9
ATOM      9  C3' N4B d   1       0.375  -1.657  -1.443  0.00  0.00     0.004 C 
ATOM     10  C4' N4B d   1       1.861  -1.853  -1.397  0.00  0.00     0.003 C 
ENDBRANCH   8   9
ENDBRANCH   7   8
ENDBRANCH   1   7
TORSDOF 3
ENDMDL
