MODEL 1
REMARK minimizedAffinity -0.245382831
REMARK minimizedRMSD -1
REMARK  0 active torsions:
REMARK  status: ('A' for Active; 'I' for Inactive)
ROOT
ATOM      1  C4' PXY d   1      -1.019  -4.170  -1.256  0.00  0.00     0.077 C 
ATOM      2  C1' PXY d   1      -1.267  -1.761   3.993  0.00  0.00     0.077 C 
ATOM      3  C1  PXY d   1      -1.212  -2.385   2.613  0.00  0.00    -0.082 A 
ATOM      4  C2  PXY d   1      -0.699  -3.596   2.462  0.00  0.00     0.003 A 
ATOM      5  C3  PXY d   1      -0.612  -4.162   1.216  0.00  0.00     0.003 A 
ATOM      6  C4  PXY d   1      -1.104  -3.504   0.120  0.00  0.00    -0.082 A 
ATOM      7  C5  PXY d   1      -1.638  -2.273   0.267  0.00  0.00     0.003 A 
ATOM      8  C6  PXY d   1      -1.680  -1.699   1.535  0.00  0.00     0.003 A 
ENDROOT
TORSDOF 0
ENDMDL
