MODEL 1
REMARK minimizedAffinity 1.30870414
REMARK minimizedRMSD -1
REMARK  0 active torsions:
REMARK  status: ('A' for Active; 'I' for Inactive)
ROOT
ATOM      1  C4' PXY d   1       4.365  -0.568   5.871  0.00  0.00     0.077 C 
ATOM      2  C1' PXY d   1       5.088   5.166   5.997  0.00  0.00     0.077 C 
ATOM      3  C1  PXY d   1       4.910   3.661   5.958  0.00  0.00    -0.082 A 
ATOM      4  C2  PXY d   1       3.692   3.145   5.993  0.00  0.00     0.003 A 
ATOM      5  C3  PXY d   1       3.514   1.786   5.991  0.00  0.00     0.003 A 
ATOM      6  C4  PXY d   1       4.592   0.946   5.899  0.00  0.00    -0.082 A 
ATOM      7  C5  PXY d   1       5.837   1.465   5.852  0.00  0.00     0.003 A 
ATOM      8  C6  PXY d   1       5.998   2.847   5.896  0.00  0.00     0.003 A 
ENDROOT
TORSDOF 0
ENDMDL
