MODEL 1
REMARK minimizedAffinity 15.7033424
REMARK minimizedRMSD -1
REMARK  0 active torsions:
REMARK  status: ('A' for Active; 'I' for Inactive)
ROOT
ATOM      1  C4' PXY d   1       0.598  -5.184   3.467  0.00  0.00     0.077 C 
ATOM      2  C1' PXY d   1      -2.123  -1.374   0.078  0.00  0.00     0.077 C 
ATOM      3  C1  PXY d   1      -1.402  -2.363   0.971  0.00  0.00    -0.082 A 
ATOM      4  C2  PXY d   1      -1.410  -3.650   0.662  0.00  0.00     0.003 A 
ATOM      5  C3  PXY d   1      -0.789  -4.563   1.476  0.00  0.00     0.003 A 
ATOM      6  C4  PXY d   1      -0.109  -4.148   2.589  0.00  0.00    -0.082 A 
ATOM      7  C5  PXY d   1      -0.087  -2.836   2.906  0.00  0.00     0.003 A 
ATOM      8  C6  PXY d   1      -0.758  -1.930   2.089  0.00  0.00     0.003 A 
ENDROOT
TORSDOF 0
ENDMDL
