MODEL 1
REMARK minimizedAffinity 15.0917635
REMARK minimizedRMSD -1
REMARK  0 active torsions:
REMARK  status: ('A' for Active; 'I' for Inactive)
ROOT
ATOM      1  C4' PXY d   1      -1.193  -2.103  -3.802  0.00  0.00     0.077 C 
ATOM      2  C1' PXY d   1      -4.257  -1.631   1.077  0.00  0.00     0.077 C 
ATOM      3  C1  PXY d   1      -3.464  -1.750  -0.210  0.00  0.00    -0.082 A 
ATOM      4  C2  PXY d   1      -2.481  -2.632  -0.293  0.00  0.00     0.003 A 
ATOM      5  C3  PXY d   1      -1.733  -2.730  -1.437  0.00  0.00     0.003 A 
ATOM      6  C4  PXY d   1      -2.027  -1.955  -2.527  0.00  0.00    -0.082 A 
ATOM      7  C5  PXY d   1      -3.035  -1.059  -2.453  0.00  0.00     0.003 A 
ATOM      8  C6  PXY d   1      -3.756  -0.946  -1.268  0.00  0.00     0.003 A 
ENDROOT
TORSDOF 0
ENDMDL
