MODEL 1
REMARK minimizedAffinity 15.979948
REMARK minimizedRMSD -1
REMARK  0 active torsions:
REMARK  status: ('A' for Active; 'I' for Inactive)
ROOT
ATOM      1  C4' PXY d   1      -5.552   3.952   2.244  0.00  0.00     0.077 C 
ATOM      2  C1' PXY d   1      -3.795   6.000  -2.869  0.00  0.00     0.077 C 
ATOM      3  C1  PXY d   1      -4.250   5.451  -1.530  0.00  0.00    -0.082 A 
ATOM      4  C2  PXY d   1      -5.319   5.963  -0.943  0.00  0.00     0.003 A 
ATOM      5  C3  PXY d   1      -5.726   5.501   0.282  0.00  0.00     0.003 A 
ATOM      6  C4  PXY d   1      -5.062   4.468   0.888  0.00  0.00    -0.082 A 
ATOM      7  C5  PXY d   1      -3.976   3.933   0.290  0.00  0.00     0.003 A 
ATOM      8  C6  PXY d   1      -3.556   4.444  -0.934  0.00  0.00     0.003 A 
ENDROOT
TORSDOF 0
ENDMDL
