MODEL 1
REMARK minimizedAffinity 9.57736492
REMARK minimizedRMSD -1
REMARK  0 active torsions:
REMARK  status: ('A' for Active; 'I' for Inactive)
ROOT
ATOM      1  C4' PXY d   1      -0.885  -2.932   0.416  0.00  0.00     0.077 C 
ATOM      2  C1' PXY d   1      -3.261   0.768  -3.337  0.00  0.00     0.077 C 
ATOM      3  C1  PXY d   1      -2.628  -0.205  -2.362  0.00  0.00    -0.082 A 
ATOM      4  C2  PXY d   1      -3.377  -0.784  -1.437  0.00  0.00     0.003 A 
ATOM      5  C3  PXY d   1      -2.815  -1.641  -0.526  0.00  0.00     0.003 A 
ATOM      6  C4  PXY d   1      -1.483  -1.950  -0.596  0.00  0.00    -0.082 A 
ATOM      7  C5  PXY d   1      -0.715  -1.372  -1.543  0.00  0.00     0.003 A 
ATOM      8  C6  PXY d   1      -1.296  -0.473  -2.432  0.00  0.00     0.003 A 
ENDROOT
TORSDOF 0
ENDMDL
