MODEL 1
REMARK minimizedAffinity 20.3902264
REMARK minimizedRMSD -1
REMARK  0 active torsions:
REMARK  status: ('A' for Active; 'I' for Inactive)
ROOT
ATOM      1  C4' PXY d   1      -1.562  -2.402   3.766  0.00  0.00     0.077 C 
ATOM      2  C1' PXY d   1      -1.438  -1.810  -1.983  0.00  0.00     0.077 C 
ATOM      3  C1  PXY d   1      -1.466  -1.977  -0.476  0.00  0.00    -0.082 A 
ATOM      4  C2  PXY d   1      -2.268  -1.217   0.251  0.00  0.00     0.003 A 
ATOM      5  C3  PXY d   1      -2.282  -1.333   1.618  0.00  0.00     0.003 A 
ATOM      6  C4  PXY d   1      -1.508  -2.274   2.241  0.00  0.00    -0.082 A 
ATOM      7  C5  PXY d   1      -0.695  -3.061   1.505  0.00  0.00     0.003 A 
ATOM      8  C6  PXY d   1      -0.664  -2.899   0.123  0.00  0.00     0.003 A 
ENDROOT
TORSDOF 0
ENDMDL
