MODEL 1
REMARK minimizedAffinity 20.399622
REMARK minimizedRMSD -1
REMARK  0 active torsions:
REMARK  status: ('A' for Active; 'I' for Inactive)
ROOT
ATOM      1  C4' PXY d   1      -4.340  -0.582  -0.193  0.00  0.00     0.077 C 
ATOM      2  C1' PXY d   1      -0.545  -2.180  -4.251  0.00  0.00     0.077 C 
ATOM      3  C1  PXY d   1      -1.536  -1.772  -3.179  0.00  0.00    -0.082 A 
ATOM      4  C2  PXY d   1      -2.577  -1.022  -3.504  0.00  0.00     0.003 A 
ATOM      5  C3  PXY d   1      -3.467  -0.617  -2.542  0.00  0.00     0.003 A 
ATOM      6  C4  PXY d   1      -3.318  -1.027  -1.244  0.00  0.00    -0.082 A 
ATOM      7  C5  PXY d   1      -2.264  -1.801  -0.907  0.00  0.00     0.003 A 
ATOM      8  C6  PXY d   1      -1.350  -2.167  -1.891  0.00  0.00     0.003 A 
ENDROOT
TORSDOF 0
ENDMDL
