MODEL 1
REMARK minimizedAffinity 15.4164953
REMARK minimizedRMSD -1
REMARK  0 active torsions:
REMARK  status: ('A' for Active; 'I' for Inactive)
ROOT
ATOM      1  C4' PXY d   1       4.972   4.578  -0.254  0.00  0.00     0.077 C 
ATOM      2  C1' PXY d   1       1.671   0.021  -1.581  0.00  0.00     0.077 C 
ATOM      3  C1  PXY d   1       2.528   1.219  -1.223  0.00  0.00    -0.082 A 
ATOM      4  C2  PXY d   1       3.326   1.749  -2.137  0.00  0.00     0.003 A 
ATOM      5  C3  PXY d   1       4.132   2.812  -1.821  0.00  0.00     0.003 A 
ATOM      6  C4  PXY d   1       4.081   3.373  -0.573  0.00  0.00    -0.082 A 
ATOM      7  C5  PXY d   1       3.262   2.846   0.361  0.00  0.00     0.003 A 
ATOM      8  C6  PXY d   1       2.483   1.740   0.033  0.00  0.00     0.003 A 
ENDROOT
TORSDOF 0
ENDMDL
