MODEL 1
REMARK minimizedAffinity 5.37393951
REMARK minimizedRMSD -1
REMARK  0 active torsions:
REMARK  status: ('A' for Active; 'I' for Inactive)
ROOT
ATOM      1  C4' PXY d   1      -6.000   3.833   2.319  0.00  0.00     0.077 C 
ATOM      2  C1' PXY d   1      -3.981   5.983  -2.652  0.00  0.00     0.077 C 
ATOM      3  C1  PXY d   1      -4.505   5.408  -1.352  0.00  0.00    -0.082 A 
ATOM      4  C2  PXY d   1      -5.515   6.000  -0.735  0.00  0.00     0.003 A 
ATOM      5  C3  PXY d   1      -5.981   5.511   0.459  0.00  0.00     0.003 A 
ATOM      6  C4  PXY d   1      -5.444   4.374   0.999  0.00  0.00    -0.082 A 
ATOM      7  C5  PXY d   1      -4.420   3.758   0.370  0.00  0.00     0.003 A 
ATOM      8  C6  PXY d   1      -3.934   4.294  -0.819  0.00  0.00     0.003 A 
ENDROOT
TORSDOF 0
ENDMDL
