MODEL 1
REMARK minimizedAffinity 12.593112
REMARK minimizedRMSD -1
REMARK  0 active torsions:
REMARK  status: ('A' for Active; 'I' for Inactive)
ROOT
ATOM      1  C4' PXY d   1      -2.241  -1.182   2.553  0.00  0.00     0.077 C 
ATOM      2  C1' PXY d   1      -0.693  -1.750  -2.987  0.00  0.00     0.077 C 
ATOM      3  C1  PXY d   1      -1.109  -1.594  -1.538  0.00  0.00    -0.082 A 
ATOM      4  C2  PXY d   1      -0.203  -1.714  -0.581  0.00  0.00     0.003 A 
ATOM      5  C3  PXY d   1      -0.568  -1.607   0.737  0.00  0.00     0.003 A 
ATOM      6  C4  PXY d   1      -1.864  -1.322   1.076  0.00  0.00    -0.082 A 
ATOM      7  C5  PXY d   1      -2.792  -1.188   0.104  0.00  0.00     0.003 A 
ATOM      8  C6  PXY d   1      -2.409  -1.340  -1.225  0.00  0.00     0.003 A 
ENDROOT
TORSDOF 0
ENDMDL
