MODEL 1
REMARK minimizedAffinity 8.72755432
REMARK minimizedRMSD -1
REMARK  0 active torsions:
REMARK  status: ('A' for Active; 'I' for Inactive)
ROOT
ATOM      1  C4' PXY d   1      -4.287  -1.886   0.793  0.00  0.00     0.077 C 
ATOM      2  C1' PXY d   1       0.318  -0.516  -2.423  0.00  0.00     0.077 C 
ATOM      3  C1  PXY d   1      -0.896  -0.864  -1.583  0.00  0.00    -0.082 A 
ATOM      4  C2  PXY d   1      -0.761  -1.668  -0.541  0.00  0.00     0.003 A 
ATOM      5  C3  PXY d   1      -1.854  -2.019   0.210  0.00  0.00     0.003 A 
ATOM      6  C4  PXY d   1      -3.087  -1.500  -0.077  0.00  0.00    -0.082 A 
ATOM      7  C5  PXY d   1      -3.231  -0.671  -1.133  0.00  0.00     0.003 A 
ATOM      8  C6  PXY d   1      -2.117  -0.360  -1.907  0.00  0.00     0.003 A 
ENDROOT
TORSDOF 0
ENDMDL
