MODEL 1
REMARK minimizedAffinity 20.1475239
REMARK minimizedRMSD -1
REMARK  0 active torsions:
REMARK  status: ('A' for Active; 'I' for Inactive)
ROOT
ATOM      1  C4' PXY d   1      -0.781  -2.653  -4.850  0.00  0.00     0.077 C 
ATOM      2  C1' PXY d   1      -1.654  -2.147   0.842  0.00  0.00     0.077 C 
ATOM      3  C1  PXY d   1      -1.417  -2.290  -0.649  0.00  0.00    -0.082 A 
ATOM      4  C2  PXY d   1      -1.628  -1.256  -1.446  0.00  0.00     0.003 A 
ATOM      5  C3  PXY d   1      -1.449  -1.376  -2.800  0.00  0.00     0.003 A 
ATOM      6  C4  PXY d   1      -0.998  -2.552  -3.338  0.00  0.00    -0.082 A 
ATOM      7  C5  PXY d   1      -0.770  -3.609  -2.529  0.00  0.00     0.003 A 
ATOM      8  C6  PXY d   1      -0.997  -3.478  -1.162  0.00  0.00     0.003 A 
ENDROOT
TORSDOF 0
ENDMDL
