MODEL 1
REMARK minimizedAffinity 18.0279846
REMARK minimizedRMSD -1
REMARK  0 active torsions:
REMARK  status: ('A' for Active; 'I' for Inactive)
ROOT
ATOM      1  C4' PXY d   1      -3.331  -5.991   4.891  0.00  0.00     0.077 C 
ATOM      2  C1' PXY d   1       0.311  -1.566   5.654  0.00  0.00     0.077 C 
ATOM      3  C1  PXY d   1      -0.634  -2.735   5.455  0.00  0.00    -0.082 A 
ATOM      4  C2  PXY d   1      -1.747  -2.566   4.760  0.00  0.00     0.003 A 
ATOM      5  C3  PXY d   1      -2.629  -3.603   4.598  0.00  0.00     0.003 A 
ATOM      6  C4  PXY d   1      -2.343  -4.841   5.108  0.00  0.00    -0.082 A 
ATOM      7  C5  PXY d   1      -1.204  -5.025   5.810  0.00  0.00     0.003 A 
ATOM      8  C6  PXY d   1      -0.342  -3.948   5.998  0.00  0.00     0.003 A 
ENDROOT
TORSDOF 0
ENDMDL
