MODEL 1
REMARK minimizedAffinity 9.29776669
REMARK minimizedRMSD -1
REMARK  0 active torsions:
REMARK  status: ('A' for Active; 'I' for Inactive)
ROOT
ATOM      1  C4' PXY d   1       4.499   6.000   1.241  0.00  0.00     0.077 C 
ATOM      2  C1' PXY d   1       5.685   1.857  -2.612  0.00  0.00     0.077 C 
ATOM      3  C1  PXY d   1       5.386   2.949  -1.604  0.00  0.00    -0.082 A 
ATOM      4  C2  PXY d   1       4.519   2.721  -0.631  0.00  0.00     0.003 A 
ATOM      5  C3  PXY d   1       4.212   3.708   0.270  0.00  0.00     0.003 A 
ATOM      6  C4  PXY d   1       4.840   4.924   0.206  0.00  0.00    -0.082 A 
ATOM      7  C5  PXY d   1       5.733   5.160  -0.777  0.00  0.00     0.003 A 
ATOM      8  C6  PXY d   1       6.000   4.159  -1.706  0.00  0.00     0.003 A 
ENDROOT
TORSDOF 0
ENDMDL
