MODEL 1
REMARK minimizedAffinity 12.0300074
REMARK minimizedRMSD -1
REMARK  0 active torsions:
REMARK  status: ('A' for Active; 'I' for Inactive)
ROOT
ATOM      1  C4' PXY d   1      -1.784  -2.191  -2.443  0.00  0.00     0.077 C 
ATOM      2  C1' PXY d   1      -1.937  -2.267   3.335  0.00  0.00     0.077 C 
ATOM      3  C1  PXY d   1      -1.908  -2.241   1.819  0.00  0.00    -0.082 A 
ATOM      4  C2  PXY d   1      -1.202  -3.146   1.163  0.00  0.00     0.003 A 
ATOM      5  C3  PXY d   1      -1.139  -3.118  -0.207  0.00  0.00     0.003 A 
ATOM      6  C4  PXY d   1      -1.849  -2.185  -0.914  0.00  0.00    -0.082 A 
ATOM      7  C5  PXY d   1      -2.581  -1.264  -0.251  0.00  0.00     0.003 A 
ATOM      8  C6  PXY d   1      -2.599  -1.285   1.140  0.00  0.00     0.003 A 
ENDROOT
TORSDOF 0
ENDMDL
