MODEL 1
REMARK minimizedAffinity 6.02026415
REMARK minimizedRMSD -1
REMARK  0 active torsions:
REMARK  status: ('A' for Active; 'I' for Inactive)
ROOT
ATOM      1  C4' PXY d   1      -1.586  -2.220   4.108  0.00  0.00     0.077 C 
ATOM      2  C1' PXY d   1      -1.687  -1.759  -1.653  0.00  0.00     0.077 C 
ATOM      3  C1  PXY d   1      -1.654  -1.891  -0.143  0.00  0.00    -0.082 A 
ATOM      4  C2  PXY d   1      -2.580  -1.291   0.587  0.00  0.00     0.003 A 
ATOM      5  C3  PXY d   1      -2.547  -1.374   1.955  0.00  0.00     0.003 A 
ATOM      6  C4  PXY d   1      -1.585  -2.122   2.581  0.00  0.00    -0.082 A 
ATOM      7  C5  PXY d   1      -0.643  -2.745   1.843  0.00  0.00     0.003 A 
ATOM      8  C6  PXY d   1      -0.670  -2.615   0.457  0.00  0.00     0.003 A 
ENDROOT
TORSDOF 0
ENDMDL
