MODEL 1
REMARK minimizedAffinity 11.2866144
REMARK minimizedRMSD -1
REMARK  0 active torsions:
REMARK  status: ('A' for Active; 'I' for Inactive)
ROOT
ATOM      1  C4' PXY d   1      -5.533  -1.469   5.964  0.00  0.00     0.077 C 
ATOM      2  C1' PXY d   1       0.207  -0.786   5.999  0.00  0.00     0.077 C 
ATOM      3  C1  PXY d   1      -1.297  -0.977   5.985  0.00  0.00    -0.082 A 
ATOM      4  C2  PXY d   1      -2.091   0.082   5.969  0.00  0.00     0.003 A 
ATOM      5  C3  PXY d   1      -3.453  -0.072   5.988  0.00  0.00     0.003 A 
ATOM      6  C4  PXY d   1      -4.009  -1.324   5.969  0.00  0.00    -0.082 A 
ATOM      7  C5  PXY d   1      -3.206  -2.409   5.974  0.00  0.00     0.003 A 
ATOM      8  C6  PXY d   1      -1.825  -2.230   5.997  0.00  0.00     0.003 A 
ENDROOT
TORSDOF 0
ENDMDL
