MODEL 1
REMARK minimizedAffinity 9.92187691
REMARK minimizedRMSD -1
REMARK  0 active torsions:
REMARK  status: ('A' for Active; 'I' for Inactive)
ROOT
ATOM      1  C4' PXY d   1      -2.084  -1.918   4.844  0.00  0.00     0.077 C 
ATOM      2  C1' PXY d   1      -1.107  -3.064  -0.737  0.00  0.00     0.077 C 
ATOM      3  C1  PXY d   1      -1.355  -2.773   0.730  0.00  0.00    -0.082 A 
ATOM      4  C2  PXY d   1      -2.496  -2.217   1.103  0.00  0.00     0.003 A 
ATOM      5  C3  PXY d   1      -2.724  -1.917   2.421  0.00  0.00     0.003 A 
ATOM      6  C4  PXY d   1      -1.795  -2.239   3.375  0.00  0.00    -0.082 A 
ATOM      7  C5  PXY d   1      -0.633  -2.816   3.004  0.00  0.00     0.003 A 
ATOM      8  C6  PXY d   1      -0.404  -3.074   1.655  0.00  0.00     0.003 A 
ENDROOT
TORSDOF 0
ENDMDL
