MODEL 1
REMARK minimizedAffinity 7.17476177
REMARK minimizedRMSD -1
REMARK  0 active torsions:
REMARK  status: ('A' for Active; 'I' for Inactive)
ROOT
ATOM      1  C4' PXY d   1      -1.871  -3.822   5.517  0.00  0.00     0.077 C 
ATOM      2  C1' PXY d   1      -2.940   1.857   5.661  0.00  0.00     0.077 C 
ATOM      3  C1  PXY d   1      -2.669   0.366   5.632  0.00  0.00    -0.082 A 
ATOM      4  C2  PXY d   1      -1.485  -0.076   5.240  0.00  0.00     0.003 A 
ATOM      5  C3  PXY d   1      -1.234  -1.423   5.178  0.00  0.00     0.003 A 
ATOM      6  C4  PXY d   1      -2.186  -2.324   5.571  0.00  0.00    -0.082 A 
ATOM      7  C5  PXY d   1      -3.393  -1.880   5.982  0.00  0.00     0.003 A 
ATOM      8  C6  PXY d   1      -3.642  -0.511   5.999  0.00  0.00     0.003 A 
ENDROOT
TORSDOF 0
ENDMDL
