MODEL 1
REMARK minimizedAffinity -5.34060192
REMARK minimizedRMSD -1
REMARK  0 active torsions:
REMARK  status: ('A' for Active; 'I' for Inactive)
ROOT
ATOM      1  N1  IND d   1       0.348  -0.657  -2.215  0.00  0.00    -0.196 N 
ATOM      2  C2  IND d   1       0.400  -1.741  -3.047  0.00  0.00     0.054 A 
ATOM      3  C3  IND d   1       0.231  -2.883  -2.343  0.00  0.00    -0.031 A 
ATOM      4  C4  IND d   1      -0.248  -3.202   0.166  0.00  0.00     0.051 A 
ATOM      5  C5  IND d   1      -0.351  -2.509   1.340  0.00  0.00    -0.031 A 
ATOM      6  C6  IND d   1      -0.226  -1.136   1.389  0.00  0.00     0.015 A 
ATOM      7  C7  IND d   1      -0.004  -0.400   0.260  0.00  0.00    -0.016 A 
ATOM      8  C8  IND d   1       0.108  -1.100  -0.933  0.00  0.00    -0.047 A 
ATOM      9  C9  IND d   1       0.024  -2.498  -0.983  0.00  0.00    -0.096 A 
ATOM     10  HN1 IND d   1       0.448   0.163  -2.452  0.00  0.00     0.298 HD
ENDROOT
TORSDOF 0
ENDMDL
