MODEL 1
REMARK minimizedAffinity -4.55580139
REMARK minimizedRMSD -1
REMARK  0 active torsions:
REMARK  status: ('A' for Active; 'I' for Inactive)
ROOT
ATOM      1  N1  IND d   1       0.088  -0.099  -1.216  0.00  0.00    -0.196 N 
ATOM      2  C2  IND d   1       0.173   0.449   0.033  0.00  0.00     0.054 A 
ATOM      3  C3  IND d   1       0.192  -0.522   0.973  0.00  0.00    -0.031 A 
ATOM      4  C4  IND d   1       0.198  -3.080   0.682  0.00  0.00     0.051 A 
ATOM      5  C5  IND d   1       0.094  -4.056  -0.269  0.00  0.00    -0.031 A 
ATOM      6  C6  IND d   1      -0.017  -3.757  -1.612  0.00  0.00     0.015 A 
ATOM      7  C7  IND d   1      -0.016  -2.465  -2.056  0.00  0.00    -0.016 A 
ATOM      8  C8  IND d   1       0.082  -1.471  -1.093  0.00  0.00    -0.047 A 
ATOM      9  C9  IND d   1       0.152  -1.767   0.274  0.00  0.00    -0.096 A 
ATOM     10  HN1 IND d   1       0.046   0.339  -1.955  0.00  0.00     0.298 HD
ENDROOT
TORSDOF 0
ENDMDL
