MODEL 1
REMARK minimizedAffinity -3.06416821
REMARK minimizedRMSD -1
REMARK  0 active torsions:
REMARK  status: ('A' for Active; 'I' for Inactive)
ROOT
ATOM      1  N1  IND d   1      -0.226   0.657   0.544  0.00  0.00    -0.196 N 
ATOM      2  C2  IND d   1       0.889   0.959  -0.186  0.00  0.00     0.054 A 
ATOM      3  C3  IND d   1       1.439  -0.168  -0.692  0.00  0.00    -0.031 A 
ATOM      4  C4  IND d   1       0.618  -2.602  -0.535  0.00  0.00     0.051 A 
ATOM      5  C5  IND d   1      -0.337  -3.381   0.057  0.00  0.00    -0.031 A 
ATOM      6  C6  IND d   1      -1.326  -2.842   0.855  0.00  0.00     0.015 A 
ATOM      7  C7  IND d   1      -1.403  -1.497   1.083  0.00  0.00    -0.016 A 
ATOM      8  C8  IND d   1      -0.431  -0.704   0.490  0.00  0.00    -0.047 A 
ATOM      9  C9  IND d   1       0.600  -1.250  -0.287  0.00  0.00    -0.096 A 
ATOM     10  HN1 IND d   1      -0.718   1.222   0.966  0.00  0.00     0.298 HD
ENDROOT
TORSDOF 0
ENDMDL
