MODEL 1
REMARK minimizedAffinity -3.0526607
REMARK minimizedRMSD -1
REMARK  0 active torsions:
REMARK  status: ('A' for Active; 'I' for Inactive)
ROOT
ATOM      1  N1  IND d   1       1.449   1.056  -0.512  0.00  0.00    -0.196 N 
ATOM      2  C2  IND d   1       1.108   2.046   0.367  0.00  0.00     0.054 A 
ATOM      3  C3  IND d   1       0.177   1.600   1.240  0.00  0.00    -0.031 A 
ATOM      4  C4  IND d   1      -0.854  -0.747   1.475  0.00  0.00     0.051 A 
ATOM      5  C5  IND d   1      -0.882  -1.976   0.877  0.00  0.00    -0.031 A 
ATOM      6  C6  IND d   1      -0.117  -2.263  -0.235  0.00  0.00     0.015 A 
ATOM      7  C7  IND d   1       0.716  -1.332  -0.786  0.00  0.00    -0.016 A 
ATOM      8  C8  IND d   1       0.742  -0.081  -0.186  0.00  0.00    -0.047 A 
ATOM      9  C9  IND d   1      -0.063   0.230   0.917  0.00  0.00    -0.096 A 
ATOM     10  HN1 IND d   1       2.010   1.131  -1.159  0.00  0.00     0.298 HD
ENDROOT
TORSDOF 0
ENDMDL
