MODEL 1
REMARK minimizedAffinity -3.65343451
REMARK minimizedRMSD -1
REMARK  0 active torsions:
REMARK  status: ('A' for Active; 'I' for Inactive)
ROOT
ATOM      1  N1  IND d   1       0.184  -0.891  -2.190  0.00  0.00    -0.196 N 
ATOM      2  C2  IND d   1       0.264   0.461  -2.372  0.00  0.00     0.054 A 
ATOM      3  C3  IND d   1      -0.057   1.110  -1.230  0.00  0.00    -0.031 A 
ATOM      4  C4  IND d   1      -0.645   0.150   1.085  0.00  0.00     0.051 A 
ATOM      5  C5  IND d   1      -0.880  -1.029   1.735  0.00  0.00    -0.031 A 
ATOM      6  C6  IND d   1      -0.768  -2.247   1.097  0.00  0.00     0.015 A 
ATOM      7  C7  IND d   1      -0.403  -2.333  -0.217  0.00  0.00    -0.016 A 
ATOM      8  C8  IND d   1      -0.170  -1.137  -0.881  0.00  0.00    -0.047 A 
ATOM      9  C9  IND d   1      -0.324   0.105  -0.251  0.00  0.00    -0.096 A 
ATOM     10  HN1 IND d   1       0.331  -1.488  -2.791  0.00  0.00     0.298 HD
ENDROOT
TORSDOF 0
ENDMDL
