MODEL 1
REMARK minimizedAffinity -4.13007116
REMARK minimizedRMSD -1
REMARK  0 active torsions:
REMARK  status: ('A' for Active; 'I' for Inactive)
ROOT
ATOM      1  N1  IND d   1       1.606   0.488   0.449  0.00  0.00    -0.196 N 
ATOM      2  C2  IND d   1       0.724   1.516   0.260  0.00  0.00     0.054 A 
ATOM      3  C3  IND d   1      -0.527   1.036   0.083  0.00  0.00    -0.031 A 
ATOM      4  C4  IND d   1      -1.373  -1.394   0.167  0.00  0.00     0.051 A 
ATOM      5  C5  IND d   1      -0.935  -2.684   0.275  0.00  0.00    -0.031 A 
ATOM      6  C6  IND d   1       0.399  -2.989   0.454  0.00  0.00     0.015 A 
ATOM      7  C7  IND d   1       1.347  -2.009   0.542  0.00  0.00    -0.016 A 
ATOM      8  C8  IND d   1       0.907  -0.699   0.425  0.00  0.00    -0.047 A 
ATOM      9  C9  IND d   1      -0.440  -0.385   0.201  0.00  0.00    -0.096 A 
ATOM     10  HN1 IND d   1       2.454   0.570   0.564  0.00  0.00     0.298 HD
ENDROOT
TORSDOF 0
ENDMDL
