MODEL 1
REMARK minimizedAffinity 2.80225992
REMARK minimizedRMSD -1
REMARK  0 active torsions:
REMARK  status: ('A' for Active; 'I' for Inactive)
ROOT
ATOM      1  N1  IND d   1       0.864   2.152  -0.956  0.00  0.00    -0.196 N 
ATOM      2  C2  IND d   1       1.307   3.013   0.009  0.00  0.00     0.054 A 
ATOM      3  C3  IND d   1       1.018   2.530   1.238  0.00  0.00    -0.031 A 
ATOM      4  C4  IND d   1      -0.087   0.302   1.902  0.00  0.00     0.051 A 
ATOM      5  C5  IND d   1      -0.696  -0.799   1.369  0.00  0.00    -0.031 A 
ATOM      6  C6  IND d   1      -0.816  -0.978   0.006  0.00  0.00     0.015 A 
ATOM      7  C7  IND d   1      -0.319  -0.063  -0.878  0.00  0.00    -0.016 A 
ATOM      8  C8  IND d   1       0.293   1.060  -0.341  0.00  0.00    -0.047 A 
ATOM      9  C9  IND d   1       0.381   1.267   1.042  0.00  0.00    -0.096 A 
ATOM     10  HN1 IND d   1       0.930   2.273  -1.805  0.00  0.00     0.298 HD
ENDROOT
TORSDOF 0
ENDMDL
