MODEL 1
REMARK minimizedAffinity -1.98404217
REMARK minimizedRMSD -1
REMARK  0 active torsions:
REMARK  status: ('A' for Active; 'I' for Inactive)
ROOT
ATOM      1  N1  IND d   1       2.031   0.473  -0.031  0.00  0.00    -0.196 N 
ATOM      2  C2  IND d   1       1.462   1.715   0.016  0.00  0.00     0.054 A 
ATOM      3  C3  IND d   1       0.159   1.623   0.367  0.00  0.00    -0.031 A 
ATOM      4  C4  IND d   1      -1.219  -0.456   1.006  0.00  0.00     0.051 A 
ATOM      5  C5  IND d   1      -1.144  -1.819   1.075  0.00  0.00    -0.031 A 
ATOM      6  C6  IND d   1       0.018  -2.501   0.776  0.00  0.00     0.015 A 
ATOM      7  C7  IND d   1       1.156  -1.842   0.405  0.00  0.00    -0.016 A 
ATOM      8  C8  IND d   1       1.081  -0.458   0.327  0.00  0.00    -0.047 A 
ATOM      9  C9  IND d   1      -0.107   0.237   0.589  0.00  0.00    -0.096 A 
ATOM     10  HN1 IND d   1       2.845   0.303  -0.249  0.00  0.00     0.298 HD
ENDROOT
TORSDOF 0
ENDMDL
