MODEL 1
REMARK minimizedAffinity -6.15347767
REMARK minimizedRMSD -1
REMARK  0 active torsions:
REMARK  status: ('A' for Active; 'I' for Inactive)
ROOT
ATOM      1  N1  IND d   1       0.266  -1.495  -2.206  0.00  0.00    -0.196 N 
ATOM      2  C2  IND d   1       0.021  -2.835  -2.321  0.00  0.00     0.054 A 
ATOM      3  C3  IND d   1      -0.329  -3.353  -1.122  0.00  0.00    -0.031 A 
ATOM      4  C4  IND d   1      -0.662  -2.167   1.138  0.00  0.00     0.051 A 
ATOM      5  C5  IND d   1      -0.521  -0.952   1.748  0.00  0.00    -0.031 A 
ATOM      6  C6  IND d   1      -0.105   0.167   1.057  0.00  0.00     0.015 A 
ATOM      7  C7  IND d   1       0.176   0.115  -0.279  0.00  0.00    -0.016 A 
ATOM      8  C8  IND d   1       0.041  -1.118  -0.901  0.00  0.00    -0.047 A 
ATOM      9  C9  IND d   1      -0.340  -2.267  -0.195  0.00  0.00    -0.096 A 
ATOM     10  HN1 IND d   1       0.517  -0.974  -2.843  0.00  0.00     0.298 HD
ENDROOT
TORSDOF 0
ENDMDL
