MODEL 1
REMARK minimizedAffinity -5.22638369
REMARK minimizedRMSD -1
REMARK  0 active torsions:
REMARK  status: ('A' for Active; 'I' for Inactive)
ROOT
ATOM      1  N1  IND d   1       0.347  -1.043   1.970  0.00  0.00    -0.196 N 
ATOM      2  C2  IND d   1      -0.799  -1.672   1.571  0.00  0.00     0.054 A 
ATOM      3  C3  IND d   1      -1.431  -0.942   0.624  0.00  0.00    -0.031 A 
ATOM      4  C4  IND d   1      -0.710   1.262  -0.493  0.00  0.00     0.051 A 
ATOM      5  C5  IND d   1       0.245   2.237  -0.434  0.00  0.00    -0.031 A 
ATOM      6  C6  IND d   1       1.307   2.166   0.445  0.00  0.00     0.015 A 
ATOM      7  C7  IND d   1       1.459   1.106   1.294  0.00  0.00    -0.016 A 
ATOM      8  C8  IND d   1       0.486   0.118   1.242  0.00  0.00    -0.047 A 
ATOM      9  C9  IND d   1      -0.616   0.206   0.382  0.00  0.00    -0.096 A 
ATOM     10  HN1 IND d   1       0.890  -1.326   2.574  0.00  0.00     0.298 HD
ENDROOT
TORSDOF 0
ENDMDL
