MODEL 1
REMARK minimizedAffinity -4.03127193
REMARK minimizedRMSD -1
REMARK  0 active torsions:
REMARK  status: ('A' for Active; 'I' for Inactive)
ROOT
ATOM      1  N1  IND d   1       0.262   0.888   1.297  0.00  0.00    -0.196 N 
ATOM      2  C2  IND d   1       1.108   1.429   0.370  0.00  0.00     0.054 A 
ATOM      3  C3  IND d   1       1.408   0.517  -0.582  0.00  0.00    -0.031 A 
ATOM      4  C4  IND d   1       0.541  -1.890  -0.872  0.00  0.00     0.051 A 
ATOM      5  C5  IND d   1      -0.224  -2.841  -0.256  0.00  0.00    -0.031 A 
ATOM      6  C6  IND d   1      -0.881  -2.592   0.931  0.00  0.00     0.015 A 
ATOM      7  C7  IND d   1      -0.807  -1.373   1.544  0.00  0.00    -0.016 A 
ATOM      8  C8  IND d   1      -0.026  -0.407   0.926  0.00  0.00    -0.047 A 
ATOM      9  C9  IND d   1       0.678  -0.668  -0.258  0.00  0.00    -0.096 A 
ATOM     10  HN1 IND d   1      -0.041   1.289   1.995  0.00  0.00     0.298 HD
ENDROOT
TORSDOF 0
ENDMDL
