MODEL 1
REMARK minimizedAffinity -3.86016798
REMARK minimizedRMSD -1
REMARK  0 active torsions:
REMARK  status: ('A' for Active; 'I' for Inactive)
ROOT
ATOM      1  N1  IND d   1       1.330   1.757   1.203  0.00  0.00    -0.196 N 
ATOM      2  C2  IND d   1       1.077   2.439   0.046  0.00  0.00     0.054 A 
ATOM      3  C3  IND d   1       0.487   1.627  -0.860  0.00  0.00    -0.031 A 
ATOM      4  C4  IND d   1      -0.249  -0.828  -0.621  0.00  0.00     0.051 A 
ATOM      5  C5  IND d   1      -0.198  -1.889   0.239  0.00  0.00    -0.031 A 
ATOM      6  C6  IND d   1       0.374  -1.786   1.491  0.00  0.00     0.015 A 
ATOM      7  C7  IND d   1       0.909  -0.610   1.935  0.00  0.00    -0.016 A 
ATOM      8  C8  IND d   1       0.865   0.468   1.062  0.00  0.00    -0.047 A 
ATOM      9  C9  IND d   1       0.324   0.358  -0.226  0.00  0.00    -0.096 A 
ATOM     10  HN1 IND d   1       1.715   2.078   1.901  0.00  0.00     0.298 HD
ENDROOT
TORSDOF 0
ENDMDL
