MODEL 1
REMARK minimizedAffinity -3.71439242
REMARK minimizedRMSD -1
REMARK  0 active torsions:
REMARK  status: ('A' for Active; 'I' for Inactive)
ROOT
ATOM      1  N1  IND d   1       1.134   0.916  -0.530  0.00  0.00    -0.196 N 
ATOM      2  C2  IND d   1       0.968   1.966   0.330  0.00  0.00     0.054 A 
ATOM      3  C3  IND d   1       0.147   1.617   1.346  0.00  0.00    -0.031 A 
ATOM      4  C4  IND d   1      -0.955  -0.653   1.853  0.00  0.00     0.051 A 
ATOM      5  C5  IND d   1      -1.127  -1.907   1.335  0.00  0.00    -0.031 A 
ATOM      6  C6  IND d   1      -0.540  -2.292   0.147  0.00  0.00     0.015 A 
ATOM      7  C7  IND d   1       0.254  -1.438  -0.565  0.00  0.00    -0.016 A 
ATOM      8  C8  IND d   1       0.425  -0.162  -0.046  0.00  0.00    -0.047 A 
ATOM      9  C9  IND d   1      -0.203   0.248   1.137  0.00  0.00    -0.096 A 
ATOM     10  HN1 IND d   1       1.602   0.927  -1.251  0.00  0.00     0.298 HD
ENDROOT
TORSDOF 0
ENDMDL
