MODEL 1
REMARK minimizedAffinity -3.74130702
REMARK minimizedRMSD -1
REMARK  0 active torsions:
REMARK  status: ('A' for Active; 'I' for Inactive)
ROOT
ATOM      1  N1  IND d   1       0.263  -2.760  -0.744  0.00  0.00    -0.196 N 
ATOM      2  C2  IND d   1      -0.134  -3.382   0.407  0.00  0.00     0.054 A 
ATOM      3  C3  IND d   1      -0.446  -2.467   1.353  0.00  0.00    -0.031 A 
ATOM      4  C4  IND d   1      -0.475   0.102   1.196  0.00  0.00     0.051 A 
ATOM      5  C5  IND d   1      -0.157   1.134   0.358  0.00  0.00    -0.031 A 
ATOM      6  C6  IND d   1       0.324   0.916  -0.916  0.00  0.00     0.015 A 
ATOM      7  C7  IND d   1       0.496  -0.347  -1.407  0.00  0.00    -0.016 A 
ATOM      8  C8  IND d   1       0.180  -1.398  -0.557  0.00  0.00    -0.047 A 
ATOM      9  C9  IND d   1      -0.268  -1.183   0.753  0.00  0.00    -0.096 A 
ATOM     10  HN1 IND d   1       0.521  -3.153  -1.464  0.00  0.00     0.298 HD
ENDROOT
TORSDOF 0
ENDMDL
