MODEL 1
REMARK minimizedAffinity -0.935914755
REMARK minimizedRMSD -1
REMARK  0 active torsions:
REMARK  status: ('A' for Active; 'I' for Inactive)
ROOT
ATOM      1  N1  IND d   1      -0.327   0.375  -1.017  0.00  0.00    -0.196 N 
ATOM      2  C2  IND d   1      -0.039  -0.188  -2.229  0.00  0.00     0.054 A 
ATOM      3  C3  IND d   1       0.183  -1.514  -2.090  0.00  0.00    -0.031 A 
ATOM      4  C4  IND d   1       0.028  -2.987   0.015  0.00  0.00     0.051 A 
ATOM      5  C5  IND d   1      -0.168  -2.919   1.366  0.00  0.00    -0.031 A 
ATOM      6  C6  IND d   1      -0.434  -1.725   2.004  0.00  0.00     0.015 A 
ATOM      7  C7  IND d   1      -0.526  -0.551   1.311  0.00  0.00    -0.016 A 
ATOM      8  C8  IND d   1      -0.322  -0.616  -0.060  0.00  0.00    -0.047 A 
ATOM      9  C9  IND d   1      -0.009  -1.818  -0.708  0.00  0.00    -0.096 A 
ATOM     10  HN1 IND d   1      -0.484   1.209  -0.875  0.00  0.00     0.298 HD
ENDROOT
TORSDOF 0
ENDMDL
