MODEL 1
REMARK minimizedAffinity -2.9624567
REMARK minimizedRMSD -1
REMARK  0 active torsions:
REMARK  status: ('A' for Active; 'I' for Inactive)
ROOT
ATOM      1  C   UNL d   1       1.752   3.463   0.372  0.00  0.00     0.023 A 
ATOM      2  C1  UNL d   1       2.538   2.420   0.861  0.00  0.00     0.003 A 
ATOM      3  C2  UNL d   1       2.030   1.119   0.898  0.00  0.00     0.048 A 
ATOM      4  C3  UNL d   1       0.736   0.870   0.443  0.00  0.00     0.023 A 
ATOM      5  C4  UNL d   1      -0.054   1.911  -0.049  0.00  0.00     0.048 A 
ATOM      6  C5  UNL d   1       0.458   3.209  -0.083  0.00  0.00     0.003 A 
ATOM      7  I   UNL d   1      -0.022  -1.065   0.496  0.00  0.00    -0.146 I 
ENDROOT
TORSDOF 0
ENDMDL
