MODEL 1
REMARK minimizedAffinity 0.624959111
REMARK minimizedRMSD -1
REMARK  0 active torsions:
REMARK  status: ('A' for Active; 'I' for Inactive)
ROOT
ATOM      1  C   UNL d   1       0.121  -1.442  -0.816  0.00  0.00     0.023 A 
ATOM      2  C1  UNL d   1      -0.256  -0.231  -1.397  0.00  0.00     0.003 A 
ATOM      3  C2  UNL d   1       0.119   0.976  -0.804  0.00  0.00     0.048 A 
ATOM      4  C3  UNL d   1       0.872   0.965   0.370  0.00  0.00     0.023 A 
ATOM      5  C4  UNL d   1       1.252  -0.244   0.955  0.00  0.00     0.048 A 
ATOM      6  C5  UNL d   1       0.874  -1.448   0.358  0.00  0.00     0.003 A 
ATOM      7  I   UNL d   1       1.432   2.761   1.254  0.00  0.00    -0.146 I 
ENDROOT
TORSDOF 0
ENDMDL
