MODEL 1
REMARK minimizedAffinity -1.45523298
REMARK minimizedRMSD -1
REMARK  0 active torsions:
REMARK  status: ('A' for Active; 'I' for Inactive)
ROOT
ATOM      1  C   UNL d   1       0.714   2.570  -0.916  0.00  0.00     0.023 A 
ATOM      2  C1  UNL d   1       0.292   1.547  -1.764  0.00  0.00     0.003 A 
ATOM      3  C2  UNL d   1      -0.038   0.295  -1.241  0.00  0.00     0.048 A 
ATOM      4  C3  UNL d   1       0.056   0.074   0.133  0.00  0.00     0.023 A 
ATOM      5  C4  UNL d   1       0.478   1.095   0.986  0.00  0.00     0.048 A 
ATOM      6  C5  UNL d   1       0.807   2.345   0.458  0.00  0.00     0.003 A 
ATOM      7  I   UNL d   1      -0.434  -1.788   0.915  0.00  0.00    -0.146 I 
ENDROOT
TORSDOF 0
ENDMDL
