MODEL 1
REMARK minimizedAffinity -4.84798574
REMARK minimizedRMSD -1
REMARK  0 active torsions:
REMARK  status: ('A' for Active; 'I' for Inactive)
ROOT
ATOM      1  C   UNL d   1      -0.140  -3.502  -0.720  0.00  0.00     0.023 A 
ATOM      2  C1  UNL d   1      -0.253  -2.938   0.552  0.00  0.00     0.003 A 
ATOM      3  C2  UNL d   1      -0.510  -1.573   0.691  0.00  0.00     0.048 A 
ATOM      4  C3  UNL d   1      -0.654  -0.777  -0.445  0.00  0.00     0.023 A 
ATOM      5  C4  UNL d   1      -0.542  -1.336  -1.719  0.00  0.00     0.048 A 
ATOM      6  C5  UNL d   1      -0.284  -2.702  -1.853  0.00  0.00     0.003 A 
ATOM      7  I   UNL d   1      -1.037   1.256  -0.240  0.00  0.00    -0.146 I 
ENDROOT
TORSDOF 0
ENDMDL
