MODEL 1
REMARK minimizedAffinity -4.32015085
REMARK minimizedRMSD -1
REMARK  0 active torsions:
REMARK  status: ('A' for Active; 'I' for Inactive)
ROOT
ATOM      1  C   UNL d   1      -0.797  -3.424  -1.618  0.00  0.00     0.023 A 
ATOM      2  C1  UNL d   1      -1.180  -2.967  -0.357  0.00  0.00     0.003 A 
ATOM      3  C2  UNL d   1      -1.015  -1.621  -0.021  0.00  0.00     0.048 A 
ATOM      4  C3  UNL d   1      -0.468  -0.739  -0.952  0.00  0.00     0.023 A 
ATOM      5  C4  UNL d   1      -0.084  -1.192  -2.215  0.00  0.00     0.048 A 
ATOM      6  C5  UNL d   1      -0.250  -2.538  -2.546  0.00  0.00     0.003 A 
ATOM      7  I   UNL d   1      -0.222   1.264  -0.455  0.00  0.00    -0.146 I 
ENDROOT
TORSDOF 0
ENDMDL
