MODEL 1
REMARK minimizedAffinity -1.90920091
REMARK minimizedRMSD -1
REMARK  0 active torsions:
REMARK  status: ('A' for Active; 'I' for Inactive)
ROOT
ATOM      1  C   UNL d   1      -1.132  -2.574  -0.171  0.00  0.00     0.023 A 
ATOM      2  C1  UNL d   1      -1.102  -1.951   1.077  0.00  0.00     0.003 A 
ATOM      3  C2  UNL d   1      -0.633  -0.641   1.193  0.00  0.00     0.048 A 
ATOM      4  C3  UNL d   1      -0.195   0.040   0.057  0.00  0.00     0.023 A 
ATOM      5  C4  UNL d   1      -0.224  -0.580  -1.193  0.00  0.00     0.048 A 
ATOM      6  C5  UNL d   1      -0.693  -1.890  -1.304  0.00  0.00     0.003 A 
ATOM      7  I   UNL d   1       0.504   1.990   0.227  0.00  0.00    -0.146 I 
ENDROOT
TORSDOF 0
ENDMDL
