MODEL 1
REMARK minimizedAffinity -0.317922652
REMARK minimizedRMSD -1
REMARK  0 active torsions:
REMARK  status: ('A' for Active; 'I' for Inactive)
ROOT
ATOM      1  C   UNL d   1      -0.203  -2.334  -3.004  0.00  0.00     0.023 A 
ATOM      2  C1  UNL d   1       0.345  -1.063  -2.835  0.00  0.00     0.003 A 
ATOM      3  C2  UNL d   1       0.206  -0.397  -1.615  0.00  0.00     0.048 A 
ATOM      4  C3  UNL d   1      -0.482  -1.010  -0.568  0.00  0.00     0.023 A 
ATOM      5  C4  UNL d   1      -1.031  -2.283  -0.732  0.00  0.00     0.048 A 
ATOM      6  C5  UNL d   1      -0.890  -2.944  -1.954  0.00  0.00     0.003 A 
ATOM      7  I   UNL d   1      -0.690  -0.022   1.249  0.00  0.00    -0.146 I 
ENDROOT
TORSDOF 0
ENDMDL
