MODEL 1
REMARK minimizedAffinity -1.80190587
REMARK minimizedRMSD -1
REMARK  0 active torsions:
REMARK  status: ('A' for Active; 'I' for Inactive)
ROOT
ATOM      1  C   UNL d   1      -0.189  -1.364   1.538  0.00  0.00     0.023 A 
ATOM      2  C1  UNL d   1      -0.473  -2.595   0.947  0.00  0.00     0.003 A 
ATOM      3  C2  UNL d   1      -0.239  -2.787  -0.416  0.00  0.00     0.048 A 
ATOM      4  C3  UNL d   1       0.280  -1.744  -1.182  0.00  0.00     0.023 A 
ATOM      5  C4  UNL d   1       0.567  -0.511  -0.595  0.00  0.00     0.048 A 
ATOM      6  C5  UNL d   1       0.330  -0.323   0.768  0.00  0.00     0.003 A 
ATOM      7  I   UNL d   1       0.630  -2.029  -3.211  0.00  0.00    -0.146 I 
ENDROOT
TORSDOF 0
ENDMDL
