MODEL 1
REMARK minimizedAffinity -3.73587322
REMARK minimizedRMSD -1
REMARK  0 active torsions:
REMARK  status: ('A' for Active; 'I' for Inactive)
ROOT
ATOM      1  C   UNL d   1      -0.712  -0.595   0.651  0.00  0.00     0.023 A 
ATOM      2  C1  UNL d   1       0.196  -0.524   1.707  0.00  0.00     0.003 A 
ATOM      3  C2  UNL d   1       1.067   0.563   1.808  0.00  0.00     0.048 A 
ATOM      4  C3  UNL d   1       1.023   1.575   0.850  0.00  0.00     0.023 A 
ATOM      5  C4  UNL d   1       0.115   1.508  -0.208  0.00  0.00     0.048 A 
ATOM      6  C5  UNL d   1      -0.753   0.419  -0.305  0.00  0.00     0.003 A 
ATOM      7  I   UNL d   1       2.319   3.194   0.998  0.00  0.00    -0.146 I 
ENDROOT
TORSDOF 0
ENDMDL
