MODEL 1
REMARK minimizedAffinity -4.63644314
REMARK minimizedRMSD -1
REMARK  0 active torsions:
REMARK  status: ('A' for Active; 'I' for Inactive)
ROOT
ATOM      1  C   UNL d   1       0.548  -3.160  -1.021  0.00  0.00     0.023 A 
ATOM      2  C1  UNL d   1       0.774  -1.900  -1.576  0.00  0.00     0.003 A 
ATOM      3  C2  UNL d   1       0.129  -0.779  -1.050  0.00  0.00     0.048 A 
ATOM      4  C3  UNL d   1      -0.740  -0.924   0.031  0.00  0.00     0.023 A 
ATOM      5  C4  UNL d   1      -0.969  -2.183   0.589  0.00  0.00     0.048 A 
ATOM      6  C5  UNL d   1      -0.322  -3.301   0.060  0.00  0.00     0.003 A 
ATOM      7  I   UNL d   1      -1.701   0.744   0.815  0.00  0.00    -0.146 I 
ENDROOT
TORSDOF 0
ENDMDL
