MODEL 1
REMARK minimizedAffinity -4.02270317
REMARK minimizedRMSD -1
REMARK  0 active torsions:
REMARK  status: ('A' for Active; 'I' for Inactive)
ROOT
ATOM      1  C2' OXE d   1       0.212  -0.126   0.146  0.00  0.00     0.078 C 
ATOM      2  C1' OXE d   1       0.844  -2.242   1.879  0.00  0.00     0.078 C 
ATOM      3  C1  OXE d   1      -0.526  -2.235   1.249  0.00  0.00    -0.078 A 
ATOM      4  C2  OXE d   1      -0.843  -1.171   0.439  0.00  0.00    -0.078 A 
ATOM      5  C3  OXE d   1      -2.074  -1.143  -0.211  0.00  0.00     0.003 A 
ATOM      6  C4  OXE d   1      -3.048  -2.108   0.073  0.00  0.00    -0.002 A 
ATOM      7  C5  OXE d   1      -2.759  -3.178   0.926  0.00  0.00    -0.002 A 
ATOM      8  C6  OXE d   1      -1.491  -3.279   1.487  0.00  0.00     0.003 A 
ENDROOT
TORSDOF 0
ENDMDL
