MODEL 1
REMARK minimizedAffinity -6.3894434
REMARK minimizedRMSD -1
REMARK  0 active torsions:
REMARK  status: ('A' for Active; 'I' for Inactive)
ROOT
ATOM      1  C2' OXE d   1      -0.391   0.326  -2.022  0.00  0.00     0.078 C 
ATOM      2  C1' OXE d   1       1.136  -0.574   0.155  0.00  0.00     0.078 C 
ATOM      3  C1  OXE d   1      -0.332  -0.920   0.134  0.00  0.00    -0.078 A 
ATOM      4  C2  OXE d   1      -1.081  -0.436  -0.912  0.00  0.00    -0.078 A 
ATOM      5  C3  OXE d   1      -2.428  -0.772  -1.009  0.00  0.00     0.003 A 
ATOM      6  C4  OXE d   1      -3.061  -1.469   0.028  0.00  0.00    -0.002 A 
ATOM      7  C5  OXE d   1      -2.325  -1.938   1.121  0.00  0.00    -0.002 A 
ATOM      8  C6  OXE d   1      -0.954  -1.709   1.168  0.00  0.00     0.003 A 
ENDROOT
TORSDOF 0
ENDMDL
