MODEL 1
REMARK minimizedAffinity -5.28113937
REMARK minimizedRMSD -1
REMARK  0 active torsions:
REMARK  status: ('A' for Active; 'I' for Inactive)
ROOT
ATOM      1  C2' OXE d   1       1.235  -0.025   0.032  0.00  0.00     0.078 C 
ATOM      2  C1' OXE d   1      -0.018   0.839  -2.327  0.00  0.00     0.078 C 
ATOM      3  C1  OXE d   1      -0.848   0.070  -1.331  0.00  0.00    -0.078 A 
ATOM      4  C2  OXE d   1      -0.215  -0.390  -0.201  0.00  0.00    -0.078 A 
ATOM      5  C3  OXE d   1      -0.948  -1.058   0.776  0.00  0.00     0.003 A 
ATOM      6  C4  OXE d   1      -2.286  -1.400   0.549  0.00  0.00    -0.002 A 
ATOM      7  C5  OXE d   1      -2.940  -0.977  -0.613  0.00  0.00    -0.002 A 
ATOM      8  C6  OXE d   1      -2.248  -0.206  -1.541  0.00  0.00     0.003 A 
ENDROOT
TORSDOF 0
ENDMDL
