MODEL 1
REMARK minimizedAffinity -4.80989313
REMARK minimizedRMSD -1
REMARK  0 active torsions:
REMARK  status: ('A' for Active; 'I' for Inactive)
ROOT
ATOM      1  C2' OXE d   1      -0.378   0.456  -1.932  0.00  0.00     0.078 C 
ATOM      2  C1' OXE d   1       0.988   0.041   0.485  0.00  0.00     0.078 C 
ATOM      3  C1  OXE d   1      -0.384  -0.567   0.340  0.00  0.00    -0.078 A 
ATOM      4  C2  OXE d   1      -1.064  -0.320  -0.828  0.00  0.00    -0.078 A 
ATOM      5  C3  OXE d   1      -2.311  -0.902  -1.037  0.00  0.00     0.003 A 
ATOM      6  C4  OXE d   1      -2.944  -1.610  -0.007  0.00  0.00    -0.002 A 
ATOM      7  C5  OXE d   1      -2.285  -1.840   1.205  0.00  0.00    -0.002 A 
ATOM      8  C6  OXE d   1      -0.991  -1.363   1.378  0.00  0.00     0.003 A 
ENDROOT
TORSDOF 0
ENDMDL
