MODEL 1
REMARK minimizedAffinity -5.15567112
REMARK minimizedRMSD -1
REMARK  0 active torsions:
REMARK  status: ('A' for Active; 'I' for Inactive)
ROOT
ATOM      1  C2' OXE d   1      -0.666  -2.684   2.310  0.00  0.00     0.078 C 
ATOM      2  C1' OXE d   1       0.366  -0.427   0.997  0.00  0.00     0.078 C 
ATOM      3  C1  OXE d   1      -0.995  -0.925   0.577  0.00  0.00    -0.078 A 
ATOM      4  C2  OXE d   1      -1.472  -2.057   1.193  0.00  0.00    -0.078 A 
ATOM      5  C3  OXE d   1      -2.745  -2.527   0.882  0.00  0.00     0.003 A 
ATOM      6  C4  OXE d   1      -3.480  -1.947  -0.159  0.00  0.00    -0.002 A 
ATOM      7  C5  OXE d   1      -2.995  -0.817  -0.826  0.00  0.00    -0.002 A 
ATOM      8  C6  OXE d   1      -1.776  -0.269  -0.442  0.00  0.00     0.003 A 
ENDROOT
TORSDOF 0
ENDMDL
