MODEL 1
REMARK minimizedAffinity -4.34157896
REMARK minimizedRMSD -1
REMARK  0 active torsions:
REMARK  status: ('A' for Active; 'I' for Inactive)
ROOT
ATOM      1  C2' OXE d   1       1.338   0.771  -0.137  0.00  0.00     0.078 C 
ATOM      2  C1' OXE d   1      -0.268   1.232  -2.393  0.00  0.00     0.078 C 
ATOM      3  C1  OXE d   1      -0.839   0.385  -1.283  0.00  0.00    -0.078 A 
ATOM      4  C2  OXE d   1      -0.029   0.126  -0.204  0.00  0.00    -0.078 A 
ATOM      5  C3  OXE d   1      -0.526  -0.604   0.872  0.00  0.00     0.003 A 
ATOM      6  C4  OXE d   1      -1.788  -1.206   0.797  0.00  0.00    -0.002 A 
ATOM      7  C5  OXE d   1      -2.615  -0.987  -0.310  0.00  0.00    -0.002 A 
ATOM      8  C6  OXE d   1      -2.173  -0.161  -1.338  0.00  0.00     0.003 A 
ENDROOT
TORSDOF 0
ENDMDL
