MODEL 1
REMARK minimizedAffinity -6.08792496
REMARK minimizedRMSD -1
REMARK  0 active torsions:
REMARK  status: ('A' for Active; 'I' for Inactive)
ROOT
ATOM      1  C2' OXE d   1       0.592  -2.165   1.304  0.00  0.00     0.078 C 
ATOM      2  C1' OXE d   1       0.619   0.126  -0.318  0.00  0.00     0.078 C 
ATOM      3  C1  OXE d   1      -0.721  -0.451   0.062  0.00  0.00    -0.078 A 
ATOM      4  C2  OXE d   1      -0.724  -1.599   0.817  0.00  0.00    -0.078 A 
ATOM      5  C3  OXE d   1      -1.934  -2.143   1.241  0.00  0.00     0.003 A 
ATOM      6  C4  OXE d   1      -3.147  -1.619   0.778  0.00  0.00    -0.002 A 
ATOM      7  C5  OXE d   1      -3.166  -0.473  -0.024  0.00  0.00    -0.002 A 
ATOM      8  C6  OXE d   1      -1.966   0.146  -0.355  0.00  0.00     0.003 A 
ENDROOT
TORSDOF 0
ENDMDL
