MODEL 1
REMARK minimizedAffinity -5.94385433
REMARK minimizedRMSD -1
REMARK  0 active torsions:
REMARK  status: ('A' for Active; 'I' for Inactive)
ROOT
ATOM      1  C2' OXE d   1      -1.793  -2.286   2.017  0.00  0.00     0.078 C 
ATOM      2  C1' OXE d   1      -3.193  -0.915   0.006  0.00  0.00     0.078 C 
ATOM      3  C1  OXE d   1      -1.689  -0.807   0.015  0.00  0.00    -0.078 A 
ATOM      4  C2  OXE d   1      -1.015  -1.442   1.030  0.00  0.00    -0.078 A 
ATOM      5  C3  OXE d   1       0.377  -1.420   1.054  0.00  0.00     0.003 A 
ATOM      6  C4  OXE d   1       1.088  -0.629   0.143  0.00  0.00    -0.002 A 
ATOM      7  C5  OXE d   1       0.419   0.058  -0.875  0.00  0.00    -0.002 A 
ATOM      8  C6  OXE d   1      -0.963  -0.054  -0.978  0.00  0.00     0.003 A 
ENDROOT
TORSDOF 0
ENDMDL
