MODEL 1
REMARK minimizedAffinity -6.06389093
REMARK minimizedRMSD -1
REMARK  0 active torsions:
REMARK  status: ('A' for Active; 'I' for Inactive)
ROOT
ATOM      1  C2' OXE d   1      -1.309   0.514  -1.497  0.00  0.00     0.078 C 
ATOM      2  C1' OXE d   1       0.852  -0.008   0.218  0.00  0.00     0.078 C 
ATOM      3  C1  OXE d   1      -0.385  -0.859   0.365  0.00  0.00    -0.078 A 
ATOM      4  C2  OXE d   1      -1.454  -0.567  -0.447  0.00  0.00    -0.078 A 
ATOM      5  C3  OXE d   1      -2.599  -1.356  -0.390  0.00  0.00     0.003 A 
ATOM      6  C4  OXE d   1      -2.729  -2.347   0.591  0.00  0.00    -0.002 A 
ATOM      7  C5  OXE d   1      -1.667  -2.635   1.454  0.00  0.00    -0.002 A 
ATOM      8  C6  OXE d   1      -0.475  -1.930   1.327  0.00  0.00     0.003 A 
ENDROOT
TORSDOF 0
ENDMDL
