MODEL 1
REMARK minimizedAffinity -4.01043844
REMARK minimizedRMSD -1
REMARK  0 active torsions:
REMARK  status: ('A' for Active; 'I' for Inactive)
ROOT
ATOM      1  C2' OXE d   1      -0.667   0.986  -1.613  0.00  0.00     0.078 C 
ATOM      2  C1' OXE d   1       0.866   0.071   0.553  0.00  0.00     0.078 C 
ATOM      3  C1  OXE d   1      -0.487  -0.559   0.333  0.00  0.00    -0.078 A 
ATOM      4  C2  OXE d   1      -1.250  -0.072  -0.701  0.00  0.00    -0.078 A 
ATOM      5  C3  OXE d   1      -2.482  -0.655  -0.981  0.00  0.00     0.003 A 
ATOM      6  C4  OXE d   1      -3.018  -1.626  -0.127  0.00  0.00    -0.002 A 
ATOM      7  C5  OXE d   1      -2.274  -2.107   0.956  0.00  0.00    -0.002 A 
ATOM      8  C6  OXE d   1      -0.992  -1.616   1.174  0.00  0.00     0.003 A 
ENDROOT
TORSDOF 0
ENDMDL
