MODEL 1
REMARK minimizedAffinity -6.2878685
REMARK minimizedRMSD -1
REMARK  0 active torsions:
REMARK  status: ('A' for Active; 'I' for Inactive)
ROOT
ATOM      1  C2' OXE d   1      -1.153   0.703  -1.471  0.00  0.00     0.078 C 
ATOM      2  C1' OXE d   1       0.737   0.008   0.485  0.00  0.00     0.078 C 
ATOM      3  C1  OXE d   1      -0.619  -0.651   0.551  0.00  0.00    -0.078 A 
ATOM      4  C2  OXE d   1      -1.553  -0.270  -0.383  0.00  0.00    -0.078 A 
ATOM      5  C3  OXE d   1      -2.801  -0.886  -0.400  0.00  0.00     0.003 A 
ATOM      6  C4  OXE d   1      -3.166  -1.777   0.616  0.00  0.00    -0.002 A 
ATOM      7  C5  OXE d   1      -2.243  -2.149   1.599  0.00  0.00    -0.002 A 
ATOM      8  C6  OXE d   1      -0.954  -1.628   1.556  0.00  0.00     0.003 A 
ENDROOT
TORSDOF 0
ENDMDL
