MODEL 1
REMARK minimizedAffinity -6.09490538
REMARK minimizedRMSD -1
REMARK  0 active torsions:
REMARK  status: ('A' for Active; 'I' for Inactive)
ROOT
ATOM      1  C2' OXE d   1      -3.143  -0.561  -0.583  0.00  0.00     0.078 C 
ATOM      2  C1' OXE d   1      -2.252  -2.586   1.145  0.00  0.00     0.078 C 
ATOM      3  C1  OXE d   1      -1.245  -1.562   0.682  0.00  0.00    -0.078 A 
ATOM      4  C2  OXE d   1      -1.679  -0.602  -0.200  0.00  0.00    -0.078 A 
ATOM      5  C3  OXE d   1      -0.805   0.398  -0.616  0.00  0.00     0.003 A 
ATOM      6  C4  OXE d   1       0.550   0.346  -0.265  0.00  0.00    -0.002 A 
ATOM      7  C5  OXE d   1       1.021  -0.646   0.601  0.00  0.00    -0.002 A 
ATOM      8  C6  OXE d   1       0.130  -1.581   1.116  0.00  0.00     0.003 A 
ENDROOT
TORSDOF 0
ENDMDL
