MODEL 1
REMARK minimizedAffinity -5.95457268
REMARK minimizedRMSD -1
REMARK  0 active torsions:
REMARK  status: ('A' for Active; 'I' for Inactive)
ROOT
ATOM      1  C2' OXE d   1      -0.759   1.034  -1.561  0.00  0.00     0.078 C 
ATOM      2  C1' OXE d   1       1.002   0.158   0.442  0.00  0.00     0.078 C 
ATOM      3  C1  OXE d   1      -0.394  -0.413   0.434  0.00  0.00    -0.078 A 
ATOM      4  C2  OXE d   1      -1.263   0.056  -0.521  0.00  0.00    -0.078 A 
ATOM      5  C3  OXE d   1      -2.546  -0.478  -0.607  0.00  0.00     0.003 A 
ATOM      6  C4  OXE d   1      -3.007  -1.374   0.364  0.00  0.00    -0.002 A 
ATOM      7  C5  OXE d   1      -2.150  -1.834   1.370  0.00  0.00    -0.002 A 
ATOM      8  C6  OXE d   1      -0.831  -1.397   1.393  0.00  0.00     0.003 A 
ENDROOT
TORSDOF 0
ENDMDL
