MODEL 1
REMARK minimizedAffinity -5.08914471
REMARK minimizedRMSD -1
REMARK  0 active torsions:
REMARK  status: ('A' for Active; 'I' for Inactive)
ROOT
ATOM      1  C2' OXE d   1      -0.639   0.898  -1.420  0.00  0.00     0.078 C 
ATOM      2  C1' OXE d   1       0.867  -0.166   0.697  0.00  0.00     0.078 C 
ATOM      3  C1  OXE d   1      -0.505  -0.742   0.450  0.00  0.00    -0.078 A 
ATOM      4  C2  OXE d   1      -1.253  -0.184  -0.559  0.00  0.00    -0.078 A 
ATOM      5  C3  OXE d   1      -2.504  -0.714  -0.864  0.00  0.00     0.003 A 
ATOM      6  C4  OXE d   1      -3.069  -1.708  -0.056  0.00  0.00    -0.002 A 
ATOM      7  C5  OXE d   1      -2.340  -2.263   1.001  0.00  0.00    -0.002 A 
ATOM      8  C6  OXE d   1      -1.043  -1.822   1.240  0.00  0.00     0.003 A 
ENDROOT
TORSDOF 0
ENDMDL
