MODEL 1
REMARK minimizedAffinity -3.01413083
REMARK minimizedRMSD -1
REMARK  0 active torsions:
REMARK  status: ('A' for Active; 'I' for Inactive)
ROOT
ATOM      1  C2' OXE d   1       1.109   0.250  -0.011  0.00  0.00     0.078 C 
ATOM      2  C1' OXE d   1      -0.396   1.173  -2.193  0.00  0.00     0.078 C 
ATOM      3  C1  OXE d   1      -1.115   0.388  -1.125  0.00  0.00    -0.078 A 
ATOM      4  C2  OXE d   1      -0.362  -0.099  -0.084  0.00  0.00    -0.078 A 
ATOM      5  C3  OXE d   1      -0.985  -0.783   0.956  0.00  0.00     0.003 A 
ATOM      6  C4  OXE d   1      -2.344  -1.111   0.876  0.00  0.00    -0.002 A 
ATOM      7  C5  OXE d   1      -3.121  -0.658  -0.195  0.00  0.00    -0.002 A 
ATOM      8  C6  OXE d   1      -2.532   0.128  -1.180  0.00  0.00     0.003 A 
ENDROOT
TORSDOF 0
ENDMDL
