MODEL 1
REMARK minimizedAffinity -6.20361757
REMARK minimizedRMSD -1
REMARK  0 active torsions:
REMARK  status: ('A' for Active; 'I' for Inactive)
ROOT
ATOM      1  C2' OXE d   1      -0.676   0.844  -1.756  0.00  0.00     0.078 C 
ATOM      2  C1' OXE d   1       0.917  -0.305   0.249  0.00  0.00     0.078 C 
ATOM      3  C1  OXE d   1      -0.532  -0.718   0.179  0.00  0.00    -0.078 A 
ATOM      4  C2  OXE d   1      -1.316  -0.116  -0.776  0.00  0.00    -0.078 A 
ATOM      5  C3  OXE d   1      -2.646  -0.501  -0.920  0.00  0.00     0.003 A 
ATOM      6  C4  OXE d   1      -3.232  -1.382  -0.003  0.00  0.00    -0.002 A 
ATOM      7  C5  OXE d   1      -2.461  -1.977   1.002  0.00  0.00    -0.002 A 
ATOM      8  C6  OXE d   1      -1.103  -1.689   1.080  0.00  0.00     0.003 A 
ENDROOT
TORSDOF 0
ENDMDL
