MODEL 1
REMARK minimizedAffinity -6.5870142
REMARK minimizedRMSD -1
REMARK  0 active torsions:
REMARK  status: ('A' for Active; 'I' for Inactive)
ROOT
ATOM      1  C2' OXE d   1      -0.722   0.757  -1.710  0.00  0.00     0.078 C 
ATOM      2  C1' OXE d   1       0.889  -0.308   0.328  0.00  0.00     0.078 C 
ATOM      3  C1  OXE d   1      -0.536  -0.794   0.230  0.00  0.00    -0.078 A 
ATOM      4  C2  OXE d   1      -1.330  -0.234  -0.740  0.00  0.00    -0.078 A 
ATOM      5  C3  OXE d   1      -2.636  -0.686  -0.909  0.00  0.00     0.003 A 
ATOM      6  C4  OXE d   1      -3.194  -1.595  -0.002  0.00  0.00    -0.002 A 
ATOM      7  C5  OXE d   1      -2.413  -2.149   1.019  0.00  0.00    -0.002 A 
ATOM      8  C6  OXE d   1      -1.074  -1.792   1.122  0.00  0.00     0.003 A 
ENDROOT
TORSDOF 0
ENDMDL
