MODEL 1
REMARK minimizedAffinity -5.54665041
REMARK minimizedRMSD -1
REMARK  0 active torsions:
REMARK  status: ('A' for Active; 'I' for Inactive)
ROOT
ATOM      1  C2' OXE d   1      -3.299  -1.139  -0.327  0.00  0.00     0.078 C 
ATOM      2  C1' OXE d   1      -1.698  -2.083   1.777  0.00  0.00     0.078 C 
ATOM      3  C1  OXE d   1      -1.034  -1.260   0.701  0.00  0.00    -0.078 A 
ATOM      4  C2  OXE d   1      -1.815  -0.842  -0.349  0.00  0.00    -0.078 A 
ATOM      5  C3  OXE d   1      -1.264  -0.035  -1.340  0.00  0.00     0.003 A 
ATOM      6  C4  OXE d   1       0.111   0.227  -1.358  0.00  0.00    -0.002 A 
ATOM      7  C5  OXE d   1       0.933  -0.223  -0.319  0.00  0.00    -0.002 A 
ATOM      8  C6  OXE d   1       0.370  -0.930   0.738  0.00  0.00     0.003 A 
ENDROOT
TORSDOF 0
ENDMDL
