MODEL 1
REMARK minimizedAffinity -4.71372747
REMARK minimizedRMSD -1
REMARK  0 active torsions:
REMARK  status: ('A' for Active; 'I' for Inactive)
ROOT
ATOM      1  C2' OXE d   1       1.062  -0.085   0.150  0.00  0.00     0.078 C 
ATOM      2  C1' OXE d   1      -0.518   0.800  -1.995  0.00  0.00     0.078 C 
ATOM      3  C1  OXE d   1      -1.173  -0.068  -0.950  0.00  0.00    -0.078 A 
ATOM      4  C2  OXE d   1      -0.381  -0.535   0.071  0.00  0.00    -0.078 A 
ATOM      5  C3  OXE d   1      -0.947  -1.295   1.091  0.00  0.00     0.003 A 
ATOM      6  C4  OXE d   1      -2.280  -1.715   1.005  0.00  0.00    -0.002 A 
ATOM      7  C5  OXE d   1      -3.094  -1.283  -0.047  0.00  0.00    -0.002 A 
ATOM      8  C6  OXE d   1      -2.569  -0.426  -1.008  0.00  0.00     0.003 A 
ENDROOT
TORSDOF 0
ENDMDL
