MODEL 1
REMARK minimizedAffinity -3.87839627
REMARK minimizedRMSD -1
REMARK  2 active torsions:
REMARK  status: ('A' for Active; 'I' for Inactive)
REMARK    1  A    between atoms: C2'_3  and  C1'_4 
REMARK    2  A    between atoms: C1'_4  and  C1_5 
ROOT
ATOM      1  C1  I4B d   1       0.826   0.052  -2.393  0.00  0.00    -0.075 A 
ATOM      2  C2  I4B d   1       1.944   0.648  -2.921  0.00  0.00     0.003 A 
ATOM      3  C3  I4B d   1       2.799  -0.078  -3.785  0.00  0.00     0.002 A 
ATOM      4  C4  I4B d   1       2.527  -1.404  -4.053  0.00  0.00    -0.004 A 
ATOM      5  C5  I4B d   1       1.380  -2.000  -3.535  0.00  0.00     0.002 A 
ATOM      6  C6  I4B d   1       0.517  -1.264  -2.710  0.00  0.00     0.003 A 
ENDROOT
BRANCH   1   7
ATOM      7  C1' I4B d   1      -0.037   0.839  -1.458  0.00  0.00     0.060 C 
BRANCH   7   8
ATOM      8  C2' I4B d   1       0.032   0.181  -0.095  0.00  0.00    -0.013 C 
ATOM      9  C4' I4B d   1       1.193   0.708   0.707  0.00  0.00     0.013 C 
ATOM     10  C3' I4B d   1      -1.269   0.432   0.607  0.00  0.00     0.013 C 
ENDBRANCH   7   8
ENDBRANCH   1   7
TORSDOF 2
ENDMDL
