MODEL 1
REMARK minimizedAffinity -3.34953499
REMARK minimizedRMSD -1
REMARK  2 active torsions:
REMARK  status: ('A' for Active; 'I' for Inactive)
REMARK    1  A    between atoms: C2'_3  and  C1'_4 
REMARK    2  A    between atoms: C1'_4  and  C1_5 
ROOT
ATOM      1  C1  I4B d   1       0.685  -0.205  -1.688  0.00  0.00    -0.075 A 
ATOM      2  C2  I4B d   1       0.867  -1.511  -2.069  0.00  0.00     0.003 A 
ATOM      3  C3  I4B d   1       1.225  -1.820  -3.404  0.00  0.00     0.002 A 
ATOM      4  C4  I4B d   1       1.340  -0.804  -4.330  0.00  0.00    -0.004 A 
ATOM      5  C5  I4B d   1       1.178   0.521  -3.936  0.00  0.00     0.002 A 
ATOM      6  C6  I4B d   1       0.861   0.824  -2.604  0.00  0.00     0.003 A 
ENDROOT
BRANCH   1   7
ATOM      7  C1' I4B d   1       0.276   0.084  -0.279  0.00  0.00     0.060 C 
BRANCH   7   8
ATOM      8  C2' I4B d   1       1.498  -0.067   0.603  0.00  0.00    -0.013 C 
ATOM      9  C4' I4B d   1       2.219   1.245   0.766  0.00  0.00     0.013 C 
ATOM     10  C3' I4B d   1       1.049  -0.606   1.929  0.00  0.00     0.013 C 
ENDBRANCH   7   8
ENDBRANCH   1   7
TORSDOF 2
ENDMDL
