MODEL 1
REMARK minimizedAffinity -5.15653706
REMARK minimizedRMSD -1
REMARK  2 active torsions:
REMARK  status: ('A' for Active; 'I' for Inactive)
REMARK    1  A    between atoms: C2'_3  and  C1'_4 
REMARK    2  A    between atoms: C1'_4  and  C1_5 
ROOT
ATOM      1  C1  I4B d   1      -0.292  -0.347   1.548  0.00  0.00    -0.075 A 
ATOM      2  C2  I4B d   1      -0.955  -0.339   0.347  0.00  0.00     0.003 A 
ATOM      3  C3  I4B d   1      -0.385   0.304  -0.778  0.00  0.00     0.002 A 
ATOM      4  C4  I4B d   1       0.819   0.965  -0.645  0.00  0.00    -0.004 A 
ATOM      5  C5  I4B d   1       1.501   0.937   0.568  0.00  0.00     0.002 A 
ATOM      6  C6  I4B d   1       0.949   0.266   1.668  0.00  0.00     0.003 A 
ENDROOT
BRANCH   1   7
ATOM      7  C1' I4B d   1      -0.939  -1.007   2.725  0.00  0.00     0.060 C 
BRANCH   7   8
ATOM      8  C2' I4B d   1      -2.131  -0.167   3.134  0.00  0.00    -0.013 C 
ATOM      9  C4' I4B d   1      -1.725   1.257   3.413  0.00  0.00     0.013 C 
ATOM     10  C3' I4B d   1      -3.146  -0.235   2.032  0.00  0.00     0.013 C 
ENDBRANCH   7   8
ENDBRANCH   1   7
TORSDOF 2
ENDMDL
