MODEL 1
REMARK minimizedAffinity -4.77488518
REMARK minimizedRMSD -1
REMARK  2 active torsions:
REMARK  status: ('A' for Active; 'I' for Inactive)
REMARK    1  A    between atoms: C2'_3  and  C1'_4 
REMARK    2  A    between atoms: C1'_4  and  C1_5 
ROOT
ATOM      1  C1  I4B d   1       3.748   2.147  -4.399  0.00  0.00    -0.075 A 
ATOM      2  C2  I4B d   1       2.982   2.996  -5.157  0.00  0.00     0.003 A 
ATOM      3  C3  I4B d   1       3.599   3.959  -5.992  0.00  0.00     0.002 A 
ATOM      4  C4  I4B d   1       4.974   4.071  -6.000  0.00  0.00    -0.004 A 
ATOM      5  C5  I4B d   1       5.750   3.193  -5.248  0.00  0.00     0.002 A 
ATOM      6  C6  I4B d   1       5.134   2.217  -4.452  0.00  0.00     0.003 A 
ENDROOT
BRANCH   1   7
ATOM      7  C1' I4B d   1       3.063   1.163  -3.504  0.00  0.00     0.060 C 
BRANCH   7   8
ATOM      8  C2' I4B d   1       2.761  -0.078  -4.319  0.00  0.00    -0.013 C 
ATOM      9  C4' I4B d   1       4.009  -0.629  -4.957  0.00  0.00     0.013 C 
ATOM     10  C3' I4B d   1       2.127  -1.087  -3.407  0.00  0.00     0.013 C 
ENDBRANCH   7   8
ENDBRANCH   1   7
TORSDOF 2
ENDMDL
