MODEL 1
REMARK minimizedAffinity -3.98104763
REMARK minimizedRMSD -1
REMARK  2 active torsions:
REMARK  status: ('A' for Active; 'I' for Inactive)
REMARK    1  A    between atoms: C2'_3  and  C1'_4 
REMARK    2  A    between atoms: C1'_4  and  C1_5 
ROOT
ATOM      1  C1  I4B d   1       0.197   0.124  -0.486  0.00  0.00    -0.075 A 
ATOM      2  C2  I4B d   1      -1.036  -0.381  -0.155  0.00  0.00     0.003 A 
ATOM      3  C3  I4B d   1      -1.428  -0.471   1.203  0.00  0.00     0.002 A 
ATOM      4  C4  I4B d   1      -0.542  -0.094   2.192  0.00  0.00    -0.004 A 
ATOM      5  C5  I4B d   1       0.698   0.439   1.853  0.00  0.00     0.002 A 
ATOM      6  C6  I4B d   1       1.065   0.561   0.506  0.00  0.00     0.003 A 
ENDROOT
BRANCH   1   7
ATOM      7  C1' I4B d   1       0.591   0.175  -1.928  0.00  0.00     0.060 C 
BRANCH   7   8
ATOM      8  C2' I4B d   1       0.672  -1.249  -2.440  0.00  0.00    -0.013 C 
ATOM      9  C4' I4B d   1      -0.443  -1.545  -3.408  0.00  0.00     0.013 C 
ATOM     10  C3' I4B d   1       2.013  -1.433  -3.085  0.00  0.00     0.013 C 
ENDBRANCH   7   8
ENDBRANCH   1   7
TORSDOF 2
ENDMDL
