MODEL 1
REMARK minimizedAffinity -4.37286711
REMARK minimizedRMSD -1
REMARK  2 active torsions:
REMARK  status: ('A' for Active; 'I' for Inactive)
REMARK    1  A    between atoms: C2'_3  and  C1'_4 
REMARK    2  A    between atoms: C1'_4  and  C1_5 
ROOT
ATOM      1  C1  I4B d   1      -0.088   0.425  -0.560  0.00  0.00    -0.075 A 
ATOM      2  C2  I4B d   1       1.061   0.564   0.178  0.00  0.00     0.003 A 
ATOM      3  C3  I4B d   1       1.037   0.363   1.579  0.00  0.00     0.002 A 
ATOM      4  C4  I4B d   1      -0.159   0.077   2.205  0.00  0.00    -0.004 A 
ATOM      5  C5  I4B d   1      -1.319  -0.087   1.452  0.00  0.00     0.002 A 
ATOM      6  C6  I4B d   1      -1.282   0.076   0.060  0.00  0.00     0.003 A 
ENDROOT
BRANCH   1   7
ATOM      7  C1' I4B d   1      -0.034   0.676  -2.033  0.00  0.00     0.060 C 
BRANCH   7   8
ATOM      8  C2' I4B d   1       0.718  -0.472  -2.675  0.00  0.00    -0.013 C 
ATOM      9  C4' I4B d   1      -0.136  -1.182  -3.692  0.00  0.00     0.013 C 
ATOM     10  C3' I4B d   1       1.961   0.082  -3.305  0.00  0.00     0.013 C 
ENDBRANCH   7   8
ENDBRANCH   1   7
TORSDOF 2
ENDMDL
