MODEL 1
REMARK minimizedAffinity -0.124361023
REMARK minimizedRMSD -1
REMARK  2 active torsions:
REMARK  status: ('A' for Active; 'I' for Inactive)
REMARK    1  A    between atoms: C2'_3  and  C1'_4 
REMARK    2  A    between atoms: C1'_4  and  C1_5 
ROOT
ATOM      1  C1  I4B d   1       0.279   0.021  -0.767  0.00  0.00    -0.075 A 
ATOM      2  C2  I4B d   1      -1.091  -0.059  -0.731  0.00  0.00     0.003 A 
ATOM      3  C3  I4B d   1      -1.766  -0.184   0.507  0.00  0.00     0.002 A 
ATOM      4  C4  I4B d   1      -1.034  -0.276   1.673  0.00  0.00    -0.004 A 
ATOM      5  C5  I4B d   1       0.354  -0.172   1.637  0.00  0.00     0.002 A 
ATOM      6  C6  I4B d   1       1.014  -0.011   0.410  0.00  0.00     0.003 A 
ENDROOT
BRANCH   1   7
ATOM      7  C1' I4B d   1       0.960   0.119  -2.095  0.00  0.00     0.060 C 
BRANCH   7   8
ATOM      8  C2' I4B d   1       1.177  -1.288  -2.614  0.00  0.00    -0.013 C 
ATOM      9  C4' I4B d   1      -0.049  -1.805  -3.319  0.00  0.00     0.013 C 
ATOM     10  C3' I4B d   1       2.361  -1.265  -3.534  0.00  0.00     0.013 C 
ENDBRANCH   7   8
ENDBRANCH   1   7
TORSDOF 2
ENDMDL
