MODEL 1
REMARK minimizedAffinity -5.1582036
REMARK minimizedRMSD -1
REMARK  2 active torsions:
REMARK  status: ('A' for Active; 'I' for Inactive)
REMARK    1  A    between atoms: C2'_3  and  C1'_4 
REMARK    2  A    between atoms: C1'_4  and  C1_5 
ROOT
ATOM      1  C1  I4B d   1      -0.089   0.498  -0.658  0.00  0.00    -0.075 A 
ATOM      2  C2  I4B d   1       0.623   0.177   0.470  0.00  0.00     0.003 A 
ATOM      3  C3  I4B d   1      -0.036   0.058   1.718  0.00  0.00     0.002 A 
ATOM      4  C4  I4B d   1      -1.389   0.316   1.801  0.00  0.00    -0.004 A 
ATOM      5  C5  I4B d   1      -2.113   0.619   0.651  0.00  0.00     0.002 A 
ATOM      6  C6  I4B d   1      -1.462   0.698  -0.589  0.00  0.00     0.003 A 
ENDROOT
BRANCH   1   7
ATOM      7  C1' I4B d   1       0.643   0.647  -1.954  0.00  0.00     0.060 C 
BRANCH   7   8
ATOM      8  C2' I4B d   1       0.859  -0.737  -2.531  0.00  0.00    -0.013 C 
ATOM      9  C4' I4B d   1      -0.374  -1.230  -3.241  0.00  0.00     0.013 C 
ATOM     10  C3' I4B d   1       2.031  -0.673  -3.464  0.00  0.00     0.013 C 
ENDBRANCH   7   8
ENDBRANCH   1   7
TORSDOF 2
ENDMDL
