MODEL 1
REMARK minimizedAffinity -3.95254827
REMARK minimizedRMSD -1
REMARK  2 active torsions:
REMARK  status: ('A' for Active; 'I' for Inactive)
REMARK    1  A    between atoms: C2'_3  and  C1'_4 
REMARK    2  A    between atoms: C1'_4  and  C1_5 
ROOT
ATOM      1  C1  I4B d   1       1.078   0.189  -0.580  0.00  0.00    -0.075 A 
ATOM      2  C2  I4B d   1       2.043  -0.019   0.374  0.00  0.00     0.003 A 
ATOM      3  C3  I4B d   1       1.703  -0.002   1.748  0.00  0.00     0.002 A 
ATOM      4  C4  I4B d   1       0.404   0.275   2.123  0.00  0.00    -0.004 A 
ATOM      5  C5  I4B d   1      -0.578   0.463   1.154  0.00  0.00     0.002 A 
ATOM      6  C6  I4B d   1      -0.241   0.408  -0.206  0.00  0.00     0.003 A 
ENDROOT
BRANCH   1   7
ATOM      7  C1' I4B d   1       1.479   0.197  -2.021  0.00  0.00     0.060 C 
BRANCH   7   8
ATOM      8  C2' I4B d   1       0.864  -1.019  -2.683  0.00  0.00    -0.013 C 
ATOM      9  C4' I4B d   1       0.003  -0.626  -3.854  0.00  0.00     0.013 C 
ATOM     10  C3' I4B d   1       1.979  -1.926  -3.111  0.00  0.00     0.013 C 
ENDBRANCH   7   8
ENDBRANCH   1   7
TORSDOF 2
ENDMDL
