MODEL 1
REMARK minimizedAffinity -5.3827529
REMARK minimizedRMSD -1
REMARK  2 active torsions:
REMARK  status: ('A' for Active; 'I' for Inactive)
REMARK    1  A    between atoms: C2'_3  and  C1'_4 
REMARK    2  A    between atoms: C1'_4  and  C1_5 
ROOT
ATOM      1  C1  I4B d   1       0.115  -0.018  -0.110  0.00  0.00    -0.075 A 
ATOM      2  C2  I4B d   1      -1.034  -0.531   0.440  0.00  0.00     0.003 A 
ATOM      3  C3  I4B d   1      -1.128  -0.728   1.839  0.00  0.00     0.002 A 
ATOM      4  C4  I4B d   1      -0.040  -0.447   2.640  0.00  0.00    -0.004 A 
ATOM      5  C5  I4B d   1       1.115   0.094   2.083  0.00  0.00     0.002 A 
ATOM      6  C6  I4B d   1       1.189   0.322   0.702  0.00  0.00     0.003 A 
ENDROOT
BRANCH   1   7
ATOM      7  C1' I4B d   1       0.192   0.146  -1.595  0.00  0.00     0.060 C 
BRANCH   7   8
ATOM      8  C2' I4B d   1       0.822  -1.106  -2.170  0.00  0.00    -0.013 C 
ATOM      9  C4' I4B d   1      -0.202  -1.957  -2.875  0.00  0.00     0.013 C 
ATOM     10  C3' I4B d   1       1.915  -0.686  -3.107  0.00  0.00     0.013 C 
ENDBRANCH   7   8
ENDBRANCH   1   7
TORSDOF 2
ENDMDL
