MODEL 1
REMARK minimizedAffinity -4.57236481
REMARK minimizedRMSD -1
REMARK  2 active torsions:
REMARK  status: ('A' for Active; 'I' for Inactive)
REMARK    1  A    between atoms: C2'_3  and  C1'_4 
REMARK    2  A    between atoms: C1'_4  and  C1_5 
ROOT
ATOM      1  C1  I4B d   1      -0.890   0.275  -0.502  0.00  0.00    -0.075 A 
ATOM      2  C2  I4B d   1      -0.158  -0.299   0.508  0.00  0.00     0.003 A 
ATOM      3  C3  I4B d   1      -0.770  -0.605   1.747  0.00  0.00     0.002 A 
ATOM      4  C4  I4B d   1      -2.095  -0.277   1.950  0.00  0.00    -0.004 A 
ATOM      5  C5  I4B d   1      -2.842   0.284   0.918  0.00  0.00     0.002 A 
ATOM      6  C6  I4B d   1      -2.239   0.550  -0.320  0.00  0.00     0.003 A 
ENDROOT
BRANCH   1   7
ATOM      7  C1' I4B d   1      -0.204   0.616  -1.786  0.00  0.00     0.060 C 
BRANCH   7   8
ATOM      8  C2' I4B d   1       0.409  -0.655  -2.339  0.00  0.00    -0.013 C 
ATOM      9  C4' I4B d   1      -0.629  -1.514  -3.011  0.00  0.00     0.013 C 
ATOM     10  C3' I4B d   1       1.494  -0.266  -3.298  0.00  0.00     0.013 C 
ENDBRANCH   7   8
ENDBRANCH   1   7
TORSDOF 2
ENDMDL
