MODEL 1
REMARK minimizedAffinity -4.41877651
REMARK minimizedRMSD -1
REMARK  2 active torsions:
REMARK  status: ('A' for Active; 'I' for Inactive)
REMARK    1  A    between atoms: C2'_3  and  C1'_4 
REMARK    2  A    between atoms: C1'_4  and  C1_5 
ROOT
ATOM      1  C1  I4B d   1      -1.151  -0.543   1.039  0.00  0.00    -0.075 A 
ATOM      2  C2  I4B d   1      -0.675  -0.667   2.320  0.00  0.00     0.003 A 
ATOM      3  C3  I4B d   1      -1.388  -0.099   3.403  0.00  0.00     0.002 A 
ATOM      4  C4  I4B d   1      -2.539   0.622   3.156  0.00  0.00    -0.004 A 
ATOM      5  C5  I4B d   1      -3.032   0.727   1.859  0.00  0.00     0.002 A 
ATOM      6  C6  I4B d   1      -2.341   0.131   0.795  0.00  0.00     0.003 A 
ENDROOT
BRANCH   1   7
ATOM      7  C1' I4B d   1      -0.355  -1.127  -0.085  0.00  0.00     0.060 C 
BRANCH   7   8
ATOM      8  C2' I4B d   1       0.057   0.006  -1.003  0.00  0.00    -0.013 C 
ATOM      9  C4' I4B d   1       1.213   0.781  -0.428  0.00  0.00     0.013 C 
ATOM     10  C3' I4B d   1       0.409  -0.583  -2.336  0.00  0.00     0.013 C 
ENDBRANCH   7   8
ENDBRANCH   1   7
TORSDOF 2
ENDMDL
