MODEL 1
REMARK minimizedAffinity -3.48801637
REMARK minimizedRMSD -1
REMARK  2 active torsions:
REMARK  status: ('A' for Active; 'I' for Inactive)
REMARK    1  A    between atoms: C2'_3  and  C1'_4 
REMARK    2  A    between atoms: C1'_4  and  C1_5 
ROOT
ATOM      1  C1  I4B d   1      -0.890  -0.527   1.078  0.00  0.00    -0.075 A 
ATOM      2  C2  I4B d   1      -2.093   0.084   0.828  0.00  0.00     0.003 A 
ATOM      3  C3  I4B d   1      -2.881   0.571   1.899  0.00  0.00     0.002 A 
ATOM      4  C4  I4B d   1      -2.455   0.382   3.198  0.00  0.00    -0.004 A 
ATOM      5  C5  I4B d   1      -1.224  -0.217   3.448  0.00  0.00     0.002 A 
ATOM      6  C6  I4B d   1      -0.430  -0.664   2.382  0.00  0.00     0.003 A 
ENDROOT
BRANCH   1   7
ATOM      7  C1' I4B d   1      -0.099  -1.059  -0.074  0.00  0.00     0.060 C 
BRANCH   7   8
ATOM      8  C2' I4B d   1       0.541   0.116  -0.784  0.00  0.00    -0.013 C 
ATOM      9  C4' I4B d   1       1.679   0.686   0.021  0.00  0.00     0.013 C 
ATOM     10  C3' I4B d   1       1.010  -0.354  -2.128  0.00  0.00     0.013 C 
ENDBRANCH   7   8
ENDBRANCH   1   7
TORSDOF 2
ENDMDL
