MODEL 1
REMARK minimizedAffinity 1.1298033
REMARK minimizedRMSD -1
REMARK  3 active torsions:
REMARK  status: ('A' for Active; 'I' for Inactive)
REMARK    1  A    between atoms: C3'_2  and  C2'_3 
REMARK    2  A    between atoms: C2'_3  and  C1'_4 
REMARK    3  A    between atoms: C1'_4  and  C1_5 
ROOT
ATOM      1  C1  N4B d   1       2.448  -2.114   3.434  0.00  0.00    -0.075 A 
ATOM      2  C2  N4B d   1       3.794  -1.978   3.839  0.00  0.00     0.002 A 
ATOM      3  C3  N4B d   1       4.361  -2.920   4.662  0.00  0.00     0.002 A 
ATOM      4  C4  N4B d   1       3.600  -3.990   5.107  0.00  0.00    -0.004 A 
ATOM      5  C5  N4B d   1       2.308  -4.127   4.692  0.00  0.00     0.002 A 
ATOM      6  C6  N4B d   1       1.726  -3.190   3.861  0.00  0.00     0.002 A 
ENDROOT
BRANCH   1   7
ATOM      7  C1' N4B d   1       1.758  -1.065   2.605  0.00  0.00     0.057 C 
BRANCH   7   8
ATOM      8  C2' N4B d   1       2.810  -0.196   1.922  0.00  0.00     0.009 C 
BRANCH   8   9
ATOM      9  C3' N4B d   1       2.200   1.046   1.294  0.00  0.00     0.004 C 
ATOM     10  C4' N4B d   1       3.024   1.590   0.166  0.00  0.00     0.003 C 
ENDBRANCH   8   9
ENDBRANCH   7   8
ENDBRANCH   1   7
TORSDOF 3
ENDMDL
