MODEL 1
REMARK minimizedAffinity 10.5976868
REMARK minimizedRMSD -1
REMARK  3 active torsions:
REMARK  status: ('A' for Active; 'I' for Inactive)
REMARK    1  A    between atoms: C3'_2  and  C2'_3 
REMARK    2  A    between atoms: C2'_3  and  C1'_4 
REMARK    3  A    between atoms: C1'_4  and  C1_5 
ROOT
ATOM      1  C1  N4B d   1       0.505  -1.823   1.025  0.00  0.00    -0.075 A 
ATOM      2  C2  N4B d   1       0.821  -2.622  -0.096  0.00  0.00     0.002 A 
ATOM      3  C3  N4B d   1      -0.127  -2.854  -1.062  0.00  0.00     0.002 A 
ATOM      4  C4  N4B d   1      -1.398  -2.317  -0.920  0.00  0.00    -0.004 A 
ATOM      5  C5  N4B d   1      -1.687  -1.526   0.153  0.00  0.00     0.002 A 
ATOM      6  C6  N4B d   1      -0.743  -1.280   1.130  0.00  0.00     0.002 A 
ENDROOT
BRANCH   1   7
ATOM      7  C1' N4B d   1       1.482  -1.612   2.150  0.00  0.00     0.057 C 
BRANCH   7   8
ATOM      8  C2' N4B d   1       1.839  -0.131   2.230  0.00  0.00     0.009 C 
BRANCH   8   9
ATOM      9  C3' N4B d   1       2.729   0.303   1.079  0.00  0.00     0.004 C 
ATOM     10  C4' N4B d   1       2.726   1.788   0.869  0.00  0.00     0.003 C 
ENDBRANCH   8   9
ENDBRANCH   7   8
ENDBRANCH   1   7
TORSDOF 3
ENDMDL
