MODEL 1
REMARK minimizedAffinity 6.51274681
REMARK minimizedRMSD -1
REMARK  3 active torsions:
REMARK  status: ('A' for Active; 'I' for Inactive)
REMARK    1  A    between atoms: C3'_2  and  C2'_3 
REMARK    2  A    between atoms: C2'_3  and  C1'_4 
REMARK    3  A    between atoms: C1'_4  and  C1_5 
ROOT
ATOM      1  C1  N4B d   1       0.023  -3.002   1.189  0.00  0.00    -0.075 A 
ATOM      2  C2  N4B d   1      -0.137  -3.614  -0.074  0.00  0.00     0.002 A 
ATOM      3  C3  N4B d   1      -0.733  -2.925  -1.101  0.00  0.00     0.002 A 
ATOM      4  C4  N4B d   1      -1.193  -1.635  -0.885  0.00  0.00    -0.004 A 
ATOM      5  C5  N4B d   1      -1.012  -1.041   0.330  0.00  0.00     0.002 A 
ATOM      6  C6  N4B d   1      -0.411  -1.720   1.370  0.00  0.00     0.002 A 
ENDROOT
BRANCH   1   7
ATOM      7  C1' N4B d   1       0.592  -3.745   2.366  0.00  0.00     0.057 C 
BRANCH   7   8
ATOM      8  C2' N4B d   1       0.600  -2.825   3.583  0.00  0.00     0.009 C 
BRANCH   8   9
ATOM      9  C3' N4B d   1       1.999  -2.638   4.144  0.00  0.00     0.004 C 
ATOM     10  C4' N4B d   1       2.334  -1.199   4.400  0.00  0.00     0.003 C 
ENDBRANCH   8   9
ENDBRANCH   7   8
ENDBRANCH   1   7
TORSDOF 3
ENDMDL
