MODEL 1
REMARK minimizedAffinity 2.2188766
REMARK minimizedRMSD -1
REMARK  3 active torsions:
REMARK  status: ('A' for Active; 'I' for Inactive)
REMARK    1  A    between atoms: C3'_2  and  C2'_3 
REMARK    2  A    between atoms: C2'_3  and  C1'_4 
REMARK    3  A    between atoms: C1'_4  and  C1_5 
ROOT
ATOM      1  C1  N4B d   1       0.712  -0.020   1.084  0.00  0.00    -0.075 A 
ATOM      2  C2  N4B d   1       1.993   0.574   1.066  0.00  0.00     0.002 A 
ATOM      3  C3  N4B d   1       2.167   1.816   0.505  0.00  0.00     0.002 A 
ATOM      4  C4  N4B d   1       1.082   2.471  -0.058  0.00  0.00    -0.004 A 
ATOM      5  C5  N4B d   1      -0.157   1.902  -0.014  0.00  0.00     0.002 A 
ATOM      6  C6  N4B d   1      -0.346   0.657   0.550  0.00  0.00     0.002 A 
ENDROOT
BRANCH   1   7
ATOM      7  C1' N4B d   1       0.489  -1.411   1.609  0.00  0.00     0.057 C 
BRANCH   7   8
ATOM      8  C2' N4B d   1       1.290  -1.596   2.895  0.00  0.00     0.009 C 
BRANCH   8   9
ATOM      9  C3' N4B d   1       1.222  -3.024   3.406  0.00  0.00     0.004 C 
ATOM     10  C4' N4B d   1       1.583  -3.139   4.857  0.00  0.00     0.003 C 
ENDBRANCH   8   9
ENDBRANCH   7   8
ENDBRANCH   1   7
TORSDOF 3
ENDMDL
