MODEL 1
REMARK minimizedAffinity 0.371824622
REMARK minimizedRMSD -1
REMARK  3 active torsions:
REMARK  status: ('A' for Active; 'I' for Inactive)
REMARK    1  A    between atoms: C3'_2  and  C2'_3 
REMARK    2  A    between atoms: C2'_3  and  C1'_4 
REMARK    3  A    between atoms: C1'_4  and  C1_5 
ROOT
ATOM      1  C1  N4B d   1      -0.168  -1.749   0.171  0.00  0.00    -0.075 A 
ATOM      2  C2  N4B d   1       1.026  -2.494   0.055  0.00  0.00     0.002 A 
ATOM      3  C3  N4B d   1       1.034  -3.674  -0.647  0.00  0.00     0.002 A 
ATOM      4  C4  N4B d   1      -0.140  -4.137  -1.223  0.00  0.00    -0.004 A 
ATOM      5  C5  N4B d   1      -1.283  -3.399  -1.127  0.00  0.00     0.002 A 
ATOM      6  C6  N4B d   1      -1.304  -2.209  -0.428  0.00  0.00     0.002 A 
ENDROOT
BRANCH   1   7
ATOM      7  C1' N4B d   1      -0.245  -0.497   1.001  0.00  0.00     0.057 C 
BRANCH   7   8
ATOM      8  C2' N4B d   1      -0.296   0.715   0.075  0.00  0.00     0.009 C 
BRANCH   8   9
ATOM      9  C3' N4B d   1       0.318   1.947   0.717  0.00  0.00     0.004 C 
ATOM     10  C4' N4B d   1       1.810   1.859   0.834  0.00  0.00     0.003 C 
ENDBRANCH   8   9
ENDBRANCH   7   8
ENDBRANCH   1   7
TORSDOF 3
ENDMDL
