MODEL 1
REMARK minimizedAffinity 11.2700415
REMARK minimizedRMSD -1
REMARK  1 active torsions:
REMARK  status: ('A' for Active; 'I' for Inactive)
REMARK    1  A    between atoms: N_2  and  C1_3 
ROOT
ATOM      1  C1  UNL d   1      -2.534  -0.736   2.420  0.00  0.00     0.143 A 
ATOM      2  C2  UNL d   1      -3.390  -1.830   2.587  0.00  0.00    -0.057 A 
ATOM      3  C3  UNL d   1      -3.040  -3.103   2.122  0.00  0.00     0.033 A 
ATOM      4  C4  UNL d   1      -1.836  -3.299   1.453  0.00  0.00    -0.042 A 
ATOM      5  C5  UNL d   1      -0.981  -2.221   1.254  0.00  0.00     0.033 A 
ATOM      6  C6  UNL d   1      -1.333  -0.954   1.727  0.00  0.00    -0.057 A 
ENDROOT
BRANCH   1   7
ATOM      7  N   UNL d   1      -2.868   0.574   2.773  0.00  0.00    -0.732 N 
ATOM      8  C   UNL d   1      -3.987   0.838   3.652  0.00  0.00     0.284 C 
ATOM      9  H3  UNL d   1      -2.048   1.147   2.959  0.00  0.00     0.395 HD
ENDBRANCH   1   7
TORSDOF 1
ENDMDL
