MODEL 1
REMARK minimizedAffinity 17.9412575
REMARK minimizedRMSD -1
REMARK  1 active torsions:
REMARK  status: ('A' for Active; 'I' for Inactive)
REMARK    1  A    between atoms: N_2  and  C1_3 
ROOT
ATOM      1  C1  UNL d   1      -2.940  -2.912   1.238  0.00  0.00     0.143 A 
ATOM      2  C2  UNL d   1      -3.123  -1.869   0.324  0.00  0.00    -0.057 A 
ATOM      3  C3  UNL d   1      -2.260  -0.767   0.297  0.00  0.00     0.033 A 
ATOM      4  C4  UNL d   1      -1.212  -0.674   1.207  0.00  0.00    -0.042 A 
ATOM      5  C5  UNL d   1      -1.026  -1.686   2.142  0.00  0.00     0.033 A 
ATOM      6  C6  UNL d   1      -1.887  -2.788   2.159  0.00  0.00    -0.057 A 
ENDROOT
BRANCH   1   7
ATOM      7  N   UNL d   1      -3.821  -3.986   1.380  0.00  0.00    -0.732 N 
ATOM      8  C   UNL d   1      -3.775  -4.828   2.556  0.00  0.00     0.284 C 
ATOM      9  H3  UNL d   1      -4.763  -3.760   1.067  0.00  0.00     0.395 HD
ENDBRANCH   1   7
TORSDOF 1
ENDMDL
