MODEL 1
REMARK minimizedAffinity 11.1666327
REMARK minimizedRMSD -1
REMARK  1 active torsions:
REMARK  status: ('A' for Active; 'I' for Inactive)
REMARK    1  A    between atoms: N_2  and  C1_3 
ROOT
ATOM      1  C1  UNL d   1       5.189   4.569  -2.304  0.00  0.00     0.143 A 
ATOM      2  C2  UNL d   1       5.871   4.545  -3.526  0.00  0.00    -0.057 A 
ATOM      3  C3  UNL d   1       5.293   3.981  -4.669  0.00  0.00     0.033 A 
ATOM      4  C4  UNL d   1       4.030   3.401  -4.603  0.00  0.00    -0.042 A 
ATOM      5  C5  UNL d   1       3.344   3.391  -3.394  0.00  0.00     0.033 A 
ATOM      6  C6  UNL d   1       3.924   3.963  -2.257  0.00  0.00    -0.057 A 
ENDROOT
BRANCH   1   7
ATOM      7  N   UNL d   1       5.750   5.027  -1.109  0.00  0.00    -0.732 N 
ATOM      8  C   UNL d   1       5.996   4.115  -0.013  0.00  0.00     0.284 C 
ATOM      9  H3  UNL d   1       6.495   5.702  -1.264  0.00  0.00     0.395 HD
ENDBRANCH   1   7
TORSDOF 1
ENDMDL
