MODEL 1
REMARK minimizedAffinity 2.51319289
REMARK minimizedRMSD -1
REMARK  1 active torsions:
REMARK  status: ('A' for Active; 'I' for Inactive)
REMARK    1  A    between atoms: N_2  and  C1_3 
ROOT
ATOM      1  C1  UNL d   1       0.024  -5.006  -4.322  0.00  0.00     0.143 A 
ATOM      2  C2  UNL d   1      -0.883  -3.954  -4.157  0.00  0.00    -0.057 A 
ATOM      3  C3  UNL d   1      -2.091  -3.918  -4.864  0.00  0.00     0.033 A 
ATOM      4  C4  UNL d   1      -2.400  -4.922  -5.775  0.00  0.00    -0.042 A 
ATOM      5  C5  UNL d   1      -1.503  -5.965  -5.974  0.00  0.00     0.033 A 
ATOM      6  C6  UNL d   1      -0.302  -5.999  -5.260  0.00  0.00    -0.057 A 
ENDROOT
BRANCH   1   7
ATOM      7  N   UNL d   1       1.284  -5.049  -3.722  0.00  0.00    -0.732 N 
ATOM      8  C   UNL d   1       2.281  -5.999  -4.167  0.00  0.00     0.284 C 
ATOM      9  H3  UNL d   1       1.653  -4.121  -3.526  0.00  0.00     0.395 HD
ENDBRANCH   1   7
TORSDOF 1
ENDMDL
