MODEL 1
REMARK minimizedAffinity 18.1271267
REMARK minimizedRMSD -1
REMARK  1 active torsions:
REMARK  status: ('A' for Active; 'I' for Inactive)
REMARK    1  A    between atoms: N_2  and  C1_3 
ROOT
ATOM      1  C1  UNL d   1       4.042   3.527  -3.280  0.00  0.00     0.143 A 
ATOM      2  C2  UNL d   1       5.041   3.364  -4.246  0.00  0.00    -0.057 A 
ATOM      3  C3  UNL d   1       6.000   4.358  -4.473  0.00  0.00     0.033 A 
ATOM      4  C4  UNL d   1       5.959   5.550  -3.757  0.00  0.00    -0.042 A 
ATOM      5  C5  UNL d   1       4.960   5.744  -2.809  0.00  0.00     0.033 A 
ATOM      6  C6  UNL d   1       4.009   4.744  -2.582  0.00  0.00    -0.057 A 
ENDROOT
BRANCH   1   7
ATOM      7  N   UNL d   1       3.002   2.617  -3.075  0.00  0.00    -0.732 N 
ATOM      8  C   UNL d   1       2.882   1.904  -1.822  0.00  0.00     0.284 C 
ATOM      9  H3  UNL d   1       2.117   2.948  -3.452  0.00  0.00     0.395 HD
ENDBRANCH   1   7
TORSDOF 1
ENDMDL
