MODEL 1
REMARK minimizedAffinity 3.85451603
REMARK minimizedRMSD -1
REMARK  1 active torsions:
REMARK  status: ('A' for Active; 'I' for Inactive)
REMARK    1  A    between atoms: N_2  and  C1_3 
ROOT
ATOM      1  C1  UNL d   1      -0.217   4.061  -3.883  0.00  0.00     0.143 A 
ATOM      2  C2  UNL d   1       0.075   5.080  -2.969  0.00  0.00    -0.057 A 
ATOM      3  C3  UNL d   1       1.213   5.022  -2.156  0.00  0.00     0.033 A 
ATOM      4  C4  UNL d   1       2.067   3.926  -2.222  0.00  0.00    -0.042 A 
ATOM      5  C5  UNL d   1       1.784   2.890  -3.105  0.00  0.00     0.033 A 
ATOM      6  C6  UNL d   1       0.650   2.957  -3.919  0.00  0.00    -0.057 A 
ENDROOT
BRANCH   1   7
ATOM      7  N   UNL d   1      -1.384   4.013  -4.648  0.00  0.00    -0.732 N 
ATOM      8  C   UNL d   1      -1.622   4.988  -5.691  0.00  0.00     0.284 C 
ATOM      9  H3  UNL d   1      -1.645   3.063  -4.900  0.00  0.00     0.395 HD
ENDBRANCH   1   7
TORSDOF 1
ENDMDL
