MODEL 1
REMARK minimizedAffinity 14.4403229
REMARK minimizedRMSD -1
REMARK  1 active torsions:
REMARK  status: ('A' for Active; 'I' for Inactive)
REMARK    1  A    between atoms: N_2  and  C1_3 
ROOT
ATOM      1  C1  UNL d   1       3.395   3.279  -3.338  0.00  0.00     0.143 A 
ATOM      2  C2  UNL d   1       4.071   4.001  -2.348  0.00  0.00    -0.057 A 
ATOM      3  C3  UNL d   1       5.355   4.513  -2.572  0.00  0.00     0.033 A 
ATOM      4  C4  UNL d   1       5.999   4.286  -3.783  0.00  0.00    -0.042 A 
ATOM      5  C5  UNL d   1       5.357   3.549  -4.772  0.00  0.00     0.033 A 
ATOM      6  C6  UNL d   1       4.072   3.046  -4.545  0.00  0.00    -0.057 A 
ENDROOT
BRANCH   1   7
ATOM      7  N   UNL d   1       2.158   2.660  -3.141  0.00  0.00    -0.732 N 
ATOM      8  C   UNL d   1       2.037   1.517  -2.262  0.00  0.00     0.284 C 
ATOM      9  H3  UNL d   1       1.398   3.330  -3.058  0.00  0.00     0.395 HD
ENDBRANCH   1   7
TORSDOF 1
ENDMDL
