MODEL 1
REMARK minimizedAffinity 17.3823357
REMARK minimizedRMSD -1
REMARK  1 active torsions:
REMARK  status: ('A' for Active; 'I' for Inactive)
REMARK    1  A    between atoms: N_2  and  C1_3 
ROOT
ATOM      1  C1  UNL d   1      -5.473   2.721   4.384  0.00  0.00     0.143 A 
ATOM      2  C2  UNL d   1      -4.356   2.522   5.203  0.00  0.00    -0.057 A 
ATOM      3  C3  UNL d   1      -3.815   3.568   5.960  0.00  0.00     0.033 A 
ATOM      4  C4  UNL d   1      -4.365   4.844   5.888  0.00  0.00    -0.042 A 
ATOM      5  C5  UNL d   1      -5.459   5.071   5.062  0.00  0.00     0.033 A 
ATOM      6  C6  UNL d   1      -6.000   4.021   4.313  0.00  0.00    -0.057 A 
ENDROOT
BRANCH   1   7
ATOM      7  N   UNL d   1      -5.997   1.746   3.532  0.00  0.00    -0.732 N 
ATOM      8  C   UNL d   1      -5.632   1.717   2.132  0.00  0.00     0.284 C 
ATOM      9  H3  UNL d   1      -6.036   0.828   3.970  0.00  0.00     0.395 HD
ENDBRANCH   1   7
TORSDOF 1
ENDMDL
