MODEL 1
REMARK minimizedAffinity 9.18303871
REMARK minimizedRMSD -1
REMARK  1 active torsions:
REMARK  status: ('A' for Active; 'I' for Inactive)
REMARK    1  A    between atoms: N_2  and  C1_3 
ROOT
ATOM      1  C1  UNL d   1       3.081   3.279  -3.420  0.00  0.00     0.143 A 
ATOM      2  C2  UNL d   1       4.010   4.127  -2.807  0.00  0.00    -0.057 A 
ATOM      3  C3  UNL d   1       5.063   4.696  -3.533  0.00  0.00     0.033 A 
ATOM      4  C4  UNL d   1       5.224   4.403  -4.883  0.00  0.00    -0.042 A 
ATOM      5  C5  UNL d   1       4.327   3.544  -5.508  0.00  0.00     0.033 A 
ATOM      6  C6  UNL d   1       3.273   2.983  -4.779  0.00  0.00    -0.057 A 
ENDROOT
BRANCH   1   7
ATOM      7  N   UNL d   1       2.070   2.604  -2.732  0.00  0.00    -0.732 N 
ATOM      8  C   UNL d   1       2.395   1.681  -1.665  0.00  0.00     0.284 C 
ATOM      9  H3  UNL d   1       1.269   3.200  -2.536  0.00  0.00     0.395 HD
ENDBRANCH   1   7
TORSDOF 1
ENDMDL
