MODEL 1
REMARK minimizedAffinity 12.9821501
REMARK minimizedRMSD -1
REMARK  1 active torsions:
REMARK  status: ('A' for Active; 'I' for Inactive)
REMARK    1  A    between atoms: N_2  and  C1_3 
ROOT
ATOM      1  C1  UNL d   1       3.329  -4.848   0.142  0.00  0.00     0.143 A 
ATOM      2  C2  UNL d   1       3.885  -3.754  -0.530  0.00  0.00    -0.057 A 
ATOM      3  C3  UNL d   1       5.202  -3.786  -1.005  0.00  0.00     0.033 A 
ATOM      4  C4  UNL d   1       5.998  -4.907  -0.790  0.00  0.00    -0.042 A 
ATOM      5  C5  UNL d   1       5.474  -5.996  -0.103  0.00  0.00     0.033 A 
ATOM      6  C6  UNL d   1       4.156  -5.960   0.363  0.00  0.00    -0.057 A 
ENDROOT
BRANCH   1   7
ATOM      7  N   UNL d   1       2.059  -4.839   0.724  0.00  0.00    -0.732 N 
ATOM      8  C   UNL d   1       1.630  -3.724   1.541  0.00  0.00     0.284 C 
ATOM      9  H3  UNL d   1       1.342  -5.195   0.096  0.00  0.00     0.395 HD
ENDBRANCH   1   7
TORSDOF 1
ENDMDL
