MODEL 1
REMARK minimizedAffinity 13.5544615
REMARK minimizedRMSD -1
REMARK  1 active torsions:
REMARK  status: ('A' for Active; 'I' for Inactive)
REMARK    1  A    between atoms: N_2  and  C1_3 
ROOT
ATOM      1  C1  UNL d   1       3.886   2.331   1.344  0.00  0.00     0.143 A 
ATOM      2  C2  UNL d   1       3.023   2.709   0.310  0.00  0.00    -0.057 A 
ATOM      3  C3  UNL d   1       2.190   1.775  -0.319  0.00  0.00     0.033 A 
ATOM      4  C4  UNL d   1       2.228   0.436   0.057  0.00  0.00    -0.042 A 
ATOM      5  C5  UNL d   1       3.097   0.034   1.065  0.00  0.00     0.033 A 
ATOM      6  C6  UNL d   1       3.921   0.972   1.694  0.00  0.00    -0.057 A 
ENDROOT
BRANCH   1   7
ATOM      7  N   UNL d   1       4.809   3.194   1.940  0.00  0.00    -0.732 N 
ATOM      8  C   UNL d   1       5.999   3.608   1.228  0.00  0.00     0.284 C 
ATOM      9  H3  UNL d   1       4.360   3.939   2.468  0.00  0.00     0.395 HD
ENDBRANCH   1   7
TORSDOF 1
ENDMDL
