MODEL 1
REMARK minimizedAffinity 15.8867254
REMARK minimizedRMSD -1
REMARK  1 active torsions:
REMARK  status: ('A' for Active; 'I' for Inactive)
REMARK    1  A    between atoms: N_2  and  C1_3 
ROOT
ATOM      1  C1  UNL d   1      -2.908  -5.509  -5.203  0.00  0.00     0.143 A 
ATOM      2  C2  UNL d   1      -2.611  -4.794  -4.037  0.00  0.00    -0.057 A 
ATOM      3  C3  UNL d   1      -1.287  -4.538  -3.660  0.00  0.00     0.033 A 
ATOM      4  C4  UNL d   1      -0.233  -5.019  -4.429  0.00  0.00    -0.042 A 
ATOM      5  C5  UNL d   1      -0.504  -5.753  -5.578  0.00  0.00     0.033 A 
ATOM      6  C6  UNL d   1      -1.828  -6.000  -5.954  0.00  0.00    -0.057 A 
ENDROOT
BRANCH   1   7
ATOM      7  N   UNL d   1      -4.200  -5.880  -5.580  0.00  0.00    -0.732 N 
ATOM      8  C   UNL d   1      -5.201  -4.876  -5.871  0.00  0.00     0.284 C 
ATOM      9  H3  UNL d   1      -4.206  -6.670  -6.221  0.00  0.00     0.395 HD
ENDBRANCH   1   7
TORSDOF 1
ENDMDL
