MODEL 1
REMARK minimizedAffinity 9.39421654
REMARK minimizedRMSD -1
REMARK  1 active torsions:
REMARK  status: ('A' for Active; 'I' for Inactive)
REMARK    1  A    between atoms: N_2  and  C1_3 
ROOT
ATOM      1  C1  UNL d   1      -1.516  -4.569  -3.657  0.00  0.00     0.143 A 
ATOM      2  C2  UNL d   1      -2.838  -4.960  -3.899  0.00  0.00    -0.057 A 
ATOM      3  C3  UNL d   1      -3.182  -5.681  -5.049  0.00  0.00     0.033 A 
ATOM      4  C4  UNL d   1      -2.213  -5.998  -5.995  0.00  0.00    -0.042 A 
ATOM      5  C5  UNL d   1      -0.898  -5.598  -5.787  0.00  0.00     0.033 A 
ATOM      6  C6  UNL d   1      -0.559  -4.885  -4.633  0.00  0.00    -0.057 A 
ENDROOT
BRANCH   1   7
ATOM      7  N   UNL d   1      -1.128  -3.767  -2.582  0.00  0.00    -0.732 N 
ATOM      8  C   UNL d   1      -1.580  -2.395  -2.484  0.00  0.00     0.284 C 
ATOM      9  H3  UNL d   1      -1.135  -4.271  -1.698  0.00  0.00     0.395 HD
ENDBRANCH   1   7
TORSDOF 1
ENDMDL
