MODEL 1
REMARK minimizedAffinity 13.1707268
REMARK minimizedRMSD -1
REMARK  1 active torsions:
REMARK  status: ('A' for Active; 'I' for Inactive)
REMARK    1  A    between atoms: N_2  and  C1_3 
ROOT
ATOM      1  C1  UNL d   1      -0.055  -1.178   3.051  0.00  0.00     0.143 A 
ATOM      2  C2  UNL d   1      -0.787  -0.080   3.517  0.00  0.00    -0.057 A 
ATOM      3  C3  UNL d   1      -2.047   0.229   2.988  0.00  0.00     0.033 A 
ATOM      4  C4  UNL d   1      -2.585  -0.540   1.962  0.00  0.00    -0.042 A 
ATOM      5  C5  UNL d   1      -1.864  -1.621   1.467  0.00  0.00     0.033 A 
ATOM      6  C6  UNL d   1      -0.610  -1.928   2.003  0.00  0.00    -0.057 A 
ENDROOT
BRANCH   1   7
ATOM      7  N   UNL d   1       1.244  -1.478   3.467  0.00  0.00    -0.732 N 
ATOM      8  C   UNL d   1       1.641  -2.848   3.714  0.00  0.00     0.284 C 
ATOM      9  H3  UNL d   1       1.946  -0.924   2.982  0.00  0.00     0.395 HD
ENDBRANCH   1   7
TORSDOF 1
ENDMDL
