MODEL 1
REMARK minimizedAffinity 11.0354786
REMARK minimizedRMSD -1
REMARK  1 active torsions:
REMARK  status: ('A' for Active; 'I' for Inactive)
REMARK    1  A    between atoms: N_2  and  C1_3 
ROOT
ATOM      1  C1  UNL d   1      -0.491  -2.518   2.219  0.00  0.00     0.143 A 
ATOM      2  C2  UNL d   1      -0.449  -3.746   1.550  0.00  0.00    -0.057 A 
ATOM      3  C3  UNL d   1      -1.615  -4.344   1.056  0.00  0.00     0.033 A 
ATOM      4  C4  UNL d   1      -2.851  -3.735   1.248  0.00  0.00    -0.042 A 
ATOM      5  C5  UNL d   1      -2.919  -2.526   1.931  0.00  0.00     0.033 A 
ATOM      6  C6  UNL d   1      -1.751  -1.931   2.417  0.00  0.00    -0.057 A 
ENDROOT
BRANCH   1   7
ATOM      7  N   UNL d   1       0.620  -1.921   2.820  0.00  0.00    -0.732 N 
ATOM      8  C   UNL d   1       1.445  -2.665   3.748  0.00  0.00     0.284 C 
ATOM      9  H3  UNL d   1       1.146  -1.338   2.172  0.00  0.00     0.395 HD
ENDBRANCH   1   7
TORSDOF 1
ENDMDL
