MODEL 1
REMARK minimizedAffinity -4.70836496
REMARK minimizedRMSD -1
REMARK  0 active torsions:
REMARK  status: ('A' for Active; 'I' for Inactive)
ROOT
ATOM      1  C   UNL d   1      -0.724   2.315   2.446  0.00  0.00     0.020 A 
ATOM      2  C1  UNL d   1      -0.257   1.036   2.748  0.00  0.00     0.020 A 
ATOM      3  C2  UNL d   1       0.037   0.140   1.719  0.00  0.00     0.034 A 
ATOM      4  C3  UNL d   1      -0.134   0.521   0.383  0.00  0.00     0.017 A 
ATOM      5  C4  UNL d   1      -0.603   1.805   0.081  0.00  0.00     0.017 A 
ATOM      6  C5  UNL d   1      -0.896   2.699   1.116  0.00  0.00     0.034 A 
ATOM      7 Cl   UNL d   1      -0.839   2.347  -1.543  0.00  0.00    -0.070 Cl
ATOM      8 Cl1  UNL d   1       0.250  -0.639  -0.839  0.00  0.00    -0.070 Cl
ENDROOT
TORSDOF 0
ENDMDL
