MODEL 1
REMARK minimizedAffinity -2.93368506
REMARK minimizedRMSD -1
REMARK  0 active torsions:
REMARK  status: ('A' for Active; 'I' for Inactive)
ROOT
ATOM      1  C   UNL d   1       0.785  -0.711   2.950  0.00  0.00     0.020 A 
ATOM      2  C1  UNL d   1       0.186   0.519   3.217  0.00  0.00     0.020 A 
ATOM      3  C2  UNL d   1      -0.195   1.354   2.165  0.00  0.00     0.034 A 
ATOM      4  C3  UNL d   1       0.023   0.960   0.839  0.00  0.00     0.017 A 
ATOM      5  C4  UNL d   1       0.625  -0.275   0.572  0.00  0.00     0.017 A 
ATOM      6  C5  UNL d   1       1.004  -1.107   1.630  0.00  0.00     0.034 A 
ATOM      7 Cl   UNL d   1       0.927  -0.830  -1.037  0.00  0.00    -0.070 Cl
ATOM      8 Cl1  UNL d   1      -0.473   2.042  -0.413  0.00  0.00    -0.070 Cl
ENDROOT
TORSDOF 0
ENDMDL
