MODEL 1
REMARK minimizedAffinity -4.66169405
REMARK minimizedRMSD -1
REMARK  0 active torsions:
REMARK  status: ('A' for Active; 'I' for Inactive)
ROOT
ATOM      1  C   UNL d   1      -0.387   1.789   2.215  0.00  0.00     0.020 A 
ATOM      2  C1  UNL d   1      -0.864   3.006   1.730  0.00  0.00     0.020 A 
ATOM      3  C2  UNL d   1      -0.928   3.232   0.353  0.00  0.00     0.034 A 
ATOM      4  C3  UNL d   1      -0.514   2.240  -0.543  0.00  0.00     0.017 A 
ATOM      5  C4  UNL d   1      -0.036   1.018  -0.055  0.00  0.00     0.017 A 
ATOM      6  C5  UNL d   1       0.026   0.797   1.325  0.00  0.00     0.034 A 
ATOM      7 Cl   UNL d   1       0.492  -0.254  -1.098  0.00  0.00    -0.070 Cl
ATOM      8 Cl1  UNL d   1      -0.621   2.587  -2.232  0.00  0.00    -0.070 Cl
ENDROOT
TORSDOF 0
ENDMDL
