MODEL 1
REMARK minimizedAffinity -4.2012701
REMARK minimizedRMSD -1
REMARK  0 active torsions:
REMARK  status: ('A' for Active; 'I' for Inactive)
ROOT
ATOM      1  C   UNL d   1      -1.079   2.943   1.545  0.00  0.00     0.020 A 
ATOM      2  C1  UNL d   1      -1.737   2.657   0.349  0.00  0.00     0.020 A 
ATOM      3  C2  UNL d   1      -1.427   1.493  -0.357  0.00  0.00     0.034 A 
ATOM      4  C3  UNL d   1      -0.455   0.612   0.130  0.00  0.00     0.017 A 
ATOM      5  C4  UNL d   1       0.205   0.900   1.330  0.00  0.00     0.017 A 
ATOM      6  C5  UNL d   1      -0.110   2.067   2.034  0.00  0.00     0.034 A 
ATOM      7 Cl   UNL d   1       1.415  -0.139   1.995  0.00  0.00    -0.070 Cl
ATOM      8 Cl1  UNL d   1      -0.121  -0.809  -0.795  0.00  0.00    -0.070 Cl
ENDROOT
TORSDOF 0
ENDMDL
