MODEL 1
REMARK minimizedAffinity -2.86144924
REMARK minimizedRMSD -1
REMARK  0 active torsions:
REMARK  status: ('A' for Active; 'I' for Inactive)
ROOT
ATOM      1  C   UNL d   1      -1.620   2.595   1.507  0.00  0.00     0.020 A 
ATOM      2  C1  UNL d   1      -2.184   2.509   0.234  0.00  0.00     0.020 A 
ATOM      3  C2  UNL d   1      -1.659   1.617  -0.703  0.00  0.00     0.034 A 
ATOM      4  C3  UNL d   1      -0.566   0.809  -0.370  0.00  0.00     0.017 A 
ATOM      5  C4  UNL d   1      -0.000   0.896   0.907  0.00  0.00     0.017 A 
ATOM      6  C5  UNL d   1      -0.531   1.790   1.842  0.00  0.00     0.034 A 
ATOM      7 Cl   UNL d   1       1.349  -0.069   1.391  0.00  0.00    -0.070 Cl
ATOM      8 Cl1  UNL d   1       0.032  -0.271  -1.579  0.00  0.00    -0.070 Cl
ENDROOT
TORSDOF 0
ENDMDL
