MODEL 1
REMARK minimizedAffinity -4.51298285
REMARK minimizedRMSD -1
REMARK  0 active torsions:
REMARK  status: ('A' for Active; 'I' for Inactive)
ROOT
ATOM      1  C   UNL d   1      -0.805   2.110   1.969  0.00  0.00     0.020 A 
ATOM      2  C1  UNL d   1      -1.496   2.576   0.852  0.00  0.00     0.020 A 
ATOM      3  C2  UNL d   1      -1.080   2.210  -0.430  0.00  0.00     0.034 A 
ATOM      4  C3  UNL d   1       0.030   1.375  -0.598  0.00  0.00     0.017 A 
ATOM      5  C4  UNL d   1       0.724   0.908   0.524  0.00  0.00     0.017 A 
ATOM      6  C5  UNL d   1       0.303   1.278   1.806  0.00  0.00     0.034 A 
ATOM      7 Cl   UNL d   1       2.104  -0.126   0.397  0.00  0.00    -0.070 Cl
ATOM      8 Cl1  UNL d   1       0.489   0.962  -2.212  0.00  0.00    -0.070 Cl
ENDROOT
TORSDOF 0
ENDMDL
