MODEL 1
REMARK minimizedAffinity -2.29699969
REMARK minimizedRMSD -1
REMARK  1 active torsions:
REMARK  status: ('A' for Active; 'I' for Inactive)
REMARK    1  A    between atoms: C3_4  and  O_7 
ROOT
ATOM      1  C   UNL d   1       2.503  -1.173   0.910  0.00  0.00    -0.033 A 
ATOM      2  C1  UNL d   1       1.270  -1.348   1.541  0.00  0.00     0.039 A 
ATOM      3  C2  UNL d   1       0.147  -0.654   1.086  0.00  0.00    -0.080 A 
ATOM      4  C3  UNL d   1       0.270   0.210   0.001  0.00  0.00     0.150 A 
ATOM      5  C4  UNL d   1       1.495   0.386  -0.634  0.00  0.00    -0.007 A 
ATOM      6  C5  UNL d   1       2.616  -0.307  -0.178  0.00  0.00     0.039 A 
ENDROOT
BRANCH   4   7
ATOM      7  O   UNL d   1      -0.796   0.913  -0.475  0.00  0.00    -0.526 OA
ATOM      8  H5  UNL d   1      -1.569   0.713   0.080  0.00  0.00     0.418 HD
ENDBRANCH   4   7
TORSDOF 1
ENDMDL
