MODEL 1
REMARK minimizedAffinity -3.4513135
REMARK minimizedRMSD -1
REMARK  1 active torsions:
REMARK  status: ('A' for Active; 'I' for Inactive)
REMARK    1  A    between atoms: C3_4  and  O_7 
ROOT
ATOM      1  C   UNL d   1      -0.745   0.168  -0.776  0.00  0.00    -0.033 A 
ATOM      2  C1  UNL d   1      -0.104   1.154  -0.024  0.00  0.00     0.039 A 
ATOM      3  C2  UNL d   1       1.233   0.996   0.344  0.00  0.00    -0.080 A 
ATOM      4  C3  UNL d   1       1.918  -0.151  -0.047  0.00  0.00     0.150 A 
ATOM      5  C4  UNL d   1       1.288  -1.136  -0.800  0.00  0.00    -0.007 A 
ATOM      6  C5  UNL d   1      -0.048  -0.977  -1.166  0.00  0.00     0.039 A 
ENDROOT
BRANCH   4   7
ATOM      7  O   UNL d   1       3.223  -0.352   0.292  0.00  0.00    -0.526 OA
ATOM      8  H5  UNL d   1       3.519   0.397   0.837  0.00  0.00     0.418 HD
ENDBRANCH   4   7
TORSDOF 1
ENDMDL
