MODEL 1
REMARK minimizedAffinity -3.34635973
REMARK minimizedRMSD -1
REMARK  1 active torsions:
REMARK  status: ('A' for Active; 'I' for Inactive)
REMARK    1  A    between atoms: C3_4  and  O_7 
ROOT
ATOM      1  C   UNL d   1       2.214  -1.670   0.973  0.00  0.00    -0.033 A 
ATOM      2  C1  UNL d   1       2.463  -0.951  -0.198  0.00  0.00     0.039 A 
ATOM      3  C2  UNL d   1       1.506  -0.063  -0.691  0.00  0.00    -0.080 A 
ATOM      4  C3  UNL d   1       0.306   0.099  -0.005  0.00  0.00     0.150 A 
ATOM      5  C4  UNL d   1       0.053  -0.610   1.165  0.00  0.00    -0.007 A 
ATOM      6  C5  UNL d   1       1.009  -1.498   1.655  0.00  0.00     0.039 A 
ENDROOT
BRANCH   4   7
ATOM      7  O   UNL d   1      -0.660   0.952  -0.450  0.00  0.00    -0.526 OA
ATOM      8  H5  UNL d   1      -0.359   1.351  -1.283  0.00  0.00     0.418 HD
ENDBRANCH   4   7
TORSDOF 1
ENDMDL
