MODEL 1
REMARK minimizedAffinity -3.92422915
REMARK minimizedRMSD -1
REMARK  1 active torsions:
REMARK  status: ('A' for Active; 'I' for Inactive)
REMARK    1  A    between atoms: C3_4  and  O_7 
ROOT
ATOM      1  C   UNL d   1       2.698  -1.535   0.007  0.00  0.00    -0.033 A 
ATOM      2  C1  UNL d   1       1.528  -1.714   0.749  0.00  0.00     0.039 A 
ATOM      3  C2  UNL d   1       0.500  -0.772   0.674  0.00  0.00    -0.080 A 
ATOM      4  C3  UNL d   1       0.653   0.342  -0.147  0.00  0.00     0.150 A 
ATOM      5  C4  UNL d   1       1.814   0.524  -0.892  0.00  0.00    -0.007 A 
ATOM      6  C5  UNL d   1       2.840  -0.417  -0.814  0.00  0.00     0.039 A 
ENDROOT
BRANCH   4   7
ATOM      7  O   UNL d   1      -0.320   1.290  -0.250  0.00  0.00    -0.526 OA
ATOM      8  H5  UNL d   1      -1.051   1.047   0.343  0.00  0.00     0.418 HD
ENDBRANCH   4   7
TORSDOF 1
ENDMDL
