MODEL 1
REMARK minimizedAffinity -2.34519076
REMARK minimizedRMSD -1
REMARK  1 active torsions:
REMARK  status: ('A' for Active; 'I' for Inactive)
REMARK    1  A    between atoms: C3_4  and  O_7 
ROOT
ATOM      1  C   UNL d   1      -0.245  -0.715   0.703  0.00  0.00    -0.033 A 
ATOM      2  C1  UNL d   1       0.358  -0.622  -0.553  0.00  0.00     0.039 A 
ATOM      3  C2  UNL d   1       0.074   0.460  -1.388  0.00  0.00    -0.080 A 
ATOM      4  C3  UNL d   1      -0.812   1.443  -0.954  0.00  0.00     0.150 A 
ATOM      5  C4  UNL d   1      -1.413   1.359   0.297  0.00  0.00    -0.007 A 
ATOM      6  C5  UNL d   1      -1.129   0.276   1.128  0.00  0.00     0.039 A 
ENDROOT
BRANCH   4   7
ATOM      7  O   UNL d   1      -1.124   2.516  -1.735  0.00  0.00    -0.526 OA
ATOM      8  H5  UNL d   1      -0.656   2.426  -2.583  0.00  0.00     0.418 HD
ENDBRANCH   4   7
TORSDOF 1
ENDMDL
