MODEL 1
REMARK minimizedAffinity -4.42435503
REMARK minimizedRMSD -1
REMARK  1 active torsions:
REMARK  status: ('A' for Active; 'I' for Inactive)
REMARK    1  A    between atoms: C3_4  and  O_7 
ROOT
ATOM      1  C   UNL d   1       0.002   0.356   0.076  0.00  0.00    -0.033 A 
ATOM      2  C1  UNL d   1       1.293   0.794  -0.225  0.00  0.00     0.039 A 
ATOM      3  C2  UNL d   1       2.399   0.144   0.325  0.00  0.00    -0.080 A 
ATOM      4  C3  UNL d   1       2.200  -0.942   1.174  0.00  0.00     0.150 A 
ATOM      5  C4  UNL d   1       0.917  -1.386   1.475  0.00  0.00    -0.007 A 
ATOM      6  C5  UNL d   1      -0.186  -0.735   0.925  0.00  0.00     0.039 A 
ENDROOT
BRANCH   4   7
ATOM      7  O   UNL d   1       3.249  -1.606   1.739  0.00  0.00    -0.526 OA
ATOM      8  H5  UNL d   1       4.073  -1.170   1.464  0.00  0.00     0.418 HD
ENDBRANCH   4   7
TORSDOF 1
ENDMDL
