MODEL 1
REMARK minimizedAffinity -4.20789719
REMARK minimizedRMSD -1
REMARK  1 active torsions:
REMARK  status: ('A' for Active; 'I' for Inactive)
REMARK    1  A    between atoms: C3_4  and  O_7 
ROOT
ATOM      1  C   UNL d   1       2.384  -1.703   0.821  0.00  0.00    -0.033 A 
ATOM      2  C1  UNL d   1       1.058  -1.954   1.181  0.00  0.00     0.039 A 
ATOM      3  C2  UNL d   1       0.065  -1.018   0.887  0.00  0.00    -0.080 A 
ATOM      4  C3  UNL d   1       0.409   0.162   0.233  0.00  0.00     0.150 A 
ATOM      5  C4  UNL d   1       1.727   0.416  -0.132  0.00  0.00    -0.007 A 
ATOM      6  C5  UNL d   1       2.718  -0.519   0.164  0.00  0.00     0.039 A 
ENDROOT
BRANCH   4   7
ATOM      7  O   UNL d   1      -0.525   1.107  -0.071  0.00  0.00    -0.526 OA
ATOM      8  H5  UNL d   1      -1.386   0.808   0.266  0.00  0.00     0.418 HD
ENDBRANCH   4   7
TORSDOF 1
ENDMDL
