MODEL 1
REMARK minimizedAffinity -4.81685495
REMARK minimizedRMSD -1
REMARK  1 active torsions:
REMARK  status: ('A' for Active; 'I' for Inactive)
REMARK    1  A    between atoms: C3_4  and  O_7 
ROOT
ATOM      1  C   UNL d   1       1.327   0.827  -0.159  0.00  0.00    -0.033 A 
ATOM      2  C1  UNL d   1       0.314  -0.028   0.279  0.00  0.00     0.039 A 
ATOM      3  C2  UNL d   1       0.627  -1.317   0.716  0.00  0.00    -0.080 A 
ATOM      4  C3  UNL d   1       1.954  -1.737   0.710  0.00  0.00     0.150 A 
ATOM      5  C4  UNL d   1       2.968  -0.889   0.278  0.00  0.00    -0.007 A 
ATOM      6  C5  UNL d   1       2.654   0.397  -0.158  0.00  0.00     0.039 A 
ENDROOT
BRANCH   4   7
ATOM      7  O   UNL d   1       2.307  -2.988   1.123  0.00  0.00    -0.526 OA
ATOM      8  H5  UNL d   1       1.500  -3.471   1.365  0.00  0.00     0.418 HD
ENDBRANCH   4   7
TORSDOF 1
ENDMDL
