MODEL 1
REMARK minimizedAffinity -4.4211731
REMARK minimizedRMSD -1
REMARK  1 active torsions:
REMARK  status: ('A' for Active; 'I' for Inactive)
REMARK    1  A    between atoms: C3_4  and  O_7 
ROOT
ATOM      1  C   UNL d   1      -1.194  -2.109   1.956  0.00  0.00    -0.033 A 
ATOM      2  C1  UNL d   1       0.105  -2.559   1.712  0.00  0.00     0.039 A 
ATOM      3  C2  UNL d   1       0.958  -1.822   0.889  0.00  0.00    -0.080 A 
ATOM      4  C3  UNL d   1       0.502  -0.638   0.318  0.00  0.00     0.150 A 
ATOM      5  C4  UNL d   1      -0.790  -0.181   0.559  0.00  0.00    -0.007 A 
ATOM      6  C5  UNL d   1      -1.641  -0.920   1.381  0.00  0.00     0.039 A 
ENDROOT
BRANCH   4   7
ATOM      7  O   UNL d   1       1.296   0.114  -0.496  0.00  0.00    -0.526 OA
ATOM      8  H5  UNL d   1       2.150  -0.339  -0.596  0.00  0.00     0.418 HD
ENDBRANCH   4   7
TORSDOF 1
ENDMDL
