MODEL 1
REMARK minimizedAffinity -4.18211555
REMARK minimizedRMSD -1
REMARK  1 active torsions:
REMARK  status: ('A' for Active; 'I' for Inactive)
REMARK    1  A    between atoms: C3_4  and  O_7 
ROOT
ATOM      1  C   UNL d   1      -0.678   2.272  -1.978  0.00  0.00    -0.033 A 
ATOM      2  C1  UNL d   1      -1.480   2.156  -3.115  0.00  0.00     0.039 A 
ATOM      3  C2  UNL d   1      -2.203   0.984  -3.346  0.00  0.00    -0.080 A 
ATOM      4  C3  UNL d   1      -2.117  -0.063  -2.431  0.00  0.00     0.150 A 
ATOM      5  C4  UNL d   1      -1.324   0.048  -1.294  0.00  0.00    -0.007 A 
ATOM      6  C5  UNL d   1      -0.602   1.218  -1.066  0.00  0.00     0.039 A 
ENDROOT
BRANCH   4   7
ATOM      7  O   UNL d   1      -2.800  -1.228  -2.616  0.00  0.00    -0.526 OA
ATOM      8  H5  UNL d   1      -3.283  -1.171  -3.457  0.00  0.00     0.418 HD
ENDBRANCH   4   7
TORSDOF 1
ENDMDL
