MODEL 1
REMARK minimizedAffinity -5.17683363
REMARK minimizedRMSD -1
REMARK  1 active torsions:
REMARK  status: ('A' for Active; 'I' for Inactive)
REMARK    1  A    between atoms: C3_4  and  O_7 
ROOT
ATOM      1  C   UNL d   1       0.738   0.638  -0.168  0.00  0.00    -0.033 A 
ATOM      2  C1  UNL d   1       2.082   0.265  -0.104  0.00  0.00     0.039 A 
ATOM      3  C2  UNL d   1       2.428  -1.059   0.176  0.00  0.00    -0.080 A 
ATOM      4  C3  UNL d   1       1.422  -1.998   0.387  0.00  0.00     0.150 A 
ATOM      5  C4  UNL d   1       0.081  -1.633   0.320  0.00  0.00    -0.007 A 
ATOM      6  C5  UNL d   1      -0.262  -0.311   0.042  0.00  0.00     0.039 A 
ENDROOT
BRANCH   4   7
ATOM      7  O   UNL d   1       1.710  -3.300   0.668  0.00  0.00    -0.526 OA
ATOM      8  H5  UNL d   1       2.676  -3.399   0.710  0.00  0.00     0.418 HD
ENDBRANCH   4   7
TORSDOF 1
ENDMDL
