MODEL 1
REMARK minimizedAffinity -3.75115108
REMARK minimizedRMSD -1
REMARK  1 active torsions:
REMARK  status: ('A' for Active; 'I' for Inactive)
REMARK    1  A    between atoms: C3_4  and  O_7 
ROOT
ATOM      1  C   UNL d   1       1.362  -2.711   1.137  0.00  0.00    -0.033 A 
ATOM      2  C1  UNL d   1       2.263  -1.833   0.531  0.00  0.00     0.039 A 
ATOM      3  C2  UNL d   1       1.811  -0.627  -0.008  0.00  0.00    -0.080 A 
ATOM      4  C3  UNL d   1       0.457  -0.311   0.068  0.00  0.00     0.150 A 
ATOM      5  C4  UNL d   1      -0.445  -1.178   0.674  0.00  0.00    -0.007 A 
ATOM      6  C5  UNL d   1       0.008  -2.383   1.210  0.00  0.00     0.039 A 
ENDROOT
BRANCH   4   7
ATOM      7  O   UNL d   1      -0.032   0.853  -0.448  0.00  0.00    -0.526 OA
ATOM      8  H5  UNL d   1       0.701   1.339  -0.861  0.00  0.00     0.418 HD
ENDBRANCH   4   7
TORSDOF 1
ENDMDL
