MODEL 1
REMARK minimizedAffinity -4.19683361
REMARK minimizedRMSD -1
REMARK  1 active torsions:
REMARK  status: ('A' for Active; 'I' for Inactive)
REMARK    1  A    between atoms: C3_4  and  O_7 
ROOT
ATOM      1  C   UNL d   1       1.725  -1.716   1.402  0.00  0.00    -0.033 A 
ATOM      2  C1  UNL d   1       0.333  -1.818   1.442  0.00  0.00     0.039 A 
ATOM      3  C2  UNL d   1      -0.456  -0.925   0.715  0.00  0.00    -0.080 A 
ATOM      4  C3  UNL d   1       0.158   0.066  -0.047  0.00  0.00     0.150 A 
ATOM      5  C4  UNL d   1       1.545   0.171  -0.094  0.00  0.00    -0.007 A 
ATOM      6  C5  UNL d   1       2.331  -0.721   0.633  0.00  0.00     0.039 A 
ENDROOT
BRANCH   4   7
ATOM      7  O   UNL d   1      -0.570   0.964  -0.769  0.00  0.00    -0.526 OA
ATOM      8  H5  UNL d   1      -1.513   0.787  -0.618  0.00  0.00     0.418 HD
ENDBRANCH   4   7
TORSDOF 1
ENDMDL
