MODEL 1
REMARK minimizedAffinity -4.30920172
REMARK minimizedRMSD -1
REMARK  1 active torsions:
REMARK  status: ('A' for Active; 'I' for Inactive)
REMARK    1  A    between atoms: C3_4  and  O_7 
ROOT
ATOM      1  C   UNL d   1       0.529  -1.560  -0.115  0.00  0.00    -0.033 A 
ATOM      2  C1  UNL d   1      -0.285  -2.249   0.786  0.00  0.00     0.039 A 
ATOM      3  C2  UNL d   1      -1.218  -1.555   1.559  0.00  0.00    -0.080 A 
ATOM      4  C3  UNL d   1      -1.327  -0.174   1.421  0.00  0.00     0.150 A 
ATOM      5  C4  UNL d   1      -0.522   0.519   0.523  0.00  0.00    -0.007 A 
ATOM      6  C5  UNL d   1       0.409  -0.176  -0.248  0.00  0.00     0.039 A 
ENDROOT
BRANCH   4   7
ATOM      7  O   UNL d   1      -2.219   0.548   2.157  0.00  0.00    -0.526 OA
ATOM      8  H5  UNL d   1      -2.686  -0.059   2.755  0.00  0.00     0.418 HD
ENDBRANCH   4   7
TORSDOF 1
ENDMDL
