MODEL 1
REMARK minimizedAffinity -3.04853296
REMARK minimizedRMSD -1
REMARK  1 active torsions:
REMARK  status: ('A' for Active; 'I' for Inactive)
REMARK    1  A    between atoms: C3_4  and  O_7 
ROOT
ATOM      1  C   UNL d   1       0.775  -0.073  -0.287  0.00  0.00    -0.033 A 
ATOM      2  C1  UNL d   1       0.241   1.216  -0.336  0.00  0.00     0.039 A 
ATOM      3  C2  UNL d   1      -0.854   1.551   0.464  0.00  0.00    -0.080 A 
ATOM      4  C3  UNL d   1      -1.404   0.589   1.307  0.00  0.00     0.150 A 
ATOM      5  C4  UNL d   1      -0.874  -0.696   1.363  0.00  0.00    -0.007 A 
ATOM      6  C5  UNL d   1       0.218  -1.029   0.563  0.00  0.00     0.039 A 
ENDROOT
BRANCH   4   7
ATOM      7  O   UNL d   1      -2.475   0.867   2.102  0.00  0.00    -0.526 OA
ATOM      8  H5  UNL d   1      -2.751   1.784   1.936  0.00  0.00     0.418 HD
ENDBRANCH   4   7
TORSDOF 1
ENDMDL
