MODEL 1
REMARK minimizedAffinity -5.03535461
REMARK minimizedRMSD -1
REMARK  1 active torsions:
REMARK  status: ('A' for Active; 'I' for Inactive)
REMARK    1  A    between atoms: C3_4  and  O_7 
ROOT
ATOM      1  C   UNL d   1       0.112   0.090   0.380  0.00  0.00    -0.033 A 
ATOM      2  C1  UNL d   1      -0.675  -0.899   0.973  0.00  0.00     0.039 A 
ATOM      3  C2  UNL d   1      -0.092  -2.089   1.411  0.00  0.00    -0.080 A 
ATOM      4  C3  UNL d   1       1.278  -2.278   1.251  0.00  0.00     0.150 A 
ATOM      5  C4  UNL d   1       2.069  -1.295   0.665  0.00  0.00    -0.007 A 
ATOM      6  C5  UNL d   1       1.485  -0.107   0.228  0.00  0.00     0.039 A 
ENDROOT
BRANCH   4   7
ATOM      7  O   UNL d   1       1.892  -3.425   1.658  0.00  0.00    -0.526 OA
ATOM      8  H5  UNL d   1       1.217  -4.024   2.018  0.00  0.00     0.418 HD
ENDBRANCH   4   7
TORSDOF 1
ENDMDL
