MODEL 1
REMARK minimizedAffinity -2.64107442
REMARK minimizedRMSD -1
REMARK  1 active torsions:
REMARK  status: ('A' for Active; 'I' for Inactive)
REMARK    1  A    between atoms: C3_4  and  O_7 
ROOT
ATOM      1  C   UNL d   1      -0.247   1.288  -0.401  0.00  0.00    -0.033 A 
ATOM      2  C1  UNL d   1       1.049   0.866  -0.705  0.00  0.00     0.039 A 
ATOM      3  C2  UNL d   1       1.509  -0.369  -0.243  0.00  0.00    -0.080 A 
ATOM      4  C3  UNL d   1       0.665  -1.171   0.519  0.00  0.00     0.150 A 
ATOM      5  C4  UNL d   1      -0.628  -0.759   0.823  0.00  0.00    -0.007 A 
ATOM      6  C5  UNL d   1      -1.086   0.475   0.362  0.00  0.00     0.039 A 
ENDROOT
BRANCH   4   7
ATOM      7  O   UNL d   1       1.072  -2.382   0.996  0.00  0.00    -0.526 OA
ATOM      8  H5  UNL d   1       1.997  -2.522   0.733  0.00  0.00     0.418 HD
ENDBRANCH   4   7
TORSDOF 1
ENDMDL
