MODEL 1
REMARK minimizedAffinity 7.64310694
REMARK minimizedRMSD -1
REMARK  0 active torsions:
REMARK  status: ('A' for Active; 'I' for Inactive)
ROOT
ATOM      1  C2' OXE d   1      -0.098  -1.366   1.166  0.00  0.00     0.078 C 
ATOM      2  C1' OXE d   1       0.914  -3.478   2.713  0.00  0.00     0.078 C 
ATOM      3  C1  OXE d   1       1.905  -2.556   2.048  0.00  0.00    -0.078 A 
ATOM      4  C2  OXE d   1       1.401  -1.553   1.255  0.00  0.00    -0.078 A 
ATOM      5  C3  OXE d   1       2.270  -0.642   0.662  0.00  0.00     0.003 A 
ATOM      6  C4  OXE d   1       3.655  -0.828   0.740  0.00  0.00    -0.002 A 
ATOM      7  C5  OXE d   1       4.189  -1.867   1.510  0.00  0.00    -0.002 A 
ATOM      8  C6  OXE d   1       3.330  -2.712   2.204  0.00  0.00     0.003 A 
ENDROOT
TORSDOF 0
ENDMDL
