MODEL 1
REMARK minimizedAffinity 0.476313204
REMARK minimizedRMSD -1
REMARK  0 active torsions:
REMARK  status: ('A' for Active; 'I' for Inactive)
ROOT
ATOM      1  C2' OXE d   1       1.091  -3.725   3.017  0.00  0.00     0.078 C 
ATOM      2  C1' OXE d   1      -0.462  -2.313   1.153  0.00  0.00     0.078 C 
ATOM      3  C1  OXE d   1       0.962  -1.864   1.367  0.00  0.00    -0.078 A 
ATOM      4  C2  OXE d   1       1.700  -2.531   2.315  0.00  0.00    -0.078 A 
ATOM      5  C3  OXE d   1       3.036  -2.193   2.513  0.00  0.00     0.003 A 
ATOM      6  C4  OXE d   1       3.588  -1.080   1.867  0.00  0.00    -0.002 A 
ATOM      7  C5  OXE d   1       2.842  -0.362   0.926  0.00  0.00    -0.002 A 
ATOM      8  C6  OXE d   1       1.544  -0.766   0.634  0.00  0.00     0.003 A 
ENDROOT
TORSDOF 0
ENDMDL
