MODEL 1
REMARK minimizedAffinity 1.64846408
REMARK minimizedRMSD -1
REMARK  0 active torsions:
REMARK  status: ('A' for Active; 'I' for Inactive)
ROOT
ATOM      1  C2' OXE d   1      -1.272  -0.728   1.182  0.00  0.00     0.078 C 
ATOM      2  C1' OXE d   1       0.713  -2.674   1.573  0.00  0.00     0.078 C 
ATOM      3  C1  OXE d   1       1.159  -1.264   1.273  0.00  0.00    -0.078 A 
ATOM      4  C2  OXE d   1       0.180  -0.329   1.037  0.00  0.00    -0.078 A 
ATOM      5  C3  OXE d   1       0.535   0.998   0.810  0.00  0.00     0.003 A 
ATOM      6  C4  OXE d   1       1.881   1.357   0.668  0.00  0.00    -0.002 A 
ATOM      7  C5  OXE d   1       2.893   0.412   0.865  0.00  0.00    -0.002 A 
ATOM      8  C6  OXE d   1       2.550  -0.891   1.209  0.00  0.00     0.003 A 
ENDROOT
TORSDOF 0
ENDMDL
