MODEL 1
REMARK minimizedAffinity -3.1119709
REMARK minimizedRMSD -1
REMARK  0 active torsions:
REMARK  status: ('A' for Active; 'I' for Inactive)
ROOT
ATOM      1  C2' OXE d   1       1.800   1.032   3.071  0.00  0.00     0.078 C 
ATOM      2  C1' OXE d   1       2.916   2.236   0.794  0.00  0.00     0.078 C 
ATOM      3  C1  OXE d   1       3.227   0.782   1.044  0.00  0.00    -0.078 A 
ATOM      4  C2  OXE d   1       2.714   0.213   2.185  0.00  0.00    -0.078 A 
ATOM      5  C3  OXE d   1       2.925  -1.140   2.436  0.00  0.00     0.003 A 
ATOM      6  C4  OXE d   1       3.780  -1.888   1.617  0.00  0.00    -0.002 A 
ATOM      7  C5  OXE d   1       4.344  -1.317   0.471  0.00  0.00    -0.002 A 
ATOM      8  C6  OXE d   1       4.044   0.001   0.148  0.00  0.00     0.003 A 
ENDROOT
TORSDOF 0
ENDMDL
