MODEL 1
REMARK minimizedAffinity 3.77916932
REMARK minimizedRMSD -1
REMARK  0 active torsions:
REMARK  status: ('A' for Active; 'I' for Inactive)
ROOT
ATOM      1  C2' OXE d   1      -1.091  -2.670   1.495  0.00  0.00     0.078 C 
ATOM      2  C1' OXE d   1       0.405  -2.281  -0.849  0.00  0.00     0.078 C 
ATOM      3  C1  OXE d   1       1.097  -2.060   0.473  0.00  0.00    -0.078 A 
ATOM      4  C2  OXE d   1       0.345  -2.207   1.613  0.00  0.00    -0.078 A 
ATOM      5  C3  OXE d   1       0.949  -2.067   2.860  0.00  0.00     0.003 A 
ATOM      6  C4  OXE d   1       2.274  -1.629   2.960  0.00  0.00    -0.002 A 
ATOM      7  C5  OXE d   1       3.047  -1.434   1.811  0.00  0.00    -0.002 A 
ATOM      8  C6  OXE d   1       2.487  -1.686   0.563  0.00  0.00     0.003 A 
ENDROOT
TORSDOF 0
ENDMDL
