MODEL 1
REMARK minimizedAffinity 5.7998147
REMARK minimizedRMSD -1
REMARK  0 active torsions:
REMARK  status: ('A' for Active; 'I' for Inactive)
ROOT
ATOM      1  C2' OXE d   1       2.257  -4.815  -0.041  0.00  0.00     0.078 C 
ATOM      2  C1' OXE d   1       0.994  -2.318   0.183  0.00  0.00     0.078 C 
ATOM      3  C1  OXE d   1       1.676  -2.647  -1.121  0.00  0.00    -0.078 A 
ATOM      4  C2  OXE d   1       2.331  -3.852  -1.206  0.00  0.00    -0.078 A 
ATOM      5  C3  OXE d   1       2.931  -4.228  -2.404  0.00  0.00     0.003 A 
ATOM      6  C4  OXE d   1       3.004  -3.327  -3.474  0.00  0.00    -0.002 A 
ATOM      7  C5  OXE d   1       2.377  -2.079  -3.394  0.00  0.00    -0.002 A 
ATOM      8  C6  OXE d   1       1.674  -1.741  -2.243  0.00  0.00     0.003 A 
ENDROOT
TORSDOF 0
ENDMDL
