MODEL 1
REMARK minimizedAffinity 4.65320444
REMARK minimizedRMSD -1
REMARK  0 active torsions:
REMARK  status: ('A' for Active; 'I' for Inactive)
ROOT
ATOM      1  C2' OXE d   1       1.592  -2.614  -1.755  0.00  0.00     0.078 C 
ATOM      2  C1' OXE d   1       1.687  -2.238   1.025  0.00  0.00     0.078 C 
ATOM      3  C1  OXE d   1       0.471  -1.734   0.288  0.00  0.00    -0.078 A 
ATOM      4  C2  OXE d   1       0.455  -1.880  -1.078  0.00  0.00    -0.078 A 
ATOM      5  C3  OXE d   1      -0.667  -1.482  -1.800  0.00  0.00     0.003 A 
ATOM      6  C4  OXE d   1      -1.710  -0.795  -1.168  0.00  0.00    -0.002 A 
ATOM      7  C5  OXE d   1      -1.695  -0.600   0.218  0.00  0.00    -0.002 A 
ATOM      8  C6  OXE d   1      -0.634  -1.100   0.964  0.00  0.00     0.003 A 
ENDROOT
TORSDOF 0
ENDMDL
