MODEL 1
REMARK minimizedAffinity 8.47074604
REMARK minimizedRMSD -1
REMARK  0 active torsions:
REMARK  status: ('A' for Active; 'I' for Inactive)
ROOT
ATOM      1  C2' OXE d   1       1.898  -3.118   1.156  0.00  0.00     0.078 C 
ATOM      2  C1' OXE d   1      -0.547  -1.758   1.384  0.00  0.00     0.078 C 
ATOM      3  C1  OXE d   1       0.720  -0.968   1.594  0.00  0.00    -0.078 A 
ATOM      4  C2  OXE d   1       1.910  -1.651   1.527  0.00  0.00    -0.078 A 
ATOM      5  C3  OXE d   1       3.111  -0.959   1.659  0.00  0.00     0.003 A 
ATOM      6  C4  OXE d   1       3.113   0.396   2.012  0.00  0.00    -0.002 A 
ATOM      7  C5  OXE d   1       1.911   1.102   2.124  0.00  0.00    -0.002 A 
ATOM      8  C6  OXE d   1       0.710   0.446   1.877  0.00  0.00     0.003 A 
ENDROOT
TORSDOF 0
ENDMDL
