MODEL 1
REMARK minimizedAffinity -1.77634752
REMARK minimizedRMSD -1
REMARK  1 active torsions:
REMARK  status: ('A' for Active; 'I' for Inactive)
REMARK    1  A    between atoms: N_2  and  C1_3 
ROOT
ATOM      1  C1  UNL d   1       0.387   5.438   4.869  0.00  0.00     0.143 A 
ATOM      2  C2  UNL d   1      -0.303   4.904   5.962  0.00  0.00    -0.057 A 
ATOM      3  C3  UNL d   1      -1.703   4.887   5.999  0.00  0.00     0.033 A 
ATOM      4  C4  UNL d   1      -2.439   5.433   4.953  0.00  0.00    -0.042 A 
ATOM      5  C5  UNL d   1      -1.774   5.992   3.868  0.00  0.00     0.033 A 
ATOM      6  C6  UNL d   1      -0.376   6.000   3.833  0.00  0.00    -0.057 A 
ENDROOT
BRANCH   1   7
ATOM      7  N   UNL d   1       1.777   5.573   4.817  0.00  0.00    -0.732 N 
ATOM      8  C   UNL d   1       2.520   5.998   5.984  0.00  0.00     0.284 C 
ATOM      9  H3  UNL d   1       2.220   4.823   4.292  0.00  0.00     0.395 HD
ENDBRANCH   1   7
TORSDOF 1
ENDMDL
