MODEL 1
REMARK minimizedAffinity 3.25073004
REMARK minimizedRMSD -1
REMARK  1 active torsions:
REMARK  status: ('A' for Active; 'I' for Inactive)
REMARK    1  A    between atoms: N_2  and  C1_3 
ROOT
ATOM      1  C1  UNL d   1      -1.082   5.275   5.109  0.00  0.00     0.143 A 
ATOM      2  C2  UNL d   1      -1.985   6.000   5.894  0.00  0.00    -0.057 A 
ATOM      3  C3  UNL d   1      -3.327   5.616   5.999  0.00  0.00     0.033 A 
ATOM      4  C4  UNL d   1      -3.798   4.513   5.294  0.00  0.00    -0.042 A 
ATOM      5  C5  UNL d   1      -2.924   3.792   4.488  0.00  0.00     0.033 A 
ATOM      6  C6  UNL d   1      -1.583   4.176   4.393  0.00  0.00    -0.057 A 
ENDROOT
BRANCH   1   7
ATOM      7  N   UNL d   1       0.242   5.663   4.887  0.00  0.00    -0.732 N 
ATOM      8  C   UNL d   1       1.117   5.967   5.999  0.00  0.00     0.284 C 
ATOM      9  H3  UNL d   1       0.684   5.127   4.144  0.00  0.00     0.395 HD
ENDBRANCH   1   7
TORSDOF 1
ENDMDL
