MODEL 1
REMARK minimizedAffinity -1.16510808
REMARK minimizedRMSD -1
REMARK  1 active torsions:
REMARK  status: ('A' for Active; 'I' for Inactive)
REMARK    1  A    between atoms: N_2  and  C1_3 
ROOT
ATOM      1  C1  UNL d   1      -1.827   5.048   5.348  0.00  0.00     0.143 A 
ATOM      2  C2  UNL d   1      -1.601   4.652   4.025  0.00  0.00    -0.057 A 
ATOM      3  C3  UNL d   1      -0.377   4.898   3.393  0.00  0.00     0.033 A 
ATOM      4  C4  UNL d   1       0.637   5.573   4.064  0.00  0.00    -0.042 A 
ATOM      5  C5  UNL d   1       0.426   5.999   5.371  0.00  0.00     0.033 A 
ATOM      6  C6  UNL d   1      -0.797   5.744   6.000  0.00  0.00    -0.057 A 
ENDROOT
BRANCH   1   7
ATOM      7  N   UNL d   1      -3.056   4.920   5.999  0.00  0.00    -0.732 N 
ATOM      8  C   UNL d   1      -4.039   5.980   5.933  0.00  0.00     0.284 C 
ATOM      9  H3  UNL d   1      -3.447   3.985   5.912  0.00  0.00     0.395 HD
ENDBRANCH   1   7
TORSDOF 1
ENDMDL
