MODEL 1
REMARK minimizedAffinity -0.828778207
REMARK minimizedRMSD -1
REMARK  1 active torsions:
REMARK  status: ('A' for Active; 'I' for Inactive)
REMARK    1  A    between atoms: N_2  and  C1_3 
ROOT
ATOM      1  C1  UNL d   1       0.844   5.752   4.708  0.00  0.00     0.143 A 
ATOM      2  C2  UNL d   1       0.160   5.140   3.652  0.00  0.00    -0.057 A 
ATOM      3  C3  UNL d   1      -1.202   4.830   3.751  0.00  0.00     0.033 A 
ATOM      4  C4  UNL d   1      -1.899   5.101   4.923  0.00  0.00    -0.042 A 
ATOM      5  C5  UNL d   1      -1.234   5.687   5.995  0.00  0.00     0.033 A 
ATOM      6  C6  UNL d   1       0.124   6.000   5.887  0.00  0.00    -0.057 A 
ENDROOT
BRANCH   1   7
ATOM      7  N   UNL d   1       2.219   5.995   4.707  0.00  0.00    -0.732 N 
ATOM      8  C   UNL d   1       2.968   6.000   5.945  0.00  0.00     0.284 C 
ATOM      9  H3  UNL d   1       2.695   5.532   3.935  0.00  0.00     0.395 HD
ENDBRANCH   1   7
TORSDOF 1
ENDMDL
