MODEL 1
REMARK minimizedAffinity 6.83138561
REMARK minimizedRMSD -1
REMARK  1 active torsions:
REMARK  status: ('A' for Active; 'I' for Inactive)
REMARK    1  A    between atoms: N_2  and  C1_3 
ROOT
ATOM      1  C1  UNL d   1       1.461  -2.566   1.945  0.00  0.00     0.143 A 
ATOM      2  C2  UNL d   1       1.219  -1.666   2.988  0.00  0.00    -0.057 A 
ATOM      3  C3  UNL d   1       1.267  -0.282   2.779  0.00  0.00     0.033 A 
ATOM      4  C4  UNL d   1       1.588   0.227   1.525  0.00  0.00    -0.042 A 
ATOM      5  C5  UNL d   1       1.856  -0.649   0.479  0.00  0.00     0.033 A 
ATOM      6  C6  UNL d   1       1.800  -2.030   0.693  0.00  0.00    -0.057 A 
ENDROOT
BRANCH   1   7
ATOM      7  N   UNL d   1       1.524  -3.952   2.112  0.00  0.00    -0.732 N 
ATOM      8  C   UNL d   1       0.363  -4.696   2.549  0.00  0.00     0.284 C 
ATOM      9  H3  UNL d   1       2.057  -4.408   1.374  0.00  0.00     0.395 HD
ENDBRANCH   1   7
TORSDOF 1
ENDMDL
