MODEL 1
REMARK minimizedAffinity -2.11838269
REMARK minimizedRMSD -1
REMARK  0 active torsions:
REMARK  status: ('A' for Active; 'I' for Inactive)
ROOT
ATOM      1  C   UNL d   1       2.911   1.841   1.589  0.00  0.00    -0.002 A 
ATOM      2  C1  UNL d   1       3.385   1.036   0.562  0.00  0.00     0.010 A 
ATOM      3  C2  UNL d   1       2.521   0.185  -0.130  0.00  0.00     0.041 A 
ATOM      4  C3  UNL d   1       1.159   0.159   0.228  0.00  0.00    -0.075 A 
ATOM      5  S   UNL d   1      -0.084  -0.803  -0.481  0.00  0.00     0.015 SA
ATOM      6  C4  UNL d   1      -1.274  -0.167   0.561  0.00  0.00     0.022 A 
ATOM      7  C5  UNL d   1      -0.753   0.757   1.435  0.00  0.00     0.026 A 
ATOM      8  C6  UNL d   1       0.658   0.961   1.257  0.00  0.00    -0.082 A 
ATOM      9  C7  UNL d   1       1.559   1.812   1.941  0.00  0.00     0.045 A 
ENDROOT
TORSDOF 0
ENDMDL
