MODEL 1
REMARK minimizedAffinity 3.86120868
REMARK minimizedRMSD -1
REMARK  0 active torsions:
REMARK  status: ('A' for Active; 'I' for Inactive)
ROOT
ATOM      1  C   UNL d   1       4.104   1.165   1.147  0.00  0.00    -0.002 A 
ATOM      2  C1  UNL d   1       3.934   0.365   0.026  0.00  0.00     0.010 A 
ATOM      3  C2  UNL d   1       2.656  -0.012  -0.390  0.00  0.00     0.041 A 
ATOM      4  C3  UNL d   1       1.540   0.435   0.345  0.00  0.00    -0.075 A 
ATOM      5  S   UNL d   1      -0.120   0.100   0.021  0.00  0.00     0.015 SA
ATOM      6  C4  UNL d   1      -0.643   1.012   1.363  0.00  0.00     0.022 A 
ATOM      7  C5  UNL d   1       0.410   1.565   2.052  0.00  0.00     0.026 A 
ATOM      8  C6  UNL d   1       1.686   1.242   1.477  0.00  0.00    -0.082 A 
ATOM      9  C7  UNL d   1       2.995   1.606   1.874  0.00  0.00     0.045 A 
ENDROOT
TORSDOF 0
ENDMDL
