MODEL 1
REMARK minimizedAffinity -2.21226025
REMARK minimizedRMSD -1
REMARK  0 active torsions:
REMARK  status: ('A' for Active; 'I' for Inactive)
ROOT
ATOM      1  C   UNL d   1       0.639   2.044   0.910  0.00  0.00    -0.002 A 
ATOM      2  C1  UNL d   1       1.642   1.910  -0.040  0.00  0.00     0.010 A 
ATOM      3  C2  UNL d   1       1.648   0.822  -0.916  0.00  0.00     0.041 A 
ATOM      4  C3  UNL d   1       0.619  -0.135  -0.822  0.00  0.00    -0.075 A 
ATOM      5  S   UNL d   1       0.422  -1.548  -1.790  0.00  0.00     0.015 SA
ATOM      6  C4  UNL d   1      -0.998  -2.005  -0.966  0.00  0.00     0.022 A 
ATOM      7  C5  UNL d   1      -1.328  -1.113   0.027  0.00  0.00     0.026 A 
ATOM      8  C6  UNL d   1      -0.402  -0.020   0.126  0.00  0.00    -0.082 A 
ATOM      9  C7  UNL d   1      -0.380   1.093   1.000  0.00  0.00     0.045 A 
ENDROOT
TORSDOF 0
ENDMDL
