MODEL 1
REMARK minimizedAffinity -2.57440281
REMARK minimizedRMSD -1
REMARK  0 active torsions:
REMARK  status: ('A' for Active; 'I' for Inactive)
ROOT
ATOM      1  C   UNL d   1       0.356   2.604   1.808  0.00  0.00    -0.002 A 
ATOM      2  C1  UNL d   1      -0.187   1.650   2.657  0.00  0.00     0.010 A 
ATOM      3  C2  UNL d   1      -0.592   0.408   2.162  0.00  0.00     0.041 A 
ATOM      4  C3  UNL d   1      -0.439   0.139   0.788  0.00  0.00    -0.075 A 
ATOM      5  S   UNL d   1      -0.864  -1.312  -0.041  0.00  0.00     0.015 SA
ATOM      6  C4  UNL d   1      -0.335  -0.699  -1.540  0.00  0.00     0.022 A 
ATOM      7  C5  UNL d   1       0.156   0.580  -1.430  0.00  0.00     0.026 A 
ATOM      8  C6  UNL d   1       0.105   1.084  -0.086  0.00  0.00    -0.082 A 
ATOM      9  C7  UNL d   1       0.505   2.334   0.445  0.00  0.00     0.045 A 
ENDROOT
TORSDOF 0
ENDMDL
