MODEL 1
REMARK minimizedAffinity -4.83876896
REMARK minimizedRMSD -1
REMARK  0 active torsions:
REMARK  status: ('A' for Active; 'I' for Inactive)
ROOT
ATOM      1  C   UNL d   1       0.979   2.036   1.905  0.00  0.00    -0.002 A 
ATOM      2  C1  UNL d   1       0.150   1.245   2.688  0.00  0.00     0.010 A 
ATOM      3  C2  UNL d   1      -0.584   0.204   2.117  0.00  0.00     0.041 A 
ATOM      4  C3  UNL d   1      -0.469  -0.032   0.733  0.00  0.00    -0.075 A 
ATOM      5  S   UNL d   1      -1.272  -1.251  -0.185  0.00  0.00     0.015 SA
ATOM      6  C4  UNL d   1      -0.533  -0.751  -1.637  0.00  0.00     0.022 A 
ATOM      7  C5  UNL d   1       0.309   0.319  -1.445  0.00  0.00     0.026 A 
ATOM      8  C6  UNL d   1       0.360   0.751  -0.076  0.00  0.00    -0.082 A 
ATOM      9  C7  UNL d   1       1.091   1.799   0.533  0.00  0.00     0.045 A 
ENDROOT
TORSDOF 0
ENDMDL
