MODEL 1
REMARK minimizedAffinity -2.33569098
REMARK minimizedRMSD -1
REMARK  0 active torsions:
REMARK  status: ('A' for Active; 'I' for Inactive)
ROOT
ATOM      1  C   UNL d   1      -5.445  -3.143  -1.200  0.00  0.00    -0.002 A 
ATOM      2  C1  UNL d   1      -4.553  -3.398  -0.168  0.00  0.00     0.010 A 
ATOM      3  C2  UNL d   1      -3.230  -2.961  -0.248  0.00  0.00     0.041 A 
ATOM      4  C3  UNL d   1      -2.813  -2.256  -1.394  0.00  0.00    -0.075 A 
ATOM      5  S   UNL d   1      -1.240  -1.624  -1.711  0.00  0.00     0.015 SA
ATOM      6  C4  UNL d   1      -1.715  -1.001  -3.225  0.00  0.00     0.022 A 
ATOM      7  C5  UNL d   1      -3.037  -1.259  -3.498  0.00  0.00     0.026 A 
ATOM      8  C6  UNL d   1      -3.692  -1.987  -2.447  0.00  0.00    -0.082 A 
ATOM      9  C7  UNL d   1      -5.028  -2.443  -2.336  0.00  0.00     0.045 A 
ENDROOT
TORSDOF 0
ENDMDL
