MODEL 1
REMARK minimizedAffinity -5.1865387
REMARK minimizedRMSD -1
REMARK  0 active torsions:
REMARK  status: ('A' for Active; 'I' for Inactive)
ROOT
ATOM      1  C   UNL d   1      -1.406   1.841   3.239  0.00  0.00    -0.002 A 
ATOM      2  C1  UNL d   1      -2.063   0.704   2.789  0.00  0.00     0.010 A 
ATOM      3  C2  UNL d   1      -1.534  -0.052   1.741  0.00  0.00     0.041 A 
ATOM      4  C3  UNL d   1      -0.323   0.355   1.149  0.00  0.00    -0.075 A 
ATOM      5  S   UNL d   1       0.512  -0.416  -0.147  0.00  0.00     0.015 SA
ATOM      6  C4  UNL d   1       1.761   0.744  -0.132  0.00  0.00     0.022 A 
ATOM      7  C5  UNL d   1       1.561   1.704   0.831  0.00  0.00     0.026 A 
ATOM      8  C6  UNL d   1       0.358   1.495   1.586  0.00  0.00    -0.082 A 
ATOM      9  C7  UNL d   1      -0.204   2.242   2.650  0.00  0.00     0.045 A 
ENDROOT
TORSDOF 0
ENDMDL
