MODEL 1
REMARK minimizedAffinity 0.399632007
REMARK minimizedRMSD -1
REMARK  0 active torsions:
REMARK  status: ('A' for Active; 'I' for Inactive)
ROOT
ATOM      1  C   UNL d   1      -2.471  -1.308  -3.730  0.00  0.00    -0.002 A 
ATOM      2  C1  UNL d   1      -2.770  -2.457  -3.012  0.00  0.00     0.010 A 
ATOM      3  C2  UNL d   1      -2.292  -2.625  -1.711  0.00  0.00     0.041 A 
ATOM      4  C3  UNL d   1      -1.502  -1.609  -1.138  0.00  0.00    -0.075 A 
ATOM      5  S   UNL d   1      -0.809  -1.596   0.440  0.00  0.00     0.015 SA
ATOM      6  C4  UNL d   1      -0.101  -0.065   0.198  0.00  0.00     0.022 A 
ATOM      7  C5  UNL d   1      -0.376   0.439  -1.051  0.00  0.00     0.026 A 
ATOM      8  C6  UNL d   1      -1.189  -0.442  -1.841  0.00  0.00    -0.082 A 
ATOM      9  C7  UNL d   1      -1.688  -0.302  -3.159  0.00  0.00     0.045 A 
ENDROOT
TORSDOF 0
ENDMDL
