MODEL 1
REMARK minimizedAffinity -2.70077658
REMARK minimizedRMSD -1
REMARK  0 active torsions:
REMARK  status: ('A' for Active; 'I' for Inactive)
ROOT
ATOM      1  C   UNL d   1      -1.517  -2.070  -3.092  0.00  0.00    -0.002 A 
ATOM      2  C1  UNL d   1      -2.667  -2.200  -2.325  0.00  0.00     0.010 A 
ATOM      3  C2  UNL d   1      -2.725  -1.665  -1.037  0.00  0.00     0.041 A 
ATOM      4  C3  UNL d   1      -1.599  -0.989  -0.528  0.00  0.00    -0.075 A 
ATOM      5  S   UNL d   1      -1.442  -0.253   1.023  0.00  0.00     0.015 SA
ATOM      6  C4  UNL d   1       0.155   0.253   0.704  0.00  0.00     0.022 A 
ATOM      7  C5  UNL d   1       0.573  -0.123  -0.550  0.00  0.00     0.026 A 
ATOM      8  C6  UNL d   1      -0.430  -0.845  -1.281  0.00  0.00    -0.082 A 
ATOM      9  C7  UNL d   1      -0.402  -1.399  -2.583  0.00  0.00     0.045 A 
ENDROOT
TORSDOF 0
ENDMDL
