MODEL 1
REMARK minimizedAffinity -4.23365831
REMARK minimizedRMSD -1
REMARK  0 active torsions:
REMARK  status: ('A' for Active; 'I' for Inactive)
ROOT
ATOM      1  C   UNL d   1       2.409   1.965  -0.016  0.00  0.00    -0.002 A 
ATOM      2  C1  UNL d   1       1.608   2.459   1.004  0.00  0.00     0.010 A 
ATOM      3  C2  UNL d   1       0.471   1.761   1.416  0.00  0.00     0.041 A 
ATOM      4  C3  UNL d   1       0.151   0.545   0.781  0.00  0.00    -0.075 A 
ATOM      5  S   UNL d   1      -1.192  -0.482   1.121  0.00  0.00     0.015 SA
ATOM      6  C4  UNL d   1      -0.734  -1.602  -0.080  0.00  0.00     0.022 A 
ATOM      7  C5  UNL d   1       0.413  -1.217  -0.733  0.00  0.00     0.026 A 
ATOM      8  C6  UNL d   1       0.942   0.027  -0.248  0.00  0.00    -0.082 A 
ATOM      9  C7  UNL d   1       2.087   0.758  -0.644  0.00  0.00     0.045 A 
ENDROOT
TORSDOF 0
ENDMDL
