MODEL 1
REMARK minimizedAffinity -3.04501867
REMARK minimizedRMSD -1
REMARK  0 active torsions:
REMARK  status: ('A' for Active; 'I' for Inactive)
ROOT
ATOM      1  C   UNL d   1       2.057   2.647   1.251  0.00  0.00    -0.002 A 
ATOM      2  C1  UNL d   1       3.121   1.886   0.789  0.00  0.00     0.010 A 
ATOM      3  C2  UNL d   1       2.895   0.686   0.111  0.00  0.00     0.041 A 
ATOM      4  C3  UNL d   1       1.568   0.261  -0.099  0.00  0.00    -0.075 A 
ATOM      5  S   UNL d   1       1.051  -1.172  -0.904  0.00  0.00     0.015 SA
ATOM      6  C4  UNL d   1      -0.595  -0.808  -0.654  0.00  0.00     0.022 A 
ATOM      7  C5  UNL d   1      -0.764   0.375   0.026  0.00  0.00     0.026 A 
ATOM      8  C6  UNL d   1       0.480   1.011   0.357  0.00  0.00    -0.082 A 
ATOM      9  C7  UNL d   1       0.742   2.222   1.042  0.00  0.00     0.045 A 
ENDROOT
TORSDOF 0
ENDMDL
