MODEL 1
REMARK minimizedAffinity -5.94814396
REMARK minimizedRMSD -1
REMARK  0 active torsions:
REMARK  status: ('A' for Active; 'I' for Inactive)
ROOT
ATOM      1  C   UNL d   1       2.463   2.513   0.758  0.00  0.00    -0.002 A 
ATOM      2  C1  UNL d   1       3.206   1.614   0.005  0.00  0.00     0.010 A 
ATOM      3  C2  UNL d   1       2.671   0.375  -0.353  0.00  0.00     0.041 A 
ATOM      4  C3  UNL d   1       1.364   0.052   0.060  0.00  0.00    -0.075 A 
ATOM      5  S   UNL d   1       0.503  -1.406  -0.262  0.00  0.00     0.015 SA
ATOM      6  C4  UNL d   1      -0.872  -0.871   0.592  0.00  0.00     0.022 A 
ATOM      7  C5  UNL d   1      -0.695   0.388   1.116  0.00  0.00     0.026 A 
ATOM      8  C6  UNL d   1       0.596   0.940   0.818  0.00  0.00    -0.082 A 
ATOM      9  C7  UNL d   1       1.167   2.188   1.166  0.00  0.00     0.045 A 
ENDROOT
TORSDOF 0
ENDMDL
