MODEL 1
REMARK minimizedAffinity -2.47933102
REMARK minimizedRMSD -1
REMARK  0 active torsions:
REMARK  status: ('A' for Active; 'I' for Inactive)
ROOT
ATOM      1  C   UNL d   1       3.162   2.321   0.985  0.00  0.00    -0.002 A 
ATOM      2  C1  UNL d   1       3.343   1.349   0.011  0.00  0.00     0.010 A 
ATOM      3  C2  UNL d   1       2.270   0.567  -0.421  0.00  0.00     0.041 A 
ATOM      4  C3  UNL d   1       0.998   0.783   0.147  0.00  0.00    -0.075 A 
ATOM      5  S   UNL d   1      -0.462  -0.054  -0.227  0.00  0.00     0.015 SA
ATOM      6  C4  UNL d   1      -1.361   0.860   0.896  0.00  0.00     0.022 A 
ATOM      7  C5  UNL d   1      -0.581   1.785   1.550  0.00  0.00     0.026 A 
ATOM      8  C6  UNL d   1       0.791   1.756   1.128  0.00  0.00    -0.082 A 
ATOM      9  C7  UNL d   1       1.900   2.531   1.545  0.00  0.00     0.045 A 
ENDROOT
TORSDOF 0
ENDMDL
