MODEL 1
REMARK minimizedAffinity 2.77115512
REMARK minimizedRMSD -1
REMARK  0 active torsions:
REMARK  status: ('A' for Active; 'I' for Inactive)
ROOT
ATOM      1  C   UNL d   1      -2.773  -1.091  -3.736  0.00  0.00    -0.002 A 
ATOM      2  C1  UNL d   1      -3.392  -1.613  -2.610  0.00  0.00     0.010 A 
ATOM      3  C2  UNL d   1      -2.721  -1.657  -1.386  0.00  0.00     0.041 A 
ATOM      4  C3  UNL d   1      -1.405  -1.161  -1.313  0.00  0.00    -0.075 A 
ATOM      5  S   UNL d   1      -0.389  -1.111   0.080  0.00  0.00     0.015 SA
ATOM      6  C4  UNL d   1       0.891  -0.394  -0.788  0.00  0.00     0.022 A 
ATOM      7  C5  UNL d   1       0.568  -0.191  -2.109  0.00  0.00     0.026 A 
ATOM      8  C6  UNL d   1      -0.760  -0.629  -2.433  0.00  0.00    -0.082 A 
ATOM      9  C7  UNL d   1      -1.467  -0.599  -3.659  0.00  0.00     0.045 A 
ENDROOT
TORSDOF 0
ENDMDL
