MODEL 1
REMARK minimizedAffinity -1.91398191
REMARK minimizedRMSD -1
REMARK  0 active torsions:
REMARK  status: ('A' for Active; 'I' for Inactive)
ROOT
ATOM      1  C   UNL d   1       1.158   2.654   1.667  0.00  0.00    -0.002 A 
ATOM      2  C1  UNL d   1       0.461   1.843   2.552  0.00  0.00     0.010 A 
ATOM      3  C2  UNL d   1      -0.008   0.591   2.150  0.00  0.00     0.041 A 
ATOM      4  C3  UNL d   1       0.239   0.163   0.831  0.00  0.00    -0.075 A 
ATOM      5  S   UNL d   1      -0.239  -1.332   0.117  0.00  0.00     0.015 SA
ATOM      6  C4  UNL d   1       0.471  -0.930  -1.380  0.00  0.00     0.022 A 
ATOM      7  C5  UNL d   1       1.062   0.311  -1.353  0.00  0.00     0.026 A 
ATOM      8  C6  UNL d   1       0.939   0.961  -0.078  0.00  0.00    -0.082 A 
ATOM      9  C7  UNL d   1       1.401   2.225   0.360  0.00  0.00     0.045 A 
ENDROOT
TORSDOF 0
ENDMDL
