MODEL 1
REMARK minimizedAffinity -1.72795463
REMARK minimizedRMSD -1
REMARK  0 active torsions:
REMARK  status: ('A' for Active; 'I' for Inactive)
ROOT
ATOM      1  C   UNL d   1       1.328   2.969   1.022  0.00  0.00    -0.002 A 
ATOM      2  C1  UNL d   1       0.343   2.494   1.875  0.00  0.00     0.010 A 
ATOM      3  C2  UNL d   1      -0.182   1.211   1.710  0.00  0.00     0.041 A 
ATOM      4  C3  UNL d   1       0.307   0.404   0.663  0.00  0.00    -0.075 A 
ATOM      5  S   UNL d   1      -0.186  -1.200   0.270  0.00  0.00     0.015 SA
ATOM      6  C4  UNL d   1       0.901  -1.294  -1.039  0.00  0.00     0.022 A 
ATOM      7  C5  UNL d   1       1.630  -0.137  -1.188  0.00  0.00     0.026 A 
ATOM      8  C6  UNL d   1       1.300   0.860  -0.209  0.00  0.00    -0.082 A 
ATOM      9  C7  UNL d   1       1.811   2.166  -0.015  0.00  0.00     0.045 A 
ENDROOT
TORSDOF 0
ENDMDL
