MODEL 1
REMARK minimizedAffinity -0.836847305
REMARK minimizedRMSD -1
REMARK  0 active torsions:
REMARK  status: ('A' for Active; 'I' for Inactive)
ROOT
ATOM      1  C   UNL d   1      -1.168   1.197   2.932  0.00  0.00    -0.002 A 
ATOM      2  C1  UNL d   1      -0.010   1.960   2.888  0.00  0.00     0.010 A 
ATOM      3  C2  UNL d   1       0.878   1.844   1.816  0.00  0.00     0.041 A 
ATOM      4  C3  UNL d   1       0.578   0.940   0.778  0.00  0.00    -0.075 A 
ATOM      5  S   UNL d   1       1.516   0.630  -0.634  0.00  0.00     0.015 SA
ATOM      6  C4  UNL d   1       0.402  -0.522  -1.213  0.00  0.00     0.022 A 
ATOM      7  C5  UNL d   1      -0.666  -0.680  -0.362  0.00  0.00     0.026 A 
ATOM      8  C6  UNL d   1      -0.583   0.161   0.800  0.00  0.00    -0.082 A 
ATOM      9  C7  UNL d   1      -1.462   0.301   1.900  0.00  0.00     0.045 A 
ENDROOT
TORSDOF 0
ENDMDL
