MODEL 1
REMARK minimizedAffinity -4.97966051
REMARK minimizedRMSD -1
REMARK  0 active torsions:
REMARK  status: ('A' for Active; 'I' for Inactive)
ROOT
ATOM      1  C2' OXE d   1       2.311   1.009   0.238  0.00  0.00     0.078 C 
ATOM      2  C1' OXE d   1       0.593  -0.457  -1.429  0.00  0.00     0.078 C 
ATOM      3  C1  OXE d   1       0.239  -0.360   0.033  0.00  0.00    -0.078 A 
ATOM      4  C2  OXE d   1       1.110   0.321   0.850  0.00  0.00    -0.078 A 
ATOM      5  C3  OXE d   1       0.803   0.487   2.198  0.00  0.00     0.003 A 
ATOM      6  C4  OXE d   1      -0.304  -0.161   2.758  0.00  0.00    -0.002 A 
ATOM      7  C5  OXE d   1      -1.182  -0.892   1.951  0.00  0.00    -0.002 A 
ATOM      8  C6  OXE d   1      -0.949  -0.965   0.582  0.00  0.00     0.003 A 
ENDROOT
TORSDOF 0
ENDMDL
