MODEL 1
REMARK minimizedAffinity -2.84189081
REMARK minimizedRMSD -1
REMARK  0 active torsions:
REMARK  status: ('A' for Active; 'I' for Inactive)
ROOT
ATOM      1  C2' OXE d   1      -0.527   1.384   3.085  0.00  0.00     0.078 C 
ATOM      2  C1' OXE d   1      -1.646  -1.172   2.777  0.00  0.00     0.078 C 
ATOM      3  C1  OXE d   1      -0.854  -0.608   1.624  0.00  0.00    -0.078 A 
ATOM      4  C2  OXE d   1      -0.349   0.662   1.766  0.00  0.00    -0.078 A 
ATOM      5  C3  OXE d   1       0.435   1.209   0.755  0.00  0.00     0.003 A 
ATOM      6  C4  OXE d   1       0.586   0.539  -0.466  0.00  0.00    -0.002 A 
ATOM      7  C5  OXE d   1       0.047  -0.739  -0.645  0.00  0.00    -0.002 A 
ATOM      8  C6  OXE d   1      -0.638  -1.343   0.403  0.00  0.00     0.003 A 
ENDROOT
TORSDOF 0
ENDMDL
