MODEL 1
REMARK minimizedAffinity -2.75014019
REMARK minimizedRMSD -1
REMARK  0 active torsions:
REMARK  status: ('A' for Active; 'I' for Inactive)
ROOT
ATOM      1  C2' OXE d   1      -2.329  -0.637   0.270  0.00  0.00     0.078 C 
ATOM      2  C1' OXE d   1       0.011  -0.412  -1.263  0.00  0.00     0.078 C 
ATOM      3  C1  OXE d   1       0.148  -0.376   0.238  0.00  0.00    -0.078 A 
ATOM      4  C2  OXE d   1      -1.008  -0.439   0.980  0.00  0.00    -0.078 A 
ATOM      5  C3  OXE d   1      -0.934  -0.465   2.370  0.00  0.00     0.003 A 
ATOM      6  C4  OXE d   1       0.292  -0.271   3.018  0.00  0.00    -0.002 A 
ATOM      7  C5  OXE d   1       1.476  -0.164   2.281  0.00  0.00    -0.002 A 
ATOM      8  C6  OXE d   1       1.426  -0.257   0.895  0.00  0.00     0.003 A 
ENDROOT
TORSDOF 0
ENDMDL
