MODEL 1
REMARK minimizedAffinity -3.88459659
REMARK minimizedRMSD -1
REMARK  0 active torsions:
REMARK  status: ('A' for Active; 'I' for Inactive)
ROOT
ATOM      1  C2' OXE d   1      -2.291  -0.151  -0.106  0.00  0.00     0.078 C 
ATOM      2  C1' OXE d   1       0.134  -0.339  -1.506  0.00  0.00     0.078 C 
ATOM      3  C1  OXE d   1       0.193  -0.308   0.001  0.00  0.00    -0.078 A 
ATOM      4  C2  OXE d   1      -0.995  -0.168   0.676  0.00  0.00    -0.078 A 
ATOM      5  C3  OXE d   1      -1.003  -0.188   2.068  0.00  0.00     0.003 A 
ATOM      6  C4  OXE d   1       0.200  -0.194   2.784  0.00  0.00    -0.002 A 
ATOM      7  C5  OXE d   1       1.424  -0.296   2.114  0.00  0.00    -0.002 A 
ATOM      8  C6  OXE d   1       1.435  -0.396   0.727  0.00  0.00     0.003 A 
ENDROOT
TORSDOF 0
ENDMDL
