MODEL 1
REMARK minimizedAffinity -4.53509474
REMARK minimizedRMSD -1
REMARK  0 active torsions:
REMARK  status: ('A' for Active; 'I' for Inactive)
ROOT
ATOM      1  C2' OXE d   1       1.595   1.618   0.974  0.00  0.00     0.078 C 
ATOM      2  C1' OXE d   1      -0.061   0.400  -0.936  0.00  0.00     0.078 C 
ATOM      3  C1  OXE d   1      -0.264   0.027   0.511  0.00  0.00    -0.078 A 
ATOM      4  C2  OXE d   1       0.582   0.592   1.434  0.00  0.00    -0.078 A 
ATOM      5  C3  OXE d   1       0.403   0.324   2.788  0.00  0.00     0.003 A 
ATOM      6  C4  OXE d   1      -0.530  -0.633   3.204  0.00  0.00    -0.002 A 
ATOM      7  C5  OXE d   1      -1.375  -1.251   2.276  0.00  0.00    -0.002 A 
ATOM      8  C6  OXE d   1      -1.284  -0.901   0.933  0.00  0.00     0.003 A 
ENDROOT
TORSDOF 0
ENDMDL
