MODEL 1
REMARK minimizedAffinity -6.22391462
REMARK minimizedRMSD -1
REMARK  0 active torsions:
REMARK  status: ('A' for Active; 'I' for Inactive)
ROOT
ATOM      1  C2' OXE d   1      -1.372  -0.437   3.324  0.00  0.00     0.078 C 
ATOM      2  C1' OXE d   1      -2.939  -0.015   1.034  0.00  0.00     0.078 C 
ATOM      3  C1  OXE d   1      -1.452   0.209   0.920  0.00  0.00    -0.078 A 
ATOM      4  C2  OXE d   1      -0.699   0.046   2.058  0.00  0.00    -0.078 A 
ATOM      5  C3  OXE d   1       0.684   0.186   1.995  0.00  0.00     0.003 A 
ATOM      6  C4  OXE d   1       1.298   0.642   0.822  0.00  0.00    -0.002 A 
ATOM      7  C5  OXE d   1       0.544   0.853  -0.338  0.00  0.00    -0.002 A 
ATOM      8  C6  OXE d   1      -0.823   0.601  -0.317  0.00  0.00     0.003 A 
ENDROOT
TORSDOF 0
ENDMDL
