MODEL 1
REMARK minimizedAffinity -5.41272306
REMARK minimizedRMSD -1
REMARK  0 active torsions:
REMARK  status: ('A' for Active; 'I' for Inactive)
ROOT
ATOM      1  C2' OXE d   1      -2.469   1.168  -0.298  0.00  0.00     0.078 C 
ATOM      2  C1' OXE d   1       0.284   0.914  -0.784  0.00  0.00     0.078 C 
ATOM      3  C1  OXE d   1      -0.261   0.327   0.493  0.00  0.00    -0.078 A 
ATOM      4  C2  OXE d   1      -1.602   0.497   0.745  0.00  0.00    -0.078 A 
ATOM      5  C3  OXE d   1      -2.167  -0.072   1.883  0.00  0.00     0.003 A 
ATOM      6  C4  OXE d   1      -1.356  -0.682   2.848  0.00  0.00    -0.002 A 
ATOM      7  C5  OXE d   1       0.018  -0.831   2.630  0.00  0.00    -0.002 A 
ATOM      8  C6  OXE d   1       0.573  -0.371   1.441  0.00  0.00     0.003 A 
ENDROOT
TORSDOF 0
ENDMDL
