MODEL 1
REMARK minimizedAffinity -4.54206848
REMARK minimizedRMSD -1
REMARK  0 active torsions:
REMARK  status: ('A' for Active; 'I' for Inactive)
ROOT
ATOM      1  C2' OXE d   1       0.501  -0.098  -1.483  0.00  0.00     0.078 C 
ATOM      2  C1' OXE d   1       2.294   0.966   0.398  0.00  0.00     0.078 C 
ATOM      3  C1  OXE d   1       0.979   0.427   0.905  0.00  0.00    -0.078 A 
ATOM      4  C2  OXE d   1       0.089  -0.048  -0.028  0.00  0.00    -0.078 A 
ATOM      5  C3  OXE d   1      -1.115  -0.607   0.391  0.00  0.00     0.003 A 
ATOM      6  C4  OXE d   1      -1.493  -0.548   1.738  0.00  0.00    -0.002 A 
ATOM      7  C5  OXE d   1      -0.618  -0.032   2.699  0.00  0.00    -0.002 A 
ATOM      8  C6  OXE d   1       0.637   0.420   2.305  0.00  0.00     0.003 A 
ENDROOT
TORSDOF 0
ENDMDL
