MODEL 1
REMARK minimizedAffinity -4.43824911
REMARK minimizedRMSD -1
REMARK  0 active torsions:
REMARK  status: ('A' for Active; 'I' for Inactive)
ROOT
ATOM      1  C2' OXE d   1      -3.002  -1.098   0.743  0.00  0.00     0.078 C 
ATOM      2  C1' OXE d   1      -0.949  -1.290   2.648  0.00  0.00     0.078 C 
ATOM      3  C1  OXE d   1      -0.739  -0.362   1.478  0.00  0.00    -0.078 A 
ATOM      4  C2  OXE d   1      -1.729  -0.310   0.526  0.00  0.00    -0.078 A 
ATOM      5  C3  OXE d   1      -1.610   0.571  -0.545  0.00  0.00     0.003 A 
ATOM      6  C4  OXE d   1      -0.425   1.290  -0.743  0.00  0.00    -0.002 A 
ATOM      7  C5  OXE d   1       0.612   1.221   0.193  0.00  0.00    -0.002 A 
ATOM      8  C6  OXE d   1       0.454   0.434   1.328  0.00  0.00     0.003 A 
ENDROOT
TORSDOF 0
ENDMDL
