MODEL 1
REMARK minimizedAffinity -5.24500608
REMARK minimizedRMSD -1
REMARK  0 active torsions:
REMARK  status: ('A' for Active; 'I' for Inactive)
ROOT
ATOM      1  C2' OXE d   1      -1.121  -0.741   3.137  0.00  0.00     0.078 C 
ATOM      2  C1' OXE d   1      -3.001  -0.320   1.096  0.00  0.00     0.078 C 
ATOM      3  C1  OXE d   1      -1.559   0.013   0.804  0.00  0.00    -0.078 A 
ATOM      4  C2  OXE d   1      -0.653  -0.152   1.824  0.00  0.00    -0.078 A 
ATOM      5  C3  OXE d   1       0.698   0.088   1.592  0.00  0.00     0.003 A 
ATOM      6  C4  OXE d   1       1.121   0.642   0.378  0.00  0.00    -0.002 A 
ATOM      7  C5  OXE d   1       0.209   0.855  -0.661  0.00  0.00    -0.002 A 
ATOM      8  C6  OXE d   1      -1.125   0.507  -0.479  0.00  0.00     0.003 A 
ENDROOT
TORSDOF 0
ENDMDL
