MODEL 1
REMARK minimizedAffinity 2.46252322
REMARK minimizedRMSD -1
REMARK  0 active torsions:
REMARK  status: ('A' for Active; 'I' for Inactive)
ROOT
ATOM      1  C2' OXE d   1      -1.076   0.211   3.774  0.00  0.00     0.078 C 
ATOM      2  C1' OXE d   1       0.776   2.293   4.113  0.00  0.00     0.078 C 
ATOM      3  C1  OXE d   1       0.771   1.563   2.793  0.00  0.00    -0.078 A 
ATOM      4  C2  OXE d   1      -0.107   0.515   2.653  0.00  0.00    -0.078 A 
ATOM      5  C3  OXE d   1      -0.190  -0.156   1.436  0.00  0.00     0.003 A 
ATOM      6  C4  OXE d   1       0.717   0.125   0.407  0.00  0.00    -0.002 A 
ATOM      7  C5  OXE d   1       1.645   1.163   0.544  0.00  0.00    -0.002 A 
ATOM      8  C6  OXE d   1       1.657   1.918   1.711  0.00  0.00     0.003 A 
ENDROOT
TORSDOF 0
ENDMDL
