MODEL 1
REMARK minimizedAffinity 4.22967386
REMARK minimizedRMSD -1
REMARK  0 active torsions:
REMARK  status: ('A' for Active; 'I' for Inactive)
ROOT
ATOM      1  C2' OXE d   1      -0.948  -2.291   1.124  0.00  0.00     0.078 C 
ATOM      2  C1' OXE d   1      -3.354  -1.023   0.432  0.00  0.00     0.078 C 
ATOM      3  C1  OXE d   1      -2.066  -0.391  -0.035  0.00  0.00    -0.078 A 
ATOM      4  C2  OXE d   1      -0.892  -0.993   0.348  0.00  0.00    -0.078 A 
ATOM      5  C3  OXE d   1       0.323  -0.483  -0.101  0.00  0.00     0.003 A 
ATOM      6  C4  OXE d   1       0.366   0.724  -0.810  0.00  0.00    -0.002 A 
ATOM      7  C5  OXE d   1      -0.817   1.375  -1.177  0.00  0.00    -0.002 A 
ATOM      8  C6  OXE d   1      -2.040   0.809  -0.834  0.00  0.00     0.003 A 
ENDROOT
TORSDOF 0
ENDMDL
