MODEL 1
REMARK minimizedAffinity -4.40481138
REMARK minimizedRMSD -1
REMARK  0 active torsions:
REMARK  status: ('A' for Active; 'I' for Inactive)
ROOT
ATOM      1  C2' OXE d   1      -3.094  -0.173   1.022  0.00  0.00     0.078 C 
ATOM      2  C1' OXE d   1      -1.063  -0.518   2.929  0.00  0.00     0.078 C 
ATOM      3  C1  OXE d   1      -0.664  -0.047   1.553  0.00  0.00    -0.078 A 
ATOM      4  C2  OXE d   1      -1.658   0.074   0.612  0.00  0.00    -0.078 A 
ATOM      5  C3  OXE d   1      -1.352   0.556  -0.657  0.00  0.00     0.003 A 
ATOM      6  C4  OXE d   1      -0.020   0.772  -1.031  0.00  0.00    -0.002 A 
ATOM      7  C5  OXE d   1       1.013   0.616  -0.100  0.00  0.00    -0.002 A 
ATOM      8  C6  OXE d   1       0.704   0.249   1.205  0.00  0.00     0.003 A 
ENDROOT
TORSDOF 0
ENDMDL
