MODEL 1
REMARK minimizedAffinity -2.44442511
REMARK minimizedRMSD -1
REMARK  0 active torsions:
REMARK  status: ('A' for Active; 'I' for Inactive)
ROOT
ATOM      1  C2' OXE d   1       0.327   0.791   2.628  0.00  0.00     0.078 C 
ATOM      2  C1' OXE d   1      -0.547  -1.767   1.870  0.00  0.00     0.078 C 
ATOM      3  C1  OXE d   1      -0.087  -0.829   0.782  0.00  0.00    -0.078 A 
ATOM      4  C2  OXE d   1       0.294   0.436   1.157  0.00  0.00    -0.078 A 
ATOM      5  C3  OXE d   1       0.779   1.323   0.200  0.00  0.00     0.003 A 
ATOM      6  C4  OXE d   1       0.736   0.991  -1.160  0.00  0.00    -0.002 A 
ATOM      7  C5  OXE d   1       0.313  -0.279  -1.568  0.00  0.00    -0.002 A 
ATOM      8  C6  OXE d   1      -0.060  -1.214  -0.608  0.00  0.00     0.003 A 
ENDROOT
TORSDOF 0
ENDMDL
