MODEL 1
REMARK minimizedAffinity 0.895788074
REMARK minimizedRMSD -1
REMARK  0 active torsions:
REMARK  status: ('A' for Active; 'I' for Inactive)
ROOT
ATOM      1  C2' OXE d   1       1.890   0.691   1.479  0.00  0.00     0.078 C 
ATOM      2  C1' OXE d   1      -0.217   0.940   3.317  0.00  0.00     0.078 C 
ATOM      3  C1  OXE d   1      -0.571   0.739   1.865  0.00  0.00    -0.078 A 
ATOM      4  C2  OXE d   1       0.466   0.665   0.966  0.00  0.00    -0.078 A 
ATOM      5  C3  OXE d   1       0.197   0.426  -0.378  0.00  0.00     0.003 A 
ATOM      6  C4  OXE d   1      -1.122   0.414  -0.846  0.00  0.00    -0.002 A 
ATOM      7  C5  OXE d   1      -2.193   0.527   0.047  0.00  0.00    -0.002 A 
ATOM      8  C6  OXE d   1      -1.936   0.647   1.408  0.00  0.00     0.003 A 
ENDROOT
TORSDOF 0
ENDMDL
