MODEL 1
REMARK minimizedAffinity -1.53694618
REMARK minimizedRMSD -1
REMARK  0 active torsions:
REMARK  status: ('A' for Active; 'I' for Inactive)
ROOT
ATOM      1  C2' OXE d   1       0.054  -0.953  -0.910  0.00  0.00     0.078 C 
ATOM      2  C1' OXE d   1       1.062   1.495   0.023  0.00  0.00     0.078 C 
ATOM      3  C1  OXE d   1       0.435   0.563   1.030  0.00  0.00    -0.078 A 
ATOM      4  C2  OXE d   1      -0.098  -0.612   0.557  0.00  0.00    -0.078 A 
ATOM      5  C3  OXE d   1      -0.640  -1.532   1.450  0.00  0.00     0.003 A 
ATOM      6  C4  OXE d   1      -0.785  -1.204   2.804  0.00  0.00    -0.002 A 
ATOM      7  C5  OXE d   1      -0.285   0.005   3.299  0.00  0.00    -0.002 A 
ATOM      8  C6  OXE d   1       0.364   0.879   2.435  0.00  0.00     0.003 A 
ENDROOT
TORSDOF 0
ENDMDL
