MODEL 1
REMARK minimizedAffinity -3.48444748
REMARK minimizedRMSD -1
REMARK  0 active torsions:
REMARK  status: ('A' for Active; 'I' for Inactive)
ROOT
ATOM      1  C2' OXE d   1      -2.244  -0.661   0.350  0.00  0.00     0.078 C 
ATOM      2  C1' OXE d   1      -0.126   0.203  -1.277  0.00  0.00     0.078 C 
ATOM      3  C1  OXE d   1       0.117   0.121   0.209  0.00  0.00    -0.078 A 
ATOM      4  C2  OXE d   1      -0.939  -0.258   1.003  0.00  0.00    -0.078 A 
ATOM      5  C3  OXE d   1      -0.754  -0.402   2.375  0.00  0.00     0.003 A 
ATOM      6  C4  OXE d   1       0.453  -0.018   2.971  0.00  0.00    -0.002 A 
ATOM      7  C5  OXE d   1       1.529   0.409   2.186  0.00  0.00    -0.002 A 
ATOM      8  C6  OXE d   1       1.391   0.443   0.803  0.00  0.00     0.003 A 
ENDROOT
TORSDOF 0
ENDMDL
