MODEL 1
REMARK minimizedAffinity -3.18016601
REMARK minimizedRMSD -1
REMARK  0 active torsions:
REMARK  status: ('A' for Active; 'I' for Inactive)
ROOT
ATOM      1  C2' OXE d   1       1.755  -0.253   1.270  0.00  0.00     0.078 C 
ATOM      2  C1' OXE d   1      -0.460  -1.099   2.773  0.00  0.00     0.078 C 
ATOM      3  C1  OXE d   1      -0.719  -0.504   1.411  0.00  0.00    -0.078 A 
ATOM      4  C2  OXE d   1       0.367  -0.050   0.702  0.00  0.00    -0.078 A 
ATOM      5  C3  OXE d   1       0.188   0.458  -0.581  0.00  0.00     0.003 A 
ATOM      6  C4  OXE d   1      -1.100   0.652  -1.094  0.00  0.00    -0.002 A 
ATOM      7  C5  OXE d   1      -2.222   0.233  -0.372  0.00  0.00    -0.002 A 
ATOM      8  C6  OXE d   1      -2.047  -0.385   0.861  0.00  0.00     0.003 A 
ENDROOT
TORSDOF 0
ENDMDL
