MODEL 1
REMARK minimizedAffinity 1.13950801
REMARK minimizedRMSD -1
REMARK  0 active torsions:
REMARK  status: ('A' for Active; 'I' for Inactive)
ROOT
ATOM      1  C   UNL d   1       2.896  -2.232   5.453  0.00  0.00     0.172 C 
ATOM      2  N   UNL d   1       1.858  -1.938   4.493  0.00  0.00    -0.070 N 
ATOM      3  C1  UNL d   1       0.836  -2.778   4.141  0.00  0.00    -0.004 A 
ATOM      4  C2  UNL d   1       0.062  -2.131   3.201  0.00  0.00    -0.047 A 
ATOM      5  C3  UNL d   1       0.640  -0.858   2.981  0.00  0.00    -0.047 A 
ATOM      6  C4  UNL d   1       1.750  -0.765   3.794  0.00  0.00    -0.004 A 
ENDROOT
TORSDOF 0
ENDMDL
