MODEL 1
REMARK minimizedAffinity 0.710734308
REMARK minimizedRMSD -1
REMARK  0 active torsions:
REMARK  status: ('A' for Active; 'I' for Inactive)
ROOT
ATOM      1  C   UNL d   1       3.529  -0.975   5.097  0.00  0.00     0.172 C 
ATOM      2  N   UNL d   1       2.597  -1.106   4.002  0.00  0.00    -0.070 N 
ATOM      3  C1  UNL d   1       2.604  -0.358   2.855  0.00  0.00    -0.004 A 
ATOM      4  C2  UNL d   1       1.560  -0.788   2.064  0.00  0.00    -0.047 A 
ATOM      5  C3  UNL d   1       0.903  -1.830   2.761  0.00  0.00    -0.047 A 
ATOM      6  C4  UNL d   1       1.566  -2.006   3.957  0.00  0.00    -0.004 A 
ENDROOT
TORSDOF 0
ENDMDL
