MODEL 1
REMARK minimizedAffinity 2.35529828
REMARK minimizedRMSD -1
REMARK  0 active torsions:
REMARK  status: ('A' for Active; 'I' for Inactive)
ROOT
ATOM      1  C   UNL d   1       4.277  -1.501  -1.630  0.00  0.00     0.172 C 
ATOM      2  N   UNL d   1       4.697  -1.818  -2.975  0.00  0.00    -0.070 N 
ATOM      3  C1  UNL d   1       3.866  -2.002  -4.048  0.00  0.00    -0.004 A 
ATOM      4  C2  UNL d   1       4.651  -2.286  -5.145  0.00  0.00    -0.047 A 
ATOM      5  C3  UNL d   1       5.999  -2.272  -4.717  0.00  0.00    -0.047 A 
ATOM      6  C4  UNL d   1       5.999  -1.980  -3.369  0.00  0.00    -0.004 A 
ENDROOT
TORSDOF 0
ENDMDL
