MODEL 1
REMARK minimizedAffinity -1.01695657
REMARK minimizedRMSD -1
REMARK  0 active torsions:
REMARK  status: ('A' for Active; 'I' for Inactive)
ROOT
ATOM      1  C   UNL d   1       2.018  -2.378  -1.657  0.00  0.00     0.172 C 
ATOM      2  N   UNL d   1       1.220  -3.487  -2.124  0.00  0.00    -0.070 N 
ATOM      3  C1  UNL d   1      -0.149  -3.538  -2.132  0.00  0.00    -0.004 A 
ATOM      4  C2  UNL d   1      -0.523  -4.758  -2.651  0.00  0.00    -0.047 A 
ATOM      5  C3  UNL d   1       0.662  -5.466  -2.965  0.00  0.00    -0.047 A 
ATOM      6  C4  UNL d   1       1.726  -4.656  -2.629  0.00  0.00    -0.004 A 
ENDROOT
TORSDOF 0
ENDMDL
