MODEL 1
REMARK minimizedAffinity 4.34112787
REMARK minimizedRMSD -1
REMARK  0 active torsions:
REMARK  status: ('A' for Active; 'I' for Inactive)
ROOT
ATOM      1  C   UNL d   1       2.121  -4.056  -2.645  0.00  0.00     0.172 C 
ATOM      2  N   UNL d   1       1.137  -4.700  -3.483  0.00  0.00    -0.070 N 
ATOM      3  C1  UNL d   1       0.225  -5.634  -3.069  0.00  0.00    -0.004 A 
ATOM      4  C2  UNL d   1      -0.530  -6.000  -4.163  0.00  0.00    -0.047 A 
ATOM      5  C3  UNL d   1      -0.054  -5.261  -5.272  0.00  0.00    -0.047 A 
ATOM      6  C4  UNL d   1       0.978  -4.465  -4.823  0.00  0.00    -0.004 A 
ENDROOT
TORSDOF 0
ENDMDL
