MODEL 1
REMARK minimizedAffinity -4.04293013
REMARK minimizedRMSD -1
REMARK  1 active torsions:
REMARK  status: ('A' for Active; 'I' for Inactive)
REMARK    1  A    between atoms: C3_4  and  O_7 
ROOT
ATOM      1  C   UNL d   1      -0.463  -0.480   0.419  0.00  0.00    -0.033 A 
ATOM      2  C1  UNL d   1      -1.427   0.425   0.866  0.00  0.00     0.039 A 
ATOM      3  C2  UNL d   1      -1.334   1.775   0.521  0.00  0.00    -0.080 A 
ATOM      4  C3  UNL d   1      -0.274   2.206  -0.272  0.00  0.00     0.150 A 
ATOM      5  C4  UNL d   1       0.688   1.309  -0.724  0.00  0.00    -0.007 A 
ATOM      6  C5  UNL d   1       0.594  -0.039  -0.378  0.00  0.00     0.039 A 
ENDROOT
BRANCH   4   7
ATOM      7  O   UNL d   1      -0.138   3.514  -0.631  0.00  0.00    -0.526 OA
ATOM      8  H5  UNL d   1      -0.859   4.021  -0.222  0.00  0.00     0.418 HD
ENDBRANCH   4   7
TORSDOF 1
ENDMDL
