MODEL 1
REMARK minimizedAffinity -4.20576572
REMARK minimizedRMSD -1
REMARK  1 active torsions:
REMARK  status: ('A' for Active; 'I' for Inactive)
REMARK    1  A    between atoms: C3_4  and  O_7 
ROOT
ATOM      1  C   UNL d   1      -0.220  -0.217   0.109  0.00  0.00    -0.033 A 
ATOM      2  C1  UNL d   1       0.854   0.241  -0.656  0.00  0.00     0.039 A 
ATOM      3  C2  UNL d   1       0.972   1.601  -0.953  0.00  0.00    -0.080 A 
ATOM      4  C3  UNL d   1       0.012   2.490  -0.478  0.00  0.00     0.150 A 
ATOM      5  C4  UNL d   1      -1.059   2.040   0.288  0.00  0.00    -0.007 A 
ATOM      6  C5  UNL d   1      -1.176   0.682   0.582  0.00  0.00     0.039 A 
ENDROOT
BRANCH   4   7
ATOM      7  O   UNL d   1       0.082   3.825  -0.745  0.00  0.00    -0.526 OA
ATOM      8  H5  UNL d   1       0.858   3.985  -1.308  0.00  0.00     0.418 HD
ENDBRANCH   4   7
TORSDOF 1
ENDMDL
