MODEL 1
REMARK minimizedAffinity -2.01186705
REMARK minimizedRMSD -1
REMARK  1 active torsions:
REMARK  status: ('A' for Active; 'I' for Inactive)
REMARK    1  A    between atoms: C3_4  and  O_7 
ROOT
ATOM      1  C   UNL d   1       0.179   3.317   0.386  0.00  0.00    -0.033 A 
ATOM      2  C1  UNL d   1       1.176   2.712  -0.380  0.00  0.00     0.039 A 
ATOM      3  C2  UNL d   1       1.111   1.346  -0.661  0.00  0.00    -0.080 A 
ATOM      4  C3  UNL d   1       0.045   0.598  -0.170  0.00  0.00     0.150 A 
ATOM      5  C4  UNL d   1      -0.955   1.195   0.590  0.00  0.00    -0.007 A 
ATOM      6  C5  UNL d   1      -0.888   2.559   0.870  0.00  0.00     0.039 A 
ENDROOT
BRANCH   4   7
ATOM      7  O   UNL d   1      -0.059  -0.740  -0.414  0.00  0.00    -0.526 OA
ATOM      8  H5  UNL d   1       0.717  -1.021  -0.927  0.00  0.00     0.418 HD
ENDBRANCH   4   7
TORSDOF 1
ENDMDL
