MODEL 1
REMARK minimizedAffinity -4.72931671
REMARK minimizedRMSD -1
REMARK  1 active torsions:
REMARK  status: ('A' for Active; 'I' for Inactive)
REMARK    1  A    between atoms: C3_4  and  O_7 
ROOT
ATOM      1  C   UNL d   1       2.356   0.590   0.782  0.00  0.00    -0.033 A 
ATOM      2  C1  UNL d   1       0.992   0.552   0.488  0.00  0.00     0.039 A 
ATOM      3  C2  UNL d   1       0.333   1.709   0.070  0.00  0.00    -0.080 A 
ATOM      4  C3  UNL d   1       1.050   2.897  -0.052  0.00  0.00     0.150 A 
ATOM      5  C4  UNL d   1       2.410   2.942   0.236  0.00  0.00    -0.007 A 
ATOM      6  C5  UNL d   1       3.066   1.785   0.655  0.00  0.00     0.039 A 
ENDROOT
BRANCH   4   7
ATOM      7  O   UNL d   1       0.449   4.054  -0.452  0.00  0.00    -0.526 OA
ATOM      8  H5  UNL d   1      -0.497   3.878  -0.588  0.00  0.00     0.418 HD
ENDBRANCH   4   7
TORSDOF 1
ENDMDL
