MODEL 1
REMARK minimizedAffinity -5.03290415
REMARK minimizedRMSD -1
REMARK  1 active torsions:
REMARK  status: ('A' for Active; 'I' for Inactive)
REMARK    1  A    between atoms: C3_4  and  O_7 
ROOT
ATOM      1  C   UNL d   1      -0.130  -0.153   0.590  0.00  0.00    -0.033 A 
ATOM      2  C1  UNL d   1       1.085   0.236   0.021  0.00  0.00     0.039 A 
ATOM      3  C2  UNL d   1       1.287   1.566  -0.355  0.00  0.00    -0.080 A 
ATOM      4  C3  UNL d   1       0.270   2.495  -0.157  0.00  0.00     0.150 A 
ATOM      5  C4  UNL d   1      -0.941   2.115   0.413  0.00  0.00    -0.007 A 
ATOM      6  C5  UNL d   1      -1.142   0.787   0.787  0.00  0.00     0.039 A 
ENDROOT
BRANCH   4   7
ATOM      7  O   UNL d   1       0.419   3.802  -0.512  0.00  0.00    -0.526 OA
ATOM      8  H5  UNL d   1       1.295   3.912  -0.919  0.00  0.00     0.418 HD
ENDBRANCH   4   7
TORSDOF 1
ENDMDL
