MODEL 1
REMARK minimizedAffinity -4.51421785
REMARK minimizedRMSD -1
REMARK  1 active torsions:
REMARK  status: ('A' for Active; 'I' for Inactive)
REMARK    1  A    between atoms: C3_4  and  O_7 
ROOT
ATOM      1  C   UNL d   1       1.098   2.827  -0.413  0.00  0.00    -0.033 A 
ATOM      2  C1  UNL d   1       0.280   3.244   0.639  0.00  0.00     0.039 A 
ATOM      3  C2  UNL d   1      -0.452   2.306   1.369  0.00  0.00    -0.080 A 
ATOM      4  C3  UNL d   1      -0.358   0.957   1.039  0.00  0.00     0.150 A 
ATOM      5  C4  UNL d   1       0.458   0.535  -0.006  0.00  0.00    -0.007 A 
ATOM      6  C5  UNL d   1       1.189   1.473  -0.734  0.00  0.00     0.039 A 
ENDROOT
BRANCH   4   7
ATOM      7  O   UNL d   1      -1.057   0.006   1.720  0.00  0.00    -0.526 OA
ATOM      8  H5  UNL d   1      -1.600   0.447   2.394  0.00  0.00     0.418 HD
ENDBRANCH   4   7
TORSDOF 1
ENDMDL
