MODEL 1
REMARK minimizedAffinity -3.62510943
REMARK minimizedRMSD -1
REMARK  1 active torsions:
REMARK  status: ('A' for Active; 'I' for Inactive)
REMARK    1  A    between atoms: C3_4  and  O_7 
ROOT
ATOM      1  C   UNL d   1      -1.458   0.883   0.114  0.00  0.00    -0.033 A 
ATOM      2  C1  UNL d   1      -0.474  -0.090   0.306  0.00  0.00     0.039 A 
ATOM      3  C2  UNL d   1       0.829   0.288   0.637  0.00  0.00    -0.080 A 
ATOM      4  C3  UNL d   1       1.134   1.640   0.773  0.00  0.00     0.150 A 
ATOM      5  C4  UNL d   1       0.159   2.613   0.587  0.00  0.00    -0.007 A 
ATOM      6  C5  UNL d   1      -1.141   2.234   0.256  0.00  0.00     0.039 A 
ENDROOT
BRANCH   4   7
ATOM      7  O   UNL d   1       2.393   2.057   1.089  0.00  0.00    -0.526 OA
ATOM      8  H5  UNL d   1       2.968   1.276   1.160  0.00  0.00     0.418 HD
ENDBRANCH   4   7
TORSDOF 1
ENDMDL
