MODEL 1
REMARK minimizedAffinity -2.06700206
REMARK minimizedRMSD -1
REMARK  1 active torsions:
REMARK  status: ('A' for Active; 'I' for Inactive)
REMARK    1  A    between atoms: C3_4  and  O_7 
ROOT
ATOM      1  C   UNL d   1      -1.168   1.570   0.713  0.00  0.00    -0.033 A 
ATOM      2  C1  UNL d   1      -0.941   0.249   0.322  0.00  0.00     0.039 A 
ATOM      3  C2  UNL d   1       0.350  -0.281   0.365  0.00  0.00    -0.080 A 
ATOM      4  C3  UNL d   1       1.403   0.519   0.800  0.00  0.00     0.150 A 
ATOM      5  C4  UNL d   1       1.183   1.835   1.194  0.00  0.00    -0.007 A 
ATOM      6  C5  UNL d   1      -0.107   2.362   1.150  0.00  0.00     0.039 A 
ENDROOT
BRANCH   4   7
ATOM      7  O   UNL d   1       2.681   0.048   0.854  0.00  0.00    -0.526 OA
ATOM      8  H5  UNL d   1       2.686  -0.866   0.525  0.00  0.00     0.418 HD
ENDBRANCH   4   7
TORSDOF 1
ENDMDL
