MODEL 1
REMARK minimizedAffinity -4.19726992
REMARK minimizedRMSD -1
REMARK  1 active torsions:
REMARK  status: ('A' for Active; 'I' for Inactive)
REMARK    1  A    between atoms: C3_4  and  O_7 
ROOT
ATOM      1  C   UNL d   1      -0.550   3.221  -0.299  0.00  0.00    -0.033 A 
ATOM      2  C1  UNL d   1       0.136   2.483  -1.266  0.00  0.00     0.039 A 
ATOM      3  C2  UNL d   1       0.474   1.151  -1.019  0.00  0.00    -0.080 A 
ATOM      4  C3  UNL d   1       0.122   0.570   0.196  0.00  0.00     0.150 A 
ATOM      5  C4  UNL d   1      -0.565   1.298   1.162  0.00  0.00    -0.007 A 
ATOM      6  C5  UNL d   1      -0.901   2.628   0.914  0.00  0.00     0.039 A 
ENDROOT
BRANCH   4   7
ATOM      7  O   UNL d   1       0.435  -0.726   0.484  0.00  0.00    -0.526 OA
ATOM      8  H5  UNL d   1       0.933  -1.095  -0.264  0.00  0.00     0.418 HD
ENDBRANCH   4   7
TORSDOF 1
ENDMDL
