MODEL 1
REMARK minimizedAffinity -4.60767317
REMARK minimizedRMSD -1
REMARK  1 active torsions:
REMARK  status: ('A' for Active; 'I' for Inactive)
REMARK    1  A    between atoms: C3_4  and  O_7 
ROOT
ATOM      1  C   UNL d   1      -0.620   0.119  -0.399  0.00  0.00    -0.033 A 
ATOM      2  C1  UNL d   1      -0.768   0.869   0.769  0.00  0.00     0.039 A 
ATOM      3  C2  UNL d   1      -0.358   2.204   0.801  0.00  0.00    -0.080 A 
ATOM      4  C3  UNL d   1       0.195   2.776  -0.341  0.00  0.00     0.150 A 
ATOM      5  C4  UNL d   1       0.342   2.035  -1.510  0.00  0.00    -0.007 A 
ATOM      6  C5  UNL d   1      -0.066   0.703  -1.539  0.00  0.00     0.039 A 
ENDROOT
BRANCH   4   7
ATOM      7  O   UNL d   1       0.614   4.073  -0.357  0.00  0.00    -0.526 OA
ATOM      8  H5  UNL d   1       0.477   4.451   0.527  0.00  0.00     0.418 HD
ENDBRANCH   4   7
TORSDOF 1
ENDMDL
