MODEL 1
REMARK minimizedAffinity -5.15750313
REMARK minimizedRMSD -1
REMARK  1 active torsions:
REMARK  status: ('A' for Active; 'I' for Inactive)
REMARK    1  A    between atoms: C3_4  and  O_7 
ROOT
ATOM      1  C   UNL d   1      -0.225  -0.225   0.653  0.00  0.00    -0.033 A 
ATOM      2  C1  UNL d   1       0.818   0.084  -0.222  0.00  0.00     0.039 A 
ATOM      3  C2  UNL d   1       1.014   1.402  -0.640  0.00  0.00    -0.080 A 
ATOM      4  C3  UNL d   1       0.162   2.400  -0.175  0.00  0.00     0.150 A 
ATOM      5  C4  UNL d   1      -0.877   2.099   0.700  0.00  0.00    -0.007 A 
ATOM      6  C5  UNL d   1      -1.071   0.783   1.116  0.00  0.00     0.039 A 
ENDROOT
BRANCH   4   7
ATOM      7  O   UNL d   1       0.310   3.699  -0.559  0.00  0.00    -0.526 OA
ATOM      8  H5  UNL d   1       1.050   3.752  -1.187  0.00  0.00     0.418 HD
ENDBRANCH   4   7
TORSDOF 1
ENDMDL
