MODEL 1
REMARK minimizedAffinity -2.7857213
REMARK minimizedRMSD -1
REMARK  1 active torsions:
REMARK  status: ('A' for Active; 'I' for Inactive)
REMARK    1  A    between atoms: C3_4  and  O_7 
ROOT
ATOM      1  C   UNL d   1      -1.207   0.000   0.397  0.00  0.00    -0.033 A 
ATOM      2  C1  UNL d   1      -0.446   1.158   0.227  0.00  0.00     0.039 A 
ATOM      3  C2  UNL d   1       0.948   1.082   0.203  0.00  0.00    -0.080 A 
ATOM      4  C3  UNL d   1       1.567  -0.156   0.348  0.00  0.00     0.150 A 
ATOM      5  C4  UNL d   1       0.815  -1.315   0.513  0.00  0.00    -0.007 A 
ATOM      6  C5  UNL d   1      -0.577  -1.237   0.538  0.00  0.00     0.039 A 
ENDROOT
BRANCH   4   7
ATOM      7  O   UNL d   1       2.925  -0.280   0.335  0.00  0.00    -0.526 OA
ATOM      8  H5  UNL d   1       3.313   0.606   0.242  0.00  0.00     0.418 HD
ENDBRANCH   4   7
TORSDOF 1
ENDMDL
