MODEL 1
REMARK minimizedAffinity -3.11719751
REMARK minimizedRMSD -1
REMARK  1 active torsions:
REMARK  status: ('A' for Active; 'I' for Inactive)
REMARK    1  A    between atoms: C3_4  and  O_7 
ROOT
ATOM      1  C   UNL d   1      -1.429   1.231   0.360  0.00  0.00    -0.033 A 
ATOM      2  C1  UNL d   1      -0.936  -0.028   0.012  0.00  0.00     0.039 A 
ATOM      3  C2  UNL d   1       0.405  -0.342   0.242  0.00  0.00    -0.080 A 
ATOM      4  C3  UNL d   1       1.240   0.609   0.821  0.00  0.00     0.150 A 
ATOM      5  C4  UNL d   1       0.754   1.864   1.174  0.00  0.00    -0.007 A 
ATOM      6  C5  UNL d   1      -0.584   2.176   0.943  0.00  0.00     0.039 A 
ENDROOT
BRANCH   4   7
ATOM      7  O   UNL d   1       2.557   0.350   1.060  0.00  0.00    -0.526 OA
ATOM      8  H5  UNL d   1       2.758  -0.545   0.739  0.00  0.00     0.418 HD
ENDBRANCH   4   7
TORSDOF 1
ENDMDL
