MODEL 1
REMARK minimizedAffinity -4.58860874
REMARK minimizedRMSD -1
REMARK  1 active torsions:
REMARK  status: ('A' for Active; 'I' for Inactive)
REMARK    1  A    between atoms: C3_4  and  O_7 
ROOT
ATOM      1  C   UNL d   1      -0.273  -0.280   0.114  0.00  0.00    -0.033 A 
ATOM      2  C1  UNL d   1       0.770   0.238  -0.657  0.00  0.00     0.039 A 
ATOM      3  C2  UNL d   1       0.954   1.620  -0.746  0.00  0.00    -0.080 A 
ATOM      4  C3  UNL d   1       0.091   2.470  -0.060  0.00  0.00     0.150 A 
ATOM      5  C4  UNL d   1      -0.947   1.960   0.713  0.00  0.00    -0.007 A 
ATOM      6  C5  UNL d   1      -1.130   0.580   0.800  0.00  0.00     0.039 A 
ENDROOT
BRANCH   4   7
ATOM      7  O   UNL d   1       0.229   3.825  -0.121  0.00  0.00    -0.526 OA
ATOM      8  H5  UNL d   1       0.969   4.033  -0.714  0.00  0.00     0.418 HD
ENDBRANCH   4   7
TORSDOF 1
ENDMDL
