MODEL 1
REMARK minimizedAffinity -4.00965405
REMARK minimizedRMSD -1
REMARK  1 active torsions:
REMARK  status: ('A' for Active; 'I' for Inactive)
REMARK    1  A    between atoms: C3_4  and  O_7 
ROOT
ATOM      1  C   UNL d   1       0.890  -1.334   0.741  0.00  0.00    -0.033 A 
ATOM      2  C1  UNL d   1      -0.272  -0.813   0.168  0.00  0.00     0.039 A 
ATOM      3  C2  UNL d   1      -0.259   0.458  -0.408  0.00  0.00    -0.080 A 
ATOM      4  C3  UNL d   1       0.920   1.198  -0.406  0.00  0.00     0.150 A 
ATOM      5  C4  UNL d   1       2.083   0.684   0.160  0.00  0.00    -0.007 A 
ATOM      6  C5  UNL d   1       2.068  -0.586   0.736  0.00  0.00     0.039 A 
ENDROOT
BRANCH   4   7
ATOM      7  O   UNL d   1       0.981   2.445  -0.952  0.00  0.00    -0.526 OA
ATOM      8  H5  UNL d   1       0.096   2.681  -1.279  0.00  0.00     0.418 HD
ENDBRANCH   4   7
TORSDOF 1
ENDMDL
