MODEL 1
REMARK minimizedAffinity 1.56247509
REMARK minimizedRMSD -1
REMARK  2 active torsions:
REMARK  status: ('A' for Active; 'I' for Inactive)
REMARK    1  A    between atoms: C1_2  and  C2_3 
REMARK    2  A    between atoms: C2_3  and  C3_4 
ROOT
ATOM      1  C3  UNL d   1       2.261   2.088  -0.770  0.00  0.00    -0.075 A 
ATOM      2  C4  UNL d   1       2.743   1.748   0.502  0.00  0.00     0.002 A 
ATOM      3  C5  UNL d   1       2.939   2.732   1.472  0.00  0.00     0.002 A 
ATOM      4  C6  UNL d   1       2.666   4.067   1.179  0.00  0.00    -0.004 A 
ATOM      5  C7  UNL d   1       2.202   4.418  -0.087  0.00  0.00     0.002 A 
ATOM      6  C8  UNL d   1       2.001   3.434  -1.058  0.00  0.00     0.002 A 
ENDROOT
BRANCH   1   7
ATOM      7  C2  UNL d   1       2.019   1.024  -1.814  0.00  0.00     0.056 C 
BRANCH   7   8
ATOM      8  C1  UNL d   1       0.552   0.882  -2.231  0.00  0.00     0.007 C 
ATOM      9  C   UNL d   1       0.278   1.385  -3.642  0.00  0.00     0.009 C 
ENDBRANCH   7   8
ENDBRANCH   1   7
TORSDOF 2
ENDMDL
