MODEL 1
REMARK minimizedAffinity -3.98259878
REMARK minimizedRMSD -1
REMARK  2 active torsions:
REMARK  status: ('A' for Active; 'I' for Inactive)
REMARK    1  A    between atoms: C1_2  and  C2_3 
REMARK    2  A    between atoms: C2_3  and  C3_4 
ROOT
ATOM      1  C3  UNL d   1       5.007  -2.535   5.053  0.00  0.00    -0.075 A 
ATOM      2  C4  UNL d   1       3.708  -3.042   4.899  0.00  0.00     0.002 A 
ATOM      3  C5  UNL d   1       3.404  -4.344   5.296  0.00  0.00     0.002 A 
ATOM      4  C6  UNL d   1       4.394  -5.158   5.842  0.00  0.00    -0.004 A 
ATOM      5  C7  UNL d   1       5.692  -4.671   5.984  0.00  0.00     0.002 A 
ATOM      6  C8  UNL d   1       5.998  -3.367   5.591  0.00  0.00     0.002 A 
ENDROOT
BRANCH   1   7
ATOM      7  C2  UNL d   1       5.336  -1.117   4.651  0.00  0.00     0.056 C 
BRANCH   7   8
ATOM      8  C1  UNL d   1       4.635  -0.653   3.370  0.00  0.00     0.007 C 
ATOM      9  C   UNL d   1       5.070  -1.428   2.134  0.00  0.00     0.009 C 
ENDBRANCH   7   8
ENDBRANCH   1   7
TORSDOF 2
ENDMDL
