MODEL 1
REMARK minimizedAffinity 11.7672691
REMARK minimizedRMSD -1
REMARK  2 active torsions:
REMARK  status: ('A' for Active; 'I' for Inactive)
REMARK    1  A    between atoms: C1_2  and  C2_3 
REMARK    2  A    between atoms: C2_3  and  C3_4 
ROOT
ATOM      1  C3  UNL d   1       2.561   3.234  -1.939  0.00  0.00    -0.075 A 
ATOM      2  C4  UNL d   1       2.553   1.843  -1.766  0.00  0.00     0.002 A 
ATOM      3  C5  UNL d   1       1.649   1.046  -2.469  0.00  0.00     0.002 A 
ATOM      4  C6  UNL d   1       0.736   1.630  -3.345  0.00  0.00    -0.004 A 
ATOM      5  C7  UNL d   1       0.724   3.013  -3.513  0.00  0.00     0.002 A 
ATOM      6  C8  UNL d   1       1.631   3.812  -2.814  0.00  0.00     0.002 A 
ENDROOT
BRANCH   1   7
ATOM      7  C2  UNL d   1       3.556   4.099  -1.203  0.00  0.00     0.056 C 
BRANCH   7   8
ATOM      8  C1  UNL d   1       3.125   4.476   0.218  0.00  0.00     0.007 C 
ATOM      9  C   UNL d   1       4.240   4.324   1.244  0.00  0.00     0.009 C 
ENDBRANCH   7   8
ENDBRANCH   1   7
TORSDOF 2
ENDMDL
