MODEL 1
REMARK minimizedAffinity 6.3934164
REMARK minimizedRMSD -1
REMARK  2 active torsions:
REMARK  status: ('A' for Active; 'I' for Inactive)
REMARK    1  A    between atoms: C1_2  and  C2_3 
REMARK    2  A    between atoms: C2_3  and  C3_4 
ROOT
ATOM      1  C3  UNL d   1       0.873   2.089  -3.389  0.00  0.00    -0.075 A 
ATOM      2  C4  UNL d   1      -0.024   1.075  -3.024  0.00  0.00     0.002 A 
ATOM      3  C5  UNL d   1       0.401   0.001  -2.242  0.00  0.00     0.002 A 
ATOM      4  C6  UNL d   1       1.728  -0.078  -1.825  0.00  0.00    -0.004 A 
ATOM      5  C7  UNL d   1       2.632   0.915  -2.196  0.00  0.00     0.002 A 
ATOM      6  C8  UNL d   1       2.208   1.993  -2.975  0.00  0.00     0.002 A 
ENDROOT
BRANCH   1   7
ATOM      7  C2  UNL d   1       0.412   3.270  -4.211  0.00  0.00     0.056 C 
BRANCH   7   8
ATOM      8  C1  UNL d   1       1.193   3.466  -5.514  0.00  0.00     0.007 C 
ATOM      9  C   UNL d   1       1.199   4.910  -5.999  0.00  0.00     0.009 C 
ENDBRANCH   7   8
ENDBRANCH   1   7
TORSDOF 2
ENDMDL
