MODEL 1
REMARK minimizedAffinity -0.276995838
REMARK minimizedRMSD -1
REMARK  2 active torsions:
REMARK  status: ('A' for Active; 'I' for Inactive)
REMARK    1  A    between atoms: C1_2  and  C2_3 
REMARK    2  A    between atoms: C2_3  and  C3_4 
ROOT
ATOM      1  C3  UNL d   1      -3.287   5.982   3.175  0.00  0.00    -0.075 A 
ATOM      2  C4  UNL d   1      -2.311   5.997   4.181  0.00  0.00     0.002 A 
ATOM      3  C5  UNL d   1      -2.680   5.998   5.527  0.00  0.00     0.002 A 
ATOM      4  C6  UNL d   1      -4.027   5.994   5.882  0.00  0.00    -0.004 A 
ATOM      5  C7  UNL d   1      -5.006   5.996   4.891  0.00  0.00     0.002 A 
ATOM      6  C8  UNL d   1      -4.639   5.990   3.544  0.00  0.00     0.002 A 
ENDROOT
BRANCH   1   7
ATOM      7  C2  UNL d   1      -2.894   5.951   1.717  0.00  0.00     0.056 C 
BRANCH   7   8
ATOM      8  C1  UNL d   1      -2.681   4.540   1.158  0.00  0.00     0.007 C 
ATOM      9  C   UNL d   1      -2.635   3.467   2.238  0.00  0.00     0.009 C 
ENDBRANCH   7   8
ENDBRANCH   1   7
TORSDOF 2
ENDMDL
