MODEL 1
REMARK minimizedAffinity 3.33577323
REMARK minimizedRMSD -1
REMARK  2 active torsions:
REMARK  status: ('A' for Active; 'I' for Inactive)
REMARK    1  A    between atoms: C1_2  and  C2_3 
REMARK    2  A    between atoms: C2_3  and  C3_4 
ROOT
ATOM      1  C3  UNL d   1       3.654   1.558  -4.012  0.00  0.00    -0.075 A 
ATOM      2  C4  UNL d   1       4.792   1.276  -3.243  0.00  0.00     0.002 A 
ATOM      3  C5  UNL d   1       5.959   0.810  -3.849  0.00  0.00     0.002 A 
ATOM      4  C6  UNL d   1       6.000   0.610  -5.228  0.00  0.00    -0.004 A 
ATOM      5  C7  UNL d   1       4.870   0.871  -5.999  0.00  0.00     0.002 A 
ATOM      6  C8  UNL d   1       3.702   1.342  -5.396  0.00  0.00     0.002 A 
ENDROOT
BRANCH   1   7
ATOM      7  C2  UNL d   1       2.398   2.091  -3.366  0.00  0.00     0.056 C 
BRANCH   7   8
ATOM      8  C1  UNL d   1       1.255   1.074  -3.292  0.00  0.00     0.007 C 
ATOM      9  C   UNL d   1       1.479  -0.006  -2.242  0.00  0.00     0.009 C 
ENDBRANCH   7   8
ENDBRANCH   1   7
TORSDOF 2
ENDMDL
