MODEL 1
REMARK minimizedAffinity 3.00722003
REMARK minimizedRMSD -1
REMARK  2 active torsions:
REMARK  status: ('A' for Active; 'I' for Inactive)
REMARK    1  A    between atoms: C1_2  and  C2_3 
REMARK    2  A    between atoms: C2_3  and  C3_4 
ROOT
ATOM      1  C3  UNL d   1      -3.129   3.497   3.489  0.00  0.00    -0.075 A 
ATOM      2  C4  UNL d   1      -2.961   3.870   4.831  0.00  0.00     0.002 A 
ATOM      3  C5  UNL d   1      -3.411   5.110   5.284  0.00  0.00     0.002 A 
ATOM      4  C6  UNL d   1      -4.023   5.997   4.401  0.00  0.00    -0.004 A 
ATOM      5  C7  UNL d   1      -4.181   5.644   3.062  0.00  0.00     0.002 A 
ATOM      6  C8  UNL d   1      -3.736   4.402   2.607  0.00  0.00     0.002 A 
ENDROOT
BRANCH   1   7
ATOM      7  C2  UNL d   1      -2.671   2.144   3.000  0.00  0.00     0.056 C 
BRANCH   7   8
ATOM      8  C1  UNL d   1      -3.392   0.965   3.660  0.00  0.00     0.007 C 
ATOM      9  C   UNL d   1      -3.044  -0.379   3.034  0.00  0.00     0.009 C 
ENDBRANCH   7   8
ENDBRANCH   1   7
TORSDOF 2
ENDMDL
