MODEL 1
REMARK minimizedAffinity 8.64931583
REMARK minimizedRMSD -1
REMARK  2 active torsions:
REMARK  status: ('A' for Active; 'I' for Inactive)
REMARK    1  A    between atoms: C1_2  and  C2_3 
REMARK    2  A    between atoms: C2_3  and  C3_4 
ROOT
ATOM      1  C3  UNL d   1       1.528   0.746  -2.502  0.00  0.00    -0.075 A 
ATOM      2  C4  UNL d   1       0.561   1.551  -3.122  0.00  0.00     0.002 A 
ATOM      3  C5  UNL d   1       0.942   2.578  -3.986  0.00  0.00     0.002 A 
ATOM      4  C6  UNL d   1       2.292   2.818  -4.234  0.00  0.00    -0.004 A 
ATOM      5  C7  UNL d   1       3.261   2.035  -3.611  0.00  0.00     0.002 A 
ATOM      6  C8  UNL d   1       2.883   1.005  -2.749  0.00  0.00     0.002 A 
ENDROOT
BRANCH   1   7
ATOM      7  C2  UNL d   1       1.121  -0.386  -1.589  0.00  0.00     0.056 C 
BRANCH   7   8
ATOM      8  C1  UNL d   1       2.277  -1.307  -1.184  0.00  0.00     0.007 C 
ATOM      9  C   UNL d   1       1.886  -2.778  -1.143  0.00  0.00     0.009 C 
ENDBRANCH   7   8
ENDBRANCH   1   7
TORSDOF 2
ENDMDL
