MODEL 1
REMARK minimizedAffinity 2.16452146
REMARK minimizedRMSD -1
REMARK  2 active torsions:
REMARK  status: ('A' for Active; 'I' for Inactive)
REMARK    1  A    between atoms: C1_2  and  C2_3 
REMARK    2  A    between atoms: C2_3  and  C3_4 
ROOT
ATOM      1  C3  UNL d   1       4.271  -3.249   4.537  0.00  0.00    -0.075 A 
ATOM      2  C4  UNL d   1       3.579  -2.416   3.645  0.00  0.00     0.002 A 
ATOM      3  C5  UNL d   1       4.100  -1.172   3.289  0.00  0.00     0.002 A 
ATOM      4  C6  UNL d   1       5.311  -0.740   3.828  0.00  0.00    -0.004 A 
ATOM      5  C7  UNL d   1       5.998  -1.552   4.727  0.00  0.00     0.002 A 
ATOM      6  C8  UNL d   1       5.481  -2.800   5.081  0.00  0.00     0.002 A 
ENDROOT
BRANCH   1   7
ATOM      7  C2  UNL d   1       3.727  -4.609   4.903  0.00  0.00     0.056 C 
BRANCH   7   8
ATOM      8  C1  UNL d   1       4.557  -5.350   5.957  0.00  0.00     0.007 C 
ATOM      9  C   UNL d   1       5.812  -5.998   5.386  0.00  0.00     0.009 C 
ENDBRANCH   7   8
ENDBRANCH   1   7
TORSDOF 2
ENDMDL
