MODEL 1
REMARK minimizedAffinity 4.25712204
REMARK minimizedRMSD -1
REMARK  2 active torsions:
REMARK  status: ('A' for Active; 'I' for Inactive)
REMARK    1  A    between atoms: C1_2  and  C2_3 
REMARK    2  A    between atoms: C2_3  and  C3_4 
ROOT
ATOM      1  C3  UNL d   1       2.189   1.310  -2.938  0.00  0.00    -0.075 A 
ATOM      2  C4  UNL d   1       2.860   0.581  -1.946  0.00  0.00     0.002 A 
ATOM      3  C5  UNL d   1       2.335  -0.623  -1.475  0.00  0.00     0.002 A 
ATOM      4  C6  UNL d   1       1.132  -1.108  -1.982  0.00  0.00    -0.004 A 
ATOM      5  C7  UNL d   1       0.448  -0.383  -2.957  0.00  0.00     0.002 A 
ATOM      6  C8  UNL d   1       0.973   0.820  -3.432  0.00  0.00     0.002 A 
ENDROOT
BRANCH   1   7
ATOM      7  C2  UNL d   1       2.766   2.599  -3.473  0.00  0.00     0.056 C 
BRANCH   7   8
ATOM      8  C1  UNL d   1       3.968   2.406  -4.403  0.00  0.00     0.007 C 
ATOM      9  C   UNL d   1       3.596   2.444  -5.880  0.00  0.00     0.009 C 
ENDBRANCH   7   8
ENDBRANCH   1   7
TORSDOF 2
ENDMDL
