MODEL 1
REMARK minimizedAffinity -5.42135954
REMARK minimizedRMSD -1
REMARK  1 active torsions:
REMARK  status: ('A' for Active; 'I' for Inactive)
REMARK    1  A    between atoms: C1_2  and  C2_3 
ROOT
ATOM      1  C2  UNL d   1      -0.013   0.260   0.162  0.00  0.00    -0.077 A 
ATOM      2  C3  UNL d   1      -0.571   1.472  -0.270  0.00  0.00     0.002 A 
ATOM      3  C4  UNL d   1      -1.437   2.186   0.560  0.00  0.00     0.002 A 
ATOM      4  C5  UNL d   1      -1.749   1.700   1.828  0.00  0.00    -0.004 A 
ATOM      5  C6  UNL d   1      -1.200   0.495   2.266  0.00  0.00     0.002 A 
ATOM      6  C7  UNL d   1      -0.336  -0.221   1.437  0.00  0.00     0.002 A 
ENDROOT
BRANCH   1   7
ATOM      7  C1  UNL d   1       0.960  -0.487  -0.712  0.00  0.00     0.055 C 
ATOM      8  C   UNL d   1       0.264  -1.589  -1.498  0.00  0.00     0.019 C 
ENDBRANCH   1   7
TORSDOF 1
ENDMDL
