MODEL 1
REMARK minimizedAffinity -2.84039211
REMARK minimizedRMSD -1
REMARK  1 active torsions:
REMARK  status: ('A' for Active; 'I' for Inactive)
REMARK    1  A    between atoms: C1_2  and  C2_3 
ROOT
ATOM      1  C2  UNL d   1      -0.313   0.664   0.115  0.00  0.00    -0.077 A 
ATOM      2  C3  UNL d   1      -0.860   1.946  -0.033  0.00  0.00     0.002 A 
ATOM      3  C4  UNL d   1      -1.662   2.492   0.970  0.00  0.00     0.002 A 
ATOM      4  C5  UNL d   1      -1.921   1.765   2.130  0.00  0.00    -0.004 A 
ATOM      5  C6  UNL d   1      -1.384   0.488   2.287  0.00  0.00     0.002 A 
ATOM      6  C7  UNL d   1      -0.582  -0.060   1.284  0.00  0.00     0.002 A 
ENDROOT
BRANCH   1   7
ATOM      7  C1  UNL d   1       0.593   0.092  -0.944  0.00  0.00     0.055 C 
ATOM      8  C   UNL d   1       1.126  -1.274  -0.539  0.00  0.00     0.019 C 
ENDBRANCH   1   7
TORSDOF 1
ENDMDL
