MODEL 1
REMARK minimizedAffinity -4.9954958
REMARK minimizedRMSD -1
REMARK  1 active torsions:
REMARK  status: ('A' for Active; 'I' for Inactive)
REMARK    1  A    between atoms: C1_2  and  C2_3 
ROOT
ATOM      1  C2  UNL d   1       0.018   0.210   0.054  0.00  0.00    -0.077 A 
ATOM      2  C3  UNL d   1      -0.433  -0.181   1.322  0.00  0.00     0.002 A 
ATOM      3  C4  UNL d   1      -1.388   0.582   1.999  0.00  0.00     0.002 A 
ATOM      4  C5  UNL d   1      -1.901   1.737   1.414  0.00  0.00    -0.004 A 
ATOM      5  C6  UNL d   1      -1.456   2.136   0.154  0.00  0.00     0.002 A 
ATOM      6  C7  UNL d   1      -0.502   1.376  -0.523  0.00  0.00     0.002 A 
ENDROOT
BRANCH   1   7
ATOM      7  C1  UNL d   1       1.011  -0.637  -0.698  0.00  0.00     0.055 C 
ATOM      8  C   UNL d   1       0.341  -1.854  -1.319  0.00  0.00     0.019 C 
ENDBRANCH   1   7
TORSDOF 1
ENDMDL
