MODEL 1
REMARK minimizedAffinity -1.11662877
REMARK minimizedRMSD -1
REMARK  1 active torsions:
REMARK  status: ('A' for Active; 'I' for Inactive)
REMARK    1  A    between atoms: C1_2  and  C2_3 
ROOT
ATOM      1  C2  UNL d   1       0.880  -0.671  -0.877  0.00  0.00    -0.077 A 
ATOM      2  C3  UNL d   1       0.725  -1.155   0.429  0.00  0.00     0.002 A 
ATOM      3  C4  UNL d   1      -0.103  -0.489   1.335  0.00  0.00     0.002 A 
ATOM      4  C5  UNL d   1      -0.786   0.660   0.943  0.00  0.00    -0.004 A 
ATOM      5  C6  UNL d   1      -0.637   1.150  -0.354  0.00  0.00     0.002 A 
ATOM      6  C7  UNL d   1       0.192   0.487  -1.260  0.00  0.00     0.002 A 
ENDROOT
BRANCH   1   7
ATOM      7  C1  UNL d   1       1.735  -1.415  -1.870  0.00  0.00     0.055 C 
ATOM      8  C   UNL d   1       1.497  -2.916  -1.790  0.00  0.00     0.019 C 
ENDBRANCH   1   7
TORSDOF 1
ENDMDL
