MODEL 1
REMARK minimizedAffinity -2.05843115
REMARK minimizedRMSD -1
REMARK  1 active torsions:
REMARK  status: ('A' for Active; 'I' for Inactive)
REMARK    1  A    between atoms: C1_2  and  C2_3 
ROOT
ATOM      1  C2  UNL d   1       0.361   0.789   0.017  0.00  0.00    -0.077 A 
ATOM      2  C3  UNL d   1       0.029  -0.573   0.038  0.00  0.00     0.002 A 
ATOM      3  C4  UNL d   1      -0.756  -1.093   1.069  0.00  0.00     0.002 A 
ATOM      4  C5  UNL d   1      -1.219  -0.258   2.084  0.00  0.00    -0.004 A 
ATOM      5  C6  UNL d   1      -0.892   1.097   2.073  0.00  0.00     0.002 A 
ATOM      6  C7  UNL d   1      -0.107   1.619   1.044  0.00  0.00     0.002 A 
ENDROOT
BRANCH   1   7
ATOM      7  C1  UNL d   1       1.166   1.361  -1.120  0.00  0.00     0.055 C 
ATOM      8  C   UNL d   1       0.381   2.427  -1.872  0.00  0.00     0.019 C 
ENDBRANCH   1   7
TORSDOF 1
ENDMDL
