MODEL 1
REMARK minimizedAffinity -5.22836971
REMARK minimizedRMSD -1
REMARK  1 active torsions:
REMARK  status: ('A' for Active; 'I' for Inactive)
REMARK    1  A    between atoms: C1_2  and  C2_3 
ROOT
ATOM      1  C2  UNL d   1       0.064   0.052   0.061  0.00  0.00    -0.077 A 
ATOM      2  C3  UNL d   1      -0.352   1.218  -0.597  0.00  0.00     0.002 A 
ATOM      3  C4  UNL d   1      -1.184   2.135   0.049  0.00  0.00     0.002 A 
ATOM      4  C5  UNL d   1      -1.604   1.897   1.356  0.00  0.00    -0.004 A 
ATOM      5  C6  UNL d   1      -1.197   0.739   2.018  0.00  0.00     0.002 A 
ATOM      6  C7  UNL d   1      -0.366  -0.179   1.374  0.00  0.00     0.002 A 
ENDROOT
BRANCH   1   7
ATOM      7  C1  UNL d   1       1.002  -0.913  -0.616  0.00  0.00     0.055 C 
ATOM      8  C   UNL d   1       0.240  -1.929  -1.455  0.00  0.00     0.019 C 
ENDBRANCH   1   7
TORSDOF 1
ENDMDL
