MODEL 1
REMARK minimizedAffinity -5.13976431
REMARK minimizedRMSD -1
REMARK  1 active torsions:
REMARK  status: ('A' for Active; 'I' for Inactive)
REMARK    1  A    between atoms: C1_2  and  C2_3 
ROOT
ATOM      1  C2  UNL d   1       0.062   0.369  -0.188  0.00  0.00    -0.077 A 
ATOM      2  C3  UNL d   1      -0.437   1.648  -0.474  0.00  0.00     0.002 A 
ATOM      3  C4  UNL d   1      -1.323   2.274   0.406  0.00  0.00     0.002 A 
ATOM      4  C5  UNL d   1      -1.714   1.630   1.578  0.00  0.00    -0.004 A 
ATOM      5  C6  UNL d   1      -1.225   0.358   1.870  0.00  0.00     0.002 A 
ATOM      6  C7  UNL d   1      -0.340  -0.270   0.992  0.00  0.00     0.002 A 
ENDROOT
BRANCH   1   7
ATOM      7  C1  UNL d   1       1.056  -0.286  -1.111  0.00  0.00     0.055 C 
ATOM      8  C   UNL d   1       0.737  -1.761  -1.310  0.00  0.00     0.019 C 
ENDBRANCH   1   7
TORSDOF 1
ENDMDL
