MODEL 1
REMARK minimizedAffinity -5.0275588
REMARK minimizedRMSD -1
REMARK  1 active torsions:
REMARK  status: ('A' for Active; 'I' for Inactive)
REMARK    1  A    between atoms: C1_2  and  C2_3 
ROOT
ATOM      1  C2  UNL d   1       0.315   0.322  -0.188  0.00  0.00    -0.077 A 
ATOM      2  C3  UNL d   1       0.168  -0.319   1.050  0.00  0.00     0.002 A 
ATOM      3  C4  UNL d   1      -0.807   0.108   1.954  0.00  0.00     0.002 A 
ATOM      4  C5  UNL d   1      -1.644   1.172   1.628  0.00  0.00    -0.004 A 
ATOM      5  C6  UNL d   1      -1.504   1.817   0.400  0.00  0.00     0.002 A 
ATOM      6  C7  UNL d   1      -0.530   1.393  -0.505  0.00  0.00     0.002 A 
ENDROOT
BRANCH   1   7
ATOM      7  C1  UNL d   1       1.333  -0.168  -1.185  0.00  0.00     0.055 C 
ATOM      8  C   UNL d   1       1.096  -1.627  -1.546  0.00  0.00     0.019 C 
ENDBRANCH   1   7
TORSDOF 1
ENDMDL
