MODEL 1
REMARK minimizedAffinity -2.39916873
REMARK minimizedRMSD -1
REMARK  1 active torsions:
REMARK  status: ('A' for Active; 'I' for Inactive)
REMARK    1  A    between atoms: C1_2  and  C2_3 
ROOT
ATOM      1  C2  UNL d   1      -0.157   0.341   0.154  0.00  0.00    -0.077 A 
ATOM      2  C3  UNL d   1       0.982   0.194  -0.649  0.00  0.00     0.002 A 
ATOM      3  C4  UNL d   1       1.256   1.115  -1.663  0.00  0.00     0.002 A 
ATOM      4  C5  UNL d   1       0.397   2.191  -1.879  0.00  0.00    -0.004 A 
ATOM      5  C6  UNL d   1      -0.740   2.344  -1.087  0.00  0.00     0.002 A 
ATOM      6  C7  UNL d   1      -1.016   1.424  -0.074  0.00  0.00     0.002 A 
ENDROOT
BRANCH   1   7
ATOM      7  C1  UNL d   1      -0.428  -0.624   1.279  0.00  0.00     0.055 C 
ATOM      8  C   UNL d   1      -0.892   0.104   2.532  0.00  0.00     0.019 C 
ENDBRANCH   1   7
TORSDOF 1
ENDMDL
