MODEL 1
REMARK minimizedAffinity -2.68926597
REMARK minimizedRMSD -1
REMARK  1 active torsions:
REMARK  status: ('A' for Active; 'I' for Inactive)
REMARK    1  A    between atoms: C1_2  and  C2_3 
ROOT
ATOM      1  C2  UNL d   1      -0.157  -0.291   0.258  0.00  0.00    -0.077 A 
ATOM      2  C3  UNL d   1      -0.314  -0.270   1.651  0.00  0.00     0.002 A 
ATOM      3  C4  UNL d   1      -1.142   0.679   2.253  0.00  0.00     0.002 A 
ATOM      4  C5  UNL d   1      -1.823   1.609   1.471  0.00  0.00    -0.004 A 
ATOM      5  C6  UNL d   1      -1.672   1.597   0.085  0.00  0.00     0.002 A 
ATOM      6  C7  UNL d   1      -0.843   0.651  -0.519  0.00  0.00     0.002 A 
ENDROOT
BRANCH   1   7
ATOM      7  C1  UNL d   1       0.698  -1.345  -0.398  0.00  0.00     0.055 C 
ATOM      8  C   UNL d   1      -0.150  -2.339  -1.178  0.00  0.00     0.019 C 
ENDBRANCH   1   7
TORSDOF 1
ENDMDL
