MODEL 1
REMARK minimizedAffinity -4.16948175
REMARK minimizedRMSD -1
REMARK  1 active torsions:
REMARK  status: ('A' for Active; 'I' for Inactive)
REMARK    1  A    between atoms: C1_2  and  C2_3 
ROOT
ATOM      1  C2  UNL d   1      -0.022   0.044   0.202  0.00  0.00    -0.077 A 
ATOM      2  C3  UNL d   1      -0.979   0.894  -0.368  0.00  0.00     0.002 A 
ATOM      3  C4  UNL d   1      -1.837   1.638   0.444  0.00  0.00     0.002 A 
ATOM      4  C5  UNL d   1      -1.743   1.542   1.831  0.00  0.00    -0.004 A 
ATOM      5  C6  UNL d   1      -0.795   0.698   2.408  0.00  0.00     0.002 A 
ATOM      6  C7  UNL d   1       0.062  -0.047   1.598  0.00  0.00     0.002 A 
ENDROOT
BRANCH   1   7
ATOM      7  C1  UNL d   1       0.937  -0.722  -0.672  0.00  0.00     0.055 C 
ATOM      8  C   UNL d   1       0.197  -1.620  -1.651  0.00  0.00     0.019 C 
ENDBRANCH   1   7
TORSDOF 1
ENDMDL
