MODEL 1
REMARK minimizedAffinity 3.2695086
REMARK minimizedRMSD -1
REMARK  1 active torsions:
REMARK  status: ('A' for Active; 'I' for Inactive)
REMARK    1  A    between atoms: C3_4  and  O_7 
ROOT
ATOM      1  C   UNL d   1       3.131   1.843   1.763  0.00  0.00    -0.033 A 
ATOM      2  C1  UNL d   1       2.789   1.526   3.079  0.00  0.00     0.039 A 
ATOM      3  C2  UNL d   1       2.256   0.272   3.381  0.00  0.00    -0.080 A 
ATOM      4  C3  UNL d   1       2.071  -0.656   2.360  0.00  0.00     0.150 A 
ATOM      5  C4  UNL d   1       2.413  -0.349   1.047  0.00  0.00    -0.007 A 
ATOM      6  C5  UNL d   1       2.945   0.905   0.747  0.00  0.00     0.039 A 
ENDROOT
BRANCH   4   7
ATOM      7  O   UNL d   1       1.550  -1.892   2.606  0.00  0.00    -0.526 OA
ATOM      8  H5  UNL d   1       1.334  -1.952   3.551  0.00  0.00     0.418 HD
ENDBRANCH   4   7
TORSDOF 1
ENDMDL
