MODEL 1
REMARK minimizedAffinity 13.0820761
REMARK minimizedRMSD -1
REMARK  1 active torsions:
REMARK  status: ('A' for Active; 'I' for Inactive)
REMARK    1  A    between atoms: C3_4  and  O_7 
ROOT
ATOM      1  C   UNL d   1       5.995  -3.296   5.024  0.00  0.00    -0.033 A 
ATOM      2  C1  UNL d   1       5.684  -2.995   3.696  0.00  0.00     0.039 A 
ATOM      3  C2  UNL d   1       4.372  -2.677   3.340  0.00  0.00    -0.080 A 
ATOM      4  C3  UNL d   1       3.382  -2.662   4.319  0.00  0.00     0.150 A 
ATOM      5  C4  UNL d   1       3.686  -2.957   5.644  0.00  0.00    -0.007 A 
ATOM      6  C5  UNL d   1       4.996  -3.276   5.998  0.00  0.00     0.039 A 
ENDROOT
BRANCH   4   7
ATOM      7  O   UNL d   1       2.087  -2.362   4.019  0.00  0.00    -0.526 OA
ATOM      8  H5  UNL d   1       2.021  -2.209   3.061  0.00  0.00     0.418 HD
ENDBRANCH   4   7
TORSDOF 1
ENDMDL
