MODEL 1
REMARK minimizedAffinity -0.14825502
REMARK minimizedRMSD -1
REMARK  1 active torsions:
REMARK  status: ('A' for Active; 'I' for Inactive)
REMARK    1  A    between atoms: C3_4  and  O_7 
ROOT
ATOM      1  C   UNL d   1      -5.689  -4.448  -5.935  0.00  0.00    -0.033 A 
ATOM      2  C1  UNL d   1      -5.723  -3.687  -4.765  0.00  0.00     0.039 A 
ATOM      3  C2  UNL d   1      -4.974  -4.079  -3.654  0.00  0.00    -0.080 A 
ATOM      4  C3  UNL d   1      -4.196  -5.231  -3.726  0.00  0.00     0.150 A 
ATOM      5  C4  UNL d   1      -4.155  -5.992  -4.890  0.00  0.00    -0.007 A 
ATOM      6  C5  UNL d   1      -4.904  -5.600  -5.998  0.00  0.00     0.039 A 
ENDROOT
BRANCH   4   7
ATOM      7  O   UNL d   1      -3.452  -5.657  -2.666  0.00  0.00    -0.526 OA
ATOM      8  H5  UNL d   1      -3.601  -5.049  -1.922  0.00  0.00     0.418 HD
ENDBRANCH   4   7
TORSDOF 1
ENDMDL
