MODEL 1
REMARK minimizedAffinity -1.80676365
REMARK minimizedRMSD -1
REMARK  1 active torsions:
REMARK  status: ('A' for Active; 'I' for Inactive)
REMARK    1  A    between atoms: C3_4  and  O_7 
ROOT
ATOM      1  C   UNL d   1       4.192   5.569  -2.128  0.00  0.00    -0.033 A 
ATOM      2  C1  UNL d   1       3.363   5.221  -3.196  0.00  0.00     0.039 A 
ATOM      3  C2  UNL d   1       3.851   5.263  -4.504  0.00  0.00    -0.080 A 
ATOM      4  C3  UNL d   1       5.167   5.655  -4.729  0.00  0.00     0.150 A 
ATOM      5  C4  UNL d   1       6.000   6.000  -3.670  0.00  0.00    -0.007 A 
ATOM      6  C5  UNL d   1       5.511   5.957  -2.365  0.00  0.00     0.039 A 
ENDROOT
BRANCH   4   7
ATOM      7  O   UNL d   1       5.687   5.717  -5.988  0.00  0.00    -0.526 OA
ATOM      8  H5  UNL d   1       4.989   5.479  -6.621  0.00  0.00     0.418 HD
ENDBRANCH   4   7
TORSDOF 1
ENDMDL
