MODEL 1
REMARK minimizedAffinity 8.74915886
REMARK minimizedRMSD -1
REMARK  1 active torsions:
REMARK  status: ('A' for Active; 'I' for Inactive)
REMARK    1  A    between atoms: C3_4  and  O_7 
ROOT
ATOM      1  C   UNL d   1       0.946  -2.042   2.791  0.00  0.00    -0.033 A 
ATOM      2  C1  UNL d   1       0.303  -1.389   1.737  0.00  0.00     0.039 A 
ATOM      3  C2  UNL d   1       0.903  -0.286   1.126  0.00  0.00    -0.080 A 
ATOM      4  C3  UNL d   1       2.145   0.152   1.577  0.00  0.00     0.150 A 
ATOM      5  C4  UNL d   1       2.793  -0.495   2.623  0.00  0.00    -0.007 A 
ATOM      6  C5  UNL d   1       2.192  -1.596   3.233  0.00  0.00     0.039 A 
ENDROOT
BRANCH   4   7
ATOM      7  O   UNL d   1       2.768   1.227   1.015  0.00  0.00    -0.526 OA
ATOM      8  H5  UNL d   1       2.190   1.591   0.324  0.00  0.00     0.418 HD
ENDBRANCH   4   7
TORSDOF 1
ENDMDL
