MODEL 1
REMARK minimizedAffinity 6.50255299
REMARK minimizedRMSD -1
REMARK  1 active torsions:
REMARK  status: ('A' for Active; 'I' for Inactive)
REMARK    1  A    between atoms: C3_4  and  O_7 
ROOT
ATOM      1  C   UNL d   1      -4.200   1.502  -2.258  0.00  0.00    -0.033 A 
ATOM      2  C1  UNL d   1      -3.368   2.218  -1.396  0.00  0.00     0.039 A 
ATOM      3  C2  UNL d   1      -3.850   3.352  -0.739  0.00  0.00    -0.080 A 
ATOM      4  C3  UNL d   1      -5.164   3.758  -0.952  0.00  0.00     0.150 A 
ATOM      5  C4  UNL d   1      -6.000   3.048  -1.807  0.00  0.00    -0.007 A 
ATOM      6  C5  UNL d   1      -5.517   1.916  -2.463  0.00  0.00     0.039 A 
ENDROOT
BRANCH   4   7
ATOM      7  O   UNL d   1      -5.677   4.862  -0.338  0.00  0.00    -0.526 OA
ATOM      8  H5  UNL d   1      -4.977   5.268   0.200  0.00  0.00     0.418 HD
ENDBRANCH   4   7
TORSDOF 1
ENDMDL
