MODEL 1
REMARK minimizedAffinity 9.44798088
REMARK minimizedRMSD -1
REMARK  1 active torsions:
REMARK  status: ('A' for Active; 'I' for Inactive)
REMARK    1  A    between atoms: C3_4  and  O_7 
ROOT
ATOM      1  C   UNL d   1       3.349  -0.358   1.353  0.00  0.00    -0.033 A 
ATOM      2  C1  UNL d   1       2.237  -0.697   2.127  0.00  0.00     0.039 A 
ATOM      3  C2  UNL d   1       1.565   0.287   2.854  0.00  0.00    -0.080 A 
ATOM      4  C3  UNL d   1       2.012   1.604   2.798  0.00  0.00     0.150 A 
ATOM      5  C4  UNL d   1       3.116   1.949   2.026  0.00  0.00    -0.007 A 
ATOM      6  C5  UNL d   1       3.787   0.965   1.301  0.00  0.00     0.039 A 
ENDROOT
BRANCH   4   7
ATOM      7  O   UNL d   1       1.391   2.597   3.495  0.00  0.00    -0.526 OA
ATOM      8  H5  UNL d   1       0.663   2.206   4.005  0.00  0.00     0.418 HD
ENDBRANCH   4   7
TORSDOF 1
ENDMDL
