MODEL 1
REMARK minimizedAffinity -0.41333428
REMARK minimizedRMSD -1
REMARK  0 active torsions:
REMARK  status: ('A' for Active; 'I' for Inactive)
ROOT
ATOM      1  C   UNL d   1      -5.244   5.972   2.667  0.00  0.00     0.172 C 
ATOM      2  N   UNL d   1      -4.417   5.983   3.850  0.00  0.00    -0.070 N 
ATOM      3  C1  UNL d   1      -4.871   5.990   5.142  0.00  0.00    -0.004 A 
ATOM      4  C2  UNL d   1      -3.773   5.999   5.975  0.00  0.00    -0.047 A 
ATOM      5  C3  UNL d   1      -2.619   5.999   5.156  0.00  0.00    -0.047 A 
ATOM      6  C4  UNL d   1      -3.047   5.989   3.845  0.00  0.00    -0.004 A 
ENDROOT
TORSDOF 0
ENDMDL
