MODEL 1
REMARK minimizedAffinity -2.33365488
REMARK minimizedRMSD -1
REMARK  0 active torsions:
REMARK  status: ('A' for Active; 'I' for Inactive)
ROOT
ATOM      1  C   UNL d   1      -3.673   5.984   2.543  0.00  0.00     0.172 C 
ATOM      2  N   UNL d   1      -2.986   5.986   3.814  0.00  0.00    -0.070 N 
ATOM      3  C1  UNL d   1      -3.585   5.976   5.045  0.00  0.00    -0.004 A 
ATOM      4  C2  UNL d   1      -2.591   5.982   5.999  0.00  0.00    -0.047 A 
ATOM      5  C3  UNL d   1      -1.351   5.998   5.317  0.00  0.00    -0.047 A 
ATOM      6  C4  UNL d   1      -1.625   6.000   3.966  0.00  0.00    -0.004 A 
ENDROOT
TORSDOF 0
ENDMDL
