MODEL 1
REMARK minimizedAffinity -1.52403176
REMARK minimizedRMSD -1
REMARK  0 active torsions:
REMARK  status: ('A' for Active; 'I' for Inactive)
ROOT
ATOM      1  C   UNL d   1      -5.986   5.955   2.712  0.00  0.00     0.172 C 
ATOM      2  N   UNL d   1      -4.778   5.972   3.502  0.00  0.00    -0.070 N 
ATOM      3  C1  UNL d   1      -3.501   5.981   3.008  0.00  0.00    -0.004 A 
ATOM      4  C2  UNL d   1      -2.634   5.998   4.079  0.00  0.00    -0.047 A 
ATOM      5  C3  UNL d   1      -3.417   6.000   5.258  0.00  0.00    -0.047 A 
ATOM      6  C4  UNL d   1      -4.740   5.983   4.872  0.00  0.00    -0.004 A 
ENDROOT
TORSDOF 0
ENDMDL
