MODEL 1
REMARK minimizedAffinity -1.63163292
REMARK minimizedRMSD -1
REMARK  0 active torsions:
REMARK  status: ('A' for Active; 'I' for Inactive)
ROOT
ATOM      1  C   UNL d   1      -1.837   6.000   5.985  0.00  0.00     0.172 C 
ATOM      2  N   UNL d   1      -2.787   5.898   4.902  0.00  0.00    -0.070 N 
ATOM      3  C1  UNL d   1      -2.493   6.000   3.569  0.00  0.00    -0.004 A 
ATOM      4  C2  UNL d   1      -3.667   5.847   2.864  0.00  0.00    -0.047 A 
ATOM      5  C3  UNL d   1      -4.704   5.647   3.807  0.00  0.00    -0.047 A 
ATOM      6  C4  UNL d   1      -4.131   5.683   5.060  0.00  0.00    -0.004 A 
ENDROOT
TORSDOF 0
ENDMDL
