MODEL 1
REMARK minimizedAffinity 1.22713006
REMARK minimizedRMSD -1
REMARK  0 active torsions:
REMARK  status: ('A' for Active; 'I' for Inactive)
ROOT
ATOM      1  C   UNL d   1      -3.631   5.954   5.914  0.00  0.00     0.172 C 
ATOM      2  N   UNL d   1      -3.750   5.970   4.474  0.00  0.00    -0.070 N 
ATOM      3  C1  UNL d   1      -4.924   5.968   3.770  0.00  0.00    -0.004 A 
ATOM      4  C2  UNL d   1      -4.612   5.987   2.428  0.00  0.00    -0.047 A 
ATOM      5  C3  UNL d   1      -3.201   6.000   2.322  0.00  0.00    -0.047 A 
ATOM      6  C4  UNL d   1      -2.692   5.989   3.604  0.00  0.00    -0.004 A 
ENDROOT
TORSDOF 0
ENDMDL
