MODEL 1
REMARK minimizedAffinity -1.09039307
REMARK minimizedRMSD -1
REMARK  0 active torsions:
REMARK  status: ('A' for Active; 'I' for Inactive)
ROOT
ATOM      1  C   UNL d   1       3.963   1.780  -5.182  0.00  0.00     0.172 C 
ATOM      2  N   UNL d   1       2.948   1.711  -4.157  0.00  0.00    -0.070 N 
ATOM      3  C1  UNL d   1       2.745   0.658  -3.305  0.00  0.00    -0.004 A 
ATOM      4  C2  UNL d   1       1.687   0.980  -2.482  0.00  0.00    -0.047 A 
ATOM      5  C3  UNL d   1       1.240   2.271  -2.852  0.00  0.00    -0.047 A 
ATOM      6  C4  UNL d   1       2.038   2.700  -3.891  0.00  0.00    -0.004 A 
ENDROOT
TORSDOF 0
ENDMDL
