MODEL 1
REMARK minimizedAffinity -1.75261319
REMARK minimizedRMSD -1
REMARK  0 active torsions:
REMARK  status: ('A' for Active; 'I' for Inactive)
ROOT
ATOM      1  C   UNL d   1      -5.290   6.000   3.336  0.00  0.00     0.172 C 
ATOM      2  N   UNL d   1      -4.119   5.999   4.181  0.00  0.00    -0.070 N 
ATOM      3  C1  UNL d   1      -4.122   5.997   5.550  0.00  0.00    -0.004 A 
ATOM      4  C2  UNL d   1      -2.811   5.996   5.975  0.00  0.00    -0.047 A 
ATOM      5  C3  UNL d   1      -1.992   5.998   4.822  0.00  0.00    -0.047 A 
ATOM      6  C4  UNL d   1      -2.827   6.000   3.724  0.00  0.00    -0.004 A 
ENDROOT
TORSDOF 0
ENDMDL
