MODEL 1
REMARK minimizedAffinity -0.0389665812
REMARK minimizedRMSD -1
REMARK  0 active torsions:
REMARK  status: ('A' for Active; 'I' for Inactive)
ROOT
ATOM      1  C   UNL d   1      -3.000   5.993   5.992  0.00  0.00     0.172 C 
ATOM      2  N   UNL d   1      -3.456   5.659   4.663  0.00  0.00    -0.070 N 
ATOM      3  C1  UNL d   1      -4.595   4.961   4.362  0.00  0.00    -0.004 A 
ATOM      4  C2  UNL d   1      -4.673   4.853   2.990  0.00  0.00    -0.047 A 
ATOM      5  C3  UNL d   1      -3.541   5.507   2.448  0.00  0.00    -0.047 A 
ATOM      6  C4  UNL d   1      -2.805   5.997   3.506  0.00  0.00    -0.004 A 
ENDROOT
TORSDOF 0
ENDMDL
