MODEL 1
REMARK minimizedAffinity -1.40849113
REMARK minimizedRMSD -1
REMARK  0 active torsions:
REMARK  status: ('A' for Active; 'I' for Inactive)
ROOT
ATOM      1  C   UNL d   1       4.451  -1.503   5.241  0.00  0.00     0.172 C 
ATOM      2  N   UNL d   1       4.748  -2.884   5.542  0.00  0.00    -0.070 N 
ATOM      3  C1  UNL d   1       6.000  -3.416   5.694  0.00  0.00    -0.004 A 
ATOM      4  C2  UNL d   1       5.857  -4.758   5.972  0.00  0.00    -0.047 A 
ATOM      5  C3  UNL d   1       4.471  -5.042   5.987  0.00  0.00    -0.047 A 
ATOM      6  C4  UNL d   1       3.807  -3.864   5.717  0.00  0.00    -0.004 A 
ENDROOT
TORSDOF 0
ENDMDL
