MODEL 1
REMARK minimizedAffinity -0.0411848128
REMARK minimizedRMSD -1
REMARK  0 active torsions:
REMARK  status: ('A' for Active; 'I' for Inactive)
ROOT
ATOM      1  C   UNL d   1       1.897  -0.254  -2.062  0.00  0.00     0.172 C 
ATOM      2  N   UNL d   1       1.705   0.972  -2.801  0.00  0.00    -0.070 N 
ATOM      3  C1  UNL d   1       1.291   2.166  -2.274  0.00  0.00    -0.004 A 
ATOM      4  C2  UNL d   1       1.233   3.083  -3.301  0.00  0.00    -0.047 A 
ATOM      5  C3  UNL d   1       1.625   2.417  -4.486  0.00  0.00    -0.047 A 
ATOM      6  C4  UNL d   1       1.912   1.111  -4.148  0.00  0.00    -0.004 A 
ENDROOT
TORSDOF 0
ENDMDL
