MODEL 1
REMARK minimizedAffinity -2.56208801
REMARK minimizedRMSD -1
REMARK  0 active torsions:
REMARK  status: ('A' for Active; 'I' for Inactive)
ROOT
ATOM      1  C   UNL d   1      -4.743   5.989   5.999  0.00  0.00     0.172 C 
ATOM      2  N   UNL d   1      -4.308   5.988   4.622  0.00  0.00    -0.070 N 
ATOM      3  C1  UNL d   1      -5.128   6.000   3.526  0.00  0.00    -0.004 A 
ATOM      4  C2  UNL d   1      -4.330   5.994   2.402  0.00  0.00    -0.047 A 
ATOM      5  C3  UNL d   1      -2.984   5.977   2.838  0.00  0.00    -0.047 A 
ATOM      6  C4  UNL d   1      -2.999   5.973   4.217  0.00  0.00    -0.004 A 
ENDROOT
TORSDOF 0
ENDMDL
