MODEL 1
REMARK minimizedAffinity -1.283234
REMARK minimizedRMSD -1
REMARK  0 active torsions:
REMARK  status: ('A' for Active; 'I' for Inactive)
ROOT
ATOM      1  C   UNL d   1       3.817  -5.090   6.000  0.00  0.00     0.172 C 
ATOM      2  N   UNL d   1       4.447  -3.809   5.778  0.00  0.00    -0.070 N 
ATOM      3  C1  UNL d   1       3.821  -2.681   5.319  0.00  0.00    -0.004 A 
ATOM      4  C2  UNL d   1       4.763  -1.677   5.246  0.00  0.00    -0.047 A 
ATOM      5  C3  UNL d   1       5.996  -2.221   5.676  0.00  0.00    -0.047 A 
ATOM      6  C4  UNL d   1       5.772  -3.542   5.999  0.00  0.00    -0.004 A 
ENDROOT
TORSDOF 0
ENDMDL
