MODEL 1
REMARK minimizedAffinity -2.36968899
REMARK minimizedRMSD -1
REMARK  0 active torsions:
REMARK  status: ('A' for Active; 'I' for Inactive)
ROOT
ATOM      1  C   UNL d   1      -4.106   5.993   5.872  0.00  0.00     0.172 C 
ATOM      2  N   UNL d   1      -4.111   5.987   4.428  0.00  0.00    -0.070 N 
ATOM      3  C1  UNL d   1      -5.226   5.967   3.633  0.00  0.00    -0.004 A 
ATOM      4  C2  UNL d   1      -4.808   5.968   2.320  0.00  0.00    -0.047 A 
ATOM      5  C3  UNL d   1      -3.393   5.988   2.325  0.00  0.00    -0.047 A 
ATOM      6  C4  UNL d   1      -2.988   5.999   3.643  0.00  0.00    -0.004 A 
ENDROOT
TORSDOF 0
ENDMDL
