MODEL 1
REMARK minimizedAffinity -3.38464355
REMARK minimizedRMSD -1
REMARK  3 active torsions:
REMARK  status: ('A' for Active; 'I' for Inactive)
REMARK    1  A    between atoms: C3'_2  and  C2'_3 
REMARK    2  A    between atoms: C2'_3  and  C1'_4 
REMARK    3  A    between atoms: C1'_4  and  C1_5 
ROOT
ATOM      1  C1  N4B d   1       3.232   4.476  -4.536  0.00  0.00    -0.075 A 
ATOM      2  C2  N4B d   1       4.170   3.444  -4.314  0.00  0.00     0.002 A 
ATOM      3  C3  N4B d   1       5.514   3.700  -4.434  0.00  0.00     0.002 A 
ATOM      4  C4  N4B d   1       5.941   4.970  -4.792  0.00  0.00    -0.004 A 
ATOM      5  C5  N4B d   1       5.030   5.968  -4.980  0.00  0.00     0.002 A 
ATOM      6  C6  N4B d   1       3.676   5.726  -4.858  0.00  0.00     0.002 A 
ENDROOT
BRANCH   1   7
ATOM      7  C1' N4B d   1       1.750   4.223  -4.500  0.00  0.00     0.057 C 
BRANCH   7   8
ATOM      8  C2' N4B d   1       1.113   4.799  -5.761  0.00  0.00     0.009 C 
BRANCH   8   9
ATOM      9  C3' N4B d   1       0.147   5.927  -5.446  0.00  0.00     0.004 C 
ATOM     10  C4' N4B d   1      -0.227   5.983  -3.994  0.00  0.00     0.003 C 
ENDBRANCH   8   9
ENDBRANCH   7   8
ENDBRANCH   1   7
TORSDOF 3
ENDMDL
