MODEL 1
REMARK minimizedAffinity 4.16792774
REMARK minimizedRMSD -1
REMARK  3 active torsions:
REMARK  status: ('A' for Active; 'I' for Inactive)
REMARK    1  A    between atoms: C3'_2  and  C2'_3 
REMARK    2  A    between atoms: C2'_3  and  C1'_4 
REMARK    3  A    between atoms: C1'_4  and  C1_5 
ROOT
ATOM      1  C1  N4B d   1       0.381   5.899  -3.629  0.00  0.00    -0.075 A 
ATOM      2  C2  N4B d   1      -0.035   5.899  -4.978  0.00  0.00     0.002 A 
ATOM      3  C3  N4B d   1       0.900   5.914  -5.985  0.00  0.00     0.002 A 
ATOM      4  C4  N4B d   1       2.249   5.947  -5.667  0.00  0.00    -0.004 A 
ATOM      5  C5  N4B d   1       2.643   5.921  -4.361  0.00  0.00     0.002 A 
ATOM      6  C6  N4B d   1       1.715   5.902  -3.339  0.00  0.00     0.002 A 
ENDROOT
BRANCH   1   7
ATOM      7  C1' N4B d   1      -0.604   5.970  -2.494  0.00  0.00     0.057 C 
BRANCH   7   8
ATOM      8  C2' N4B d   1      -2.016   5.795  -3.045  0.00  0.00     0.009 C 
BRANCH   8   9
ATOM      9  C3' N4B d   1      -2.972   5.251  -1.997  0.00  0.00     0.004 C 
ATOM     10  C4' N4B d   1      -4.297   5.954  -1.999  0.00  0.00     0.003 C 
ENDBRANCH   8   9
ENDBRANCH   7   8
ENDBRANCH   1   7
TORSDOF 3
ENDMDL
