MODEL 1
REMARK minimizedAffinity 5.22411823
REMARK minimizedRMSD -1
REMARK  3 active torsions:
REMARK  status: ('A' for Active; 'I' for Inactive)
REMARK    1  A    between atoms: C3'_2  and  C2'_3 
REMARK    2  A    between atoms: C2'_3  and  C1'_4 
REMARK    3  A    between atoms: C1'_4  and  C1_5 
ROOT
ATOM      1  C1  N4B d   1       1.747   4.903  -5.259  0.00  0.00    -0.075 A 
ATOM      2  C2  N4B d   1       0.889   3.782  -5.259  0.00  0.00     0.002 A 
ATOM      3  C3  N4B d   1      -0.261   3.797  -4.508  0.00  0.00     0.002 A 
ATOM      4  C4  N4B d   1      -0.563   4.911  -3.739  0.00  0.00    -0.004 A 
ATOM      5  C5  N4B d   1       0.258   6.000  -3.764  0.00  0.00     0.002 A 
ATOM      6  C6  N4B d   1       1.416   6.000  -4.517  0.00  0.00     0.002 A 
ENDROOT
BRANCH   1   7
ATOM      7  C1' N4B d   1       3.059   4.900  -5.996  0.00  0.00     0.057 C 
BRANCH   7   8
ATOM      8  C2' N4B d   1       4.200   4.817  -4.986  0.00  0.00     0.009 C 
BRANCH   8   9
ATOM      9  C3' N4B d   1       4.087   3.589  -4.100  0.00  0.00     0.004 C 
ATOM     10  C4' N4B d   1       5.325   3.341  -3.290  0.00  0.00     0.003 C 
ENDBRANCH   8   9
ENDBRANCH   7   8
ENDBRANCH   1   7
TORSDOF 3
ENDMDL
