MODEL 1
REMARK minimizedAffinity 9.24126434
REMARK minimizedRMSD -1
REMARK  3 active torsions:
REMARK  status: ('A' for Active; 'I' for Inactive)
REMARK    1  A    between atoms: C3'_2  and  C2'_3 
REMARK    2  A    between atoms: C2'_3  and  C1'_4 
REMARK    3  A    between atoms: C1'_4  and  C1_5 
ROOT
ATOM      1  C1  N4B d   1      -1.476   5.347  -0.765  0.00  0.00    -0.075 A 
ATOM      2  C2  N4B d   1      -2.794   5.683  -0.387  0.00  0.00     0.002 A 
ATOM      3  C3  N4B d   1      -3.725   5.997  -1.348  0.00  0.00     0.002 A 
ATOM      4  C4  N4B d   1      -3.356   6.000  -2.685  0.00  0.00    -0.004 A 
ATOM      5  C5  N4B d   1      -2.087   5.650  -3.043  0.00  0.00     0.002 A 
ATOM      6  C6  N4B d   1      -1.143   5.328  -2.088  0.00  0.00     0.002 A 
ENDROOT
BRANCH   1   7
ATOM      7  C1' N4B d   1      -0.401   5.080   0.254  0.00  0.00     0.057 C 
BRANCH   7   8
ATOM      8  C2' N4B d   1       0.030   3.620   0.156  0.00  0.00     0.009 C 
BRANCH   8   9
ATOM      9  C3' N4B d   1       1.509   3.444   0.452  0.00  0.00     0.004 C 
ATOM     10  C4' N4B d   1       2.273   2.891  -0.715  0.00  0.00     0.003 C 
ENDBRANCH   8   9
ENDBRANCH   7   8
ENDBRANCH   1   7
TORSDOF 3
ENDMDL
