MODEL 1
REMARK minimizedAffinity 2.44498324
REMARK minimizedRMSD -1
REMARK  3 active torsions:
REMARK  status: ('A' for Active; 'I' for Inactive)
REMARK    1  A    between atoms: C3'_2  and  C2'_3 
REMARK    2  A    between atoms: C2'_3  and  C1'_4 
REMARK    3  A    between atoms: C1'_4  and  C1_5 
ROOT
ATOM      1  C1  N4B d   1       1.290   0.351  -1.360  0.00  0.00    -0.075 A 
ATOM      2  C2  N4B d   1       1.462   1.708  -1.712  0.00  0.00     0.002 A 
ATOM      3  C3  N4B d   1       1.440   2.677  -0.739  0.00  0.00     0.002 A 
ATOM      4  C4  N4B d   1       1.230   2.317   0.584  0.00  0.00    -0.004 A 
ATOM      5  C5  N4B d   1       1.091   1.001   0.918  0.00  0.00     0.002 A 
ATOM      6  C6  N4B d   1       1.114   0.016  -0.049  0.00  0.00     0.002 A 
ENDROOT
BRANCH   1   7
ATOM      7  C1' N4B d   1       1.220  -0.736  -2.398  0.00  0.00     0.057 C 
BRANCH   7   8
ATOM      8  C2' N4B d   1      -0.182  -0.766  -2.998  0.00  0.00     0.009 C 
BRANCH   8   9
ATOM      9  C3' N4B d   1      -0.291  -1.762  -4.140  0.00  0.00     0.004 C 
ATOM     10  C4' N4B d   1      -0.754  -1.130  -5.419  0.00  0.00     0.003 C 
ENDBRANCH   8   9
ENDBRANCH   7   8
ENDBRANCH   1   7
TORSDOF 3
ENDMDL
