MODEL 1
REMARK minimizedAffinity -3.42084718
REMARK minimizedRMSD -1
REMARK  3 active torsions:
REMARK  status: ('A' for Active; 'I' for Inactive)
REMARK    1  A    between atoms: C3'_2  and  C2'_3 
REMARK    2  A    between atoms: C2'_3  and  C1'_4 
REMARK    3  A    between atoms: C1'_4  and  C1_5 
ROOT
ATOM      1  C1  N4B d   1      -0.008   5.903  -4.667  0.00  0.00    -0.075 A 
ATOM      2  C2  N4B d   1      -0.200   5.991  -3.271  0.00  0.00     0.002 A 
ATOM      3  C3  N4B d   1      -1.472   5.999  -2.752  0.00  0.00     0.002 A 
ATOM      4  C4  N4B d   1      -2.562   5.939  -3.608  0.00  0.00    -0.004 A 
ATOM      5  C5  N4B d   1      -2.367   5.828  -4.954  0.00  0.00     0.002 A 
ATOM      6  C6  N4B d   1      -1.094   5.815  -5.488  0.00  0.00     0.002 A 
ENDROOT
BRANCH   1   7
ATOM      7  C1' N4B d   1       1.362   5.977  -5.286  0.00  0.00     0.057 C 
BRANCH   7   8
ATOM      8  C2' N4B d   1       2.411   5.997  -4.178  0.00  0.00     0.009 C 
BRANCH   8   9
ATOM      9  C3' N4B d   1       3.825   6.000  -4.735  0.00  0.00     0.004 C 
ATOM     10  C4' N4B d   1       4.664   4.881  -4.194  0.00  0.00     0.003 C 
ENDBRANCH   8   9
ENDBRANCH   7   8
ENDBRANCH   1   7
TORSDOF 3
ENDMDL
