MODEL 1
REMARK minimizedAffinity 2.85433531
REMARK minimizedRMSD -1
REMARK  3 active torsions:
REMARK  status: ('A' for Active; 'I' for Inactive)
REMARK    1  A    between atoms: C3'_2  and  C2'_3 
REMARK    2  A    between atoms: C2'_3  and  C1'_4 
REMARK    3  A    between atoms: C1'_4  and  C1_5 
ROOT
ATOM      1  C1  N4B d   1       0.595   0.922   0.712  0.00  0.00    -0.075 A 
ATOM      2  C2  N4B d   1       0.536   0.259  -0.534  0.00  0.00     0.002 A 
ATOM      3  C3  N4B d   1       1.007   0.880  -1.665  0.00  0.00     0.002 A 
ATOM      4  C4  N4B d   1       1.520   2.165  -1.579  0.00  0.00    -0.004 A 
ATOM      5  C5  N4B d   1       1.597   2.789  -0.368  0.00  0.00     0.002 A 
ATOM      6  C6  N4B d   1       1.132   2.175   0.778  0.00  0.00     0.002 A 
ENDROOT
BRANCH   1   7
ATOM      7  C1' N4B d   1       0.015   0.318   1.961  0.00  0.00     0.057 C 
BRANCH   7   8
ATOM      8  C2' N4B d   1       0.459   1.139   3.168  0.00  0.00     0.009 C 
BRANCH   8   9
ATOM      9  C3' N4B d   1      -0.003   0.522   4.477  0.00  0.00     0.004 C 
ATOM     10  C4' N4B d   1       1.103   0.395   5.481  0.00  0.00     0.003 C 
ENDBRANCH   8   9
ENDBRANCH   7   8
ENDBRANCH   1   7
TORSDOF 3
ENDMDL
