MODEL 1
REMARK minimizedAffinity 5.19381905
REMARK minimizedRMSD -1
REMARK  3 active torsions:
REMARK  status: ('A' for Active; 'I' for Inactive)
REMARK    1  A    between atoms: C3'_2  and  C2'_3 
REMARK    2  A    between atoms: C2'_3  and  C1'_4 
REMARK    3  A    between atoms: C1'_4  and  C1_5 
ROOT
ATOM      1  C1  N4B d   1       0.832   0.911  -1.002  0.00  0.00    -0.075 A 
ATOM      2  C2  N4B d   1       0.396   0.001  -0.014  0.00  0.00     0.002 A 
ATOM      3  C3  N4B d   1       0.418   0.363   1.310  0.00  0.00     0.002 A 
ATOM      4  C4  N4B d   1       0.887   1.618   1.671  0.00  0.00    -0.004 A 
ATOM      5  C5  N4B d   1       1.283   2.500   0.708  0.00  0.00     0.002 A 
ATOM      6  C6  N4B d   1       1.262   2.151  -0.627  0.00  0.00     0.002 A 
ENDROOT
BRANCH   1   7
ATOM      7  C1' N4B d   1       0.908   0.529  -2.455  0.00  0.00     0.057 C 
BRANCH   7   8
ATOM      8  C2' N4B d   1      -0.350  -0.248  -2.835  0.00  0.00     0.009 C 
BRANCH   8   9
ATOM      9  C3' N4B d   1      -0.069  -1.303  -3.890  0.00  0.00     0.004 C 
ATOM     10  C4' N4B d   1      -0.642  -0.952  -5.231  0.00  0.00     0.003 C 
ENDBRANCH   8   9
ENDBRANCH   7   8
ENDBRANCH   1   7
TORSDOF 3
ENDMDL
