MODEL 1
REMARK minimizedAffinity -0.226709917
REMARK minimizedRMSD -1
REMARK  3 active torsions:
REMARK  status: ('A' for Active; 'I' for Inactive)
REMARK    1  A    between atoms: C3'_2  and  C2'_3 
REMARK    2  A    between atoms: C2'_3  and  C1'_4 
REMARK    3  A    between atoms: C1'_4  and  C1_5 
ROOT
ATOM      1  C1  N4B d   1       2.711   5.241  -4.913  0.00  0.00    -0.075 A 
ATOM      2  C2  N4B d   1       1.796   5.238  -5.988  0.00  0.00     0.002 A 
ATOM      3  C3  N4B d   1       0.491   5.613  -5.780  0.00  0.00     0.002 A 
ATOM      4  C4  N4B d   1       0.076   5.975  -4.507  0.00  0.00    -0.004 A 
ATOM      5  C5  N4B d   1       0.973   6.000  -3.479  0.00  0.00     0.002 A 
ATOM      6  C6  N4B d   1       2.288   5.629  -3.675  0.00  0.00     0.002 A 
ENDROOT
BRANCH   1   7
ATOM      7  C1' N4B d   1       4.127   4.758  -5.074  0.00  0.00     0.057 C 
BRANCH   7   8
ATOM      8  C2' N4B d   1       4.613   4.183  -3.747  0.00  0.00     0.009 C 
BRANCH   8   9
ATOM      9  C3' N4B d   1       4.227   2.722  -3.586  0.00  0.00     0.004 C 
ATOM     10  C4' N4B d   1       5.229   1.786  -4.193  0.00  0.00     0.003 C 
ENDBRANCH   8   9
ENDBRANCH   7   8
ENDBRANCH   1   7
TORSDOF 3
ENDMDL
