MODEL 1
REMARK minimizedAffinity 9.77552128
REMARK minimizedRMSD -1
REMARK  0 active torsions:
REMARK  status: ('A' for Active; 'I' for Inactive)
ROOT
ATOM      1  N1  IND d   1      -4.638   2.655   2.541  0.00  0.00    -0.196 N 
ATOM      2  C2  IND d   1      -5.758   3.370   2.220  0.00  0.00     0.054 A 
ATOM      3  C3  IND d   1      -5.558   4.072   1.082  0.00  0.00    -0.031 A 
ATOM      4  C4  IND d   1      -3.506   4.116  -0.473  0.00  0.00     0.051 A 
ATOM      5  C5  IND d   1      -2.225   3.654  -0.578  0.00  0.00    -0.031 A 
ATOM      6  C6  IND d   1      -1.672   2.816   0.368  0.00  0.00     0.015 A 
ATOM      7  C7  IND d   1      -2.387   2.398   1.455  0.00  0.00    -0.016 A 
ATOM      8  C8  IND d   1      -3.687   2.871   1.569  0.00  0.00    -0.047 A 
ATOM      9  C9  IND d   1      -4.239   3.756   0.633  0.00  0.00    -0.096 A 
ATOM     10  HN1 IND d   1      -4.544   2.154   3.233  0.00  0.00     0.298 HD
ENDROOT
TORSDOF 0
ENDMDL
