MODEL 1
REMARK minimizedAffinity 11.9968424
REMARK minimizedRMSD -1
REMARK  0 active torsions:
REMARK  status: ('A' for Active; 'I' for Inactive)
ROOT
ATOM      1  N1  IND d   1       2.792   0.575   5.269  0.00  0.00    -0.196 N 
ATOM      2  C2  IND d   1       3.949   0.765   5.971  0.00  0.00     0.054 A 
ATOM      3  C3  IND d   1       4.857   1.420   5.213  0.00  0.00    -0.031 A 
ATOM      4  C4  IND d   1       4.621   2.365   2.830  0.00  0.00     0.051 A 
ATOM      5  C5  IND d   1       3.762   2.407   1.768  0.00  0.00    -0.031 A 
ATOM      6  C6  IND d   1       2.509   1.832   1.821  0.00  0.00     0.015 A 
ATOM      7  C7  IND d   1       2.062   1.200   2.947  0.00  0.00    -0.016 A 
ATOM      8  C8  IND d   1       2.935   1.148   4.025  0.00  0.00    -0.047 A 
ATOM      9  C9  IND d   1       4.224   1.693   3.962  0.00  0.00    -0.096 A 
ATOM     10  HN1 IND d   1       2.092   0.166   5.556  0.00  0.00     0.298 HD
ENDROOT
TORSDOF 0
ENDMDL
