MODEL 1
REMARK minimizedAffinity 16.9573822
REMARK minimizedRMSD -1
REMARK  0 active torsions:
REMARK  status: ('A' for Active; 'I' for Inactive)
ROOT
ATOM      1  N1  IND d   1      -1.254   1.227  -3.091  0.00  0.00    -0.196 N 
ATOM      2  C2  IND d   1      -1.033   0.063  -3.773  0.00  0.00     0.054 A 
ATOM      3  C3  IND d   1      -0.389  -0.828  -2.986  0.00  0.00    -0.031 A 
ATOM      4  C4  IND d   1       0.310  -0.623  -0.517  0.00  0.00     0.051 A 
ATOM      5  C5  IND d   1       0.354   0.266   0.520  0.00  0.00    -0.031 A 
ATOM      6  C6  IND d   1      -0.148   1.546   0.405  0.00  0.00     0.015 A 
ATOM      7  C7  IND d   1      -0.726   1.983  -0.754  0.00  0.00    -0.016 A 
ATOM      8  C8  IND d   1      -0.766   1.085  -1.811  0.00  0.00    -0.047 A 
ATOM      9  C9  IND d   1      -0.220  -0.201  -1.713  0.00  0.00    -0.096 A 
ATOM     10  HN1 IND d   1      -1.633   1.931  -3.409  0.00  0.00     0.298 HD
ENDROOT
TORSDOF 0
ENDMDL
