MODEL 1
REMARK minimizedAffinity 15.9106836
REMARK minimizedRMSD -1
REMARK  0 active torsions:
REMARK  status: ('A' for Active; 'I' for Inactive)
ROOT
ATOM      1  N1  IND d   1       2.384   1.601   2.882  0.00  0.00    -0.196 N 
ATOM      2  C2  IND d   1       2.891   1.526   1.615  0.00  0.00     0.054 A 
ATOM      3  C3  IND d   1       3.009   0.235   1.231  0.00  0.00    -0.031 A 
ATOM      4  C4  IND d   1       2.335  -1.911   2.481  0.00  0.00     0.051 A 
ATOM      5  C5  IND d   1       1.862  -2.353   3.685  0.00  0.00    -0.031 A 
ATOM      6  C6  IND d   1       1.530  -1.482   4.702  0.00  0.00     0.015 A 
ATOM      7  C7  IND d   1       1.648  -0.130   4.549  0.00  0.00    -0.016 A 
ATOM      8  C8  IND d   1       2.134   0.322   3.331  0.00  0.00    -0.047 A 
ATOM      9  C9  IND d   1       2.513  -0.559   2.310  0.00  0.00    -0.096 A 
ATOM     10  HN1 IND d   1       2.244   2.325   3.325  0.00  0.00     0.298 HD
ENDROOT
TORSDOF 0
ENDMDL
