MODEL 1
REMARK minimizedAffinity 11.4294176
REMARK minimizedRMSD -1
REMARK  0 active torsions:
REMARK  status: ('A' for Active; 'I' for Inactive)
ROOT
ATOM      1  N1  IND d   1       0.588  -1.259   2.363  0.00  0.00    -0.196 N 
ATOM      2  C2  IND d   1       1.208  -0.103   1.978  0.00  0.00     0.054 A 
ATOM      3  C3  IND d   1       2.432  -0.015   2.547  0.00  0.00    -0.031 A 
ATOM      4  C4  IND d   1       3.658  -1.698   4.060  0.00  0.00     0.051 A 
ATOM      5  C5  IND d   1       3.482  -2.883   4.717  0.00  0.00    -0.031 A 
ATOM      6  C6  IND d   1       2.309  -3.604   4.619  0.00  0.00     0.015 A 
ATOM      7  C7  IND d   1       1.268  -3.169   3.847  0.00  0.00    -0.016 A 
ATOM      8  C8  IND d   1       1.441  -1.962   3.184  0.00  0.00    -0.047 A 
ATOM      9  C9  IND d   1       2.613  -1.206   3.314  0.00  0.00    -0.096 A 
ATOM     10  HN1 IND d   1      -0.203  -1.505   2.131  0.00  0.00     0.298 HD
ENDROOT
TORSDOF 0
ENDMDL
