MODEL 1
REMARK minimizedAffinity 13.80655
REMARK minimizedRMSD -1
REMARK  0 active torsions:
REMARK  status: ('A' for Active; 'I' for Inactive)
ROOT
ATOM      1  N1  IND d   1       1.306  -0.802   3.021  0.00  0.00    -0.196 N 
ATOM      2  C2  IND d   1       2.410  -1.587   3.204  0.00  0.00     0.054 A 
ATOM      3  C3  IND d   1       2.628  -2.353   2.112  0.00  0.00    -0.031 A 
ATOM      4  C4  IND d   1       1.360  -2.409  -0.128  0.00  0.00     0.051 A 
ATOM      5  C5  IND d   1       0.258  -1.898  -0.755  0.00  0.00    -0.031 A 
ATOM      6  C6  IND d   1      -0.565  -0.974  -0.144  0.00  0.00     0.015 A 
ATOM      7  C7  IND d   1      -0.311  -0.517   1.118  0.00  0.00    -0.016 A 
ATOM      8  C8  IND d   1       0.803  -1.039   1.760  0.00  0.00    -0.047 A 
ATOM      9  C9  IND d   1       1.619  -2.009   1.162  0.00  0.00    -0.096 A 
ATOM     10  HN1 IND d   1       0.980  -0.252   3.596  0.00  0.00     0.298 HD
ENDROOT
TORSDOF 0
ENDMDL
