MODEL 1
REMARK minimizedAffinity 1.36841655
REMARK minimizedRMSD -1
REMARK  0 active torsions:
REMARK  status: ('A' for Active; 'I' for Inactive)
ROOT
ATOM      1  N1  IND d   1       5.804  -1.785   5.002  0.00  0.00    -0.196 N 
ATOM      2  C2  IND d   1       5.787  -2.816   5.900  0.00  0.00     0.054 A 
ATOM      3  C3  IND d   1       4.543  -3.337   5.995  0.00  0.00    -0.031 A 
ATOM      4  C4  IND d   1       2.408  -2.721   4.695  0.00  0.00     0.051 A 
ATOM      5  C5  IND d   1       1.920  -1.819   3.792  0.00  0.00    -0.031 A 
ATOM      6  C6  IND d   1       2.717  -0.842   3.233  0.00  0.00     0.015 A 
ATOM      7  C7  IND d   1       4.042  -0.737   3.549  0.00  0.00    -0.016 A 
ATOM      8  C8  IND d   1       4.541  -1.646   4.471  0.00  0.00    -0.047 A 
ATOM      9  C9  IND d   1       3.726  -2.614   5.073  0.00  0.00    -0.096 A 
ATOM     10  HN1 IND d   1       6.488  -1.305   4.803  0.00  0.00     0.298 HD
ENDROOT
TORSDOF 0
ENDMDL
