MODEL 1
REMARK minimizedAffinity 4.43151999
REMARK minimizedRMSD -1
REMARK  0 active torsions:
REMARK  status: ('A' for Active; 'I' for Inactive)
ROOT
ATOM      1  N1  IND d   1       4.744  -2.953   6.000  0.00  0.00    -0.196 N 
ATOM      2  C2  IND d   1       5.998  -2.564   5.618  0.00  0.00     0.054 A 
ATOM      3  C3  IND d   1       5.933  -1.782   4.517  0.00  0.00    -0.031 A 
ATOM      4  C4  IND d   1       3.869  -0.930   3.235  0.00  0.00     0.051 A 
ATOM      5  C5  IND d   1       2.509  -1.048   3.185  0.00  0.00    -0.031 A 
ATOM      6  C6  IND d   1       1.809  -1.819   4.090  0.00  0.00     0.015 A 
ATOM      7  C7  IND d   1       2.446  -2.496   5.091  0.00  0.00    -0.016 A 
ATOM      8  C8  IND d   1       3.829  -2.385   5.141  0.00  0.00    -0.047 A 
ATOM      9  C9  IND d   1       4.548  -1.638   4.199  0.00  0.00    -0.096 A 
ATOM     10  HN1 IND d   1       4.559  -3.466   6.665  0.00  0.00     0.298 HD
ENDROOT
TORSDOF 0
ENDMDL
