MODEL 1
REMARK minimizedAffinity 9.5605545
REMARK minimizedRMSD -1
REMARK  0 active torsions:
REMARK  status: ('A' for Active; 'I' for Inactive)
ROOT
ATOM      1  N1  IND d   1       4.899  -3.840   5.938  0.00  0.00    -0.196 N 
ATOM      2  C2  IND d   1       5.999  -3.031   5.999  0.00  0.00     0.054 A 
ATOM      3  C3  IND d   1       5.769  -1.874   5.339  0.00  0.00    -0.031 A 
ATOM      4  C4  IND d   1       3.625  -1.055   4.172  0.00  0.00     0.051 A 
ATOM      5  C5  IND d   1       2.368  -1.459   3.822  0.00  0.00    -0.031 A 
ATOM      6  C6  IND d   1       1.879  -2.702   4.168  0.00  0.00     0.015 A 
ATOM      7  C7  IND d   1       2.629  -3.586   4.891  0.00  0.00    -0.016 A 
ATOM      8  C8  IND d   1       3.909  -3.182   5.242  0.00  0.00    -0.047 A 
ATOM      9  C9  IND d   1       4.426  -1.938   4.857  0.00  0.00    -0.096 A 
ATOM     10  HN1 IND d   1       4.836  -4.628   6.276  0.00  0.00     0.298 HD
ENDROOT
TORSDOF 0
ENDMDL
