MODEL 1
REMARK minimizedAffinity -2.70790195
REMARK minimizedRMSD -1
REMARK  1 active torsions:
REMARK  status: ('A' for Active; 'I' for Inactive)
REMARK    1  A    between atoms: C3_4  and  O_7 
ROOT
ATOM      1  C   UNL d   1      -0.892  -2.215   1.698  0.00  0.00    -0.033 A 
ATOM      2  C1  UNL d   1       0.157  -2.491   0.819  0.00  0.00     0.039 A 
ATOM      3  C2  UNL d   1       0.574  -1.525  -0.098  0.00  0.00    -0.080 A 
ATOM      4  C3  UNL d   1      -0.063  -0.288  -0.125  0.00  0.00     0.150 A 
ATOM      5  C4  UNL d   1      -1.106  -0.004   0.750  0.00  0.00    -0.007 A 
ATOM      6  C5  UNL d   1      -1.522  -0.971   1.665  0.00  0.00     0.039 A 
ENDROOT
BRANCH   4   7
ATOM      7  O   UNL d   1       0.306   0.685  -1.006  0.00  0.00    -0.526 OA
ATOM      8  H5  UNL d   1       1.019   0.338  -1.567  0.00  0.00     0.418 HD
ENDBRANCH   4   7
TORSDOF 1
ENDMDL
