MODEL 1
REMARK minimizedAffinity -5.22050953
REMARK minimizedRMSD -1
REMARK  1 active torsions:
REMARK  status: ('A' for Active; 'I' for Inactive)
REMARK    1  A    between atoms: C3_4  and  O_7 
ROOT
ATOM      1  C   UNL d   1      -2.498  -2.097   0.061  0.00  0.00    -0.033 A 
ATOM      2  C1  UNL d   1      -1.858  -2.528   1.225  0.00  0.00     0.039 A 
ATOM      3  C2  UNL d   1      -0.571  -2.076   1.525  0.00  0.00    -0.080 A 
ATOM      4  C3  UNL d   1       0.063  -1.194   0.654  0.00  0.00     0.150 A 
ATOM      5  C4  UNL d   1      -0.570  -0.757  -0.505  0.00  0.00    -0.007 A 
ATOM      6  C5  UNL d   1      -1.855  -1.210  -0.803  0.00  0.00     0.039 A 
ENDROOT
BRANCH   4   7
ATOM      7  O   UNL d   1       1.320  -0.729   0.902  0.00  0.00    -0.526 OA
ATOM      8  H5  UNL d   1       1.643  -1.137   1.722  0.00  0.00     0.418 HD
ENDBRANCH   4   7
TORSDOF 1
ENDMDL
