MODEL 1
REMARK minimizedAffinity -4.84780407
REMARK minimizedRMSD -1
REMARK  1 active torsions:
REMARK  status: ('A' for Active; 'I' for Inactive)
REMARK    1  A    between atoms: C3_4  and  O_7 
ROOT
ATOM      1  C   UNL d   1       0.453  -0.137   0.388  0.00  0.00    -0.033 A 
ATOM      2  C1  UNL d   1      -0.920   0.106   0.460  0.00  0.00     0.039 A 
ATOM      3  C2  UNL d   1      -1.796  -0.923   0.813  0.00  0.00    -0.080 A 
ATOM      4  C3  UNL d   1      -1.286  -2.188   1.093  0.00  0.00     0.150 A 
ATOM      5  C4  UNL d   1       0.081  -2.436   1.027  0.00  0.00    -0.007 A 
ATOM      6  C5  UNL d   1       0.954  -1.408   0.673  0.00  0.00     0.039 A 
ENDROOT
BRANCH   4   7
ATOM      7  O   UNL d   1      -2.102  -3.224   1.437  0.00  0.00    -0.526 OA
ATOM      8  H5  UNL d   1      -3.022  -2.913   1.414  0.00  0.00     0.418 HD
ENDBRANCH   4   7
TORSDOF 1
ENDMDL
