MODEL 1
REMARK minimizedAffinity -2.57063651
REMARK minimizedRMSD -1
REMARK  1 active torsions:
REMARK  status: ('A' for Active; 'I' for Inactive)
REMARK    1  A    between atoms: C3_4  and  O_7 
ROOT
ATOM      1  C   UNL d   1      -0.420   0.526  -0.254  0.00  0.00    -0.033 A 
ATOM      2  C1  UNL d   1      -1.748   0.382   0.153  0.00  0.00     0.039 A 
ATOM      3  C2  UNL d   1      -2.205  -0.850   0.626  0.00  0.00    -0.080 A 
ATOM      4  C3  UNL d   1      -1.325  -1.927   0.689  0.00  0.00     0.150 A 
ATOM      5  C4  UNL d   1       0.000  -1.789   0.289  0.00  0.00    -0.007 A 
ATOM      6  C5  UNL d   1       0.454  -0.558  -0.184  0.00  0.00     0.039 A 
ENDROOT
BRANCH   4   7
ATOM      7  O   UNL d   1      -1.726  -3.149   1.139  0.00  0.00    -0.526 OA
ATOM      8  H5  UNL d   1      -2.673  -3.103   1.353  0.00  0.00     0.418 HD
ENDBRANCH   4   7
TORSDOF 1
ENDMDL
