MODEL 1
REMARK minimizedAffinity -3.12533784
REMARK minimizedRMSD -1
REMARK  1 active torsions:
REMARK  status: ('A' for Active; 'I' for Inactive)
REMARK    1  A    between atoms: C3_4  and  O_7 
ROOT
ATOM      1  C   UNL d   1      -4.077  -3.081  -4.003  0.00  0.00    -0.033 A 
ATOM      2  C1  UNL d   1      -4.427  -3.414  -5.312  0.00  0.00     0.039 A 
ATOM      3  C2  UNL d   1      -3.712  -4.397  -6.000  0.00  0.00    -0.080 A 
ATOM      4  C3  UNL d   1      -2.651  -5.038  -5.366  0.00  0.00     0.150 A 
ATOM      5  C4  UNL d   1      -2.299  -4.714  -4.060  0.00  0.00    -0.007 A 
ATOM      6  C5  UNL d   1      -3.014  -3.732  -3.376  0.00  0.00     0.039 A 
ENDROOT
BRANCH   4   7
ATOM      7  O   UNL d   1      -1.920  -6.000  -5.998  0.00  0.00    -0.526 OA
ATOM      8  H5  UNL d   1      -2.258  -6.098  -6.904  0.00  0.00     0.418 HD
ENDBRANCH   4   7
TORSDOF 1
ENDMDL
