MODEL 1
REMARK minimizedAffinity -5.46311569
REMARK minimizedRMSD -1
REMARK  1 active torsions:
REMARK  status: ('A' for Active; 'I' for Inactive)
REMARK    1  A    between atoms: C3_4  and  O_7 
ROOT
ATOM      1  C   UNL d   1      -0.267   0.884   0.526  0.00  0.00    -0.033 A 
ATOM      2  C1  UNL d   1       0.636  -0.161   0.321  0.00  0.00     0.039 A 
ATOM      3  C2  UNL d   1       0.219  -1.485   0.470  0.00  0.00    -0.080 A 
ATOM      4  C3  UNL d   1      -1.102  -1.750   0.821  0.00  0.00     0.150 A 
ATOM      5  C4  UNL d   1      -2.008  -0.714   1.023  0.00  0.00    -0.007 A 
ATOM      6  C5  UNL d   1      -1.589   0.607   0.875  0.00  0.00     0.039 A 
ENDROOT
BRANCH   4   7
ATOM      7  O   UNL d   1      -1.554  -3.027   0.982  0.00  0.00    -0.526 OA
ATOM      8  H5  UNL d   1      -0.811  -3.636   0.839  0.00  0.00     0.418 HD
ENDBRANCH   4   7
TORSDOF 1
ENDMDL
