MODEL 1
REMARK minimizedAffinity -5.25069189
REMARK minimizedRMSD -1
REMARK  1 active torsions:
REMARK  status: ('A' for Active; 'I' for Inactive)
REMARK    1  A    between atoms: C3_4  and  O_7 
ROOT
ATOM      1  C   UNL d   1      -2.034  -2.413   1.941  0.00  0.00    -0.033 A 
ATOM      2  C1  UNL d   1      -2.658  -1.164   1.909  0.00  0.00     0.039 A 
ATOM      3  C2  UNL d   1      -2.049  -0.095   1.249  0.00  0.00    -0.080 A 
ATOM      4  C3  UNL d   1      -0.819  -0.287   0.625  0.00  0.00     0.150 A 
ATOM      5  C4  UNL d   1      -0.195  -1.530   0.650  0.00  0.00    -0.007 A 
ATOM      6  C5  UNL d   1      -0.803  -2.596   1.310  0.00  0.00     0.039 A 
ENDROOT
BRANCH   4   7
ATOM      7  O   UNL d   1      -0.185   0.728  -0.027  0.00  0.00    -0.526 OA
ATOM      8  H5  UNL d   1      -0.720   1.534   0.064  0.00  0.00     0.418 HD
ENDBRANCH   4   7
TORSDOF 1
ENDMDL
