MODEL 1
REMARK minimizedAffinity -4.92235947
REMARK minimizedRMSD -1
REMARK  1 active torsions:
REMARK  status: ('A' for Active; 'I' for Inactive)
REMARK    1  A    between atoms: C3_4  and  O_7 
ROOT
ATOM      1  C   UNL d   1      -2.492  -2.148   2.041  0.00  0.00    -0.033 A 
ATOM      2  C1  UNL d   1      -2.956  -0.849   1.824  0.00  0.00     0.039 A 
ATOM      3  C2  UNL d   1      -2.194   0.049   1.075  0.00  0.00    -0.080 A 
ATOM      4  C3  UNL d   1      -0.974  -0.363   0.547  0.00  0.00     0.150 A 
ATOM      5  C4  UNL d   1      -0.508  -1.657   0.756  0.00  0.00    -0.007 A 
ATOM      6  C5  UNL d   1      -1.269  -2.553   1.506  0.00  0.00     0.039 A 
ENDROOT
BRANCH   4   7
ATOM      7  O   UNL d   1      -0.194   0.480  -0.187  0.00  0.00    -0.526 OA
ATOM      8  H5  UNL d   1      -0.629   1.348  -0.224  0.00  0.00     0.418 HD
ENDBRANCH   4   7
TORSDOF 1
ENDMDL
