MODEL 1
REMARK minimizedAffinity -4.42794132
REMARK minimizedRMSD -1
REMARK  1 active torsions:
REMARK  status: ('A' for Active; 'I' for Inactive)
REMARK    1  A    between atoms: C3_4  and  O_7 
ROOT
ATOM      1  C   UNL d   1      -2.667   0.344   1.486  0.00  0.00    -0.033 A 
ATOM      2  C1  UNL d   1      -3.188  -0.759   2.166  0.00  0.00     0.039 A 
ATOM      3  C2  UNL d   1      -2.729  -2.044   1.871  0.00  0.00    -0.080 A 
ATOM      4  C3  UNL d   1      -1.749  -2.212   0.896  0.00  0.00     0.150 A 
ATOM      5  C4  UNL d   1      -1.223  -1.118   0.218  0.00  0.00    -0.007 A 
ATOM      6  C5  UNL d   1      -1.684   0.165   0.514  0.00  0.00     0.039 A 
ENDROOT
BRANCH   4   7
ATOM      7  O   UNL d   1      -1.272  -3.447   0.570  0.00  0.00    -0.526 OA
ATOM      8  H5  UNL d   1      -1.748  -4.110   1.099  0.00  0.00     0.418 HD
ENDBRANCH   4   7
TORSDOF 1
ENDMDL
