MODEL 1
REMARK minimizedAffinity -2.85616541
REMARK minimizedRMSD -1
REMARK  1 active torsions:
REMARK  status: ('A' for Active; 'I' for Inactive)
REMARK    1  A    between atoms: C3_4  and  O_7 
ROOT
ATOM      1  C   UNL d   1       1.060  -0.781   0.477  0.00  0.00    -0.033 A 
ATOM      2  C1  UNL d   1       1.958   0.285   0.557  0.00  0.00     0.039 A 
ATOM      3  C2  UNL d   1       1.770   1.420  -0.235  0.00  0.00    -0.080 A 
ATOM      4  C3  UNL d   1       0.681   1.476  -1.100  0.00  0.00     0.150 A 
ATOM      5  C4  UNL d   1      -0.220   0.419  -1.182  0.00  0.00    -0.007 A 
ATOM      6  C5  UNL d   1      -0.030  -0.713  -0.392  0.00  0.00     0.039 A 
ENDROOT
BRANCH   4   7
ATOM      7  O   UNL d   1       0.458   2.561  -1.896  0.00  0.00    -0.526 OA
ATOM      8  H5  UNL d   1       1.176   3.200  -1.753  0.00  0.00     0.418 HD
ENDBRANCH   4   7
TORSDOF 1
ENDMDL
