MODEL 1
REMARK minimizedAffinity -4.23968458
REMARK minimizedRMSD -1
REMARK  1 active torsions:
REMARK  status: ('A' for Active; 'I' for Inactive)
REMARK    1  A    between atoms: C3_4  and  O_7 
ROOT
ATOM      1  C   UNL d   1      -1.445  -2.487   0.940  0.00  0.00    -0.033 A 
ATOM      2  C1  UNL d   1      -0.059  -2.467   0.769  0.00  0.00     0.039 A 
ATOM      3  C2  UNL d   1       0.555  -1.366   0.169  0.00  0.00    -0.080 A 
ATOM      4  C3  UNL d   1      -0.225  -0.294  -0.254  0.00  0.00     0.150 A 
ATOM      5  C4  UNL d   1      -1.606  -0.306  -0.083  0.00  0.00    -0.007 A 
ATOM      6  C5  UNL d   1      -2.218  -1.406   0.515  0.00  0.00     0.039 A 
ENDROOT
BRANCH   4   7
ATOM      7  O   UNL d   1       0.329   0.800  -0.849  0.00  0.00    -0.526 OA
ATOM      8  H5  UNL d   1       1.287   0.656  -0.927  0.00  0.00     0.418 HD
ENDBRANCH   4   7
TORSDOF 1
ENDMDL
