MODEL 1
REMARK minimizedAffinity -4.74817467
REMARK minimizedRMSD -1
REMARK  0 active torsions:
REMARK  status: ('A' for Active; 'I' for Inactive)
ROOT
ATOM      1  C   UNL d   1       2.434  -0.578  -0.819  0.00  0.00     0.077 C 
ATOM      2  C1  UNL d   1       1.561   0.362  -0.041  0.00  0.00    -0.074 A 
ATOM      3  C2  UNL d   1       1.940   1.692   0.164  0.00  0.00    -0.005 A 
ATOM      4  C3  UNL d   1       1.113   2.557   0.881  0.00  0.00     0.006 A 
ATOM      5  C4  UNL d   1      -0.099   2.101   1.400  0.00  0.00    -0.005 A 
ATOM      6  C5  UNL d   1      -0.495   0.774   1.205  0.00  0.00    -0.074 A 
ATOM      7  C6  UNL d   1      -1.800   0.270   1.748  0.00  0.00     0.077 C 
ATOM      8  C7  UNL d   1       0.338  -0.087   0.477  0.00  0.00    -0.001 A 
ENDROOT
TORSDOF 0
ENDMDL
