MODEL 1
REMARK minimizedAffinity -2.18967581
REMARK minimizedRMSD -1
REMARK  0 active torsions:
REMARK  status: ('A' for Active; 'I' for Inactive)
ROOT
ATOM      1  C   UNL d   1      -1.382  -1.246  -0.665  0.00  0.00     0.077 C 
ATOM      2  C1  UNL d   1      -0.128  -0.475  -0.378  0.00  0.00    -0.074 A 
ATOM      3  C2  UNL d   1       1.127  -0.990  -0.721  0.00  0.00    -0.005 A 
ATOM      4  C3  UNL d   1       2.284  -0.257  -0.456  0.00  0.00     0.006 A 
ATOM      5  C4  UNL d   1       2.198   0.995   0.154  0.00  0.00    -0.005 A 
ATOM      6  C5  UNL d   1       0.953   1.526   0.503  0.00  0.00    -0.074 A 
ATOM      7  C6  UNL d   1       0.842   2.874   1.151  0.00  0.00     0.077 C 
ATOM      8  C7  UNL d   1      -0.206   0.787   0.228  0.00  0.00    -0.001 A 
ENDROOT
TORSDOF 0
ENDMDL
