MODEL 1
REMARK minimizedAffinity -2.58344698
REMARK minimizedRMSD -1
REMARK  0 active torsions:
REMARK  status: ('A' for Active; 'I' for Inactive)
ROOT
ATOM      1  C   UNL d   1      -0.783   1.357   1.285  0.00  0.00     0.077 C 
ATOM      2  C1  UNL d   1      -0.449   0.296   0.278  0.00  0.00    -0.074 A 
ATOM      3  C2  UNL d   1       0.831  -0.263   0.222  0.00  0.00    -0.005 A 
ATOM      4  C3  UNL d   1       1.124  -1.255  -0.714  0.00  0.00     0.006 A 
ATOM      5  C4  UNL d   1       0.142  -1.697  -1.601  0.00  0.00    -0.005 A 
ATOM      6  C5  UNL d   1      -1.145  -1.150  -1.558  0.00  0.00    -0.074 A 
ATOM      7  C6  UNL d   1      -2.215  -1.621  -2.498  0.00  0.00     0.077 C 
ATOM      8  C7  UNL d   1      -1.433  -0.158  -0.611  0.00  0.00    -0.001 A 
ENDROOT
TORSDOF 0
ENDMDL
