MODEL 1
REMARK minimizedAffinity -4.92415094
REMARK minimizedRMSD -1
REMARK  0 active torsions:
REMARK  status: ('A' for Active; 'I' for Inactive)
ROOT
ATOM      1  C   UNL d   1      -2.452   0.798   1.986  0.00  0.00     0.077 C 
ATOM      2  C1  UNL d   1      -1.124   0.962   1.308  0.00  0.00    -0.074 A 
ATOM      3  C2  UNL d   1      -0.791   0.197   0.185  0.00  0.00    -0.005 A 
ATOM      4  C3  UNL d   1       0.444   0.367  -0.440  0.00  0.00     0.006 A 
ATOM      5  C4  UNL d   1       1.357   1.302   0.050  0.00  0.00    -0.005 A 
ATOM      6  C5  UNL d   1       1.041   2.077   1.170  0.00  0.00    -0.074 A 
ATOM      7  C6  UNL d   1       2.007   3.093   1.704  0.00  0.00     0.077 C 
ATOM      8  C7  UNL d   1      -0.205   1.905   1.789  0.00  0.00    -0.001 A 
ENDROOT
TORSDOF 0
ENDMDL
