MODEL 1
REMARK minimizedAffinity -4.94780254
REMARK minimizedRMSD -1
REMARK  0 active torsions:
REMARK  status: ('A' for Active; 'I' for Inactive)
ROOT
ATOM      1  C   UNL d   1       0.707   3.141   1.357  0.00  0.00     0.077 C 
ATOM      2  C1  UNL d   1       0.960   1.919   0.525  0.00  0.00    -0.074 A 
ATOM      3  C2  UNL d   1       2.221   1.674  -0.027  0.00  0.00    -0.005 A 
ATOM      4  C3  UNL d   1       2.444   0.528  -0.791  0.00  0.00     0.006 A 
ATOM      5  C4  UNL d   1       1.410  -0.383  -1.009  0.00  0.00    -0.005 A 
ATOM      6  C5  UNL d   1       0.143  -0.155  -0.464  0.00  0.00    -0.074 A 
ATOM      7  C6  UNL d   1      -0.977  -1.129  -0.680  0.00  0.00     0.077 C 
ATOM      8  C7  UNL d   1      -0.072   0.995   0.308  0.00  0.00    -0.001 A 
ENDROOT
TORSDOF 0
ENDMDL
