MODEL 1
REMARK minimizedAffinity -4.73560143
REMARK minimizedRMSD -1
REMARK  0 active torsions:
REMARK  status: ('A' for Active; 'I' for Inactive)
ROOT
ATOM      1  C   UNL d   1       2.299  -0.749  -0.859  0.00  0.00     0.077 C 
ATOM      2  C1  UNL d   1       1.419   0.267  -0.193  0.00  0.00    -0.074 A 
ATOM      3  C2  UNL d   1       1.786   1.615  -0.144  0.00  0.00    -0.005 A 
ATOM      4  C3  UNL d   1       0.953   2.550   0.470  0.00  0.00     0.006 A 
ATOM      5  C4  UNL d   1      -0.255   2.146   1.041  0.00  0.00    -0.005 A 
ATOM      6  C5  UNL d   1      -0.639   0.802   1.002  0.00  0.00    -0.074 A 
ATOM      7  C6  UNL d   1      -1.938   0.353   1.602  0.00  0.00     0.077 C 
ATOM      8  C7  UNL d   1       0.201  -0.130   0.376  0.00  0.00    -0.001 A 
ENDROOT
TORSDOF 0
ENDMDL
