MODEL 1
REMARK minimizedAffinity -3.35084987
REMARK minimizedRMSD -1
REMARK  0 active torsions:
REMARK  status: ('A' for Active; 'I' for Inactive)
ROOT
ATOM      1  C   UNL d   1      -4.559  -2.728  -1.366  0.00  0.00     0.077 C 
ATOM      2  C1  UNL d   1      -3.255  -2.086  -1.736  0.00  0.00    -0.074 A 
ATOM      3  C2  UNL d   1      -3.011  -1.659  -3.045  0.00  0.00    -0.005 A 
ATOM      4  C3  UNL d   1      -1.797  -1.054  -3.372  0.00  0.00     0.006 A 
ATOM      5  C4  UNL d   1      -0.818  -0.870  -2.395  0.00  0.00    -0.005 A 
ATOM      6  C5  UNL d   1      -1.045  -1.290  -1.080  0.00  0.00    -0.074 A 
ATOM      7  C6  UNL d   1      -0.007  -1.091  -0.016  0.00  0.00     0.077 C 
ATOM      8  C7  UNL d   1      -2.270  -1.890  -0.758  0.00  0.00    -0.001 A 
ENDROOT
TORSDOF 0
ENDMDL
