MODEL 1
REMARK minimizedAffinity -4.07556009
REMARK minimizedRMSD -1
REMARK  0 active torsions:
REMARK  status: ('A' for Active; 'I' for Inactive)
ROOT
ATOM      1  C   UNL d   1      -0.533  -0.934  -1.095  0.00  0.00     0.077 C 
ATOM      2  C1  UNL d   1       0.080   0.125  -0.227  0.00  0.00    -0.074 A 
ATOM      3  C2  UNL d   1      -0.654   0.724   0.802  0.00  0.00    -0.005 A 
ATOM      4  C3  UNL d   1      -0.068   1.701   1.607  0.00  0.00     0.006 A 
ATOM      5  C4  UNL d   1       1.256   2.086   1.393  0.00  0.00    -0.005 A 
ATOM      6  C5  UNL d   1       2.006   1.497   0.370  0.00  0.00    -0.074 A 
ATOM      7  C6  UNL d   1       3.433   1.892   0.133  0.00  0.00     0.077 C 
ATOM      8  C7  UNL d   1       1.411   0.512  -0.431  0.00  0.00    -0.001 A 
ENDROOT
TORSDOF 0
ENDMDL
