MODEL 1
REMARK minimizedAffinity -0.991278052
REMARK minimizedRMSD -1
REMARK  0 active torsions:
REMARK  status: ('A' for Active; 'I' for Inactive)
ROOT
ATOM      1  C   UNL d   1      -2.537  -1.430  -2.985  0.00  0.00     0.077 C 
ATOM      2  C1  UNL d   1      -1.428  -1.230  -1.994  0.00  0.00    -0.074 A 
ATOM      3  C2  UNL d   1      -0.166  -1.794  -2.204  0.00  0.00    -0.005 A 
ATOM      4  C3  UNL d   1       0.857  -1.591  -1.278  0.00  0.00     0.006 A 
ATOM      5  C4  UNL d   1       0.630  -0.822  -0.136  0.00  0.00    -0.005 A 
ATOM      6  C5  UNL d   1      -0.625  -0.249   0.089  0.00  0.00    -0.074 A 
ATOM      7  C6  UNL d   1      -0.884   0.589   1.306  0.00  0.00     0.077 C 
ATOM      8  C7  UNL d   1      -1.647  -0.452  -0.849  0.00  0.00    -0.001 A 
ENDROOT
TORSDOF 0
ENDMDL
