MODEL 1
REMARK minimizedAffinity -1.27831137
REMARK minimizedRMSD -1
REMARK  0 active torsions:
REMARK  status: ('A' for Active; 'I' for Inactive)
ROOT
ATOM      1  C   UNL d   1      -1.007  -1.664  -0.653  0.00  0.00     0.077 C 
ATOM      2  C1  UNL d   1       0.202  -0.777  -0.648  0.00  0.00    -0.074 A 
ATOM      3  C2  UNL d   1       1.362  -1.140  -1.340  0.00  0.00    -0.005 A 
ATOM      4  C3  UNL d   1       2.476  -0.301  -1.335  0.00  0.00     0.006 A 
ATOM      5  C4  UNL d   1       2.442   0.908  -0.639  0.00  0.00    -0.005 A 
ATOM      6  C5  UNL d   1       1.291   1.288   0.058  0.00  0.00    -0.074 A 
ATOM      7  C6  UNL d   1       1.234   2.588   0.804  0.00  0.00     0.077 C 
ATOM      8  C7  UNL d   1       0.173   0.443   0.042  0.00  0.00    -0.001 A 
ENDROOT
TORSDOF 0
ENDMDL
