MODEL 1
REMARK minimizedAffinity -3.5468936
REMARK minimizedRMSD -1
REMARK  0 active torsions:
REMARK  status: ('A' for Active; 'I' for Inactive)
ROOT
ATOM      1  C   UNL d   1      -1.450  -1.270  -0.824  0.00  0.00     0.077 C 
ATOM      2  C1  UNL d   1      -0.556  -0.189  -0.294  0.00  0.00    -0.074 A 
ATOM      3  C2  UNL d   1      -1.033   0.754   0.622  0.00  0.00    -0.005 A 
ATOM      4  C3  UNL d   1      -0.187   1.748   1.113  0.00  0.00     0.006 A 
ATOM      5  C4  UNL d   1       1.143   1.810   0.693  0.00  0.00    -0.005 A 
ATOM      6  C5  UNL d   1       1.638   0.875  -0.222  0.00  0.00    -0.074 A 
ATOM      7  C6  UNL d   1       3.066   0.921  -0.675  0.00  0.00     0.077 C 
ATOM      8  C7  UNL d   1       0.783  -0.125  -0.705  0.00  0.00    -0.001 A 
ENDROOT
TORSDOF 0
ENDMDL
