MODEL 1
REMARK minimizedAffinity -0.699232996
REMARK minimizedRMSD -1
REMARK  0 active torsions:
REMARK  status: ('A' for Active; 'I' for Inactive)
ROOT
ATOM      1  C   UNL d   1       2.324   0.043  -0.419  0.00  0.00     0.077 C 
ATOM      2  C1  UNL d   1       0.887  -0.303  -0.162  0.00  0.00    -0.074 A 
ATOM      3  C2  UNL d   1       0.235   0.145   0.991  0.00  0.00    -0.005 A 
ATOM      4  C3  UNL d   1      -1.104  -0.177   1.212  0.00  0.00     0.006 A 
ATOM      5  C4  UNL d   1      -1.803  -0.949   0.284  0.00  0.00    -0.005 A 
ATOM      6  C5  UNL d   1      -1.168  -1.406  -0.876  0.00  0.00    -0.074 A 
ATOM      7  C6  UNL d   1      -1.907  -2.229  -1.888  0.00  0.00     0.077 C 
ATOM      8  C7  UNL d   1       0.176  -1.072  -1.094  0.00  0.00    -0.001 A 
ENDROOT
TORSDOF 0
ENDMDL
