MODEL 1
REMARK minimizedAffinity -5.15840721
REMARK minimizedRMSD -1
REMARK  0 active torsions:
REMARK  status: ('A' for Active; 'I' for Inactive)
ROOT
ATOM      1  C   UNL d   1       3.919   1.441  -1.150  0.00  0.00     0.077 C 
ATOM      2  C1  UNL d   1       3.399   1.582   0.250  0.00  0.00    -0.074 A 
ATOM      3  C2  UNL d   1       2.206   2.263   0.508  0.00  0.00    -0.005 A 
ATOM      4  C3  UNL d   1       1.730   2.378   1.814  0.00  0.00     0.006 A 
ATOM      5  C4  UNL d   1       2.441   1.813   2.873  0.00  0.00    -0.005 A 
ATOM      6  C5  UNL d   1       3.636   1.127   2.635  0.00  0.00    -0.074 A 
ATOM      7  C6  UNL d   1       4.407   0.505   3.761  0.00  0.00     0.077 C 
ATOM      8  C7  UNL d   1       4.104   1.010   1.319  0.00  0.00    -0.001 A 
ENDROOT
TORSDOF 0
ENDMDL
