MODEL 1
REMARK minimizedAffinity -0.606633902
REMARK minimizedRMSD -1
REMARK  0 active torsions:
REMARK  status: ('A' for Active; 'I' for Inactive)
ROOT
ATOM      1  C   UNL d   1       0.462   1.296   5.641  0.00  0.00     0.077 C 
ATOM      2  C1  UNL d   1       0.903   1.121   4.218  0.00  0.00    -0.074 A 
ATOM      3  C2  UNL d   1       2.260   1.112   3.882  0.00  0.00    -0.005 A 
ATOM      4  C3  UNL d   1       2.655   0.939   2.555  0.00  0.00     0.006 A 
ATOM      5  C4  UNL d   1       1.699   0.775   1.553  0.00  0.00    -0.005 A 
ATOM      6  C5  UNL d   1       0.337   0.781   1.870  0.00  0.00    -0.074 A 
ATOM      7  C6  UNL d   1      -0.704   0.596   0.806  0.00  0.00     0.077 C 
ATOM      8  C7  UNL d   1      -0.052   0.948   3.206  0.00  0.00    -0.001 A 
ENDROOT
TORSDOF 0
ENDMDL
