MODEL 1
REMARK minimizedAffinity 6.49925423
REMARK minimizedRMSD -1
REMARK  0 active torsions:
REMARK  status: ('A' for Active; 'I' for Inactive)
ROOT
ATOM      1  C   UNL d   1      -1.575   0.841   1.087  0.00  0.00     0.077 C 
ATOM      2  C1  UNL d   1      -0.346   0.960   1.938  0.00  0.00    -0.074 A 
ATOM      3  C2  UNL d   1       0.929   0.798   1.387  0.00  0.00    -0.005 A 
ATOM      4  C3  UNL d   1       2.063   0.922   2.189  0.00  0.00     0.006 A 
ATOM      5  C4  UNL d   1       1.934   1.208   3.549  0.00  0.00    -0.005 A 
ATOM      6  C5  UNL d   1       0.667   1.374   4.118  0.00  0.00    -0.074 A 
ATOM      7  C6  UNL d   1       0.511   1.692   5.575  0.00  0.00     0.077 C 
ATOM      8  C7  UNL d   1      -0.467   1.256   3.303  0.00  0.00    -0.001 A 
ENDROOT
TORSDOF 0
ENDMDL
