MODEL 1
REMARK minimizedAffinity 2.52440763
REMARK minimizedRMSD -1
REMARK  0 active torsions:
REMARK  status: ('A' for Active; 'I' for Inactive)
ROOT
ATOM      1  C   UNL d   1       1.513  -1.472   3.650  0.00  0.00     0.172 C 
ATOM      2  N   UNL d   1       1.200  -2.165   2.423  0.00  0.00    -0.070 N 
ATOM      3  C1  UNL d   1       1.775  -3.333   1.997  0.00  0.00    -0.004 A 
ATOM      4  C2  UNL d   1       1.207  -3.665   0.786  0.00  0.00    -0.047 A 
ATOM      5  C3  UNL d   1       0.260  -2.662   0.472  0.00  0.00    -0.047 A 
ATOM      6  C4  UNL d   1       0.276  -1.745   1.502  0.00  0.00    -0.004 A 
ENDROOT
TORSDOF 0
ENDMDL
