MODEL 1
REMARK minimizedAffinity 6.55386829
REMARK minimizedRMSD -1
REMARK  0 active torsions:
REMARK  status: ('A' for Active; 'I' for Inactive)
ROOT
ATOM      1  C   UNL d   1      -2.198  -2.325  -0.866  0.00  0.00     0.172 C 
ATOM      2  N   UNL d   1      -0.916  -1.978  -0.299  0.00  0.00    -0.070 N 
ATOM      3  C1  UNL d   1      -0.717  -1.162   0.782  0.00  0.00    -0.004 A 
ATOM      4  C2  UNL d   1       0.641  -1.084   1.007  0.00  0.00    -0.047 A 
ATOM      5  C3  UNL d   1       1.279  -1.880   0.027  0.00  0.00    -0.047 A 
ATOM      6  C4  UNL d   1       0.291  -2.422  -0.769  0.00  0.00    -0.004 A 
ENDROOT
TORSDOF 0
ENDMDL
