MODEL 1
REMARK minimizedAffinity -0.273127764
REMARK minimizedRMSD -1
REMARK  0 active torsions:
REMARK  status: ('A' for Active; 'I' for Inactive)
ROOT
ATOM      1  C   UNL d   1       2.627  -5.997  -5.996  0.00  0.00     0.172 C 
ATOM      2  N   UNL d   1       3.795  -5.983  -5.147  0.00  0.00    -0.070 N 
ATOM      3  C1  UNL d   1       3.786  -5.998  -3.778  0.00  0.00    -0.004 A 
ATOM      4  C2  UNL d   1       5.096  -5.977  -3.348  0.00  0.00    -0.047 A 
ATOM      5  C3  UNL d   1       5.919  -5.947  -4.498  0.00  0.00    -0.047 A 
ATOM      6  C4  UNL d   1       5.088  -5.951  -5.599  0.00  0.00    -0.004 A 
ENDROOT
TORSDOF 0
ENDMDL
