MODEL 1
REMARK minimizedAffinity 0.0877649784
REMARK minimizedRMSD -1
REMARK  0 active torsions:
REMARK  status: ('A' for Active; 'I' for Inactive)
ROOT
ATOM      1  C   UNL d   1       5.525  -2.230   5.287  0.00  0.00     0.172 C 
ATOM      2  N   UNL d   1       4.190  -2.165   4.739  0.00  0.00    -0.070 N 
ATOM      3  C1  UNL d   1       3.198  -3.086   4.944  0.00  0.00    -0.004 A 
ATOM      4  C2  UNL d   1       2.082  -2.665   4.254  0.00  0.00    -0.047 A 
ATOM      5  C3  UNL d   1       2.416  -1.449   3.611  0.00  0.00    -0.047 A 
ATOM      6  C4  UNL d   1       3.727  -1.163   3.928  0.00  0.00    -0.004 A 
ENDROOT
TORSDOF 0
ENDMDL
