MODEL 1
REMARK minimizedAffinity -0.486853689
REMARK minimizedRMSD -1
REMARK  0 active torsions:
REMARK  status: ('A' for Active; 'I' for Inactive)
ROOT
ATOM      1  C   UNL d   1       5.575  -2.121   4.486  0.00  0.00     0.172 C 
ATOM      2  N   UNL d   1       4.159  -2.062   4.205  0.00  0.00    -0.070 N 
ATOM      3  C1  UNL d   1       3.550  -1.174   3.359  0.00  0.00    -0.004 A 
ATOM      4  C2  UNL d   1       2.199  -1.445   3.365  0.00  0.00    -0.047 A 
ATOM      5  C3  UNL d   1       1.989  -2.532   4.246  0.00  0.00    -0.047 A 
ATOM      6  C4  UNL d   1       3.219  -2.894   4.752  0.00  0.00    -0.004 A 
ENDROOT
TORSDOF 0
ENDMDL
