MODEL 1
REMARK minimizedAffinity -2.48490095
REMARK minimizedRMSD -1
REMARK  0 active torsions:
REMARK  status: ('A' for Active; 'I' for Inactive)
ROOT
ATOM      1  C   UNL d   1       5.965  -1.927   4.102  0.00  0.00     0.172 C 
ATOM      2  N   UNL d   1       4.524  -1.841   4.122  0.00  0.00    -0.070 N 
ATOM      3  C1  UNL d   1       3.749  -1.204   3.190  0.00  0.00    -0.004 A 
ATOM      4  C2  UNL d   1       2.431  -1.350   3.566  0.00  0.00    -0.047 A 
ATOM      5  C3  UNL d   1       2.414  -2.098   4.767  0.00  0.00    -0.047 A 
ATOM      6  C4  UNL d   1       3.723  -2.389   5.089  0.00  0.00    -0.004 A 
ENDROOT
TORSDOF 0
ENDMDL
