MODEL 1
REMARK minimizedAffinity 0.874670804
REMARK minimizedRMSD -1
REMARK  0 active torsions:
REMARK  status: ('A' for Active; 'I' for Inactive)
ROOT
ATOM      1  C   UNL d   1       5.651  -2.010   4.948  0.00  0.00     0.172 C 
ATOM      2  N   UNL d   1       4.289  -2.047   4.469  0.00  0.00    -0.070 N 
ATOM      3  C1  UNL d   1       3.675  -1.069   3.732  0.00  0.00    -0.004 A 
ATOM      4  C2  UNL d   1       2.385  -1.481   3.476  0.00  0.00    -0.047 A 
ATOM      5  C3  UNL d   1       2.218  -2.750   4.080  0.00  0.00    -0.047 A 
ATOM      6  C4  UNL d   1       3.412  -3.076   4.688  0.00  0.00    -0.004 A 
ENDROOT
TORSDOF 0
ENDMDL
