MODEL 1
REMARK minimizedAffinity 3.05722094
REMARK minimizedRMSD -1
REMARK  0 active torsions:
REMARK  status: ('A' for Active; 'I' for Inactive)
ROOT
ATOM      1  C   UNL d   1       2.225   0.234   2.747  0.00  0.00     0.172 C 
ATOM      2  N   UNL d   1       2.448  -0.937   3.563  0.00  0.00    -0.070 N 
ATOM      3  C1  UNL d   1       3.652  -1.330   4.084  0.00  0.00    -0.004 A 
ATOM      4  C2  UNL d   1       3.444  -2.490   4.798  0.00  0.00    -0.047 A 
ATOM      5  C3  UNL d   1       2.068  -2.806   4.702  0.00  0.00    -0.047 A 
ATOM      6  C4  UNL d   1       1.475  -1.828   3.932  0.00  0.00    -0.004 A 
ENDROOT
TORSDOF 0
ENDMDL
