MODEL 1
REMARK minimizedAffinity 1.01615119
REMARK minimizedRMSD -1
REMARK  0 active torsions:
REMARK  status: ('A' for Active; 'I' for Inactive)
ROOT
ATOM      1  C   UNL d   1       2.427  -1.955   3.709  0.00  0.00     0.172 C 
ATOM      2  N   UNL d   1       3.809  -2.233   4.023  0.00  0.00    -0.070 N 
ATOM      3  C1  UNL d   1       4.307  -2.493   5.272  0.00  0.00    -0.004 A 
ATOM      4  C2  UNL d   1       5.664  -2.705   5.150  0.00  0.00    -0.047 A 
ATOM      5  C3  UNL d   1       5.992  -2.566   3.780  0.00  0.00    -0.047 A 
ATOM      6  C4  UNL d   1       4.826  -2.274   3.106  0.00  0.00    -0.004 A 
ENDROOT
TORSDOF 0
ENDMDL
