MODEL 1
REMARK minimizedAffinity 5.94726181
REMARK minimizedRMSD -1
REMARK  0 active torsions:
REMARK  status: ('A' for Active; 'I' for Inactive)
ROOT
ATOM      1  C   UNL d   1      -0.733   5.277   1.525  0.00  0.00     0.172 C 
ATOM      2  N   UNL d   1       0.012   4.225   0.875  0.00  0.00    -0.070 N 
ATOM      3  C1  UNL d   1       1.004   4.404  -0.052  0.00  0.00    -0.004 A 
ATOM      4  C2  UNL d   1       1.462   3.160  -0.427  0.00  0.00    -0.047 A 
ATOM      5  C3  UNL d   1       0.718   2.199   0.299  0.00  0.00    -0.047 A 
ATOM      6  C4  UNL d   1      -0.172   2.885   1.097  0.00  0.00    -0.004 A 
ENDROOT
TORSDOF 0
ENDMDL
