MODEL 1
REMARK minimizedAffinity 2.22732568
REMARK minimizedRMSD -1
REMARK  0 active torsions:
REMARK  status: ('A' for Active; 'I' for Inactive)
ROOT
ATOM      1  C   UNL d   1       4.216  -2.642   6.000  0.00  0.00     0.172 C 
ATOM      2  N   UNL d   1       3.284  -2.428   4.917  0.00  0.00    -0.070 N 
ATOM      3  C1  UNL d   1       2.600  -1.268   4.671  0.00  0.00    -0.004 A 
ATOM      4  C2  UNL d   1       1.818  -1.469   3.553  0.00  0.00    -0.047 A 
ATOM      5  C3  UNL d   1       2.041  -2.795   3.113  0.00  0.00    -0.047 A 
ATOM      6  C4  UNL d   1       2.952  -3.367   3.976  0.00  0.00    -0.004 A 
ENDROOT
TORSDOF 0
ENDMDL
