MODEL 1
REMARK minimizedAffinity 2.78227329
REMARK minimizedRMSD -1
REMARK  0 active torsions:
REMARK  status: ('A' for Active; 'I' for Inactive)
ROOT
ATOM      1  C1  DEN d   1       2.519   5.537  -5.991  0.00  0.00     0.130 A 
ATOM      2  C2  DEN d   1       3.915   5.967  -5.994  0.00  0.00    -0.031 A 
ATOM      3  C3  DEN d   1       4.765   4.760  -5.985  0.00  0.00     0.027 A 
ATOM      4  C4  DEN d   1       4.059   2.279  -5.972  0.00  0.00     0.027 A 
ATOM      5  C5  DEN d   1       2.984   1.418  -5.955  0.00  0.00    -0.003 A 
ATOM      6  C6  DEN d   1       1.691   1.865  -5.914  0.00  0.00     0.001 A 
ATOM      7  C7  DEN d   1       1.437   3.211  -5.935  0.00  0.00     0.017 A 
ATOM      8  C8  DEN d   1       2.516   4.086  -5.945  0.00  0.00    -0.094 A 
ATOM      9  C9  DEN d   1       3.816   3.614  -5.998  0.00  0.00    -0.072 A 
ENDROOT
TORSDOF 0
ENDMDL
