MODEL 1
REMARK minimizedAffinity 11.8183451
REMARK minimizedRMSD -1
REMARK  0 active torsions:
REMARK  status: ('A' for Active; 'I' for Inactive)
ROOT
ATOM      1  C1  DEN d   1      -1.745  -4.456  -2.363  0.00  0.00     0.130 A 
ATOM      2  C2  DEN d   1      -1.093  -3.440  -1.540  0.00  0.00    -0.031 A 
ATOM      3  C3  DEN d   1      -0.847  -2.256  -2.387  0.00  0.00     0.027 A 
ATOM      4  C4  DEN d   1      -1.414  -1.895  -4.877  0.00  0.00     0.027 A 
ATOM      5  C5  DEN d   1      -1.961  -2.476  -5.999  0.00  0.00    -0.003 A 
ATOM      6  C6  DEN d   1      -2.439  -3.760  -5.997  0.00  0.00     0.001 A 
ATOM      7  C7  DEN d   1      -2.421  -4.489  -4.838  0.00  0.00     0.017 A 
ATOM      8  C8  DEN d   1      -1.865  -3.912  -3.704  0.00  0.00    -0.094 A 
ATOM      9  C9  DEN d   1      -1.397  -2.609  -3.723  0.00  0.00    -0.072 A 
ENDROOT
TORSDOF 0
ENDMDL
