MODEL 1
REMARK minimizedAffinity 20.1188011
REMARK minimizedRMSD -1
REMARK  0 active torsions:
REMARK  status: ('A' for Active; 'I' for Inactive)
ROOT
ATOM      1  C1  DEN d   1      -3.056  -1.972  -1.503  0.00  0.00     0.130 A 
ATOM      2  C2  DEN d   1      -2.286  -2.335  -2.690  0.00  0.00    -0.031 A 
ATOM      3  C3  DEN d   1      -1.005  -2.916  -2.243  0.00  0.00     0.027 A 
ATOM      4  C4  DEN d   1      -0.143  -3.292   0.159  0.00  0.00     0.027 A 
ATOM      5  C5  DEN d   1      -0.438  -3.133   1.495  0.00  0.00    -0.003 A 
ATOM      6  C6  DEN d   1      -1.602  -2.549   1.921  0.00  0.00     0.001 A 
ATOM      7  C7  DEN d   1      -2.535  -2.145   1.003  0.00  0.00     0.017 A 
ATOM      8  C8  DEN d   1      -2.241  -2.295  -0.346  0.00  0.00    -0.094 A 
ATOM      9  C9  DEN d   1      -1.065  -2.898  -0.757  0.00  0.00    -0.072 A 
ENDROOT
TORSDOF 0
ENDMDL
