MODEL 1
REMARK minimizedAffinity 11.9447975
REMARK minimizedRMSD -1
REMARK  0 active torsions:
REMARK  status: ('A' for Active; 'I' for Inactive)
ROOT
ATOM      1  C1  DEN d   1      -1.110  -2.297   2.470  0.00  0.00     0.130 A 
ATOM      2  C2  DEN d   1      -2.262  -1.438   2.730  0.00  0.00    -0.031 A 
ATOM      3  C3  DEN d   1      -2.804  -0.995   1.430  0.00  0.00     0.027 A 
ATOM      4  C4  DEN d   1      -1.978  -1.556  -0.949  0.00  0.00     0.027 A 
ATOM      5  C5  DEN d   1      -1.026  -2.237  -1.675  0.00  0.00    -0.003 A 
ATOM      6  C6  DEN d   1      -0.024  -2.952  -1.075  0.00  0.00     0.001 A 
ATOM      7  C7  DEN d   1       0.024  -3.040   0.291  0.00  0.00     0.017 A 
ATOM      8  C8  DEN d   1      -0.928  -2.350   1.030  0.00  0.00    -0.094 A 
ATOM      9  C9  DEN d   1      -1.941  -1.642   0.405  0.00  0.00    -0.072 A 
ENDROOT
TORSDOF 0
ENDMDL
