MODEL 1
REMARK minimizedAffinity 7.09986496
REMARK minimizedRMSD -1
REMARK  0 active torsions:
REMARK  status: ('A' for Active; 'I' for Inactive)
ROOT
ATOM      1  C1  DEN d   1      -2.366  -1.521   2.028  0.00  0.00     0.130 A 
ATOM      2  C2  DEN d   1      -1.836  -2.318   3.131  0.00  0.00    -0.031 A 
ATOM      3  C3  DEN d   1      -0.704  -3.114   2.617  0.00  0.00     0.027 A 
ATOM      4  C4  DEN d   1       0.278  -3.188   0.233  0.00  0.00     0.027 A 
ATOM      5  C5  DEN d   1       0.155  -2.695  -1.047  0.00  0.00    -0.003 A 
ATOM      6  C6  DEN d   1      -0.830  -1.809  -1.397  0.00  0.00     0.001 A 
ATOM      7  C7  DEN d   1      -1.703  -1.354  -0.445  0.00  0.00     0.017 A 
ATOM      8  C8  DEN d   1      -1.591  -1.853   0.846  0.00  0.00    -0.094 A 
ATOM      9  C9  DEN d   1      -0.581  -2.738   1.183  0.00  0.00    -0.072 A 
ENDROOT
TORSDOF 0
ENDMDL
