MODEL 1
REMARK minimizedAffinity 12.1477089
REMARK minimizedRMSD -1
REMARK  0 active torsions:
REMARK  status: ('A' for Active; 'I' for Inactive)
ROOT
ATOM      1  C1  DEN d   1      -1.178  -1.576  -2.457  0.00  0.00     0.130 A 
ATOM      2  C2  DEN d   1      -1.901  -2.223  -1.366  0.00  0.00    -0.031 A 
ATOM      3  C3  DEN d   1      -2.732  -3.299  -1.943  0.00  0.00     0.027 A 
ATOM      4  C4  DEN d   1      -2.966  -4.023  -4.407  0.00  0.00     0.027 A 
ATOM      5  C5  DEN d   1      -2.559  -3.763  -5.697  0.00  0.00    -0.003 A 
ATOM      6  C6  DEN d   1      -1.696  -2.743  -5.999  0.00  0.00     0.001 A 
ATOM      7  C7  DEN d   1      -1.177  -1.973  -4.992  0.00  0.00     0.017 A 
ATOM      8  C8  DEN d   1      -1.589  -2.224  -3.690  0.00  0.00    -0.094 A 
ATOM      9  C9  DEN d   1      -2.452  -3.268  -3.404  0.00  0.00    -0.072 A 
ENDROOT
TORSDOF 0
ENDMDL
