MODEL 1
REMARK minimizedAffinity -3.11572218
REMARK minimizedRMSD -1
REMARK  0 active torsions:
REMARK  status: ('A' for Active; 'I' for Inactive)
ROOT
ATOM      1  C1  DEN d   1       1.904   4.571  -5.081  0.00  0.00     0.130 A 
ATOM      2  C2  DEN d   1       1.658   3.210  -5.553  0.00  0.00    -0.031 A 
ATOM      3  C3  DEN d   1       2.946   2.642  -5.998  0.00  0.00     0.027 A 
ATOM      4  C4  DEN d   1       5.285   3.728  -6.000  0.00  0.00     0.027 A 
ATOM      5  C5  DEN d   1       5.991   4.873  -5.704  0.00  0.00    -0.003 A 
ATOM      6  C6  DEN d   1       5.384   6.000  -5.216  0.00  0.00     0.001 A 
ATOM      7  C7  DEN d   1       4.037   5.991  -4.966  0.00  0.00     0.017 A 
ATOM      8  C8  DEN d   1       3.317   4.843  -5.269  0.00  0.00    -0.094 A 
ATOM      9  C9  DEN d   1       3.951   3.710  -5.750  0.00  0.00    -0.072 A 
ENDROOT
TORSDOF 0
ENDMDL
