MODEL 1
REMARK minimizedAffinity 8.80136585
REMARK minimizedRMSD -1
REMARK  0 active torsions:
REMARK  status: ('A' for Active; 'I' for Inactive)
ROOT
ATOM      1  C1  DEN d   1      -2.994  -1.113   2.041  0.00  0.00     0.130 A 
ATOM      2  C2  DEN d   1      -2.479  -1.811   3.216  0.00  0.00    -0.031 A 
ATOM      3  C3  DEN d   1      -1.432  -2.750   2.766  0.00  0.00     0.027 A 
ATOM      4  C4  DEN d   1      -0.559  -3.186   0.378  0.00  0.00     0.027 A 
ATOM      5  C5  DEN d   1      -0.699  -2.842  -0.948  0.00  0.00    -0.003 A 
ATOM      6  C6  DEN d   1      -1.629  -1.930  -1.372  0.00  0.00     0.001 A 
ATOM      7  C7  DEN d   1      -2.425  -1.296  -0.455  0.00  0.00     0.017 A 
ATOM      8  C8  DEN d   1      -2.295  -1.644   0.884  0.00  0.00    -0.094 A 
ATOM      9  C9  DEN d   1      -1.341  -2.559   1.293  0.00  0.00    -0.072 A 
ENDROOT
TORSDOF 0
ENDMDL
