MODEL 1
REMARK minimizedAffinity 9.49829674
REMARK minimizedRMSD -1
REMARK  0 active torsions:
REMARK  status: ('A' for Active; 'I' for Inactive)
ROOT
ATOM      1  C1  DEN d   1       2.129   6.000  -4.127  0.00  0.00     0.130 A 
ATOM      2  C2  DEN d   1       1.881   5.924  -5.564  0.00  0.00    -0.031 A 
ATOM      3  C3  DEN d   1       2.142   4.537  -6.000  0.00  0.00     0.027 A 
ATOM      4  C4  DEN d   1       2.896   2.510  -4.595  0.00  0.00     0.027 A 
ATOM      5  C5  DEN d   1       3.245   2.087  -3.332  0.00  0.00    -0.003 A 
ATOM      6  C6  DEN d   1       3.280   2.940  -2.260  0.00  0.00     0.001 A 
ATOM      7  C7  DEN d   1       2.916   4.250  -2.423  0.00  0.00     0.017 A 
ATOM      8  C8  DEN d   1       2.569   4.685  -3.696  0.00  0.00    -0.094 A 
ATOM      9  C9  DEN d   1       2.528   3.805  -4.764  0.00  0.00    -0.072 A 
ENDROOT
TORSDOF 0
ENDMDL
