MODEL 1
REMARK minimizedAffinity 0.0945517048
REMARK minimizedRMSD -1
REMARK  0 active torsions:
REMARK  status: ('A' for Active; 'I' for Inactive)
ROOT
ATOM      1  C1  DEN d   1       5.999   0.383  -4.344  0.00  0.00     0.130 A 
ATOM      2  C2  DEN d   1       5.647   0.378  -5.761  0.00  0.00    -0.031 A 
ATOM      3  C3  DEN d   1       4.698   1.484  -6.000  0.00  0.00     0.027 A 
ATOM      4  C4  DEN d   1       3.748   3.198  -4.322  0.00  0.00     0.027 A 
ATOM      5  C5  DEN d   1       3.746   3.595  -3.003  0.00  0.00    -0.003 A 
ATOM      6  C6  DEN d   1       4.462   2.934  -2.041  0.00  0.00     0.001 A 
ATOM      7  C7  DEN d   1       5.247   1.867  -2.391  0.00  0.00     0.017 A 
ATOM      8  C8  DEN d   1       5.248   1.456  -3.717  0.00  0.00    -0.094 A 
ATOM      9  C9  DEN d   1       4.527   2.145  -4.678  0.00  0.00    -0.072 A 
ENDROOT
TORSDOF 0
ENDMDL
