MODEL 1
REMARK minimizedAffinity 11.4114265
REMARK minimizedRMSD -1
REMARK  0 active torsions:
REMARK  status: ('A' for Active; 'I' for Inactive)
ROOT
ATOM      1  C1  DEN d   1      -1.412  -2.482   2.648  0.00  0.00     0.130 A 
ATOM      2  C2  DEN d   1      -2.488  -1.565   3.015  0.00  0.00    -0.031 A 
ATOM      3  C3  DEN d   1      -2.919  -0.855   1.794  0.00  0.00     0.027 A 
ATOM      4  C4  DEN d   1      -2.033  -1.087  -0.617  0.00  0.00     0.027 A 
ATOM      5  C5  DEN d   1      -1.116  -1.730  -1.418  0.00  0.00    -0.003 A 
ATOM      6  C6  DEN d   1      -0.218  -2.636  -0.919  0.00  0.00     0.001 A 
ATOM      7  C7  DEN d   1      -0.247  -2.958   0.412  0.00  0.00     0.017 A 
ATOM      8  C8  DEN d   1      -1.164  -2.309   1.228  0.00  0.00    -0.094 A 
ATOM      9  C9  DEN d   1      -2.072  -1.405   0.702  0.00  0.00    -0.072 A 
ENDROOT
TORSDOF 0
ENDMDL
