MODEL 1
REMARK minimizedAffinity -3.13755584
REMARK minimizedRMSD -1
REMARK  0 active torsions:
REMARK  status: ('A' for Active; 'I' for Inactive)
ROOT
ATOM      1  C1  DEN d   1       2.408   1.769   1.098  0.00  0.00     0.130 A 
ATOM      2  C2  DEN d   1       2.884   2.936   0.360  0.00  0.00    -0.031 A 
ATOM      3  C3  DEN d   1       4.357   2.966   0.454  0.00  0.00     0.027 A 
ATOM      4  C4  DEN d   1       5.940   1.326   1.661  0.00  0.00     0.027 A 
ATOM      5  C5  DEN d   1       6.000   0.188   2.435  0.00  0.00    -0.003 A 
ATOM      6  C6  DEN d   1       4.875  -0.478   2.843  0.00  0.00     0.001 A 
ATOM      7  C7  DEN d   1       3.642  -0.037   2.440  0.00  0.00     0.017 A 
ATOM      8  C8  DEN d   1       3.573   1.114   1.666  0.00  0.00    -0.094 A 
ATOM      9  C9  DEN d   1       4.723   1.766   1.254  0.00  0.00    -0.072 A 
ENDROOT
TORSDOF 0
ENDMDL
