MODEL 1
REMARK minimizedAffinity 2.24784184
REMARK minimizedRMSD -1
REMARK  0 active torsions:
REMARK  status: ('A' for Active; 'I' for Inactive)
ROOT
ATOM      1  C1  DEN d   1       5.797   1.072  -2.887  0.00  0.00     0.130 A 
ATOM      2  C2  DEN d   1       5.680  -0.066  -3.796  0.00  0.00    -0.031 A 
ATOM      3  C3  DEN d   1       5.688   0.452  -5.179  0.00  0.00     0.027 A 
ATOM      4  C4  DEN d   1       5.873   2.892  -5.997  0.00  0.00     0.027 A 
ATOM      5  C5  DEN d   1       5.980   4.205  -5.596  0.00  0.00    -0.003 A 
ATOM      6  C6  DEN d   1       6.000   4.566  -4.275  0.00  0.00     0.001 A 
ATOM      7  C7  DEN d   1       5.956   3.598  -3.306  0.00  0.00     0.017 A 
ATOM      8  C8  DEN d   1       5.840   2.272  -3.703  0.00  0.00    -0.094 A 
ATOM      9  C9  DEN d   1       5.834   1.927  -5.043  0.00  0.00    -0.072 A 
ENDROOT
TORSDOF 0
ENDMDL
