MODEL 1
REMARK minimizedAffinity -0.957018852
REMARK minimizedRMSD -1
REMARK  0 active torsions:
REMARK  status: ('A' for Active; 'I' for Inactive)
ROOT
ATOM      1  C1  DEN d   1       4.420  -0.310   2.707  0.00  0.00     0.130 A 
ATOM      2  C2  DEN d   1       5.847  -0.064   2.516  0.00  0.00    -0.031 A 
ATOM      3  C3  DEN d   1       5.997   1.214   1.792  0.00  0.00     0.027 A 
ATOM      4  C4  DEN d   1       4.167   2.830   0.957  0.00  0.00     0.027 A 
ATOM      5  C5  DEN d   1       2.809   3.042   0.876  0.00  0.00    -0.003 A 
ATOM      6  C6  DEN d   1       1.899   2.143   1.365  0.00  0.00     0.001 A 
ATOM      7  C7  DEN d   1       2.337   1.010   1.998  0.00  0.00     0.017 A 
ATOM      8  C8  DEN d   1       3.706   0.786   2.078  0.00  0.00    -0.094 A 
ATOM      9  C9  DEN d   1       4.610   1.713   1.588  0.00  0.00    -0.072 A 
ENDROOT
TORSDOF 0
ENDMDL
