MODEL 1
REMARK minimizedAffinity 0.164237991
REMARK minimizedRMSD -1
REMARK  0 active torsions:
REMARK  status: ('A' for Active; 'I' for Inactive)
ROOT
ATOM      1  C1  DEN d   1       3.068   4.095  -4.620  0.00  0.00     0.130 A 
ATOM      2  C2  DEN d   1       1.838   3.769  -5.337  0.00  0.00    -0.031 A 
ATOM      3  C3  DEN d   1       2.029   2.463  -6.000  0.00  0.00     0.027 A 
ATOM      4  C4  DEN d   1       4.096   0.921  -5.981  0.00  0.00     0.027 A 
ATOM      5  C5  DEN d   1       5.386   0.778  -5.519  0.00  0.00    -0.003 A 
ATOM      6  C6  DEN d   1       6.000   1.738  -4.759  0.00  0.00     0.001 A 
ATOM      7  C7  DEN d   1       5.309   2.865  -4.401  0.00  0.00     0.017 A 
ATOM      8  C8  DEN d   1       4.010   3.020  -4.870  0.00  0.00    -0.094 A 
ATOM      9  C9  DEN d   1       3.403   2.032  -5.626  0.00  0.00    -0.072 A 
ENDROOT
TORSDOF 0
ENDMDL
