MODEL 1
REMARK minimizedAffinity -4.94795895
REMARK minimizedRMSD -1
REMARK  0 active torsions:
REMARK  status: ('A' for Active; 'I' for Inactive)
ROOT
ATOM      1  C   UNL d   1      -0.091  -2.862   0.474  0.00  0.00     0.078 C 
ATOM      2  C1  UNL d   1      -0.141  -1.438   0.005  0.00  0.00    -0.077 A 
ATOM      3  C2  UNL d   1      -0.632  -0.423   0.835  0.00  0.00    -0.001 A 
ATOM      4  C3  UNL d   1      -0.682   0.897   0.382  0.00  0.00     0.003 A 
ATOM      5  C4  UNL d   1      -0.244   1.213  -0.902  0.00  0.00    -0.005 A 
ATOM      6  C5  UNL d   1       0.244   0.209  -1.736  0.00  0.00     0.003 A 
ATOM      7  C6  UNL d   1       0.295  -1.111  -1.285  0.00  0.00    -0.001 A 
ENDROOT
TORSDOF 0
ENDMDL
