MODEL 1
REMARK minimizedAffinity -3.84939671
REMARK minimizedRMSD -1
REMARK  0 active torsions:
REMARK  status: ('A' for Active; 'I' for Inactive)
ROOT
ATOM      1  C   UNL d   1       0.264   0.813  -1.115  0.00  0.00     0.078 C 
ATOM      2  C1  UNL d   1       0.283  -0.556  -0.505  0.00  0.00    -0.077 A 
ATOM      3  C2  UNL d   1       1.176  -1.535  -0.958  0.00  0.00    -0.001 A 
ATOM      4  C3  UNL d   1       1.176  -2.809  -0.387  0.00  0.00     0.003 A 
ATOM      5  C4  UNL d   1       0.284  -3.116   0.639  0.00  0.00    -0.005 A 
ATOM      6  C5  UNL d   1      -0.609  -2.149   1.095  0.00  0.00     0.003 A 
ATOM      7  C6  UNL d   1      -0.611  -0.874   0.525  0.00  0.00    -0.001 A 
ENDROOT
TORSDOF 0
ENDMDL
