MODEL 1
REMARK minimizedAffinity -3.03213525
REMARK minimizedRMSD -1
REMARK  0 active torsions:
REMARK  status: ('A' for Active; 'I' for Inactive)
ROOT
ATOM      1  C   UNL d   1       0.112  -3.119   0.258  0.00  0.00     0.078 C 
ATOM      2  C1  UNL d   1      -0.154  -1.645   0.193  0.00  0.00    -0.077 A 
ATOM      3  C2  UNL d   1       0.326  -0.872  -0.871  0.00  0.00    -0.001 A 
ATOM      4  C3  UNL d   1       0.080   0.501  -0.914  0.00  0.00     0.003 A 
ATOM      5  C4  UNL d   1      -0.647   1.114   0.105  0.00  0.00    -0.005 A 
ATOM      6  C5  UNL d   1      -1.127   0.353   1.169  0.00  0.00     0.003 A 
ATOM      7  C6  UNL d   1      -0.881  -1.020   1.214  0.00  0.00    -0.001 A 
ENDROOT
TORSDOF 0
ENDMDL
