MODEL 1
REMARK minimizedAffinity -3.48085809
REMARK minimizedRMSD -1
REMARK  0 active torsions:
REMARK  status: ('A' for Active; 'I' for Inactive)
ROOT
ATOM      1  C   UNL d   1       0.242  -0.416   0.108  0.00  0.00     0.078 C 
ATOM      2  C1  UNL d   1       0.652   1.022   0.212  0.00  0.00    -0.077 A 
ATOM      3  C2  UNL d   1       1.814   1.393   0.899  0.00  0.00    -0.001 A 
ATOM      4  C3  UNL d   1       2.178   2.737   0.996  0.00  0.00     0.003 A 
ATOM      5  C4  UNL d   1       1.386   3.721   0.408  0.00  0.00    -0.005 A 
ATOM      6  C5  UNL d   1       0.227   3.362  -0.277  0.00  0.00     0.003 A 
ATOM      7  C6  UNL d   1      -0.139   2.018  -0.374  0.00  0.00    -0.001 A 
ENDROOT
TORSDOF 0
ENDMDL
