MODEL 1
REMARK minimizedAffinity -2.97190809
REMARK minimizedRMSD -1
REMARK  0 active torsions:
REMARK  status: ('A' for Active; 'I' for Inactive)
ROOT
ATOM      1  C   UNL d   1       0.507   1.909  -0.389  0.00  0.00     0.078 C 
ATOM      2  C1  UNL d   1      -0.068   0.582   0.008  0.00  0.00    -0.077 A 
ATOM      3  C2  UNL d   1       0.416  -0.609  -0.546  0.00  0.00    -0.001 A 
ATOM      4  C3  UNL d   1      -0.135  -1.836  -0.174  0.00  0.00     0.003 A 
ATOM      5  C4  UNL d   1      -1.175  -1.884   0.753  0.00  0.00    -0.005 A 
ATOM      6  C5  UNL d   1      -1.665  -0.703   1.308  0.00  0.00     0.003 A 
ATOM      7  C6  UNL d   1      -1.115   0.525   0.937  0.00  0.00    -0.001 A 
ENDROOT
TORSDOF 0
ENDMDL
