MODEL 1
REMARK minimizedAffinity -3.89579701
REMARK minimizedRMSD -1
REMARK  0 active torsions:
REMARK  status: ('A' for Active; 'I' for Inactive)
ROOT
ATOM      1  C   UNL d   1       0.272   1.116   0.393  0.00  0.00     0.078 C 
ATOM      2  C1  UNL d   1      -0.078  -0.341   0.319  0.00  0.00    -0.077 A 
ATOM      3  C2  UNL d   1       0.671  -1.223  -0.470  0.00  0.00    -0.001 A 
ATOM      4  C3  UNL d   1       0.328  -2.574  -0.537  0.00  0.00     0.003 A 
ATOM      5  C4  UNL d   1      -0.765  -3.055   0.181  0.00  0.00    -0.005 A 
ATOM      6  C5  UNL d   1      -1.517  -2.185   0.967  0.00  0.00     0.003 A 
ATOM      7  C6  UNL d   1      -1.176  -0.833   1.036  0.00  0.00    -0.001 A 
ENDROOT
TORSDOF 0
ENDMDL
