MODEL 1
REMARK minimizedAffinity -6.04449034
REMARK minimizedRMSD -1
REMARK  0 active torsions:
REMARK  status: ('A' for Active; 'I' for Inactive)
ROOT
ATOM      1  C   UNL d   1      -0.059  -2.637   1.103  0.00  0.00     0.078 C 
ATOM      2  C1  UNL d   1      -0.000  -1.589   0.032  0.00  0.00    -0.077 A 
ATOM      3  C2  UNL d   1      -0.240  -0.241   0.328  0.00  0.00    -0.001 A 
ATOM      4  C3  UNL d   1      -0.191   0.723  -0.680  0.00  0.00     0.003 A 
ATOM      5  C4  UNL d   1       0.095   0.349  -1.992  0.00  0.00    -0.005 A 
ATOM      6  C5  UNL d   1       0.333  -0.989  -2.296  0.00  0.00     0.003 A 
ATOM      7  C6  UNL d   1       0.285  -1.955  -1.289  0.00  0.00    -0.001 A 
ENDROOT
TORSDOF 0
ENDMDL
