MODEL 1
REMARK minimizedAffinity -4.4342041
REMARK minimizedRMSD -1
REMARK  0 active torsions:
REMARK  status: ('A' for Active; 'I' for Inactive)
ROOT
ATOM      1  C   UNL d   1      -0.054  -3.108   0.474  0.00  0.00     0.078 C 
ATOM      2  C1  UNL d   1       0.108  -1.628   0.298  0.00  0.00    -0.077 A 
ATOM      3  C2  UNL d   1       0.665  -1.098  -0.872  0.00  0.00    -0.001 A 
ATOM      4  C3  UNL d   1       0.819   0.282  -1.019  0.00  0.00     0.003 A 
ATOM      5  C4  UNL d   1       0.419   1.143   0.001  0.00  0.00    -0.005 A 
ATOM      6  C5  UNL d   1      -0.134   0.624   1.170  0.00  0.00     0.003 A 
ATOM      7  C6  UNL d   1      -0.289  -0.755   1.319  0.00  0.00    -0.001 A 
ENDROOT
TORSDOF 0
ENDMDL
