MODEL 1
REMARK minimizedAffinity -5.31783152
REMARK minimizedRMSD -1
REMARK  0 active torsions:
REMARK  status: ('A' for Active; 'I' for Inactive)
ROOT
ATOM      1  C   UNL d   1       0.014  -3.163   0.830  0.00  0.00     0.078 C 
ATOM      2  C1  UNL d   1      -0.088  -1.715   0.455  0.00  0.00    -0.077 A 
ATOM      3  C2  UNL d   1       0.685  -1.183  -0.585  0.00  0.00    -0.001 A 
ATOM      4  C3  UNL d   1       0.586   0.169  -0.917  0.00  0.00     0.003 A 
ATOM      5  C4  UNL d   1      -0.282   1.001  -0.213  0.00  0.00    -0.005 A 
ATOM      6  C5  UNL d   1      -1.053   0.481   0.824  0.00  0.00     0.003 A 
ATOM      7  C6  UNL d   1      -0.956  -0.870   1.158  0.00  0.00    -0.001 A 
ENDROOT
TORSDOF 0
ENDMDL
