MODEL 1
REMARK minimizedAffinity -3.45599771
REMARK minimizedRMSD -1
REMARK  0 active torsions:
REMARK  status: ('A' for Active; 'I' for Inactive)
ROOT
ATOM      1  C   UNL d   1       0.272  -3.619  -0.212  0.00  0.00     0.078 C 
ATOM      2  C1  UNL d   1      -0.044  -2.156  -0.120  0.00  0.00    -0.077 A 
ATOM      3  C2  UNL d   1       0.597  -1.226  -0.948  0.00  0.00    -0.001 A 
ATOM      4  C3  UNL d   1       0.300   0.134  -0.845  0.00  0.00     0.003 A 
ATOM      5  C4  UNL d   1      -0.638   0.576   0.086  0.00  0.00    -0.005 A 
ATOM      6  C5  UNL d   1      -1.279  -0.341   0.916  0.00  0.00     0.003 A 
ATOM      7  C6  UNL d   1      -0.983  -1.701   0.814  0.00  0.00    -0.001 A 
ENDROOT
TORSDOF 0
ENDMDL
