MODEL 1
REMARK minimizedAffinity -5.05382252
REMARK minimizedRMSD -1
REMARK  0 active torsions:
REMARK  status: ('A' for Active; 'I' for Inactive)
ROOT
ATOM      1  C   UNL d   1      -1.535  -0.488   2.082  0.00  0.00     0.078 C 
ATOM      2  C1  UNL d   1      -0.674  -1.070   1.001  0.00  0.00    -0.077 A 
ATOM      3  C2  UNL d   1      -0.022  -0.245   0.076  0.00  0.00    -0.001 A 
ATOM      4  C3  UNL d   1       0.770  -0.801  -0.930  0.00  0.00     0.003 A 
ATOM      5  C4  UNL d   1       0.916  -2.184  -1.022  0.00  0.00    -0.005 A 
ATOM      6  C5  UNL d   1       0.269  -3.013  -0.107  0.00  0.00     0.003 A 
ATOM      7  C6  UNL d   1      -0.523  -2.459   0.900  0.00  0.00    -0.001 A 
ENDROOT
TORSDOF 0
ENDMDL
