MODEL 1
REMARK minimizedAffinity -2.47781539
REMARK minimizedRMSD -1
REMARK  0 active torsions:
REMARK  status: ('A' for Active; 'I' for Inactive)
ROOT
ATOM      1  C   UNL d   1      -0.003   0.593  -0.329  0.00  0.00     0.078 C 
ATOM      2  C1  UNL d   1       0.002  -0.859   0.044  0.00  0.00    -0.077 A 
ATOM      3  C2  UNL d   1       1.173  -1.621  -0.040  0.00  0.00    -0.001 A 
ATOM      4  C3  UNL d   1       1.161  -2.975   0.301  0.00  0.00     0.003 A 
ATOM      5  C4  UNL d   1      -0.020  -3.578   0.728  0.00  0.00    -0.005 A 
ATOM      6  C5  UNL d   1      -1.192  -2.828   0.813  0.00  0.00     0.003 A 
ATOM      7  C6  UNL d   1      -1.181  -1.475   0.472  0.00  0.00    -0.001 A 
ENDROOT
TORSDOF 0
ENDMDL
