MODEL 1
REMARK minimizedAffinity -2.92821574
REMARK minimizedRMSD -1
REMARK  0 active torsions:
REMARK  status: ('A' for Active; 'I' for Inactive)
ROOT
ATOM      1  C   UNL d   1      -0.990  -2.909   0.533  0.00  0.00     0.078 C 
ATOM      2  C1  UNL d   1      -0.574  -1.577  -0.017  0.00  0.00    -0.077 A 
ATOM      3  C2  UNL d   1      -0.490  -0.450   0.809  0.00  0.00    -0.001 A 
ATOM      4  C3  UNL d   1      -0.112   0.786   0.281  0.00  0.00     0.003 A 
ATOM      5  C4  UNL d   1       0.185   0.906  -1.075  0.00  0.00    -0.005 A 
ATOM      6  C5  UNL d   1       0.102  -0.210  -1.905  0.00  0.00     0.003 A 
ATOM      7  C6  UNL d   1      -0.277  -1.446  -1.379  0.00  0.00    -0.001 A 
ENDROOT
TORSDOF 0
ENDMDL
