MODEL 1
REMARK minimizedAffinity -3.65980744
REMARK minimizedRMSD -1
REMARK  0 active torsions:
REMARK  status: ('A' for Active; 'I' for Inactive)
ROOT
ATOM      1  C   UNL d   1      -0.425   1.559  -0.071  0.00  0.00     0.078 C 
ATOM      2  C1  UNL d   1      -0.425   0.075   0.147  0.00  0.00    -0.077 A 
ATOM      3  C2  UNL d   1      -1.202  -0.505   1.158  0.00  0.00    -0.001 A 
ATOM      4  C3  UNL d   1      -1.185  -1.887   1.356  0.00  0.00     0.003 A 
ATOM      5  C4  UNL d   1      -0.392  -2.700   0.548  0.00  0.00    -0.005 A 
ATOM      6  C5  UNL d   1       0.386  -2.131  -0.458  0.00  0.00     0.003 A 
ATOM      7  C6  UNL d   1       0.370  -0.750  -0.658  0.00  0.00    -0.001 A 
ENDROOT
TORSDOF 0
ENDMDL
