MODEL 1
REMARK minimizedAffinity -3.92593145
REMARK minimizedRMSD -1
REMARK  0 active torsions:
REMARK  status: ('A' for Active; 'I' for Inactive)
ROOT
ATOM      1  C   UNL d   1       0.271   1.337  -0.323  0.00  0.00     0.078 C 
ATOM      2  C1  UNL d   1       0.120  -0.132  -0.061  0.00  0.00    -0.077 A 
ATOM      3  C2  UNL d   1       0.942  -1.067  -0.701  0.00  0.00    -0.001 A 
ATOM      4  C3  UNL d   1       0.784  -2.432  -0.455  0.00  0.00     0.003 A 
ATOM      5  C4  UNL d   1      -0.196  -2.874   0.431  0.00  0.00    -0.005 A 
ATOM      6  C5  UNL d   1      -1.020  -1.951   1.072  0.00  0.00     0.003 A 
ATOM      7  C6  UNL d   1      -0.863  -0.586   0.827  0.00  0.00    -0.001 A 
ENDROOT
TORSDOF 0
ENDMDL
