MODEL 1
REMARK minimizedAffinity -0.782193005
REMARK minimizedRMSD -1
REMARK  1 active torsions:
REMARK  status: ('A' for Active; 'I' for Inactive)
REMARK    1  A    between atoms: C3_4  and  O_7 
ROOT
ATOM      1  C   UNL d   1      -1.197  -3.004   0.039  0.00  0.00    -0.033 A 
ATOM      2  C1  UNL d   1      -1.194  -2.197   1.178  0.00  0.00     0.039 A 
ATOM      3  C2  UNL d   1      -0.705  -0.891   1.109  0.00  0.00    -0.080 A 
ATOM      4  C3  UNL d   1      -0.224  -0.404  -0.103  0.00  0.00     0.150 A 
ATOM      5  C4  UNL d   1      -0.228  -1.201  -1.243  0.00  0.00    -0.007 A 
ATOM      6  C5  UNL d   1      -0.715  -2.506  -1.172  0.00  0.00     0.039 A 
ENDROOT
BRANCH   4   7
ATOM      7  O   UNL d   1       0.267   0.862  -0.219  0.00  0.00    -0.526 OA
ATOM      8  H5  UNL d   1       0.233   1.286   0.655  0.00  0.00     0.418 HD
ENDBRANCH   4   7
TORSDOF 1
ENDMDL
