MODEL 1
REMARK minimizedAffinity 1.04277503
REMARK minimizedRMSD -1
REMARK  1 active torsions:
REMARK  status: ('A' for Active; 'I' for Inactive)
REMARK    1  A    between atoms: C3_4  and  O_7 
ROOT
ATOM      1  C   UNL d   1      -0.653   0.464   1.621  0.00  0.00    -0.033 A 
ATOM      2  C1  UNL d   1       0.377   1.184   1.013  0.00  0.00     0.039 A 
ATOM      3  C2  UNL d   1       0.660   0.994  -0.341  0.00  0.00    -0.080 A 
ATOM      4  C3  UNL d   1      -0.095   0.083  -1.075  0.00  0.00     0.150 A 
ATOM      5  C4  UNL d   1      -1.126  -0.635  -0.477  0.00  0.00    -0.007 A 
ATOM      6  C5  UNL d   1      -1.405  -0.444   0.876  0.00  0.00     0.039 A 
ENDROOT
BRANCH   4   7
ATOM      7  O   UNL d   1       0.146  -0.139  -2.398  0.00  0.00    -0.526 OA
ATOM      8  H5  UNL d   1       0.905   0.405  -2.669  0.00  0.00     0.418 HD
ENDBRANCH   4   7
TORSDOF 1
ENDMDL
