MODEL 1
REMARK minimizedAffinity -2.12070131
REMARK minimizedRMSD -1
REMARK  1 active torsions:
REMARK  status: ('A' for Active; 'I' for Inactive)
REMARK    1  A    between atoms: C3_4  and  O_7 
ROOT
ATOM      1  C   UNL d   1       2.638   3.653   1.075  0.00  0.00    -0.033 A 
ATOM      2  C1  UNL d   1       1.269   3.709   1.347  0.00  0.00     0.039 A 
ATOM      3  C2  UNL d   1       0.425   2.688   0.907  0.00  0.00    -0.080 A 
ATOM      4  C3  UNL d   1       0.961   1.617   0.197  0.00  0.00     0.150 A 
ATOM      5  C4  UNL d   1       2.323   1.553  -0.075  0.00  0.00    -0.007 A 
ATOM      6  C5  UNL d   1       3.165   2.574   0.365  0.00  0.00     0.039 A 
ENDROOT
BRANCH   4   7
ATOM      7  O   UNL d   1       0.176   0.600  -0.258  0.00  0.00    -0.526 OA
ATOM      8  H5  UNL d   1      -0.747   0.793  -0.021  0.00  0.00     0.418 HD
ENDBRANCH   4   7
TORSDOF 1
ENDMDL
