MODEL 1
REMARK minimizedAffinity -0.792865932
REMARK minimizedRMSD -1
REMARK  1 active torsions:
REMARK  status: ('A' for Active; 'I' for Inactive)
REMARK    1  A    between atoms: C3_4  and  O_7 
ROOT
ATOM      1  C   UNL d   1      -0.752  -0.253   1.192  0.00  0.00    -0.033 A 
ATOM      2  C1  UNL d   1      -0.949  -1.474   0.545  0.00  0.00     0.039 A 
ATOM      3  C2  UNL d   1      -0.636  -1.608  -0.809  0.00  0.00    -0.080 A 
ATOM      4  C3  UNL d   1      -0.127  -0.515  -1.503  0.00  0.00     0.150 A 
ATOM      5  C4  UNL d   1       0.076   0.704  -0.864  0.00  0.00    -0.007 A 
ATOM      6  C5  UNL d   1      -0.238   0.836   0.488  0.00  0.00     0.039 A 
ENDROOT
BRANCH   4   7
ATOM      7  O   UNL d   1       0.189  -0.595  -2.827  0.00  0.00    -0.526 OA
ATOM      8  H5  UNL d   1      -0.030  -1.488  -3.142  0.00  0.00     0.418 HD
ENDBRANCH   4   7
TORSDOF 1
ENDMDL
