MODEL 1
REMARK minimizedAffinity -2.65590525
REMARK minimizedRMSD -1
REMARK  1 active torsions:
REMARK  status: ('A' for Active; 'I' for Inactive)
REMARK    1  A    between atoms: C3_4  and  O_7 
ROOT
ATOM      1  C   UNL d   1       2.904   2.443   0.407  0.00  0.00    -0.033 A 
ATOM      2  C1  UNL d   1       2.738   1.271  -0.334  0.00  0.00     0.039 A 
ATOM      3  C2  UNL d   1       1.488   0.653  -0.396  0.00  0.00    -0.080 A 
ATOM      4  C3  UNL d   1       0.413   1.216   0.285  0.00  0.00     0.150 A 
ATOM      5  C4  UNL d   1       0.569   2.385   1.022  0.00  0.00    -0.007 A 
ATOM      6  C5  UNL d   1       1.819   3.001   1.084  0.00  0.00     0.039 A 
ENDROOT
BRANCH   4   7
ATOM      7  O   UNL d   1      -0.826   0.646   0.258  0.00  0.00    -0.526 OA
ATOM      8  H5  UNL d   1      -0.777  -0.171  -0.266  0.00  0.00     0.418 HD
ENDBRANCH   4   7
TORSDOF 1
ENDMDL
