MODEL 1
REMARK minimizedAffinity 3.89717221
REMARK minimizedRMSD -1
REMARK  1 active torsions:
REMARK  status: ('A' for Active; 'I' for Inactive)
REMARK    1  A    between atoms: C3_4  and  O_7 
ROOT
ATOM      1  C   UNL d   1       2.435   2.548   0.644  0.00  0.00    -0.033 A 
ATOM      2  C1  UNL d   1       2.469   1.378  -0.118  0.00  0.00     0.039 A 
ATOM      3  C2  UNL d   1       1.372   0.514  -0.123  0.00  0.00    -0.080 A 
ATOM      4  C3  UNL d   1       0.250   0.830   0.638  0.00  0.00     0.150 A 
ATOM      5  C4  UNL d   1       0.208   1.995   1.396  0.00  0.00    -0.007 A 
ATOM      6  C5  UNL d   1       1.304   2.857   1.400  0.00  0.00     0.039 A 
ENDROOT
BRANCH   4   7
ATOM      7  O   UNL d   1      -0.843   0.015   0.669  0.00  0.00    -0.526 OA
ATOM      8  H5  UNL d   1      -0.660  -0.766   0.120  0.00  0.00     0.418 HD
ENDBRANCH   4   7
TORSDOF 1
ENDMDL
