MODEL 1
REMARK minimizedAffinity 0.166776359
REMARK minimizedRMSD -1
REMARK  1 active torsions:
REMARK  status: ('A' for Active; 'I' for Inactive)
REMARK    1  A    between atoms: C3_4  and  O_7 
ROOT
ATOM      1  C   UNL d   1       2.947   3.484   0.952  0.00  0.00    -0.033 A 
ATOM      2  C1  UNL d   1       3.267   2.383   0.155  0.00  0.00     0.039 A 
ATOM      3  C2  UNL d   1       2.266   1.498  -0.249  0.00  0.00    -0.080 A 
ATOM      4  C3  UNL d   1       0.951   1.725   0.148  0.00  0.00     0.150 A 
ATOM      5  C4  UNL d   1       0.625   2.821   0.939  0.00  0.00    -0.007 A 
ATOM      6  C5  UNL d   1       1.626   3.704   1.343  0.00  0.00     0.039 A 
ENDROOT
BRANCH   4   7
ATOM      7  O   UNL d   1      -0.059   0.885  -0.218  0.00  0.00    -0.526 OA
ATOM      8  H5  UNL d   1       0.320   0.157  -0.738  0.00  0.00     0.418 HD
ENDBRANCH   4   7
TORSDOF 1
ENDMDL
