MODEL 1
REMARK minimizedAffinity 2.42447805
REMARK minimizedRMSD -1
REMARK  1 active torsions:
REMARK  status: ('A' for Active; 'I' for Inactive)
REMARK    1  A    between atoms: C3_4  and  O_7 
ROOT
ATOM      1  C   UNL d   1      -1.115  -2.064   1.760  0.00  0.00    -0.033 A 
ATOM      2  C1  UNL d   1      -0.629  -0.782   2.025  0.00  0.00     0.039 A 
ATOM      3  C2  UNL d   1      -0.274   0.063   0.972  0.00  0.00    -0.080 A 
ATOM      4  C3  UNL d   1      -0.412  -0.383  -0.339  0.00  0.00     0.150 A 
ATOM      5  C4  UNL d   1      -0.899  -1.658  -0.611  0.00  0.00    -0.007 A 
ATOM      6  C5  UNL d   1      -1.252  -2.501   0.442  0.00  0.00     0.039 A 
ENDROOT
BRANCH   4   7
ATOM      7  O   UNL d   1      -0.075   0.404  -1.400  0.00  0.00    -0.526 OA
ATOM      8  H5  UNL d   1       0.274   1.245  -1.060  0.00  0.00     0.418 HD
ENDBRANCH   4   7
TORSDOF 1
ENDMDL
