MODEL 1
REMARK minimizedAffinity -4.80020666
REMARK minimizedRMSD -1
REMARK  1 active torsions:
REMARK  status: ('A' for Active; 'I' for Inactive)
REMARK    1  A    between atoms: C3_4  and  O_7 
ROOT
ATOM      1  C   UNL d   1      -0.046  -2.542   0.153  0.00  0.00    -0.033 A 
ATOM      2  C1  UNL d   1      -0.203  -2.962  -1.170  0.00  0.00     0.039 A 
ATOM      3  C2  UNL d   1      -0.122  -2.036  -2.212  0.00  0.00    -0.080 A 
ATOM      4  C3  UNL d   1       0.117  -0.697  -1.919  0.00  0.00     0.150 A 
ATOM      5  C4  UNL d   1       0.278  -0.272  -0.604  0.00  0.00    -0.007 A 
ATOM      6  C5  UNL d   1       0.195  -1.198   0.436  0.00  0.00     0.039 A 
ENDROOT
BRANCH   4   7
ATOM      7  O   UNL d   1       0.200   0.244  -2.902  0.00  0.00    -0.526 OA
ATOM      8  H5  UNL d   1       0.040  -0.189  -3.757  0.00  0.00     0.418 HD
ENDBRANCH   4   7
TORSDOF 1
ENDMDL
