MODEL 1
REMARK minimizedAffinity -2.39417124
REMARK minimizedRMSD -1
REMARK  1 active torsions:
REMARK  status: ('A' for Active; 'I' for Inactive)
REMARK    1  A    between atoms: C3_4  and  O_7 
ROOT
ATOM      1  C   UNL d   1      -0.736   0.205   1.853  0.00  0.00    -0.033 A 
ATOM      2  C1  UNL d   1      -0.660   1.003   0.710  0.00  0.00     0.039 A 
ATOM      3  C2  UNL d   1      -0.404   0.423  -0.533  0.00  0.00    -0.080 A 
ATOM      4  C3  UNL d   1      -0.226  -0.955  -0.621  0.00  0.00     0.150 A 
ATOM      5  C4  UNL d   1      -0.304  -1.757   0.513  0.00  0.00    -0.007 A 
ATOM      6  C5  UNL d   1      -0.559  -1.176   1.754  0.00  0.00     0.039 A 
ENDROOT
BRANCH   4   7
ATOM      7  O   UNL d   1       0.030  -1.567  -1.812  0.00  0.00    -0.526 OA
ATOM      8  H5  UNL d   1       0.084  -0.885  -2.502  0.00  0.00     0.418 HD
ENDBRANCH   4   7
TORSDOF 1
ENDMDL
