MODEL 1
REMARK minimizedAffinity -2.02266002
REMARK minimizedRMSD -1
REMARK  1 active torsions:
REMARK  status: ('A' for Active; 'I' for Inactive)
REMARK    1  A    between atoms: C3_4  and  O_7 
ROOT
ATOM      1  C   UNL d   1      -0.467   0.421   0.819  0.00  0.00    -0.033 A 
ATOM      2  C1  UNL d   1       0.461   1.212   0.140  0.00  0.00     0.039 A 
ATOM      3  C2  UNL d   1       0.732   0.973  -1.209  0.00  0.00    -0.080 A 
ATOM      4  C3  UNL d   1       0.067  -0.059  -1.866  0.00  0.00     0.150 A 
ATOM      5  C4  UNL d   1      -0.862  -0.849  -1.198  0.00  0.00    -0.007 A 
ATOM      6  C5  UNL d   1      -1.130  -0.609   0.149  0.00  0.00     0.039 A 
ENDROOT
BRANCH   4   7
ATOM      7  O   UNL d   1       0.302  -0.333  -3.181  0.00  0.00    -0.526 OA
ATOM      8  H5  UNL d   1       0.988   0.274  -3.505  0.00  0.00     0.418 HD
ENDBRANCH   4   7
TORSDOF 1
ENDMDL
