MODEL 1
REMARK minimizedAffinity -0.633650661
REMARK minimizedRMSD -1
REMARK  1 active torsions:
REMARK  status: ('A' for Active; 'I' for Inactive)
REMARK    1  A    between atoms: C3_4  and  O_7 
ROOT
ATOM      1  C   UNL d   1      -0.018   0.915  -0.036  0.00  0.00    -0.033 A 
ATOM      2  C1  UNL d   1      -0.753   0.709   1.133  0.00  0.00     0.039 A 
ATOM      3  C2  UNL d   1      -1.132  -0.582   1.504  0.00  0.00    -0.080 A 
ATOM      4  C3  UNL d   1      -0.770  -1.659   0.699  0.00  0.00     0.150 A 
ATOM      5  C4  UNL d   1      -0.034  -1.462  -0.466  0.00  0.00    -0.007 A 
ATOM      6  C5  UNL d   1       0.342  -0.171  -0.835  0.00  0.00     0.039 A 
ENDROOT
BRANCH   4   7
ATOM      7  O   UNL d   1      -1.121  -2.937   1.017  0.00  0.00    -0.526 OA
ATOM      8  H5  UNL d   1      -1.650  -2.917   1.831  0.00  0.00     0.418 HD
ENDBRANCH   4   7
TORSDOF 1
ENDMDL
