MODEL 1
REMARK minimizedAffinity -3.26127887
REMARK minimizedRMSD -1
REMARK  1 active torsions:
REMARK  status: ('A' for Active; 'I' for Inactive)
REMARK    1  A    between atoms: C3_4  and  O_7 
ROOT
ATOM      1  C   UNL d   1       3.120   2.011  -0.301  0.00  0.00    -0.033 A 
ATOM      2  C1  UNL d   1       2.266   2.781   0.492  0.00  0.00     0.039 A 
ATOM      3  C2  UNL d   1       0.928   2.413   0.641  0.00  0.00    -0.080 A 
ATOM      4  C3  UNL d   1       0.456   1.274  -0.006  0.00  0.00     0.150 A 
ATOM      5  C4  UNL d   1       1.302   0.500  -0.795  0.00  0.00    -0.007 A 
ATOM      6  C5  UNL d   1       2.638   0.870  -0.943  0.00  0.00     0.039 A 
ENDROOT
BRANCH   4   7
ATOM      7  O   UNL d   1      -0.843   0.877   0.105  0.00  0.00    -0.526 OA
ATOM      8  H5  UNL d   1      -1.316   1.523   0.657  0.00  0.00     0.418 HD
ENDBRANCH   4   7
TORSDOF 1
ENDMDL
