MODEL 1
REMARK minimizedAffinity -2.99165106
REMARK minimizedRMSD -1
REMARK  1 active torsions:
REMARK  status: ('A' for Active; 'I' for Inactive)
REMARK    1  A    between atoms: C3_4  and  O_7 
ROOT
ATOM      1  C   UNL d   1      -1.122  -2.610   0.444  0.00  0.00    -0.033 A 
ATOM      2  C1  UNL d   1      -0.998  -1.807   1.579  0.00  0.00     0.039 A 
ATOM      3  C2  UNL d   1      -0.612  -0.471   1.452  0.00  0.00    -0.080 A 
ATOM      4  C3  UNL d   1      -0.355   0.049   0.187  0.00  0.00     0.150 A 
ATOM      5  C4  UNL d   1      -0.481  -0.744  -0.949  0.00  0.00    -0.007 A 
ATOM      6  C5  UNL d   1      -0.865  -2.078  -0.820  0.00  0.00     0.039 A 
ENDROOT
BRANCH   4   7
ATOM      7  O   UNL d   1       0.029   1.346   0.014  0.00  0.00    -0.526 OA
ATOM      8  H5  UNL d   1       0.102   1.764   0.887  0.00  0.00     0.418 HD
ENDBRANCH   4   7
TORSDOF 1
ENDMDL
