MODEL 1
REMARK minimizedAffinity 5.38630247
REMARK minimizedRMSD -1
REMARK  1 active torsions:
REMARK  status: ('A' for Active; 'I' for Inactive)
REMARK    1  A    between atoms: C3_4  and  O_7 
ROOT
ATOM      1  C   UNL d   1      -1.963  -2.232   1.491  0.00  0.00    -0.033 A 
ATOM      2  C1  UNL d   1      -1.788  -1.290   2.506  0.00  0.00     0.039 A 
ATOM      3  C2  UNL d   1      -1.226  -0.045   2.216  0.00  0.00    -0.080 A 
ATOM      4  C3  UNL d   1      -0.845   0.245   0.909  0.00  0.00     0.150 A 
ATOM      5  C4  UNL d   1      -1.020  -0.688  -0.108  0.00  0.00    -0.007 A 
ATOM      6  C5  UNL d   1      -1.580  -1.931   0.183  0.00  0.00     0.039 A 
ENDROOT
BRANCH   4   7
ATOM      7  O   UNL d   1      -0.288   1.444   0.579  0.00  0.00    -0.526 OA
ATOM      8  H5  UNL d   1      -0.202   1.977   1.387  0.00  0.00     0.418 HD
ENDBRANCH   4   7
TORSDOF 1
ENDMDL
