MODEL 1
REMARK minimizedAffinity -0.861894429
REMARK minimizedRMSD -1
REMARK  1 active torsions:
REMARK  status: ('A' for Active; 'I' for Inactive)
REMARK    1  A    between atoms: C3_4  and  O_7 
ROOT
ATOM      1  C   UNL d   1      -1.013  -0.328  -0.082  0.00  0.00    -0.033 A 
ATOM      2  C1  UNL d   1      -0.379  -0.169   1.152  0.00  0.00     0.039 A 
ATOM      3  C2  UNL d   1       0.484   0.909   1.361  0.00  0.00    -0.080 A 
ATOM      4  C3  UNL d   1       0.704   1.818   0.330  0.00  0.00     0.150 A 
ATOM      5  C4  UNL d   1       0.073   1.668  -0.900  0.00  0.00    -0.007 A 
ATOM      6  C5  UNL d   1      -0.788   0.591  -1.108  0.00  0.00     0.039 A 
ENDROOT
BRANCH   4   7
ATOM      7  O   UNL d   1       1.541   2.883   0.486  0.00  0.00    -0.526 OA
ATOM      8  H5  UNL d   1       1.928   2.843   1.376  0.00  0.00     0.418 HD
ENDBRANCH   4   7
TORSDOF 1
ENDMDL
