MODEL 1
REMARK minimizedAffinity 5.78699732
REMARK minimizedRMSD -1
REMARK  0 active torsions:
REMARK  status: ('A' for Active; 'I' for Inactive)
ROOT
ATOM      1  C   UNL d   1       4.953  -3.974  -1.500  0.00  0.00     0.020 A 
ATOM      2  C1  UNL d   1       5.250  -2.644  -1.794  0.00  0.00     0.020 A 
ATOM      3  C2  UNL d   1       4.282  -1.655  -1.606  0.00  0.00     0.034 A 
ATOM      4  C3  UNL d   1       3.013  -1.994  -1.122  0.00  0.00     0.017 A 
ATOM      5  C4  UNL d   1       2.716  -3.330  -0.827  0.00  0.00     0.017 A 
ATOM      6  C5  UNL d   1       3.689  -4.316  -1.018  0.00  0.00     0.034 A 
ATOM      7 Cl   UNL d   1       1.173  -3.826  -0.227  0.00  0.00    -0.070 Cl
ATOM      8 Cl1  UNL d   1       1.865  -0.720  -0.913  0.00  0.00    -0.070 Cl
ENDROOT
TORSDOF 0
ENDMDL
