MODEL 1
REMARK minimizedAffinity -0.0758105591
REMARK minimizedRMSD -1
REMARK  0 active torsions:
REMARK  status: ('A' for Active; 'I' for Inactive)
ROOT
ATOM      1  C   UNL d   1      -0.444   4.339   0.334  0.00  0.00     0.020 A 
ATOM      2  C1  UNL d   1      -0.513   4.024  -1.022  0.00  0.00     0.020 A 
ATOM      3  C2  UNL d   1      -0.404   2.694  -1.436  0.00  0.00     0.034 A 
ATOM      4  C3  UNL d   1      -0.226   1.676  -0.493  0.00  0.00     0.017 A 
ATOM      5  C4  UNL d   1      -0.157   1.994   0.869  0.00  0.00     0.017 A 
ATOM      6  C5  UNL d   1      -0.266   3.326   1.277  0.00  0.00     0.034 A 
ATOM      7 Cl   UNL d   1       0.061   0.792   2.091  0.00  0.00    -0.070 Cl
ATOM      8 Cl1  UNL d   1      -0.100   0.054  -1.075  0.00  0.00    -0.070 Cl
ENDROOT
TORSDOF 0
ENDMDL
