MODEL 1
REMARK minimizedAffinity 5.80230141
REMARK minimizedRMSD -1
REMARK  0 active torsions:
REMARK  status: ('A' for Active; 'I' for Inactive)
ROOT
ATOM      1  C   UNL d   1      -4.598   5.779  -5.421  0.00  0.00     0.020 A 
ATOM      2  C1  UNL d   1      -5.624   5.675  -4.483  0.00  0.00     0.020 A 
ATOM      3  C2  UNL d   1      -5.413   4.979  -3.291  0.00  0.00     0.034 A 
ATOM      4  C3  UNL d   1      -4.173   4.383  -3.034  0.00  0.00     0.017 A 
ATOM      5  C4  UNL d   1      -3.143   4.488  -3.976  0.00  0.00     0.017 A 
ATOM      6  C5  UNL d   1      -3.360   5.187  -5.168  0.00  0.00     0.034 A 
ATOM      7 Cl   UNL d   1      -1.586   3.780  -3.729  0.00  0.00    -0.070 Cl
ATOM      8 Cl1  UNL d   1      -3.982   3.538  -1.539  0.00  0.00    -0.070 Cl
ENDROOT
TORSDOF 0
ENDMDL
