MODEL 1
REMARK minimizedAffinity 13.857749
REMARK minimizedRMSD -1
REMARK  0 active torsions:
REMARK  status: ('A' for Active; 'I' for Inactive)
ROOT
ATOM      1  C   UNL d   1      -1.460   2.142   2.893  0.00  0.00     0.020 A 
ATOM      2  C1  UNL d   1      -0.644   1.015   2.988  0.00  0.00     0.020 A 
ATOM      3  C2  UNL d   1       0.127   0.617   1.894  0.00  0.00     0.034 A 
ATOM      4  C3  UNL d   1       0.083   1.346   0.700  0.00  0.00     0.017 A 
ATOM      5  C4  UNL d   1      -0.736   2.477   0.605  0.00  0.00     0.017 A 
ATOM      6  C5  UNL d   1      -1.506   2.871   1.704  0.00  0.00     0.034 A 
ATOM      7 Cl   UNL d   1      -0.843   3.427  -0.835  0.00  0.00    -0.070 Cl
ATOM      8 Cl1  UNL d   1       1.063   0.796  -0.613  0.00  0.00    -0.070 Cl
ENDROOT
TORSDOF 0
ENDMDL
