MODEL 1
REMARK minimizedAffinity 3.09829235
REMARK minimizedRMSD -1
REMARK  0 active torsions:
REMARK  status: ('A' for Active; 'I' for Inactive)
ROOT
ATOM      1  C   UNL d   1      -1.404   2.187   3.075  0.00  0.00     0.020 A 
ATOM      2  C1  UNL d   1      -0.957   1.263   2.131  0.00  0.00     0.020 A 
ATOM      3  C2  UNL d   1      -0.987   1.585   0.772  0.00  0.00     0.034 A 
ATOM      4  C3  UNL d   1      -1.465   2.832   0.354  0.00  0.00     0.017 A 
ATOM      5  C4  UNL d   1      -1.913   3.758   1.303  0.00  0.00     0.017 A 
ATOM      6  C5  UNL d   1      -1.881   3.431   2.662  0.00  0.00     0.034 A 
ATOM      7 Cl   UNL d   1      -2.516   5.317   0.863  0.00  0.00    -0.070 Cl
ATOM      8 Cl1  UNL d   1      -1.473   3.162  -1.342  0.00  0.00    -0.070 Cl
ENDROOT
TORSDOF 0
ENDMDL
