MODEL 1
REMARK minimizedAffinity 3.02820945
REMARK minimizedRMSD -1
REMARK  0 active torsions:
REMARK  status: ('A' for Active; 'I' for Inactive)
ROOT
ATOM      1  C   UNL d   1      -0.622   2.602   3.273  0.00  0.00     0.020 A 
ATOM      2  C1  UNL d   1      -0.212   3.049   2.018  0.00  0.00     0.020 A 
ATOM      3  C2  UNL d   1       0.332   2.148   1.100  0.00  0.00     0.034 A 
ATOM      4  C3  UNL d   1       0.467   0.796   1.435  0.00  0.00     0.017 A 
ATOM      5  C4  UNL d   1       0.055   0.349   2.696  0.00  0.00     0.017 A 
ATOM      6  C5  UNL d   1      -0.489   1.254   3.611  0.00  0.00     0.034 A 
ATOM      7 Cl   UNL d   1       0.191  -1.305   3.182  0.00  0.00    -0.070 Cl
ATOM      8 Cl1  UNL d   1       1.148  -0.261   0.250  0.00  0.00    -0.070 Cl
ENDROOT
TORSDOF 0
ENDMDL
