MODEL 1
REMARK minimizedAffinity -0.525679708
REMARK minimizedRMSD -1
REMARK  0 active torsions:
REMARK  status: ('A' for Active; 'I' for Inactive)
ROOT
ATOM      1  C   UNL d   1      -5.291   2.232  -2.749  0.00  0.00     0.020 A 
ATOM      2  C1  UNL d   1      -4.300   3.180  -3.000  0.00  0.00     0.020 A 
ATOM      3  C2  UNL d   1      -2.953   2.820  -2.917  0.00  0.00     0.034 A 
ATOM      4  C3  UNL d   1      -2.594   1.510  -2.582  0.00  0.00     0.017 A 
ATOM      5  C4  UNL d   1      -3.590   0.559  -2.330  0.00  0.00     0.017 A 
ATOM      6  C5  UNL d   1      -4.937   0.924  -2.415  0.00  0.00     0.034 A 
ATOM      7 Cl   UNL d   1      -3.224  -1.078  -1.912  0.00  0.00    -0.070 Cl
ATOM      8 Cl1  UNL d   1      -0.909   1.135  -2.498  0.00  0.00    -0.070 Cl
ENDROOT
TORSDOF 0
ENDMDL
