MODEL 1
REMARK minimizedAffinity 8.40700245
REMARK minimizedRMSD -1
REMARK  0 active torsions:
REMARK  status: ('A' for Active; 'I' for Inactive)
ROOT
ATOM      1  C   UNL d   1      -2.235   2.551   2.214  0.00  0.00     0.020 A 
ATOM      2  C1  UNL d   1      -1.400   3.054   1.218  0.00  0.00     0.020 A 
ATOM      3  C2  UNL d   1      -0.081   2.605   1.119  0.00  0.00     0.034 A 
ATOM      4  C3  UNL d   1       0.406   1.648   2.018  0.00  0.00     0.017 A 
ATOM      5  C4  UNL d   1      -0.434   1.144   3.017  0.00  0.00     0.017 A 
ATOM      6  C5  UNL d   1      -1.753   1.598   3.112  0.00  0.00     0.034 A 
ATOM      7 Cl   UNL d   1       0.096  -0.038   4.163  0.00  0.00    -0.070 Cl
ATOM      8 Cl1  UNL d   1       2.046   1.137   1.836  0.00  0.00    -0.070 Cl
ENDROOT
TORSDOF 0
ENDMDL
