MODEL 1
REMARK minimizedAffinity 4.03497458
REMARK minimizedRMSD -1
REMARK  0 active torsions:
REMARK  status: ('A' for Active; 'I' for Inactive)
ROOT
ATOM      1  C   UNL d   1       1.403  -2.811  -0.807  0.00  0.00     0.020 A 
ATOM      2  C1  UNL d   1       2.194  -1.669  -0.922  0.00  0.00     0.020 A 
ATOM      3  C2  UNL d   1       1.624  -0.463  -1.336  0.00  0.00     0.034 A 
ATOM      4  C3  UNL d   1       0.258  -0.398  -1.637  0.00  0.00     0.017 A 
ATOM      5  C4  UNL d   1      -0.535  -1.545  -1.521  0.00  0.00     0.017 A 
ATOM      6  C5  UNL d   1       0.042  -2.749  -1.106  0.00  0.00     0.034 A 
ATOM      7 Cl   UNL d   1      -2.227  -1.542  -1.875  0.00  0.00    -0.070 Cl
ATOM      8 Cl1  UNL d   1      -0.381   1.126  -2.143  0.00  0.00    -0.070 Cl
ENDROOT
TORSDOF 0
ENDMDL
