MODEL 1
REMARK minimizedAffinity 9.44170475
REMARK minimizedRMSD -1
REMARK  0 active torsions:
REMARK  status: ('A' for Active; 'I' for Inactive)
ROOT
ATOM      1  C   UNL d   1      -0.608   2.056   2.191  0.00  0.00     0.020 A 
ATOM      2  C1  UNL d   1       0.550   2.757   2.524  0.00  0.00     0.020 A 
ATOM      3  C2  UNL d   1       1.076   3.699   1.636  0.00  0.00     0.034 A 
ATOM      4  C3  UNL d   1       0.444   3.942   0.412  0.00  0.00     0.017 A 
ATOM      5  C4  UNL d   1      -0.719   3.238   0.078  0.00  0.00     0.017 A 
ATOM      6  C5  UNL d   1      -1.241   2.296   0.971  0.00  0.00     0.034 A 
ATOM      7 Cl   UNL d   1      -1.556   3.483  -1.414  0.00  0.00    -0.070 Cl
ATOM      8 Cl1  UNL d   1       1.149   5.120  -0.637  0.00  0.00    -0.070 Cl
ENDROOT
TORSDOF 0
ENDMDL
