MODEL 1
REMARK minimizedAffinity 4.58944798
REMARK minimizedRMSD -1
REMARK  0 active torsions:
REMARK  status: ('A' for Active; 'I' for Inactive)
ROOT
ATOM      1  C   UNL d   1      -4.501   6.000  -3.561  0.00  0.00     0.020 A 
ATOM      2  C1  UNL d   1      -5.074   5.300  -4.621  0.00  0.00     0.020 A 
ATOM      3  C2  UNL d   1      -4.942   3.911  -4.693  0.00  0.00     0.034 A 
ATOM      4  C3  UNL d   1      -4.236   3.219  -3.703  0.00  0.00     0.017 A 
ATOM      5  C4  UNL d   1      -3.661   3.923  -2.639  0.00  0.00     0.017 A 
ATOM      6  C5  UNL d   1      -3.796   5.313  -2.571  0.00  0.00     0.034 A 
ATOM      7 Cl   UNL d   1      -2.776   3.137  -1.379  0.00  0.00    -0.070 Cl
ATOM      8 Cl1  UNL d   1      -4.114   1.502  -3.855  0.00  0.00    -0.070 Cl
ENDROOT
TORSDOF 0
ENDMDL
