MODEL 1
REMARK minimizedAffinity 2.46614742
REMARK minimizedRMSD -1
REMARK  0 active torsions:
REMARK  status: ('A' for Active; 'I' for Inactive)
ROOT
ATOM      1  C1  BNZ d   1      -3.786   0.299   5.973  0.00  0.00     0.000 A 
ATOM      2  C2  BNZ d   1      -5.155   0.338   5.986  0.00  0.00     0.000 A 
ATOM      3  C3  BNZ d   1      -5.820   1.532   5.979  0.00  0.00     0.000 A 
ATOM      4  C4  BNZ d   1      -5.118   2.683   6.000  0.00  0.00     0.000 A 
ATOM      5  C5  BNZ d   1      -3.738   2.660   5.997  0.00  0.00     0.000 A 
ATOM      6  C6  BNZ d   1      -3.071   1.457   5.964  0.00  0.00     0.000 A 
ENDROOT
TORSDOF 0
ENDMDL
