MODEL 1
REMARK minimizedAffinity 3.34558702
REMARK minimizedRMSD -1
REMARK  0 active torsions:
REMARK  status: ('A' for Active; 'I' for Inactive)
ROOT
ATOM      1  C1  BNZ d   1      -1.092  -3.434   1.330  0.00  0.00     0.000 A 
ATOM      2  C2  BNZ d   1      -0.985  -4.717   1.794  0.00  0.00     0.000 A 
ATOM      3  C3  BNZ d   1      -0.559  -5.725   0.975  0.00  0.00     0.000 A 
ATOM      4  C4  BNZ d   1      -0.279  -5.456  -0.317  0.00  0.00     0.000 A 
ATOM      5  C5  BNZ d   1      -0.391  -4.168  -0.803  0.00  0.00     0.000 A 
ATOM      6  C6  BNZ d   1      -0.783  -3.149   0.035  0.00  0.00     0.000 A 
ENDROOT
TORSDOF 0
ENDMDL
