MODEL 1
REMARK minimizedAffinity 10.6790457
REMARK minimizedRMSD -1
REMARK  0 active torsions:
REMARK  status: ('A' for Active; 'I' for Inactive)
ROOT
ATOM      1  C1  BNZ d   1      -2.141   1.242  -3.527  0.00  0.00     0.000 A 
ATOM      2  C2  BNZ d   1      -0.824   1.314  -3.894  0.00  0.00     0.000 A 
ATOM      3  C3  BNZ d   1      -0.331   2.425  -4.520  0.00  0.00     0.000 A 
ATOM      4  C4  BNZ d   1      -1.163   3.445  -4.813  0.00  0.00     0.000 A 
ATOM      5  C5  BNZ d   1      -2.496   3.384  -4.457  0.00  0.00     0.000 A 
ATOM      6  C6  BNZ d   1      -2.980   2.280  -3.792  0.00  0.00     0.000 A 
ENDROOT
TORSDOF 0
ENDMDL
