MODEL 1
REMARK minimizedAffinity 8.41172504
REMARK minimizedRMSD -1
REMARK  0 active torsions:
REMARK  status: ('A' for Active; 'I' for Inactive)
ROOT
ATOM      1  C1  BNZ d   1      -0.377   4.085  -4.501  0.00  0.00     0.000 A 
ATOM      2  C2  BNZ d   1       0.776   4.088  -5.241  0.00  0.00     0.000 A 
ATOM      3  C3  BNZ d   1       1.123   3.006  -6.000  0.00  0.00     0.000 A 
ATOM      4  C4  BNZ d   1       0.340   1.908  -5.987  0.00  0.00     0.000 A 
ATOM      5  C5  BNZ d   1      -0.820   1.886  -5.238  0.00  0.00     0.000 A 
ATOM      6  C6  BNZ d   1      -1.187   2.992  -4.506  0.00  0.00     0.000 A 
ENDROOT
TORSDOF 0
ENDMDL
