MODEL 1
REMARK minimizedAffinity 10.8635082
REMARK minimizedRMSD -1
REMARK  0 active torsions:
REMARK  status: ('A' for Active; 'I' for Inactive)
ROOT
ATOM      1  C1  BNZ d   1       0.790   2.910  -4.466  0.00  0.00     0.000 A 
ATOM      2  C2  BNZ d   1      -0.093   3.876  -4.869  0.00  0.00     0.000 A 
ATOM      3  C3  BNZ d   1      -1.435   3.735  -4.646  0.00  0.00     0.000 A 
ATOM      4  C4  BNZ d   1      -1.894   2.611  -4.058  0.00  0.00     0.000 A 
ATOM      5  C5  BNZ d   1      -1.018   1.624  -3.655  0.00  0.00     0.000 A 
ATOM      6  C6  BNZ d   1       0.335   1.787  -3.845  0.00  0.00     0.000 A 
ENDROOT
TORSDOF 0
ENDMDL
