MODEL 1
REMARK minimizedAffinity 3.67272711
REMARK minimizedRMSD -1
REMARK  0 active torsions:
REMARK  status: ('A' for Active; 'I' for Inactive)
ROOT
ATOM      1  C1  BNZ d   1      -5.060   2.798   5.949  0.00  0.00     0.000 A 
ATOM      2  C2  BNZ d   1      -5.978   1.781   5.953  0.00  0.00     0.000 A 
ATOM      3  C3  BNZ d   1      -5.575   0.475   5.997  0.00  0.00     0.000 A 
ATOM      4  C4  BNZ d   1      -4.258   0.187   5.996  0.00  0.00     0.000 A 
ATOM      5  C5  BNZ d   1      -3.320   1.201   5.983  0.00  0.00     0.000 A 
ATOM      6  C6  BNZ d   1      -3.729   2.515   5.979  0.00  0.00     0.000 A 
ENDROOT
TORSDOF 0
ENDMDL
