MODEL 1
REMARK minimizedAffinity 6.19667768
REMARK minimizedRMSD -1
REMARK  0 active torsions:
REMARK  status: ('A' for Active; 'I' for Inactive)
ROOT
ATOM      1  C1  BNZ d   1      -1.323   2.460  -3.830  0.00  0.00     0.000 A 
ATOM      2  C2  BNZ d   1      -0.064   3.000  -3.849  0.00  0.00     0.000 A 
ATOM      3  C3  BNZ d   1       0.374   3.717  -4.927  0.00  0.00     0.000 A 
ATOM      4  C4  BNZ d   1      -0.431   3.860  -6.000  0.00  0.00     0.000 A 
ATOM      5  C5  BNZ d   1      -1.699   3.314  -6.000  0.00  0.00     0.000 A 
ATOM      6  C6  BNZ d   1      -2.151   2.625  -4.897  0.00  0.00     0.000 A 
ENDROOT
TORSDOF 0
ENDMDL
