MODEL 1
REMARK minimizedAffinity 4.75068903
REMARK minimizedRMSD -1
REMARK  0 active torsions:
REMARK  status: ('A' for Active; 'I' for Inactive)
ROOT
ATOM      1  C1  BNZ d   1      -5.959   1.300   5.710  0.00  0.00     0.000 A 
ATOM      2  C2  BNZ d   1      -5.982   2.651   5.929  0.00  0.00     0.000 A 
ATOM      3  C3  BNZ d   1      -4.820   3.369   5.998  0.00  0.00     0.000 A 
ATOM      4  C4  BNZ d   1      -3.638   2.729   5.888  0.00  0.00     0.000 A 
ATOM      5  C5  BNZ d   1      -3.599   1.365   5.676  0.00  0.00     0.000 A 
ATOM      6  C6  BNZ d   1      -4.771   0.652   5.568  0.00  0.00     0.000 A 
ENDROOT
TORSDOF 0
ENDMDL
