MODEL 1
REMARK minimizedAffinity 9.40143013
REMARK minimizedRMSD -1
REMARK  0 active torsions:
REMARK  status: ('A' for Active; 'I' for Inactive)
ROOT
ATOM      1  C1  BNZ d   1       3.685   3.308   0.333  0.00  0.00     0.000 A 
ATOM      2  C2  BNZ d   1       4.004   4.566   0.770  0.00  0.00     0.000 A 
ATOM      3  C3  BNZ d   1       5.060   5.247   0.233  0.00  0.00     0.000 A 
ATOM      4  C4  BNZ d   1       5.820   4.655  -0.711  0.00  0.00     0.000 A 
ATOM      5  C5  BNZ d   1       5.517   3.384  -1.156  0.00  0.00     0.000 A 
ATOM      6  C6  BNZ d   1       4.429   2.716  -0.641  0.00  0.00     0.000 A 
ENDROOT
TORSDOF 0
ENDMDL
