MODEL 1
REMARK minimizedAffinity 11.7825947
REMARK minimizedRMSD -1
REMARK  0 active torsions:
REMARK  status: ('A' for Active; 'I' for Inactive)
ROOT
ATOM      1  C1  BNZ d   1      -5.936   0.848   5.992  0.00  0.00     0.000 A 
ATOM      2  C2  BNZ d   1      -5.899   2.217   5.998  0.00  0.00     0.000 A 
ATOM      3  C3  BNZ d   1      -4.706   2.885   5.974  0.00  0.00     0.000 A 
ATOM      4  C4  BNZ d   1      -3.554   2.184   5.985  0.00  0.00     0.000 A 
ATOM      5  C5  BNZ d   1      -3.575   0.804   5.988  0.00  0.00     0.000 A 
ATOM      6  C6  BNZ d   1      -4.777   0.135   5.973  0.00  0.00     0.000 A 
ENDROOT
TORSDOF 0
ENDMDL
