MODEL 1
REMARK minimizedAffinity 2.10180664
REMARK minimizedRMSD -1
REMARK  0 active torsions:
REMARK  status: ('A' for Active; 'I' for Inactive)
ROOT
ATOM      1  C1  BNZ d   1      -1.519  -2.602  -0.018  0.00  0.00     0.000 A 
ATOM      2  C2  BNZ d   1      -0.785  -3.756   0.060  0.00  0.00     0.000 A 
ATOM      3  C3  BNZ d   1      -0.752  -4.487   1.215  0.00  0.00     0.000 A 
ATOM      4  C4  BNZ d   1      -1.420  -4.044   2.300  0.00  0.00     0.000 A 
ATOM      5  C5  BNZ d   1      -2.156  -2.877   2.239  0.00  0.00     0.000 A 
ATOM      6  C6  BNZ d   1      -2.218  -2.164   1.064  0.00  0.00     0.000 A 
ENDROOT
TORSDOF 0
ENDMDL
