MODEL 1
REMARK minimizedAffinity 11.6936512
REMARK minimizedRMSD -1
REMARK  0 active torsions:
REMARK  status: ('A' for Active; 'I' for Inactive)
ROOT
ATOM      1  C1  BNZ d   1       4.139   3.344   0.014  0.00  0.00     0.000 A 
ATOM      2  C2  BNZ d   1       4.065   4.656   0.399  0.00  0.00     0.000 A 
ATOM      3  C3  BNZ d   1       4.926   5.586  -0.114  0.00  0.00     0.000 A 
ATOM      4  C4  BNZ d   1       5.883   5.196  -0.980  0.00  0.00     0.000 A 
ATOM      5  C5  BNZ d   1       5.976   3.875  -1.372  0.00  0.00     0.000 A 
ATOM      6  C6  BNZ d   1       5.083   2.949  -0.883  0.00  0.00     0.000 A 
ENDROOT
TORSDOF 0
ENDMDL
