MODEL 1
REMARK minimizedAffinity 9.83802128
REMARK minimizedRMSD -1
REMARK  0 active torsions:
REMARK  status: ('A' for Active; 'I' for Inactive)
ROOT
ATOM      1  C1  BNZ d   1      -2.651  -0.881   4.869  0.00  0.00     0.000 A 
ATOM      2  C2  BNZ d   1      -1.786  -0.517   5.866  0.00  0.00     0.000 A 
ATOM      3  C3  BNZ d   1      -0.572  -1.131   6.000  0.00  0.00     0.000 A 
ATOM      4  C4  BNZ d   1      -0.242  -2.136   5.162  0.00  0.00     0.000 A 
ATOM      5  C5  BNZ d   1      -1.107  -2.521   4.158  0.00  0.00     0.000 A 
ATOM      6  C6  BNZ d   1      -2.312  -1.874   4.002  0.00  0.00     0.000 A 
ENDROOT
TORSDOF 0
ENDMDL
