MODEL 1
REMARK minimizedAffinity 6.98717976
REMARK minimizedRMSD -1
REMARK  0 active torsions:
REMARK  status: ('A' for Active; 'I' for Inactive)
ROOT
ATOM      1  C1  BNZ d   1      -1.781  -2.680   0.610  0.00  0.00     0.000 A 
ATOM      2  C2  BNZ d   1      -2.498  -2.236   1.688  0.00  0.00     0.000 A 
ATOM      3  C3  BNZ d   1      -2.251  -2.722   2.942  0.00  0.00     0.000 A 
ATOM      4  C4  BNZ d   1      -1.316  -3.679   3.109  0.00  0.00     0.000 A 
ATOM      5  C5  BNZ d   1      -0.591  -4.145   2.030  0.00  0.00     0.000 A 
ATOM      6  C6  BNZ d   1      -0.816  -3.625   0.776  0.00  0.00     0.000 A 
ENDROOT
TORSDOF 0
ENDMDL
