MODEL 1
REMARK minimizedAffinity 4.18446732
REMARK minimizedRMSD -1
REMARK  0 active torsions:
REMARK  status: ('A' for Active; 'I' for Inactive)
ROOT
ATOM      1  C1  BNZ d   1      -4.924  -0.507   5.981  0.00  0.00     0.000 A 
ATOM      2  C2  BNZ d   1      -5.652   0.653   5.999  0.00  0.00     0.000 A 
ATOM      3  C3  BNZ d   1      -5.029   1.870   5.988  0.00  0.00     0.000 A 
ATOM      4  C4  BNZ d   1      -3.682   1.925   5.999  0.00  0.00     0.000 A 
ATOM      5  C5  BNZ d   1      -2.934   0.765   5.989  0.00  0.00     0.000 A 
ATOM      6  C6  BNZ d   1      -3.564  -0.458   5.961  0.00  0.00     0.000 A 
ENDROOT
TORSDOF 0
ENDMDL
