MODEL 1
REMARK minimizedAffinity 4.93603611
REMARK minimizedRMSD -1
REMARK  0 active torsions:
REMARK  status: ('A' for Active; 'I' for Inactive)
ROOT
ATOM      1  C1  BNZ d   1      -0.000   0.331  -3.840  0.00  0.00     0.000 A 
ATOM      2  C2  BNZ d   1      -0.755   1.425  -4.172  0.00  0.00     0.000 A 
ATOM      3  C3  BNZ d   1      -0.185   2.663  -4.275  0.00  0.00     0.000 A 
ATOM      4  C4  BNZ d   1       1.128   2.813  -4.007  0.00  0.00     0.000 A 
ATOM      5  C5  BNZ d   1       1.900   1.722  -3.662  0.00  0.00     0.000 A 
ATOM      6  C6  BNZ d   1       1.331   0.471  -3.597  0.00  0.00     0.000 A 
ENDROOT
TORSDOF 0
ENDMDL
