MODEL 1
REMARK minimizedAffinity 0.269625902
REMARK minimizedRMSD -1
REMARK  1 active torsions:
REMARK  status: ('A' for Active; 'I' for Inactive)
REMARK    1  A    between atoms: N_2  and  C1_3 
ROOT
ATOM      1  C1  UNL d   1       0.034  -4.730  -0.439  0.00  0.00     0.143 A 
ATOM      2  C2  UNL d   1       0.235  -3.462   0.115  0.00  0.00    -0.057 A 
ATOM      3  C3  UNL d   1      -0.757  -2.839   0.883  0.00  0.00     0.033 A 
ATOM      4  C4  UNL d   1      -1.982  -3.465   1.087  0.00  0.00    -0.042 A 
ATOM      5  C5  UNL d   1      -2.213  -4.715   0.525  0.00  0.00     0.033 A 
ATOM      6  C6  UNL d   1      -1.217  -5.335  -0.235  0.00  0.00    -0.057 A 
ENDROOT
BRANCH   1   7
ATOM      7  N   UNL d   1       0.943  -5.359  -1.293  0.00  0.00    -0.732 N 
ATOM      8  C   UNL d   1       1.528  -4.640  -2.405  0.00  0.00     0.284 C 
ATOM      9  H3  UNL d   1       1.598  -5.955  -0.792  0.00  0.00     0.395 HD
ENDBRANCH   1   7
TORSDOF 1
ENDMDL
