MODEL 1
REMARK minimizedAffinity 10.8809843
REMARK minimizedRMSD -1
REMARK  1 active torsions:
REMARK  status: ('A' for Active; 'I' for Inactive)
REMARK    1  A    between atoms: N_2  and  C1_3 
ROOT
ATOM      1  C1  UNL d   1      -3.703   2.445  -3.144  0.00  0.00     0.143 A 
ATOM      2  C2  UNL d   1      -3.867   3.443  -2.177  0.00  0.00    -0.057 A 
ATOM      3  C3  UNL d   1      -3.901   4.797  -2.529  0.00  0.00     0.033 A 
ATOM      4  C4  UNL d   1      -3.742   5.181  -3.857  0.00  0.00    -0.042 A 
ATOM      5  C5  UNL d   1      -3.553   4.208  -4.832  0.00  0.00     0.033 A 
ATOM      6  C6  UNL d   1      -3.526   2.856  -4.474  0.00  0.00    -0.057 A 
ENDROOT
BRANCH   1   7
ATOM      7  N   UNL d   1      -3.562   1.088  -2.845  0.00  0.00    -0.732 N 
ATOM      8  C   UNL d   1      -2.582   0.644  -1.876  0.00  0.00     0.284 C 
ATOM      9  H3  UNL d   1      -4.457   0.609  -2.780  0.00  0.00     0.395 HD
ENDBRANCH   1   7
TORSDOF 1
ENDMDL
