MODEL 1
REMARK minimizedAffinity 7.02929592
REMARK minimizedRMSD -1
REMARK  1 active torsions:
REMARK  status: ('A' for Active; 'I' for Inactive)
REMARK    1  A    between atoms: N_2  and  C1_3 
ROOT
ATOM      1  C1  UNL d   1      -3.402   2.323  -3.147  0.00  0.00     0.143 A 
ATOM      2  C2  UNL d   1      -3.178   2.771  -4.453  0.00  0.00    -0.057 A 
ATOM      3  C3  UNL d   1      -3.497   4.079  -4.837  0.00  0.00     0.033 A 
ATOM      4  C4  UNL d   1      -4.074   4.957  -3.925  0.00  0.00    -0.042 A 
ATOM      5  C5  UNL d   1      -4.328   4.525  -2.628  0.00  0.00     0.033 A 
ATOM      6  C6  UNL d   1      -4.002   3.220  -2.249  0.00  0.00    -0.057 A 
ENDROOT
BRANCH   1   7
ATOM      7  N   UNL d   1      -3.198   1.005  -2.731  0.00  0.00    -0.732 N 
ATOM      8  C   UNL d   1      -2.405   0.717  -1.555  0.00  0.00     0.284 C 
ATOM      9  H3  UNL d   1      -4.038   0.437  -2.815  0.00  0.00     0.395 HD
ENDBRANCH   1   7
TORSDOF 1
ENDMDL
