MODEL 1
REMARK minimizedAffinity 8.65278435
REMARK minimizedRMSD -1
REMARK  1 active torsions:
REMARK  status: ('A' for Active; 'I' for Inactive)
REMARK    1  A    between atoms: N_2  and  C1_3 
ROOT
ATOM      1  C1  UNL d   1       0.718  -2.087   4.900  0.00  0.00     0.143 A 
ATOM      2  C2  UNL d   1       0.612  -0.695   4.997  0.00  0.00    -0.057 A 
ATOM      3  C3  UNL d   1       0.752   0.124   3.870  0.00  0.00     0.033 A 
ATOM      4  C4  UNL d   1       1.029  -0.435   2.626  0.00  0.00    -0.042 A 
ATOM      5  C5  UNL d   1       1.164  -1.814   2.511  0.00  0.00     0.033 A 
ATOM      6  C6  UNL d   1       1.017  -2.627   3.639  0.00  0.00    -0.057 A 
ENDROOT
BRANCH   1   7
ATOM      7  N   UNL d   1       0.688  -2.948   6.000  0.00  0.00    -0.732 N 
ATOM      8  C   UNL d   1      -0.169  -4.114   6.000  0.00  0.00     0.284 C 
ATOM      9  H3  UNL d   1       1.613  -3.112   6.391  0.00  0.00     0.395 HD
ENDBRANCH   1   7
TORSDOF 1
ENDMDL
