MODEL 1
REMARK minimizedAffinity 8.85067654
REMARK minimizedRMSD -1
REMARK  1 active torsions:
REMARK  status: ('A' for Active; 'I' for Inactive)
REMARK    1  A    between atoms: N_2  and  C1_3 
ROOT
ATOM      1  C1  UNL d   1       1.137  -2.326   3.786  0.00  0.00     0.143 A 
ATOM      2  C2  UNL d   1       1.126  -1.082   3.147  0.00  0.00    -0.057 A 
ATOM      3  C3  UNL d   1       1.644  -0.924   1.856  0.00  0.00     0.033 A 
ATOM      4  C4  UNL d   1       2.210  -2.005   1.189  0.00  0.00    -0.042 A 
ATOM      5  C5  UNL d   1       2.254  -3.246   1.815  0.00  0.00     0.033 A 
ATOM      6  C6  UNL d   1       1.730  -3.399   3.102  0.00  0.00    -0.057 A 
ENDROOT
BRANCH   1   7
ATOM      7  N   UNL d   1       0.728  -2.526   5.106  0.00  0.00    -0.732 N 
ATOM      8  C   UNL d   1       1.503  -3.360   6.000  0.00  0.00     0.284 C 
ATOM      9  H3  UNL d   1       0.372  -1.676   5.536  0.00  0.00     0.395 HD
ENDBRANCH   1   7
TORSDOF 1
ENDMDL
