MODEL 1
REMARK minimizedAffinity 5.12037611
REMARK minimizedRMSD -1
REMARK  1 active torsions:
REMARK  status: ('A' for Active; 'I' for Inactive)
REMARK    1  A    between atoms: N_2  and  C1_3 
ROOT
ATOM      1  C1  UNL d   1       0.087  -5.432  -0.726  0.00  0.00     0.143 A 
ATOM      2  C2  UNL d   1       0.287  -4.304   0.077  0.00  0.00    -0.057 A 
ATOM      3  C3  UNL d   1      -0.743  -3.786   0.873  0.00  0.00     0.033 A 
ATOM      4  C4  UNL d   1      -2.004  -4.373   0.856  0.00  0.00    -0.042 A 
ATOM      5  C5  UNL d   1      -2.233  -5.480   0.047  0.00  0.00     0.033 A 
ATOM      6  C6  UNL d   1      -1.198  -5.996  -0.740  0.00  0.00    -0.057 A 
ENDROOT
BRANCH   1   7
ATOM      7  N   UNL d   1       1.042  -5.934  -1.613  0.00  0.00    -0.732 N 
ATOM      8  C   UNL d   1       1.674  -5.068  -2.584  0.00  0.00     0.284 C 
ATOM      9  H3  UNL d   1       1.677  -6.593  -1.168  0.00  0.00     0.395 HD
ENDBRANCH   1   7
TORSDOF 1
ENDMDL
