MODEL 1
REMARK minimizedAffinity -2.74392128
REMARK minimizedRMSD -1
REMARK  0 active torsions:
REMARK  status: ('A' for Active; 'I' for Inactive)
ROOT
ATOM      1  C   UNL d   1       1.030  -1.247  -0.364  0.00  0.00     0.023 A 
ATOM      2  C1  UNL d   1       0.611  -1.341   0.964  0.00  0.00     0.003 A 
ATOM      3  C2  UNL d   1      -0.336  -0.445   1.464  0.00  0.00     0.048 A 
ATOM      4  C3  UNL d   1      -0.861   0.542   0.631  0.00  0.00     0.023 A 
ATOM      5  C4  UNL d   1      -0.446   0.639  -0.699  0.00  0.00     0.048 A 
ATOM      6  C5  UNL d   1       0.501  -0.258  -1.194  0.00  0.00     0.003 A 
ATOM      7  I   UNL d   1      -2.271   1.877   1.372  0.00  0.00    -0.146 I 
ENDROOT
TORSDOF 0
ENDMDL
