MODEL 1
REMARK minimizedAffinity -3.92400813
REMARK minimizedRMSD -1
REMARK  0 active torsions:
REMARK  status: ('A' for Active; 'I' for Inactive)
ROOT
ATOM      1  C   UNL d   1      -1.185   1.897   0.583  0.00  0.00     0.023 A 
ATOM      2  C1  UNL d   1      -0.728   2.036  -0.727  0.00  0.00     0.003 A 
ATOM      3  C2  UNL d   1      -0.256   0.923  -1.426  0.00  0.00     0.048 A 
ATOM      4  C3  UNL d   1      -0.246  -0.327  -0.808  0.00  0.00     0.023 A 
ATOM      5  C4  UNL d   1      -0.703  -0.471   0.503  0.00  0.00     0.048 A 
ATOM      6  C5  UNL d   1      -1.173   0.645   1.198  0.00  0.00     0.003 A 
ATOM      7  I   UNL d   1       0.456  -1.986  -1.845  0.00  0.00    -0.146 I 
ENDROOT
TORSDOF 0
ENDMDL
