MODEL 1
REMARK minimizedAffinity -3.54692364
REMARK minimizedRMSD -1
REMARK  0 active torsions:
REMARK  status: ('A' for Active; 'I' for Inactive)
ROOT
ATOM      1  C   UNL d   1      -1.491   1.585   1.633  0.00  0.00     0.023 A 
ATOM      2  C1  UNL d   1      -1.206   1.900   0.304  0.00  0.00     0.003 A 
ATOM      3  C2  UNL d   1      -0.503   0.996  -0.494  0.00  0.00     0.048 A 
ATOM      4  C3  UNL d   1      -0.088  -0.222   0.042  0.00  0.00     0.023 A 
ATOM      5  C4  UNL d   1      -0.372  -0.542   1.371  0.00  0.00     0.048 A 
ATOM      6  C5  UNL d   1      -1.074   0.366   2.166  0.00  0.00     0.003 A 
ATOM      7  I   UNL d   1       0.958  -1.571  -1.144  0.00  0.00    -0.146 I 
ENDROOT
TORSDOF 0
ENDMDL
