MODEL 1
REMARK minimizedAffinity -0.914796531
REMARK minimizedRMSD -1
REMARK  0 active torsions:
REMARK  status: ('A' for Active; 'I' for Inactive)
ROOT
ATOM      1  C   UNL d   1      -0.407   0.789   1.211  0.00  0.00     0.023 A 
ATOM      2  C1  UNL d   1      -0.624  -0.556   1.512  0.00  0.00     0.003 A 
ATOM      3  C2  UNL d   1      -0.256  -1.546   0.599  0.00  0.00     0.048 A 
ATOM      4  C3  UNL d   1       0.330  -1.184  -0.614  0.00  0.00     0.023 A 
ATOM      5  C4  UNL d   1       0.551   0.160  -0.919  0.00  0.00     0.048 A 
ATOM      6  C5  UNL d   1       0.180   1.146  -0.003  0.00  0.00     0.003 A 
ATOM      7  I   UNL d   1       0.879  -2.655  -1.975  0.00  0.00    -0.146 I 
ENDROOT
TORSDOF 0
ENDMDL
