MODEL 1
REMARK minimizedAffinity -4.47283888
REMARK minimizedRMSD -1
REMARK  0 active torsions:
REMARK  status: ('A' for Active; 'I' for Inactive)
ROOT
ATOM      1  C   UNL d   1      -1.542   1.829   1.746  0.00  0.00     0.023 A 
ATOM      2  C1  UNL d   1      -0.747   0.846   2.335  0.00  0.00     0.003 A 
ATOM      3  C2  UNL d   1      -0.231  -0.195   1.560  0.00  0.00     0.048 A 
ATOM      4  C3  UNL d   1      -0.513  -0.246   0.195  0.00  0.00     0.023 A 
ATOM      5  C4  UNL d   1      -1.308   0.736  -0.399  0.00  0.00     0.048 A 
ATOM      6  C5  UNL d   1      -1.822   1.774   0.380  0.00  0.00     0.003 A 
ATOM      7  I   UNL d   1       0.254  -1.793  -0.961  0.00  0.00    -0.146 I 
ENDROOT
TORSDOF 0
ENDMDL
