MODEL 1
REMARK minimizedAffinity -1.77160335
REMARK minimizedRMSD -1
REMARK  0 active torsions:
REMARK  status: ('A' for Active; 'I' for Inactive)
ROOT
ATOM      1  C   UNL d   1       1.528  -0.266  -1.109  0.00  0.00     0.023 A 
ATOM      2  C1  UNL d   1       1.053  -0.851   0.065  0.00  0.00     0.003 A 
ATOM      3  C2  UNL d   1       0.095  -0.191   0.837  0.00  0.00     0.048 A 
ATOM      4  C3  UNL d   1      -0.384   1.054   0.429  0.00  0.00     0.023 A 
ATOM      5  C4  UNL d   1       0.087   1.643  -0.745  0.00  0.00     0.048 A 
ATOM      6  C5  UNL d   1       1.046   0.979  -1.514  0.00  0.00     0.003 A 
ATOM      7  I   UNL d   1      -1.810   2.038   1.577  0.00  0.00    -0.146 I 
ENDROOT
TORSDOF 0
ENDMDL
