MODEL 1
REMARK minimizedAffinity -4.33842564
REMARK minimizedRMSD -1
REMARK  0 active torsions:
REMARK  status: ('A' for Active; 'I' for Inactive)
ROOT
ATOM      1  C   UNL d   1       0.734  -2.777  -2.189  0.00  0.00     0.023 A 
ATOM      2  C1  UNL d   1      -0.616  -2.433  -2.256  0.00  0.00     0.003 A 
ATOM      3  C2  UNL d   1      -1.153  -1.525  -1.342  0.00  0.00     0.048 A 
ATOM      4  C3  UNL d   1      -0.333  -0.963  -0.364  0.00  0.00     0.023 A 
ATOM      5  C4  UNL d   1       1.019  -1.303  -0.294  0.00  0.00     0.048 A 
ATOM      6  C5  UNL d   1       1.551  -2.213  -1.209  0.00  0.00     0.003 A 
ATOM      7  I   UNL d   1      -1.130   0.390   0.998  0.00  0.00    -0.146 I 
ENDROOT
TORSDOF 0
ENDMDL
