MODEL 1
REMARK minimizedAffinity -3.7931335
REMARK minimizedRMSD -1
REMARK  0 active torsions:
REMARK  status: ('A' for Active; 'I' for Inactive)
ROOT
ATOM      1  C   UNL d   1      -0.589   0.603   1.433  0.00  0.00     0.023 A 
ATOM      2  C1  UNL d   1      -1.170   0.850   0.190  0.00  0.00     0.003 A 
ATOM      3  C2  UNL d   1      -0.819   0.070  -0.914  0.00  0.00     0.048 A 
ATOM      4  C3  UNL d   1       0.113  -0.957  -0.766  0.00  0.00     0.023 A 
ATOM      5  C4  UNL d   1       0.696  -1.208   0.477  0.00  0.00     0.048 A 
ATOM      6  C5  UNL d   1       0.343  -0.424   1.577  0.00  0.00     0.003 A 
ATOM      7  I   UNL d   1       0.636  -2.120  -2.407  0.00  0.00    -0.146 I 
ENDROOT
TORSDOF 0
ENDMDL
