MODEL 1
REMARK minimizedAffinity -2.07790875
REMARK minimizedRMSD -1
REMARK  0 active torsions:
REMARK  status: ('A' for Active; 'I' for Inactive)
ROOT
ATOM      1  C   UNL d   1      -1.652   1.243   2.062  0.00  0.00     0.023 A 
ATOM      2  C1  UNL d   1      -1.023   0.031   2.344  0.00  0.00     0.003 A 
ATOM      3  C2  UNL d   1      -0.261  -0.607   1.362  0.00  0.00     0.048 A 
ATOM      4  C3  UNL d   1      -0.132  -0.025   0.102  0.00  0.00     0.023 A 
ATOM      5  C4  UNL d   1      -0.759   1.188  -0.185  0.00  0.00     0.048 A 
ATOM      6  C5  UNL d   1      -1.520   1.822   0.800  0.00  0.00     0.003 A 
ATOM      7  I   UNL d   1       1.001  -0.972  -1.361  0.00  0.00    -0.146 I 
ENDROOT
TORSDOF 0
ENDMDL
