MODEL 1
REMARK minimizedAffinity -4.16489935
REMARK minimizedRMSD -1
REMARK  0 active torsions:
REMARK  status: ('A' for Active; 'I' for Inactive)
ROOT
ATOM      1  C   UNL d   1      -1.524   2.134   1.282  0.00  0.00     0.023 A 
ATOM      2  C1  UNL d   1      -1.405   0.895   1.911  0.00  0.00     0.003 A 
ATOM      3  C2  UNL d   1      -0.653  -0.122   1.318  0.00  0.00     0.048 A 
ATOM      4  C3  UNL d   1      -0.021   0.108   0.097  0.00  0.00     0.023 A 
ATOM      5  C4  UNL d   1      -0.137   1.347  -0.536  0.00  0.00     0.048 A 
ATOM      6  C5  UNL d   1      -0.891   2.360   0.060  0.00  0.00     0.003 A 
ATOM      7  I   UNL d   1       1.099  -1.403  -0.788  0.00  0.00    -0.146 I 
ENDROOT
TORSDOF 0
ENDMDL
