MODEL 1
REMARK minimizedAffinity -3.06797934
REMARK minimizedRMSD -1
REMARK  0 active torsions:
REMARK  status: ('A' for Active; 'I' for Inactive)
ROOT
ATOM      1  C   UNL d   1      -1.682   1.758   1.635  0.00  0.00     0.023 A 
ATOM      2  C1  UNL d   1      -1.297   0.544   2.205  0.00  0.00     0.003 A 
ATOM      3  C2  UNL d   1      -0.531  -0.362   1.469  0.00  0.00     0.048 A 
ATOM      4  C3  UNL d   1      -0.152  -0.048   0.164  0.00  0.00     0.023 A 
ATOM      5  C4  UNL d   1      -0.535   1.165  -0.410  0.00  0.00     0.048 A 
ATOM      6  C5  UNL d   1      -1.301   2.068   0.329  0.00  0.00     0.003 A 
ATOM      7  I   UNL d   1       0.988  -1.396  -0.933  0.00  0.00    -0.146 I 
ENDROOT
TORSDOF 0
ENDMDL
