MODEL 1
REMARK minimizedAffinity -3.23693252
REMARK minimizedRMSD -1
REMARK  0 active torsions:
REMARK  status: ('A' for Active; 'I' for Inactive)
ROOT
ATOM      1  C   UNL d   1      -1.471   1.776   1.713  0.00  0.00     0.023 A 
ATOM      2  C1  UNL d   1      -0.674   0.787   2.288  0.00  0.00     0.003 A 
ATOM      3  C2  UNL d   1      -0.009  -0.135   1.477  0.00  0.00     0.048 A 
ATOM      4  C3  UNL d   1      -0.145  -0.061   0.091  0.00  0.00     0.023 A 
ATOM      5  C4  UNL d   1      -0.940   0.929  -0.489  0.00  0.00     0.048 A 
ATOM      6  C5  UNL d   1      -1.604   1.847   0.326  0.00  0.00     0.003 A 
ATOM      7  I   UNL d   1       0.844  -1.431  -1.119  0.00  0.00    -0.146 I 
ENDROOT
TORSDOF 0
ENDMDL
