MODEL 1
REMARK minimizedAffinity -3.25172997
REMARK minimizedRMSD -1
REMARK  0 active torsions:
REMARK  status: ('A' for Active; 'I' for Inactive)
ROOT
ATOM      1  C   UNL d   1      -2.155   1.879   1.463  0.00  0.00     0.023 A 
ATOM      2  C1  UNL d   1      -1.640   0.762   2.122  0.00  0.00     0.003 A 
ATOM      3  C2  UNL d   1      -0.664  -0.025   1.507  0.00  0.00     0.048 A 
ATOM      4  C3  UNL d   1      -0.206   0.312   0.233  0.00  0.00     0.023 A 
ATOM      5  C4  UNL d   1      -0.718   1.429  -0.429  0.00  0.00     0.048 A 
ATOM      6  C5  UNL d   1      -1.694   2.212   0.189  0.00  0.00     0.003 A 
ATOM      7  I   UNL d   1       1.247  -0.857  -0.684  0.00  0.00    -0.146 I 
ENDROOT
TORSDOF 0
ENDMDL
