MODEL 1
REMARK minimizedAffinity -3.43726158
REMARK minimizedRMSD -1
REMARK  0 active torsions:
REMARK  status: ('A' for Active; 'I' for Inactive)
ROOT
ATOM      1  C   UNL d   1      -1.477   1.778   1.803  0.00  0.00     0.023 A 
ATOM      2  C1  UNL d   1      -1.452   2.080   0.442  0.00  0.00     0.003 A 
ATOM      3  C2  UNL d   1      -0.778   1.241  -0.449  0.00  0.00     0.048 A 
ATOM      4  C3  UNL d   1      -0.132   0.102   0.029  0.00  0.00     0.023 A 
ATOM      5  C4  UNL d   1      -0.155  -0.205   1.391  0.00  0.00     0.048 A 
ATOM      6  C5  UNL d   1      -0.829   0.637   2.277  0.00  0.00     0.003 A 
ATOM      7  I   UNL d   1       0.872  -1.148  -1.294  0.00  0.00    -0.146 I 
ENDROOT
TORSDOF 0
ENDMDL
