MODEL 1
REMARK minimizedAffinity -3.61462879
REMARK minimizedRMSD -1
REMARK  0 active torsions:
REMARK  status: ('A' for Active; 'I' for Inactive)
ROOT
ATOM      1  C   UNL d   1      -1.386   1.504   1.590  0.00  0.00     0.023 A 
ATOM      2  C1  UNL d   1      -0.936   1.760   0.295  0.00  0.00     0.003 A 
ATOM      3  C2  UNL d   1      -0.332   0.744  -0.450  0.00  0.00     0.048 A 
ATOM      4  C3  UNL d   1      -0.184  -0.526   0.106  0.00  0.00     0.023 A 
ATOM      5  C4  UNL d   1      -0.634  -0.787   1.401  0.00  0.00     0.048 A 
ATOM      6  C5  UNL d   1      -1.236   0.232   2.142  0.00  0.00     0.003 A 
ATOM      7  I   UNL d   1       0.714  -2.039  -1.000  0.00  0.00    -0.146 I 
ENDROOT
TORSDOF 0
ENDMDL
