MODEL 1
REMARK minimizedAffinity -4.07293034
REMARK minimizedRMSD -1
REMARK  0 active torsions:
REMARK  status: ('A' for Active; 'I' for Inactive)
ROOT
ATOM      1  C   UNL d   1      -1.820   1.857   1.684  0.00  0.00     0.023 A 
ATOM      2  C1  UNL d   1      -0.979   0.956   2.337  0.00  0.00     0.003 A 
ATOM      3  C2  UNL d   1      -0.284  -0.009   1.605  0.00  0.00     0.048 A 
ATOM      4  C3  UNL d   1      -0.434  -0.066   0.220  0.00  0.00     0.023 A 
ATOM      5  C4  UNL d   1      -1.273   0.834  -0.438  0.00  0.00     0.048 A 
ATOM      6  C5  UNL d   1      -1.967   1.797   0.298  0.00  0.00     0.003 A 
ATOM      7  I   UNL d   1       0.600  -1.501  -0.872  0.00  0.00    -0.146 I 
ENDROOT
TORSDOF 0
ENDMDL
