MODEL 1
REMARK minimizedAffinity -2.32927895
REMARK minimizedRMSD -1
REMARK  0 active torsions:
REMARK  status: ('A' for Active; 'I' for Inactive)
ROOT
ATOM      1  C   UNL d   1      -0.828   2.767  -0.716  0.00  0.00     0.023 A 
ATOM      2  C1  UNL d   1      -1.275   1.788   0.172  0.00  0.00     0.003 A 
ATOM      3  C2  UNL d   1      -0.717   0.509   0.142  0.00  0.00     0.048 A 
ATOM      4  C3  UNL d   1       0.289   0.215  -0.779  0.00  0.00     0.023 A 
ATOM      5  C4  UNL d   1       0.740   1.191  -1.668  0.00  0.00     0.048 A 
ATOM      6  C5  UNL d   1       0.178   2.469  -1.635  0.00  0.00     0.003 A 
ATOM      7  I   UNL d   1       1.122  -1.689  -0.825  0.00  0.00    -0.146 I 
ENDROOT
TORSDOF 0
ENDMDL
