MODEL 1
REMARK minimizedAffinity 12.8073931
REMARK minimizedRMSD -1
REMARK  0 active torsions:
REMARK  status: ('A' for Active; 'I' for Inactive)
ROOT
ATOM      1  C1  DEN d   1       3.345  -0.293   4.040  0.00  0.00     0.130 A 
ATOM      2  C2  DEN d   1       3.823   0.926   3.393  0.00  0.00    -0.031 A 
ATOM      3  C3  DEN d   1       2.783   1.380   2.448  0.00  0.00     0.027 A 
ATOM      4  C4  DEN d   1       0.489   0.322   1.929  0.00  0.00     0.027 A 
ATOM      5  C5  DEN d   1      -0.355  -0.727   2.220  0.00  0.00    -0.003 A 
ATOM      6  C6  DEN d   1      -0.014  -1.715   3.105  0.00  0.00     0.001 A 
ATOM      7  C7  DEN d   1       1.185  -1.650   3.765  0.00  0.00     0.017 A 
ATOM      8  C8  DEN d   1       2.044  -0.600   3.472  0.00  0.00    -0.094 A 
ATOM      9  C9  DEN d   1       1.676   0.395   2.583  0.00  0.00    -0.072 A 
ENDROOT
TORSDOF 0
ENDMDL
