MODEL 1
REMARK minimizedAffinity 11.0240889
REMARK minimizedRMSD -1
REMARK  0 active torsions:
REMARK  status: ('A' for Active; 'I' for Inactive)
ROOT
ATOM      1  C1  DEN d   1      -0.607   1.880   3.330  0.00  0.00     0.130 A 
ATOM      2  C2  DEN d   1      -0.355   2.372   4.682  0.00  0.00    -0.031 A 
ATOM      3  C3  DEN d   1       0.397   1.333   5.413  0.00  0.00     0.027 A 
ATOM      4  C4  DEN d   1       1.196  -0.976   4.588  0.00  0.00     0.027 A 
ATOM      5  C5  DEN d   1       1.209  -1.842   3.517  0.00  0.00    -0.003 A 
ATOM      6  C6  DEN d   1       0.593  -1.546   2.330  0.00  0.00     0.001 A 
ATOM      7  C7  DEN d   1      -0.024  -0.333   2.170  0.00  0.00     0.017 A 
ATOM      8  C8  DEN d   1      -0.047   0.543   3.247  0.00  0.00    -0.094 A 
ATOM      9  C9  DEN d   1       0.592   0.230   4.435  0.00  0.00    -0.072 A 
ENDROOT
TORSDOF 0
ENDMDL
