MODEL 1
REMARK minimizedAffinity 16.3615723
REMARK minimizedRMSD -1
REMARK  0 active torsions:
REMARK  status: ('A' for Active; 'I' for Inactive)
ROOT
ATOM      1  C1  DEN d   1      -0.441  -1.015  -4.505  0.00  0.00     0.130 A 
ATOM      2  C2  DEN d   1       0.740  -0.252  -4.110  0.00  0.00    -0.031 A 
ATOM      3  C3  DEN d   1       1.934  -1.060  -4.427  0.00  0.00     0.027 A 
ATOM      4  C4  DEN d   1       2.070  -3.406  -5.492  0.00  0.00     0.027 A 
ATOM      5  C5  DEN d   1       1.332  -4.457  -5.988  0.00  0.00    -0.003 A 
ATOM      6  C6  DEN d   1      -0.038  -4.450  -5.994  0.00  0.00     0.001 A 
ATOM      7  C7  DEN d   1      -0.713  -3.350  -5.534  0.00  0.00     0.017 A 
ATOM      8  C8  DEN d   1       0.024  -2.289  -5.026  0.00  0.00    -0.094 A 
ATOM      9  C9  DEN d   1       1.408  -2.310  -5.040  0.00  0.00    -0.072 A 
ENDROOT
TORSDOF 0
ENDMDL
