MODEL 1
REMARK minimizedAffinity 9.36700058
REMARK minimizedRMSD -1
REMARK  0 active torsions:
REMARK  status: ('A' for Active; 'I' for Inactive)
ROOT
ATOM      1  C1  DEN d   1      -3.075  -0.850   1.873  0.00  0.00     0.130 A 
ATOM      2  C2  DEN d   1      -2.778  -2.212   1.437  0.00  0.00    -0.031 A 
ATOM      3  C3  DEN d   1      -3.201  -2.342   0.028  0.00  0.00     0.027 A 
ATOM      4  C4  DEN d   1      -4.276  -0.575  -1.513  0.00  0.00     0.027 A 
ATOM      5  C5  DEN d   1      -4.732   0.723  -1.586  0.00  0.00    -0.003 A 
ATOM      6  C6  DEN d   1      -4.698   1.570  -0.510  0.00  0.00     0.001 A 
ATOM      7  C7  DEN d   1      -4.157   1.143   0.674  0.00  0.00     0.017 A 
ATOM      8  C8  DEN d   1      -3.702  -0.167   0.757  0.00  0.00    -0.094 A 
ATOM      9  C9  DEN d   1      -3.733  -1.004  -0.345  0.00  0.00    -0.072 A 
ENDROOT
TORSDOF 0
ENDMDL
