MODEL 1
REMARK minimizedAffinity -2.80752993
REMARK minimizedRMSD -1
REMARK  0 active torsions:
REMARK  status: ('A' for Active; 'I' for Inactive)
ROOT
ATOM      1  C4' PXY d   1      -1.050   3.143   1.156  0.00  0.00     0.077 C 
ATOM      2  C1' PXY d   1       0.580  -2.069  -0.739  0.00  0.00     0.077 C 
ATOM      3  C1  PXY d   1       0.143  -0.708  -0.235  0.00  0.00    -0.082 A 
ATOM      4  C2  PXY d   1       0.426   0.373  -0.943  0.00  0.00     0.003 A 
ATOM      5  C3  PXY d   1       0.067   1.615  -0.486  0.00  0.00     0.003 A 
ATOM      6  C4  PXY d   1      -0.637   1.747   0.681  0.00  0.00    -0.082 A 
ATOM      7  C5  PXY d   1      -0.939   0.647   1.404  0.00  0.00     0.003 A 
ATOM      8  C6  PXY d   1      -0.529  -0.600   0.943  0.00  0.00     0.003 A 
ENDROOT
TORSDOF 0
ENDMDL
