MODEL 1
REMARK minimizedAffinity -5.65212059
REMARK minimizedRMSD -1
REMARK  0 active torsions:
REMARK  status: ('A' for Active; 'I' for Inactive)
ROOT
ATOM      1  C4' PXY d   1      -0.857   0.860   1.721  0.00  0.00     0.077 C 
ATOM      2  C1' PXY d   1       0.009  -3.597  -1.857  0.00  0.00     0.077 C 
ATOM      3  C1  PXY d   1      -0.231  -2.431  -0.918  0.00  0.00    -0.082 A 
ATOM      4  C2  PXY d   1       0.607  -1.407  -0.919  0.00  0.00     0.003 A 
ATOM      5  C3  PXY d   1       0.424  -0.359  -0.054  0.00  0.00     0.003 A 
ATOM      6  C4  PXY d   1      -0.659  -0.334   0.784  0.00  0.00    -0.082 A 
ATOM      7  C5  PXY d   1      -1.525  -1.370   0.783  0.00  0.00     0.003 A 
ATOM      8  C6  PXY d   1      -1.298  -2.443  -0.074  0.00  0.00     0.003 A 
ENDROOT
TORSDOF 0
ENDMDL
