MODEL 1
REMARK minimizedAffinity -3.19413543
REMARK minimizedRMSD -1
REMARK  0 active torsions:
REMARK  status: ('A' for Active; 'I' for Inactive)
ROOT
ATOM      1  C4' PXY d   1       1.227  -2.733  -1.774  0.00  0.00     0.077 C 
ATOM      2  C1' PXY d   1      -1.012   0.936   2.091  0.00  0.00     0.077 C 
ATOM      3  C1  PXY d   1      -0.414  -0.019   1.076  0.00  0.00    -0.082 A 
ATOM      4  C2  PXY d   1      -1.207  -0.831   0.396  0.00  0.00     0.003 A 
ATOM      5  C3  PXY d   1      -0.681  -1.723  -0.503  0.00  0.00     0.003 A 
ATOM      6  C4  PXY d   1       0.667  -1.747  -0.746  0.00  0.00    -0.082 A 
ATOM      7  C5  PXY d   1       1.481  -0.914  -0.064  0.00  0.00     0.003 A 
ATOM      8  C6  PXY d   1       0.931  -0.045   0.873  0.00  0.00     0.003 A 
ENDROOT
TORSDOF 0
ENDMDL
