MODEL 1
REMARK minimizedAffinity -4.07707453
REMARK minimizedRMSD -1
REMARK  0 active torsions:
REMARK  status: ('A' for Active; 'I' for Inactive)
ROOT
ATOM      1  C4' PXY d   1      -0.432   1.029   1.803  0.00  0.00     0.077 C 
ATOM      2  C1' PXY d   1       0.609  -2.898  -2.309  0.00  0.00     0.077 C 
ATOM      3  C1  PXY d   1       0.323  -1.871  -1.231  0.00  0.00    -0.082 A 
ATOM      4  C2  PXY d   1       1.149  -0.851  -1.064  0.00  0.00     0.003 A 
ATOM      5  C3  PXY d   1       0.923   0.069  -0.073  0.00  0.00     0.003 A 
ATOM      6  C4  PXY d   1      -0.188  -0.027   0.721  0.00  0.00    -0.082 A 
ATOM      7  C5  PXY d   1      -1.041  -1.059   0.550  0.00  0.00     0.003 A 
ATOM      8  C6  PXY d   1      -0.772  -2.005  -0.435  0.00  0.00     0.003 A 
ENDROOT
TORSDOF 0
ENDMDL
