MODEL 1
REMARK minimizedAffinity -3.48701048
REMARK minimizedRMSD -1
REMARK  0 active torsions:
REMARK  status: ('A' for Active; 'I' for Inactive)
ROOT
ATOM      1  C4' PXY d   1      -1.262   0.650   2.461  0.00  0.00     0.077 C 
ATOM      2  C1' PXY d   1       0.886  -2.747  -1.694  0.00  0.00     0.077 C 
ATOM      3  C1  PXY d   1       0.311  -1.861  -0.606  0.00  0.00    -0.082 A 
ATOM      4  C2  PXY d   1       0.918  -0.727  -0.297  0.00  0.00     0.003 A 
ATOM      5  C3  PXY d   1       0.429   0.070   0.706  0.00  0.00     0.003 A 
ATOM      6  C4  PXY d   1      -0.723  -0.271   1.363  0.00  0.00    -0.082 A 
ATOM      7  C5  PXY d   1      -1.354  -1.421   1.046  0.00  0.00     0.003 A 
ATOM      8  C6  PXY d   1      -0.819  -2.237   0.053  0.00  0.00     0.003 A 
ENDROOT
TORSDOF 0
ENDMDL
