MODEL 1
REMARK minimizedAffinity -4.73084402
REMARK minimizedRMSD -1
REMARK  0 active torsions:
REMARK  status: ('A' for Active; 'I' for Inactive)
ROOT
ATOM      1  C4' PXY d   1       1.789  -0.697  -0.472  0.00  0.00     0.077 C 
ATOM      2  C1' PXY d   1      -2.193   3.240   0.961  0.00  0.00     0.077 C 
ATOM      3  C1  PXY d   1      -1.150   2.203   0.597  0.00  0.00    -0.082 A 
ATOM      4  C2  PXY d   1      -0.297   2.449  -0.385  0.00  0.00     0.003 A 
ATOM      5  C3  PXY d   1       0.633   1.508  -0.748  0.00  0.00     0.003 A 
ATOM      6  C4  PXY d   1       0.725   0.325  -0.064  0.00  0.00    -0.082 A 
ATOM      7  C5  PXY d   1      -0.134   0.072   0.945  0.00  0.00     0.003 A 
ATOM      8  C6  PXY d   1      -1.097   1.022   1.271  0.00  0.00     0.003 A 
ENDROOT
TORSDOF 0
ENDMDL
