MODEL 1
REMARK minimizedAffinity -2.21410704
REMARK minimizedRMSD -1
REMARK  0 active torsions:
REMARK  status: ('A' for Active; 'I' for Inactive)
ROOT
ATOM      1  C4' PXY d   1       1.030  -2.939  -2.052  0.00  0.00     0.077 C 
ATOM      2  C1' PXY d   1      -0.863   0.880   1.852  0.00  0.00     0.077 C 
ATOM      3  C1  PXY d   1      -0.356  -0.114   0.826  0.00  0.00    -0.082 A 
ATOM      4  C2  PXY d   1      -1.207  -0.940   0.239  0.00  0.00     0.003 A 
ATOM      5  C3  PXY d   1      -0.762  -1.867  -0.668  0.00  0.00     0.003 A 
ATOM      6  C4  PXY d   1       0.561  -1.913  -1.017  0.00  0.00    -0.082 A 
ATOM      7  C5  PXY d   1       1.435  -1.067  -0.431  0.00  0.00     0.003 A 
ATOM      8  C6  PXY d   1       0.968  -0.161   0.518  0.00  0.00     0.003 A 
ENDROOT
TORSDOF 0
ENDMDL
