MODEL 1
REMARK minimizedAffinity -4.45280218
REMARK minimizedRMSD -1
REMARK  0 active torsions:
REMARK  status: ('A' for Active; 'I' for Inactive)
ROOT
ATOM      1  C4' PXY d   1       0.757  -2.939  -2.290  0.00  0.00     0.077 C 
ATOM      2  C1' PXY d   1      -0.744   0.706   1.938  0.00  0.00     0.077 C 
ATOM      3  C1  PXY d   1      -0.344  -0.240   0.823  0.00  0.00    -0.082 A 
ATOM      4  C2  PXY d   1      -1.108  -1.284   0.545  0.00  0.00     0.003 A 
ATOM      5  C3  PXY d   1      -0.744  -2.168  -0.438  0.00  0.00     0.003 A 
ATOM      6  C4  PXY d   1       0.387  -1.952  -1.180  0.00  0.00    -0.082 A 
ATOM      7  C5  PXY d   1       1.166  -0.884  -0.909  0.00  0.00     0.003 A 
ATOM      8  C6  PXY d   1       0.801  -0.021   0.121  0.00  0.00     0.003 A 
ENDROOT
TORSDOF 0
ENDMDL
