MODEL 1
REMARK minimizedAffinity -2.9204793
REMARK minimizedRMSD -1
REMARK  0 active torsions:
REMARK  status: ('A' for Active; 'I' for Inactive)
ROOT
ATOM      1  C4' PXY d   1      -0.973   1.284   1.807  0.00  0.00     0.077 C 
ATOM      2  C1' PXY d   1       1.034  -2.651  -1.922  0.00  0.00     0.077 C 
ATOM      3  C1  PXY d   1       0.511  -1.627  -0.934  0.00  0.00    -0.082 A 
ATOM      4  C2  PXY d   1      -0.406  -0.755  -1.320  0.00  0.00     0.003 A 
ATOM      5  C3  PXY d   1      -0.867   0.199  -0.449  0.00  0.00     0.003 A 
ATOM      6  C4  PXY d   1      -0.423   0.226   0.846  0.00  0.00    -0.082 A 
ATOM      7  C5  PXY d   1       0.505  -0.667   1.251  0.00  0.00     0.003 A 
ATOM      8  C6  PXY d   1       0.990  -1.601   0.339  0.00  0.00     0.003 A 
ENDROOT
TORSDOF 0
ENDMDL
