MODEL 1
REMARK minimizedAffinity -4.0112834
REMARK minimizedRMSD -1
REMARK  0 active torsions:
REMARK  status: ('A' for Active; 'I' for Inactive)
ROOT
ATOM      1  C4' PXY d   1      -1.016   4.213   0.480  0.00  0.00     0.077 C 
ATOM      2  C1' PXY d   1       0.557  -1.315  -0.142  0.00  0.00     0.077 C 
ATOM      3  C1  PXY d   1       0.135   0.131   0.028  0.00  0.00    -0.082 A 
ATOM      4  C2  PXY d   1       0.482   1.026  -0.882  0.00  0.00     0.003 A 
ATOM      5  C3  PXY d   1       0.135   2.344  -0.727  0.00  0.00     0.003 A 
ATOM      6  C4  PXY d   1      -0.620   2.740   0.344  0.00  0.00    -0.082 A 
ATOM      7  C5  PXY d   1      -0.987   1.831   1.272  0.00  0.00     0.003 A 
ATOM      8  C6  PXY d   1      -0.590   0.506   1.117  0.00  0.00     0.003 A 
ENDROOT
TORSDOF 0
ENDMDL
