MODEL 1
REMARK minimizedAffinity -2.32806325
REMARK minimizedRMSD -1
REMARK  0 active torsions:
REMARK  status: ('A' for Active; 'I' for Inactive)
ROOT
ATOM      1  C4' PXY d   1      -1.303  -1.899   3.286  0.00  0.00     0.077 C 
ATOM      2  C1' PXY d   1       1.164   0.542  -1.337  0.00  0.00     0.077 C 
ATOM      3  C1  PXY d   1       0.515  -0.086  -0.119  0.00  0.00    -0.082 A 
ATOM      4  C2  PXY d   1       0.808  -1.335   0.207  0.00  0.00     0.003 A 
ATOM      5  C3  PXY d   1       0.206  -1.929   1.287  0.00  0.00     0.003 A 
ATOM      6  C4  PXY d   1      -0.664  -1.221   2.071  0.00  0.00    -0.082 A 
ATOM      7  C5  PXY d   1      -0.961   0.057   1.751  0.00  0.00     0.003 A 
ATOM      8  C6  PXY d   1      -0.370   0.628   0.627  0.00  0.00     0.003 A 
ENDROOT
TORSDOF 0
ENDMDL
