MODEL 1
REMARK minimizedAffinity -2.38559318
REMARK minimizedRMSD -1
REMARK  0 active torsions:
REMARK  status: ('A' for Active; 'I' for Inactive)
ROOT
ATOM      1  C4' PXY d   1      -0.087  -1.356   2.149  0.00  0.00     0.077 C 
ATOM      2  C1' PXY d   1       0.389   3.541  -0.887  0.00  0.00     0.077 C 
ATOM      3  C1  PXY d   1       0.268   2.250  -0.101  0.00  0.00    -0.082 A 
ATOM      4  C2  PXY d   1      -0.541   2.194   0.944  0.00  0.00     0.003 A 
ATOM      5  C3  PXY d   1      -0.639   1.044   1.685  0.00  0.00     0.003 A 
ATOM      6  C4  PXY d   1       0.060  -0.076   1.320  0.00  0.00    -0.082 A 
ATOM      7  C5  PXY d   1       0.879  -0.030   0.249  0.00  0.00     0.003 A 
ATOM      8  C6  PXY d   1       0.996   1.159  -0.465  0.00  0.00     0.003 A 
ENDROOT
TORSDOF 0
ENDMDL
