MODEL 1
REMARK minimizedAffinity -1.06550884
REMARK minimizedRMSD -1
REMARK  0 active torsions:
REMARK  status: ('A' for Active; 'I' for Inactive)
ROOT
ATOM      1  C4' PXY d   1       1.346  -2.246  -1.898  0.00  0.00     0.077 C 
ATOM      2  C1' PXY d   1      -1.448   1.273   1.738  0.00  0.00     0.077 C 
ATOM      3  C1  PXY d   1      -0.705   0.359   0.784  0.00  0.00    -0.082 A 
ATOM      4  C2  PXY d   1      -1.383  -0.506   0.046  0.00  0.00     0.003 A 
ATOM      5  C3  PXY d   1      -0.724  -1.362  -0.799  0.00  0.00     0.003 A 
ATOM      6  C4  PXY d   1       0.637  -1.297  -0.928  0.00  0.00    -0.082 A 
ATOM      7  C5  PXY d   1       1.335  -0.411  -0.186  0.00  0.00     0.003 A 
ATOM      8  C6  PXY d   1       0.651   0.422   0.696  0.00  0.00     0.003 A 
ENDROOT
TORSDOF 0
ENDMDL
