MODEL 1
REMARK minimizedAffinity -5.24483252
REMARK minimizedRMSD -1
REMARK  0 active torsions:
REMARK  status: ('A' for Active; 'I' for Inactive)
ROOT
ATOM      1  C4' PXY d   1       1.128  -3.043  -2.035  0.00  0.00     0.077 C 
ATOM      2  C1' PXY d   1      -0.980   0.762   1.772  0.00  0.00     0.077 C 
ATOM      3  C1  PXY d   1      -0.426  -0.227   0.765  0.00  0.00    -0.082 A 
ATOM      4  C2  PXY d   1      -0.715  -1.512   0.883  0.00  0.00     0.003 A 
ATOM      5  C3  PXY d   1      -0.196  -2.424  -0.000  0.00  0.00     0.003 A 
ATOM      6  C4  PXY d   1       0.583  -2.009  -1.047  0.00  0.00    -0.082 A 
ATOM      7  C5  PXY d   1       0.873  -0.697  -1.180  0.00  0.00     0.003 A 
ATOM      8  C6  PXY d   1       0.371   0.207  -0.249  0.00  0.00     0.003 A 
ENDROOT
TORSDOF 0
ENDMDL
