MODEL 1
REMARK minimizedAffinity -3.73400211
REMARK minimizedRMSD -1
REMARK  0 active torsions:
REMARK  status: ('A' for Active; 'I' for Inactive)
ROOT
ATOM      1  C4' PXY d   1       0.827  -2.579  -3.113  0.00  0.00     0.077 C 
ATOM      2  C1' PXY d   1      -0.512   0.454   1.623  0.00  0.00     0.077 C 
ATOM      3  C1  PXY d   1      -0.149  -0.336   0.380  0.00  0.00    -0.082 A 
ATOM      4  C2  PXY d   1      -1.109  -0.825  -0.387  0.00  0.00     0.003 A 
ATOM      5  C3  PXY d   1      -0.799  -1.568  -1.497  0.00  0.00     0.003 A 
ATOM      6  C4  PXY d   1       0.508  -1.768  -1.854  0.00  0.00    -0.082 A 
ATOM      7  C5  PXY d   1       1.493  -1.263  -1.081  0.00  0.00     0.003 A 
ATOM      8  C6  PXY d   1       1.157  -0.546   0.063  0.00  0.00     0.003 A 
ENDROOT
TORSDOF 0
ENDMDL
