MODEL 1
REMARK minimizedAffinity -3.3384366
REMARK minimizedRMSD -1
REMARK  0 active torsions:
REMARK  status: ('A' for Active; 'I' for Inactive)
ROOT
ATOM      1  C4' PXY d   1       0.553  -2.944  -1.921  0.00  0.00     0.077 C 
ATOM      2  C1' PXY d   1      -0.930   1.235   1.788  0.00  0.00     0.077 C 
ATOM      3  C1  PXY d   1      -0.551   0.132   0.819  0.00  0.00    -0.082 A 
ATOM      4  C2  PXY d   1       0.707   0.007   0.429  0.00  0.00     0.003 A 
ATOM      5  C3  PXY d   1       1.061  -0.964  -0.471  0.00  0.00     0.003 A 
ATOM      6  C4  PXY d   1       0.127  -1.851  -0.937  0.00  0.00    -0.082 A 
ATOM      7  C5  PXY d   1      -1.157  -1.737  -0.535  0.00  0.00     0.003 A 
ATOM      8  C6  PXY d   1      -1.503  -0.718   0.347  0.00  0.00     0.003 A 
ENDROOT
TORSDOF 0
ENDMDL
