MODEL 1
REMARK minimizedAffinity -4.20997477
REMARK minimizedRMSD -1
REMARK  0 active torsions:
REMARK  status: ('A' for Active; 'I' for Inactive)
ROOT
ATOM      1  C4' PXY d   1      -0.004   3.377  -0.806  0.00  0.00     0.077 C 
ATOM      2  C1' PXY d   1       0.012  -1.448   2.376  0.00  0.00     0.077 C 
ATOM      3  C1  PXY d   1      -0.003  -0.179   1.547  0.00  0.00    -0.082 A 
ATOM      4  C2  PXY d   1       0.657  -0.138   0.401  0.00  0.00     0.003 A 
ATOM      5  C3  PXY d   1       0.680   1.012  -0.345  0.00  0.00     0.003 A 
ATOM      6  C4  PXY d   1      -0.024   2.114   0.059  0.00  0.00    -0.082 A 
ATOM      7  C5  PXY d   1      -0.709   2.077   1.221  0.00  0.00     0.003 A 
ATOM      8  C6  PXY d   1      -0.686   0.913   1.985  0.00  0.00     0.003 A 
ENDROOT
TORSDOF 0
ENDMDL
