MODEL 1
REMARK minimizedAffinity -3.39033127
REMARK minimizedRMSD -1
REMARK  0 active torsions:
REMARK  status: ('A' for Active; 'I' for Inactive)
ROOT
ATOM      1  C4' PXY d   1       0.687   5.122   1.116  0.00  0.00     0.077 C 
ATOM      2  C1' PXY d   1      -0.744  -0.327  -0.179  0.00  0.00     0.077 C 
ATOM      3  C1  PXY d   1      -0.378   1.102   0.171  0.00  0.00    -0.082 A 
ATOM      4  C2  PXY d   1       0.165   1.882  -0.750  0.00  0.00     0.003 A 
ATOM      5  C3  PXY d   1       0.532   3.167  -0.443  0.00  0.00     0.003 A 
ATOM      6  C4  PXY d   1       0.292   3.676   0.806  0.00  0.00    -0.082 A 
ATOM      7  C5  PXY d   1      -0.271   2.890   1.748  0.00  0.00     0.003 A 
ATOM      8  C6  PXY d   1      -0.599   1.576   1.427  0.00  0.00     0.003 A 
ENDROOT
TORSDOF 0
ENDMDL
