MODEL 1
REMARK minimizedAffinity -4.43082428
REMARK minimizedRMSD -1
REMARK  0 active torsions:
REMARK  status: ('A' for Active; 'I' for Inactive)
ROOT
ATOM      1  C4' PXY d   1      -2.137   3.564   1.235  0.00  0.00     0.077 C 
ATOM      2  C1' PXY d   1       1.300  -0.745  -0.507  0.00  0.00     0.077 C 
ATOM      3  C1  PXY d   1       0.406   0.393  -0.055  0.00  0.00    -0.082 A 
ATOM      4  C2  PXY d   1      -0.406   0.219   0.974  0.00  0.00     0.003 A 
ATOM      5  C3  PXY d   1      -1.243   1.228   1.376  0.00  0.00     0.003 A 
ATOM      6  C4  PXY d   1      -1.211   2.445   0.750  0.00  0.00    -0.082 A 
ATOM      7  C5  PXY d   1      -0.377   2.634  -0.294  0.00  0.00     0.003 A 
ATOM      8  C6  PXY d   1       0.435   1.584  -0.712  0.00  0.00     0.003 A 
ENDROOT
TORSDOF 0
ENDMDL
