MODEL 1
REMARK minimizedAffinity -1.46539366
REMARK minimizedRMSD -1
REMARK  1 active torsions:
REMARK  status: ('A' for Active; 'I' for Inactive)
REMARK    1  A    between atoms: C1_2  and  C2_3 
ROOT
ATOM      1  C2  UNL d   1       0.092   0.525  -0.867  0.00  0.00    -0.073 A 
ATOM      2  C3  UNL d   1       0.786  -0.304  -1.756  0.00  0.00    -0.002 A 
ATOM      3  C4  UNL d   1       1.766  -1.178  -1.286  0.00  0.00     0.004 A 
ATOM      4  C5  UNL d   1       2.058  -1.238   0.077  0.00  0.00    -0.004 A 
ATOM      5  C6  UNL d   1       1.368  -0.427   0.983  0.00  0.00    -0.075 A 
ATOM      6  C7  UNL d   1       1.671  -0.477   2.451  0.00  0.00     0.076 C 
ATOM      7  C8  UNL d   1       0.386   0.451   0.502  0.00  0.00     0.001 A 
ENDROOT
BRANCH   1   8
ATOM      8  C1  UNL d   1      -0.972   1.466  -1.369  0.00  0.00     0.053 C 
ATOM      9  C   UNL d   1      -0.376   2.695  -2.038  0.00  0.00     0.018 C 
ENDBRANCH   1   8
TORSDOF 1
ENDMDL
