MODEL 1
REMARK minimizedAffinity -2.51459146
REMARK minimizedRMSD -1
REMARK  1 active torsions:
REMARK  status: ('A' for Active; 'I' for Inactive)
REMARK    1  A    between atoms: C1_2  and  C2_3 
ROOT
ATOM      1  C2  UNL d   1       3.401   5.804   3.584  0.00  0.00    -0.073 A 
ATOM      2  C3  UNL d   1       4.066   6.000   4.799  0.00  0.00    -0.002 A 
ATOM      3  C4  UNL d   1       3.355   6.000   6.000  0.00  0.00     0.004 A 
ATOM      4  C5  UNL d   1       1.975   5.797   5.999  0.00  0.00    -0.004 A 
ATOM      5  C6  UNL d   1       1.294   5.588   4.796  0.00  0.00    -0.075 A 
ATOM      6  C7  UNL d   1      -0.191   5.371   4.777  0.00  0.00     0.076 C 
ATOM      7  C8  UNL d   1       2.014   5.592   3.594  0.00  0.00     0.001 A 
ENDROOT
BRANCH   1   8
ATOM      8  C1  UNL d   1       4.165   5.797   2.285  0.00  0.00     0.053 C 
ATOM      9  C   UNL d   1       5.658   5.986   2.501  0.00  0.00     0.018 C 
ENDBRANCH   1   8
TORSDOF 1
ENDMDL
