MODEL 1
REMARK minimizedAffinity -1.98844266
REMARK minimizedRMSD -1
REMARK  1 active torsions:
REMARK  status: ('A' for Active; 'I' for Inactive)
REMARK    1  A    between atoms: C1_2  and  C2_3 
ROOT
ATOM      1  C2  UNL d   1      -0.276   0.443  -1.545  0.00  0.00    -0.073 A 
ATOM      2  C3  UNL d   1       0.497  -0.372  -2.379  0.00  0.00    -0.002 A 
ATOM      3  C4  UNL d   1       1.543  -1.131  -1.852  0.00  0.00     0.004 A 
ATOM      4  C5  UNL d   1       1.822  -1.088  -0.486  0.00  0.00    -0.004 A 
ATOM      5  C6  UNL d   1       1.053  -0.289   0.366  0.00  0.00    -0.075 A 
ATOM      6  C7  UNL d   1       1.341  -0.230   1.838  0.00  0.00     0.076 C 
ATOM      7  C8  UNL d   1       0.006   0.472  -0.171  0.00  0.00     0.001 A 
ENDROOT
BRANCH   1   8
ATOM      8  C1  UNL d   1      -1.410   1.259  -2.109  0.00  0.00     0.053 C 
ATOM      9  C   UNL d   1      -0.927   2.570  -2.708  0.00  0.00     0.018 C 
ENDBRANCH   1   8
TORSDOF 1
ENDMDL
