MODEL 1
REMARK minimizedAffinity -5.69045258
REMARK minimizedRMSD -1
REMARK  1 active torsions:
REMARK  status: ('A' for Active; 'I' for Inactive)
REMARK    1  A    between atoms: C1_2  and  C2_3 
ROOT
ATOM      1  C2  UNL d   1      -0.707  -0.993   2.095  0.00  0.00    -0.073 A 
ATOM      2  C3  UNL d   1       0.656  -1.025   2.410  0.00  0.00    -0.002 A 
ATOM      3  C4  UNL d   1       1.596  -0.497   1.524  0.00  0.00     0.004 A 
ATOM      4  C5  UNL d   1       1.184   0.074   0.320  0.00  0.00    -0.004 A 
ATOM      5  C6  UNL d   1      -0.175   0.126  -0.007  0.00  0.00    -0.075 A 
ATOM      6  C7  UNL d   1      -0.635   0.735  -1.299  0.00  0.00     0.076 C 
ATOM      7  C8  UNL d   1      -1.113  -0.409   0.886  0.00  0.00     0.001 A 
ENDROOT
BRANCH   1   8
ATOM      8  C1  UNL d   1      -1.727  -1.557   3.050  0.00  0.00     0.053 C 
ATOM      9  C   UNL d   1      -1.614  -3.068   3.179  0.00  0.00     0.018 C 
ENDBRANCH   1   8
TORSDOF 1
ENDMDL
