MODEL 1
REMARK minimizedAffinity 19.506691
REMARK minimizedRMSD -1
REMARK  1 active torsions:
REMARK  status: ('A' for Active; 'I' for Inactive)
REMARK    1  A    between atoms: C1_2  and  C2_3 
ROOT
ATOM      1  C2  UNL d   1       0.267  -2.534  -1.735  0.00  0.00    -0.077 A 
ATOM      2  C3  UNL d   1       1.161  -2.005  -2.676  0.00  0.00     0.002 A 
ATOM      3  C4  UNL d   1       2.124  -1.071  -2.289  0.00  0.00     0.002 A 
ATOM      4  C5  UNL d   1       2.204  -0.662  -0.959  0.00  0.00    -0.004 A 
ATOM      5  C6  UNL d   1       1.318  -1.180  -0.016  0.00  0.00     0.002 A 
ATOM      6  C7  UNL d   1       0.354  -2.112  -0.402  0.00  0.00     0.002 A 
ENDROOT
BRANCH   1   7
ATOM      7  C1  UNL d   1      -0.740  -3.577  -2.142  0.00  0.00     0.055 C 
ATOM      8  C   UNL d   1      -2.084  -2.948  -2.480  0.00  0.00     0.019 C 
ENDBRANCH   1   7
TORSDOF 1
ENDMDL
