MODEL 1
REMARK minimizedAffinity 14.0417328
REMARK minimizedRMSD -1
REMARK  1 active torsions:
REMARK  status: ('A' for Active; 'I' for Inactive)
REMARK    1  A    between atoms: C1_2  and  C2_3 
ROOT
ATOM      1  C2  UNL d   1      -3.576   1.831   3.715  0.00  0.00    -0.077 A 
ATOM      2  C3  UNL d   1      -4.666   2.669   3.440  0.00  0.00     0.002 A 
ATOM      3  C4  UNL d   1      -5.197   3.489   4.438  0.00  0.00     0.002 A 
ATOM      4  C5  UNL d   1      -4.641   3.483   5.715  0.00  0.00    -0.004 A 
ATOM      5  C6  UNL d   1      -3.558   2.652   6.000  0.00  0.00     0.002 A 
ATOM      6  C7  UNL d   1      -3.027   1.831   5.004  0.00  0.00     0.002 A 
ENDROOT
BRANCH   1   7
ATOM      7  C1  UNL d   1      -2.971   0.983   2.628  0.00  0.00     0.055 C 
ATOM      8  C   UNL d   1      -1.453   1.084   2.626  0.00  0.00     0.019 C 
ENDBRANCH   1   7
TORSDOF 1
ENDMDL
