MODEL 1
REMARK minimizedAffinity 13.7866755
REMARK minimizedRMSD -1
REMARK  1 active torsions:
REMARK  status: ('A' for Active; 'I' for Inactive)
REMARK    1  A    between atoms: C1_2  and  C2_3 
ROOT
ATOM      1  C2  UNL d   1      -0.359  -1.993  -1.612  0.00  0.00    -0.077 A 
ATOM      2  C3  UNL d   1      -1.267  -1.084  -2.173  0.00  0.00     0.002 A 
ATOM      3  C4  UNL d   1      -2.519  -1.518  -2.615  0.00  0.00     0.002 A 
ATOM      4  C5  UNL d   1      -2.874  -2.860  -2.498  0.00  0.00    -0.004 A 
ATOM      5  C6  UNL d   1      -1.977  -3.773  -1.944  0.00  0.00     0.002 A 
ATOM      6  C7  UNL d   1      -0.725  -3.341  -1.503  0.00  0.00     0.002 A 
ENDROOT
BRANCH   1   7
ATOM      7  C1  UNL d   1       0.972  -1.519  -1.089  0.00  0.00     0.055 C 
ATOM      8  C   UNL d   1       1.758  -0.782  -2.164  0.00  0.00     0.019 C 
ENDBRANCH   1   7
TORSDOF 1
ENDMDL
