MODEL 1
REMARK minimizedAffinity 0.068911165
REMARK minimizedRMSD -1
REMARK  1 active torsions:
REMARK  status: ('A' for Active; 'I' for Inactive)
REMARK    1  A    between atoms: C1_2  and  C2_3 
ROOT
ATOM      1  C2  UNL d   1      -4.906   1.360   5.073  0.00  0.00    -0.077 A 
ATOM      2  C3  UNL d   1      -3.997   1.445   4.009  0.00  0.00     0.002 A 
ATOM      3  C4  UNL d   1      -3.841   0.375   3.126  0.00  0.00     0.002 A 
ATOM      4  C5  UNL d   1      -4.593  -0.786   3.295  0.00  0.00    -0.004 A 
ATOM      5  C6  UNL d   1      -5.498  -0.881   4.352  0.00  0.00     0.002 A 
ATOM      6  C7  UNL d   1      -5.654   0.187   5.236  0.00  0.00     0.002 A 
ENDROOT
BRANCH   1   7
ATOM      7  C1  UNL d   1      -5.111   2.532   5.997  0.00  0.00     0.055 C 
ATOM      8  C   UNL d   1      -5.890   3.646   5.313  0.00  0.00     0.019 C 
ENDBRANCH   1   7
TORSDOF 1
ENDMDL
