MODEL 1
REMARK minimizedAffinity 10.5291891
REMARK minimizedRMSD -1
REMARK  1 active torsions:
REMARK  status: ('A' for Active; 'I' for Inactive)
REMARK    1  A    between atoms: C1_2  and  C2_3 
ROOT
ATOM      1  C2  UNL d   1       2.530  -1.221  -1.298  0.00  0.00    -0.077 A 
ATOM      2  C3  UNL d   1       3.822  -1.589  -0.896  0.00  0.00     0.002 A 
ATOM      3  C4  UNL d   1       4.222  -2.926  -0.944  0.00  0.00     0.002 A 
ATOM      4  C5  UNL d   1       3.339  -3.904  -1.397  0.00  0.00    -0.004 A 
ATOM      5  C6  UNL d   1       2.051  -3.548  -1.797  0.00  0.00     0.002 A 
ATOM      6  C7  UNL d   1       1.649  -2.212  -1.748  0.00  0.00     0.002 A 
ENDROOT
BRANCH   1   7
ATOM      7  C1  UNL d   1       2.113   0.227  -1.294  0.00  0.00     0.055 C 
ATOM      8  C   UNL d   1       3.175   1.107  -0.651  0.00  0.00     0.019 C 
ENDBRANCH   1   7
TORSDOF 1
ENDMDL
