MODEL 1
REMARK minimizedAffinity -1.07789421
REMARK minimizedRMSD -1
REMARK  1 active torsions:
REMARK  status: ('A' for Active; 'I' for Inactive)
REMARK    1  A    between atoms: C1_2  and  C2_3 
ROOT
ATOM      1  C2  UNL d   1       2.432  -3.313  -1.427  0.00  0.00    -0.077 A 
ATOM      2  C3  UNL d   1       1.574  -3.980  -2.312  0.00  0.00     0.002 A 
ATOM      3  C4  UNL d   1       1.829  -5.302  -2.682  0.00  0.00     0.002 A 
ATOM      4  C5  UNL d   1       2.940  -5.969  -2.169  0.00  0.00    -0.004 A 
ATOM      5  C6  UNL d   1       3.800  -5.314  -1.289  0.00  0.00     0.002 A 
ATOM      6  C7  UNL d   1       3.547  -3.992  -0.919  0.00  0.00     0.002 A 
ENDROOT
BRANCH   1   7
ATOM      7  C1  UNL d   1       2.131  -1.904  -0.988  0.00  0.00     0.055 C 
ATOM      8  C   UNL d   1       1.954  -0.978  -2.183  0.00  0.00     0.019 C 
ENDBRANCH   1   7
TORSDOF 1
ENDMDL
