MODEL 1
REMARK minimizedAffinity 2.24819279
REMARK minimizedRMSD -1
REMARK  1 active torsions:
REMARK  status: ('A' for Active; 'I' for Inactive)
REMARK    1  A    between atoms: C1_2  and  C2_3 
ROOT
ATOM      1  C2  UNL d   1      -4.105  -5.252  -4.153  0.00  0.00    -0.077 A 
ATOM      2  C3  UNL d   1      -4.169  -3.852  -4.124  0.00  0.00     0.002 A 
ATOM      3  C4  UNL d   1      -4.982  -3.163  -5.026  0.00  0.00     0.002 A 
ATOM      4  C5  UNL d   1      -5.739  -3.865  -5.961  0.00  0.00    -0.004 A 
ATOM      5  C6  UNL d   1      -5.681  -5.258  -6.000  0.00  0.00     0.002 A 
ATOM      6  C7  UNL d   1      -4.869  -5.948  -5.099  0.00  0.00     0.002 A 
ENDROOT
BRANCH   1   7
ATOM      7  C1  UNL d   1      -3.267  -6.000  -3.149  0.00  0.00     0.055 C 
ATOM      8  C   UNL d   1      -3.753  -5.750  -1.728  0.00  0.00     0.019 C 
ENDBRANCH   1   7
TORSDOF 1
ENDMDL
