MODEL 1
REMARK minimizedAffinity 9.37824726
REMARK minimizedRMSD -1
REMARK  1 active torsions:
REMARK  status: ('A' for Active; 'I' for Inactive)
REMARK    1  A    between atoms: C1_2  and  C2_3 
ROOT
ATOM      1  C2  UNL d   1       2.121   2.697  -0.235  0.00  0.00    -0.077 A 
ATOM      2  C3  UNL d   1       1.823   3.287  -1.472  0.00  0.00     0.002 A 
ATOM      3  C4  UNL d   1       1.049   4.447  -1.533  0.00  0.00     0.002 A 
ATOM      4  C5  UNL d   1       0.571   5.030  -0.361  0.00  0.00    -0.004 A 
ATOM      5  C6  UNL d   1       0.860   4.450   0.873  0.00  0.00     0.002 A 
ATOM      6  C7  UNL d   1       1.632   3.290   0.936  0.00  0.00     0.002 A 
ENDROOT
BRANCH   1   7
ATOM      7  C1  UNL d   1       2.997   1.474  -0.164  0.00  0.00     0.055 C 
ATOM      8  C   UNL d   1       4.451   1.847   0.087  0.00  0.00     0.019 C 
ENDBRANCH   1   7
TORSDOF 1
ENDMDL
