MODEL 1
REMARK minimizedAffinity 18.6341743
REMARK minimizedRMSD -1
REMARK  1 active torsions:
REMARK  status: ('A' for Active; 'I' for Inactive)
REMARK    1  A    between atoms: C1_2  and  C2_3 
ROOT
ATOM      1  C2  UNL d   1      -0.582  -1.785  -2.154  0.00  0.00    -0.077 A 
ATOM      2  C3  UNL d   1      -0.612  -3.182  -2.260  0.00  0.00     0.002 A 
ATOM      3  C4  UNL d   1      -1.757  -3.830  -2.728  0.00  0.00     0.002 A 
ATOM      4  C5  UNL d   1      -2.878  -3.089  -3.096  0.00  0.00    -0.004 A 
ATOM      5  C6  UNL d   1      -2.858  -1.699  -2.992  0.00  0.00     0.002 A 
ATOM      6  C7  UNL d   1      -1.715  -1.049  -2.524  0.00  0.00     0.002 A 
ENDROOT
BRANCH   1   7
ATOM      7  C1  UNL d   1       0.669  -1.081  -1.696  0.00  0.00     0.055 C 
ATOM      8  C   UNL d   1       1.101  -1.560  -0.318  0.00  0.00     0.019 C 
ENDBRANCH   1   7
TORSDOF 1
ENDMDL
