MODEL 1
REMARK minimizedAffinity 12.5222769
REMARK minimizedRMSD -1
REMARK  1 active torsions:
REMARK  status: ('A' for Active; 'I' for Inactive)
REMARK    1  A    between atoms: C1_2  and  C2_3 
ROOT
ATOM      1  C2  UNL d   1      -2.300   0.844  -3.717  0.00  0.00    -0.077 A 
ATOM      2  C3  UNL d   1      -2.823   0.300  -4.899  0.00  0.00     0.002 A 
ATOM      3  C4  UNL d   1      -3.083   1.120  -5.999  0.00  0.00     0.002 A 
ATOM      4  C5  UNL d   1      -2.819   2.486  -5.930  0.00  0.00    -0.004 A 
ATOM      5  C6  UNL d   1      -2.300   3.037  -4.759  0.00  0.00     0.002 A 
ATOM      6  C7  UNL d   1      -2.041   2.220  -3.658  0.00  0.00     0.002 A 
ENDROOT
BRANCH   1   7
ATOM      7  C1  UNL d   1      -1.973  -0.046  -2.547  0.00  0.00     0.055 C 
ATOM      8  C   UNL d   1      -0.639  -0.752  -2.743  0.00  0.00     0.019 C 
ENDBRANCH   1   7
TORSDOF 1
ENDMDL
