MODEL 1
REMARK minimizedAffinity -4.21138477
REMARK minimizedRMSD -1
REMARK  0 active torsions:
REMARK  status: ('A' for Active; 'I' for Inactive)
ROOT
ATOM      1  C4' PXY d   1      -2.526   0.623  -1.685  0.00  0.00     0.077 C 
ATOM      2  C1' PXY d   1       2.539   0.189   1.067  0.00  0.00     0.077 C 
ATOM      3  C1  PXY d   1       1.211   0.290   0.343  0.00  0.00    -0.082 A 
ATOM      4  C2  PXY d   1       0.850   1.439  -0.205  0.00  0.00     0.003 A 
ATOM      5  C3  PXY d   1      -0.362   1.556  -0.836  0.00  0.00     0.003 A 
ATOM      6  C4  PXY d   1      -1.190   0.472  -0.953  0.00  0.00    -0.082 A 
ATOM      7  C5  PXY d   1      -0.825  -0.706  -0.405  0.00  0.00     0.003 A 
ATOM      8  C6  PXY d   1       0.391  -0.794   0.267  0.00  0.00     0.003 A 
ENDROOT
TORSDOF 0
ENDMDL
