MODEL 1
REMARK minimizedAffinity -4.31679487
REMARK minimizedRMSD -1
REMARK  0 active torsions:
REMARK  status: ('A' for Active; 'I' for Inactive)
ROOT
ATOM      1  C4' PXY d   1       1.400  -2.899   2.199  0.00  0.00     0.077 C 
ATOM      2  C1' PXY d   1       0.671   2.351  -0.109  0.00  0.00     0.077 C 
ATOM      3  C1  PXY d   1       0.875   0.975   0.493  0.00  0.00    -0.082 A 
ATOM      4  C2  PXY d   1      -0.144   0.133   0.562  0.00  0.00     0.003 A 
ATOM      5  C3  PXY d   1       0.015  -1.103   1.133  0.00  0.00     0.003 A 
ATOM      6  C4  PXY d   1       1.242  -1.503   1.590  0.00  0.00    -0.082 A 
ATOM      7  C5  PXY d   1       2.289  -0.654   1.514  0.00  0.00     0.003 A 
ATOM      8  C6  PXY d   1       2.097   0.612   0.969  0.00  0.00     0.003 A 
ENDROOT
TORSDOF 0
ENDMDL
