MODEL 1
REMARK minimizedAffinity -2.40952206
REMARK minimizedRMSD -1
REMARK  0 active torsions:
REMARK  status: ('A' for Active; 'I' for Inactive)
ROOT
ATOM      1  C4' PXY d   1       0.263   1.974  -0.222  0.00  0.00     0.077 C 
ATOM      2  C1' PXY d   1       1.285  -3.199   2.145  0.00  0.00     0.077 C 
ATOM      3  C1  PXY d   1       1.006  -1.847   1.518  0.00  0.00    -0.082 A 
ATOM      4  C2  PXY d   1       1.989  -0.971   1.390  0.00  0.00     0.003 A 
ATOM      5  C3  PXY d   1       1.748   0.268   0.854  0.00  0.00     0.003 A 
ATOM      6  C4  PXY d   1       0.500   0.594   0.396  0.00  0.00    -0.082 A 
ATOM      7  C5  PXY d   1      -0.506  -0.299   0.514  0.00  0.00     0.003 A 
ATOM      8  C6  PXY d   1      -0.250  -1.536   1.098  0.00  0.00     0.003 A 
ENDROOT
TORSDOF 0
ENDMDL
