MODEL 1
REMARK minimizedAffinity -2.61499619
REMARK minimizedRMSD -1
REMARK  0 active torsions:
REMARK  status: ('A' for Active; 'I' for Inactive)
ROOT
ATOM      1  C4' PXY d   1       0.915   2.573   0.191  0.00  0.00     0.077 C 
ATOM      2  C1' PXY d   1       1.514  -3.174   0.347  0.00  0.00     0.077 C 
ATOM      3  C1  PXY d   1       1.369  -1.665   0.311  0.00  0.00    -0.082 A 
ATOM      4  C2  PXY d   1       0.165  -1.122   0.378  0.00  0.00     0.003 A 
ATOM      5  C3  PXY d   1       0.013   0.239   0.314  0.00  0.00     0.003 A 
ATOM      6  C4  PXY d   1       1.110   1.055   0.234  0.00  0.00    -0.082 A 
ATOM      7  C5  PXY d   1       2.343   0.509   0.175  0.00  0.00     0.003 A 
ATOM      8  C6  PXY d   1       2.472  -0.877   0.200  0.00  0.00     0.003 A 
ENDROOT
TORSDOF 0
ENDMDL
