MODEL 1
REMARK minimizedAffinity -1.98102641
REMARK minimizedRMSD -1
REMARK  0 active torsions:
REMARK  status: ('A' for Active; 'I' for Inactive)
ROOT
ATOM      1  C4' PXY d   1      -2.339   0.057  -1.233  0.00  0.00     0.077 C 
ATOM      2  C1' PXY d   1       2.922   0.316   1.148  0.00  0.00     0.077 C 
ATOM      3  C1  PXY d   1       1.540   0.260   0.528  0.00  0.00    -0.082 A 
ATOM      4  C2  PXY d   1       0.978  -0.913   0.288  0.00  0.00     0.003 A 
ATOM      5  C3  PXY d   1      -0.258  -0.983  -0.302  0.00  0.00     0.003 A 
ATOM      6  C4  PXY d   1      -0.949   0.162  -0.600  0.00  0.00    -0.082 A 
ATOM      7  C5  PXY d   1      -0.387   1.363  -0.348  0.00  0.00     0.003 A 
ATOM      8  C6  PXY d   1       0.886   1.411   0.213  0.00  0.00     0.003 A 
ENDROOT
TORSDOF 0
ENDMDL
