MODEL 1
REMARK minimizedAffinity -4.57402086
REMARK minimizedRMSD -1
REMARK  0 active torsions:
REMARK  status: ('A' for Active; 'I' for Inactive)
ROOT
ATOM      1  C4' PXY d   1       1.893  -2.428   1.965  0.00  0.00     0.077 C 
ATOM      2  C1' PXY d   1       0.832   2.711  -0.460  0.00  0.00     0.077 C 
ATOM      3  C1  PXY d   1       1.123   1.365   0.173  0.00  0.00    -0.082 A 
ATOM      4  C2  PXY d   1       0.157   0.467   0.272  0.00  0.00     0.003 A 
ATOM      5  C3  PXY d   1       0.394  -0.744   0.871  0.00  0.00     0.003 A 
ATOM      6  C4  PXY d   1       1.647  -1.059   1.324  0.00  0.00    -0.082 A 
ATOM      7  C5  PXY d   1       2.641  -0.152   1.217  0.00  0.00     0.003 A 
ATOM      8  C6  PXY d   1       2.369   1.087   0.643  0.00  0.00     0.003 A 
ENDROOT
TORSDOF 0
ENDMDL
