MODEL 1
REMARK minimizedAffinity -5.40624809
REMARK minimizedRMSD -1
REMARK  0 active torsions:
REMARK  status: ('A' for Active; 'I' for Inactive)
ROOT
ATOM      1  C4' PXY d   1      -2.122   0.368  -1.075  0.00  0.00     0.077 C 
ATOM      2  C1' PXY d   1       3.227  -0.338   1.000  0.00  0.00     0.077 C 
ATOM      3  C1  PXY d   1       1.822  -0.166   0.457  0.00  0.00    -0.082 A 
ATOM      4  C2  PXY d   1       1.534   0.889  -0.287  0.00  0.00     0.003 A 
ATOM      5  C3  PXY d   1       0.260   1.077  -0.760  0.00  0.00     0.003 A 
ATOM      6  C4  PXY d   1      -0.715   0.148  -0.513  0.00  0.00    -0.082 A 
ATOM      7  C5  PXY d   1      -0.425  -0.936   0.237  0.00  0.00     0.003 A 
ATOM      8  C6  PXY d   1       0.863  -1.088   0.741  0.00  0.00     0.003 A 
ENDROOT
TORSDOF 0
ENDMDL
