MODEL 1
REMARK minimizedAffinity -3.37713647
REMARK minimizedRMSD -1
REMARK  0 active torsions:
REMARK  status: ('A' for Active; 'I' for Inactive)
ROOT
ATOM      1  C4' PXY d   1      -1.705  -0.275  -1.316  0.00  0.00     0.077 C 
ATOM      2  C1' PXY d   1       3.189   0.590   1.636  0.00  0.00     0.077 C 
ATOM      3  C1  PXY d   1       1.899   0.372   0.870  0.00  0.00    -0.082 A 
ATOM      4  C2  PXY d   1       1.731  -0.743   0.177  0.00  0.00     0.003 A 
ATOM      5  C3  PXY d   1       0.584  -0.943  -0.547  0.00  0.00     0.003 A 
ATOM      6  C4  PXY d   1      -0.423  -0.016  -0.520  0.00  0.00    -0.082 A 
ATOM      7  C5  PXY d   1      -0.263   1.119   0.193  0.00  0.00     0.003 A 
ATOM      8  C6  PXY d   1       0.925   1.322   0.888  0.00  0.00     0.003 A 
ENDROOT
TORSDOF 0
ENDMDL
