MODEL 1
REMARK minimizedAffinity -3.8455627
REMARK minimizedRMSD -1
REMARK  0 active torsions:
REMARK  status: ('A' for Active; 'I' for Inactive)
ROOT
ATOM      1  C4' PXY d   1       3.274  -0.044   1.321  0.00  0.00     0.077 C 
ATOM      2  C1' PXY d   1      -1.973   0.087  -1.100  0.00  0.00     0.077 C 
ATOM      3  C1  PXY d   1      -0.599   0.040  -0.461  0.00  0.00    -0.082 A 
ATOM      4  C2  PXY d   1      -0.016   1.166  -0.082  0.00  0.00     0.003 A 
ATOM      5  C3  PXY d   1       1.240   1.144   0.468  0.00  0.00     0.003 A 
ATOM      6  C4  PXY d   1       1.883  -0.046   0.681  0.00  0.00    -0.082 A 
ATOM      7  C5  PXY d   1       1.290  -1.199   0.306  0.00  0.00     0.003 A 
ATOM      8  C6  PXY d   1       0.032  -1.152  -0.288  0.00  0.00     0.003 A 
ENDROOT
TORSDOF 0
ENDMDL
