MODEL 1
REMARK minimizedAffinity -3.04877067
REMARK minimizedRMSD -1
REMARK  0 active torsions:
REMARK  status: ('A' for Active; 'I' for Inactive)
ROOT
ATOM      1  C4' PXY d   1       2.901  -0.115   1.042  0.00  0.00     0.077 C 
ATOM      2  C1' PXY d   1      -2.563   0.326  -0.790  0.00  0.00     0.077 C 
ATOM      3  C1  PXY d   1      -1.134   0.204  -0.299  0.00  0.00    -0.082 A 
ATOM      4  C2  PXY d   1      -0.236   1.101  -0.670  0.00  0.00     0.003 A 
ATOM      5  C3  PXY d   1       1.068   0.988  -0.262  0.00  0.00     0.003 A 
ATOM      6  C4  PXY d   1       1.445  -0.025   0.579  0.00  0.00    -0.082 A 
ATOM      7  C5  PXY d   1       0.532  -0.939   0.971  0.00  0.00     0.003 A 
ATOM      8  C6  PXY d   1      -0.778  -0.829   0.512  0.00  0.00     0.003 A 
ENDROOT
TORSDOF 0
ENDMDL
