MODEL 1
REMARK minimizedAffinity 9.34158325
REMARK minimizedRMSD -1
REMARK  0 active torsions:
REMARK  status: ('A' for Active; 'I' for Inactive)
ROOT
ATOM      1  C   UNL d   1      -4.496   5.623  -3.849  0.00  0.00     0.023 A 
ATOM      2  C1  UNL d   1      -4.322   4.476  -3.074  0.00  0.00     0.003 A 
ATOM      3  C2  UNL d   1      -4.171   3.232  -3.689  0.00  0.00     0.048 A 
ATOM      4  C3  UNL d   1      -4.193   3.142  -5.080  0.00  0.00     0.023 A 
ATOM      5  C4  UNL d   1      -4.366   4.286  -5.860  0.00  0.00     0.048 A 
ATOM      6  C5  UNL d   1      -4.518   5.528  -5.240  0.00  0.00     0.003 A 
ATOM      7  I   UNL d   1      -3.968   1.291  -5.999  0.00  0.00    -0.146 I 
ENDROOT
TORSDOF 0
ENDMDL
