MODEL 1
REMARK minimizedAffinity 3.85304308
REMARK minimizedRMSD -1
REMARK  0 active torsions:
REMARK  status: ('A' for Active; 'I' for Inactive)
ROOT
ATOM      1  C   UNL d   1       5.771  -2.752  -4.430  0.00  0.00     0.023 A 
ATOM      2  C1  UNL d   1       4.872  -3.752  -4.802  0.00  0.00     0.003 A 
ATOM      3  C2  UNL d   1       3.652  -3.880  -4.134  0.00  0.00     0.048 A 
ATOM      4  C3  UNL d   1       3.338  -3.004  -3.095  0.00  0.00     0.023 A 
ATOM      5  C4  UNL d   1       4.234  -2.002  -2.720  0.00  0.00     0.048 A 
ATOM      6  C5  UNL d   1       5.452  -1.878  -3.390  0.00  0.00     0.003 A 
ATOM      7  I   UNL d   1       1.523  -3.193  -2.099  0.00  0.00    -0.146 I 
ENDROOT
TORSDOF 0
ENDMDL
