MODEL 1
REMARK minimizedAffinity 4.49965668
REMARK minimizedRMSD -1
REMARK  0 active torsions:
REMARK  status: ('A' for Active; 'I' for Inactive)
ROOT
ATOM      1  C   UNL d   1      -4.612  -4.796  -5.906  0.00  0.00     0.023 A 
ATOM      2  C1  UNL d   1      -3.921  -3.588  -5.996  0.00  0.00     0.003 A 
ATOM      3  C2  UNL d   1      -2.524  -3.579  -5.992  0.00  0.00     0.048 A 
ATOM      4  C3  UNL d   1      -1.825  -4.782  -5.900  0.00  0.00     0.023 A 
ATOM      5  C4  UNL d   1      -2.513  -5.993  -5.811  0.00  0.00     0.048 A 
ATOM      6  C5  UNL d   1      -3.909  -5.997  -5.814  0.00  0.00     0.003 A 
ATOM      7  I   UNL d   1       0.253  -4.771  -5.895  0.00  0.00    -0.146 I 
ENDROOT
TORSDOF 0
ENDMDL
