MODEL 1
REMARK minimizedAffinity 3.69348383
REMARK minimizedRMSD -1
REMARK  0 active torsions:
REMARK  status: ('A' for Active; 'I' for Inactive)
ROOT
ATOM      1  C   UNL d   1      -0.228   1.433  -2.521  0.00  0.00     0.023 A 
ATOM      2  C1  UNL d   1       0.488   0.412  -3.147  0.00  0.00     0.003 A 
ATOM      3  C2  UNL d   1       0.587  -0.844  -2.544  0.00  0.00     0.048 A 
ATOM      4  C3  UNL d   1      -0.032  -1.072  -1.315  0.00  0.00     0.023 A 
ATOM      5  C4  UNL d   1      -0.750  -0.053  -0.686  0.00  0.00     0.048 A 
ATOM      6  C5  UNL d   1      -0.846   1.201  -1.293  0.00  0.00     0.003 A 
ATOM      7  I   UNL d   1       0.114  -2.940  -0.416  0.00  0.00    -0.146 I 
ENDROOT
TORSDOF 0
ENDMDL
