MODEL 1
REMARK minimizedAffinity 6.29607964
REMARK minimizedRMSD -1
REMARK  0 active torsions:
REMARK  status: ('A' for Active; 'I' for Inactive)
ROOT
ATOM      1  C   UNL d   1      -0.070  -1.825  -4.374  0.00  0.00     0.023 A 
ATOM      2  C1  UNL d   1       0.014  -3.009  -3.641  0.00  0.00     0.003 A 
ATOM      3  C2  UNL d   1      -0.650  -4.154  -4.085  0.00  0.00     0.048 A 
ATOM      4  C3  UNL d   1      -1.396  -4.109  -5.262  0.00  0.00     0.023 A 
ATOM      5  C4  UNL d   1      -1.483  -2.926  -5.999  0.00  0.00     0.048 A 
ATOM      6  C5  UNL d   1      -0.818  -1.783  -5.551  0.00  0.00     0.003 A 
ATOM      7  I   UNL d   1      -2.385  -5.812  -5.925  0.00  0.00    -0.146 I 
ENDROOT
TORSDOF 0
ENDMDL
