MODEL 1
REMARK minimizedAffinity 0.20698899
REMARK minimizedRMSD -1
REMARK  0 active torsions:
REMARK  status: ('A' for Active; 'I' for Inactive)
ROOT
ATOM      1  C   UNL d   1       1.188   3.497  -1.021  0.00  0.00     0.023 A 
ATOM      2  C1  UNL d   1       1.710   4.506  -1.831  0.00  0.00     0.003 A 
ATOM      3  C2  UNL d   1       0.873   5.206  -2.703  0.00  0.00     0.048 A 
ATOM      4  C3  UNL d   1      -0.485   4.893  -2.759  0.00  0.00     0.023 A 
ATOM      5  C4  UNL d   1      -1.012   3.885  -1.949  0.00  0.00     0.048 A 
ATOM      6  C5  UNL d   1      -0.171   3.187  -1.080  0.00  0.00     0.003 A 
ATOM      7  I   UNL d   1      -1.732   5.934  -4.055  0.00  0.00    -0.146 I 
ENDROOT
TORSDOF 0
ENDMDL
