MODEL 1
REMARK minimizedAffinity 2.3539288
REMARK minimizedRMSD -1
REMARK  0 active torsions:
REMARK  status: ('A' for Active; 'I' for Inactive)
ROOT
ATOM      1  C   UNL d   1       0.081  -5.999  -2.049  0.00  0.00     0.023 A 
ATOM      2  C1  UNL d   1      -0.778  -5.994  -0.950  0.00  0.00     0.003 A 
ATOM      3  C2  UNL d   1      -0.262  -5.859   0.340  0.00  0.00     0.048 A 
ATOM      4  C3  UNL d   1       1.114  -5.729   0.525  0.00  0.00     0.023 A 
ATOM      5  C4  UNL d   1       1.978  -5.733  -0.572  0.00  0.00     0.048 A 
ATOM      6  C5  UNL d   1       1.457  -5.869  -1.860  0.00  0.00     0.003 A 
ATOM      7  I   UNL d   1       1.885  -5.528   2.445  0.00  0.00    -0.146 I 
ENDROOT
TORSDOF 0
ENDMDL
