MODEL 1
REMARK minimizedAffinity -2.69192743
REMARK minimizedRMSD -1
REMARK  0 active torsions:
REMARK  status: ('A' for Active; 'I' for Inactive)
ROOT
ATOM      1  C   UNL d   1       0.370   1.857   2.969  0.00  0.00     0.023 A 
ATOM      2  C1  UNL d   1       0.369   2.377   1.674  0.00  0.00     0.003 A 
ATOM      3  C2  UNL d   1       0.852   1.609   0.612  0.00  0.00     0.048 A 
ATOM      4  C3  UNL d   1       1.334   0.323   0.852  0.00  0.00     0.023 A 
ATOM      5  C4  UNL d   1       1.336  -0.201   2.145  0.00  0.00     0.048 A 
ATOM      6  C5  UNL d   1       0.853   0.570   3.204  0.00  0.00     0.003 A 
ATOM      7  I   UNL d   1       2.052  -0.821  -0.728  0.00  0.00    -0.146 I 
ENDROOT
TORSDOF 0
ENDMDL
