MODEL 1
REMARK minimizedAffinity 1.18054485
REMARK minimizedRMSD -1
REMARK  0 active torsions:
REMARK  status: ('A' for Active; 'I' for Inactive)
ROOT
ATOM      1  C   UNL d   1       5.954  -2.124  -4.950  0.00  0.00     0.172 C 
ATOM      2  N   UNL d   1       5.966  -3.568  -4.908  0.00  0.00    -0.070 N 
ATOM      3  C1  UNL d   1       5.958  -4.398  -5.998  0.00  0.00    -0.004 A 
ATOM      4  C2  UNL d   1       5.975  -5.697  -5.538  0.00  0.00    -0.047 A 
ATOM      5  C3  UNL d   1       5.993  -5.646  -4.124  0.00  0.00    -0.047 A 
ATOM      6  C4  UNL d   1       5.987  -4.316  -3.761  0.00  0.00    -0.004 A 
ENDROOT
TORSDOF 0
ENDMDL
