MODEL 1
REMARK minimizedAffinity 8.43952942
REMARK minimizedRMSD -1
REMARK  0 active torsions:
REMARK  status: ('A' for Active; 'I' for Inactive)
ROOT
ATOM      1  C   UNL d   1       3.487  -3.516   2.669  0.00  0.00     0.172 C 
ATOM      2  N   UNL d   1       2.949  -2.203   2.936  0.00  0.00    -0.070 N 
ATOM      3  C1  UNL d   1       2.841  -1.185   2.027  0.00  0.00    -0.004 A 
ATOM      4  C2  UNL d   1       2.280  -0.103   2.671  0.00  0.00    -0.047 A 
ATOM      5  C3  UNL d   1       2.044  -0.484   4.013  0.00  0.00    -0.047 A 
ATOM      6  C4  UNL d   1       2.467  -1.789   4.150  0.00  0.00    -0.004 A 
ENDROOT
TORSDOF 0
ENDMDL
