MODEL 1
REMARK minimizedAffinity 2.29053044
REMARK minimizedRMSD -1
REMARK  0 active torsions:
REMARK  status: ('A' for Active; 'I' for Inactive)
ROOT
ATOM      1  C   UNL d   1       5.999  -5.848  -5.951  0.00  0.00     0.172 C 
ATOM      2  N   UNL d   1       5.139  -5.894  -4.792  0.00  0.00    -0.070 N 
ATOM      3  C1  UNL d   1       3.773  -5.977  -4.814  0.00  0.00    -0.004 A 
ATOM      4  C2  UNL d   1       3.330  -5.998  -3.510  0.00  0.00    -0.047 A 
ATOM      5  C3  UNL d   1       4.470  -5.923  -2.674  0.00  0.00    -0.047 A 
ATOM      6  C4  UNL d   1       5.576  -5.860  -3.494  0.00  0.00    -0.004 A 
ENDROOT
TORSDOF 0
ENDMDL
