MODEL 1
REMARK minimizedAffinity 2.0005219
REMARK minimizedRMSD -1
REMARK  0 active torsions:
REMARK  status: ('A' for Active; 'I' for Inactive)
ROOT
ATOM      1  C   UNL d   1       5.985   5.925  -5.955  0.00  0.00     0.172 C 
ATOM      2  N   UNL d   1       5.326   5.944  -4.670  0.00  0.00    -0.070 N 
ATOM      3  C1  UNL d   1       5.952   5.963  -3.452  0.00  0.00    -0.004 A 
ATOM      4  C2  UNL d   1       4.977   5.979  -2.477  0.00  0.00    -0.047 A 
ATOM      5  C3  UNL d   1       3.723   5.968  -3.132  0.00  0.00    -0.047 A 
ATOM      6  C4  UNL d   1       3.968   5.947  -4.489  0.00  0.00    -0.004 A 
ENDROOT
TORSDOF 0
ENDMDL
