MODEL 1
REMARK minimizedAffinity 0.0701732486
REMARK minimizedRMSD -1
REMARK  0 active torsions:
REMARK  status: ('A' for Active; 'I' for Inactive)
ROOT
ATOM      1  C   UNL d   1       4.903  -5.914  -2.275  0.00  0.00     0.172 C 
ATOM      2  N   UNL d   1       4.873  -5.899  -3.718  0.00  0.00    -0.070 N 
ATOM      3  C1  UNL d   1       5.963  -5.787  -4.539  0.00  0.00    -0.004 A 
ATOM      4  C2  UNL d   1       5.515  -5.814  -5.842  0.00  0.00    -0.047 A 
ATOM      5  C3  UNL d   1       4.107  -5.946  -5.803  0.00  0.00    -0.047 A 
ATOM      6  C4  UNL d   1       3.735  -5.996  -4.476  0.00  0.00    -0.004 A 
ENDROOT
TORSDOF 0
ENDMDL
