MODEL 1
REMARK minimizedAffinity 1.30732298
REMARK minimizedRMSD -1
REMARK  0 active torsions:
REMARK  status: ('A' for Active; 'I' for Inactive)
ROOT
ATOM      1  C   UNL d   1       4.543  -2.147   6.000  0.00  0.00     0.172 C 
ATOM      2  N   UNL d   1       3.631  -1.620   5.013  0.00  0.00    -0.070 N 
ATOM      3  C1  UNL d   1       3.056  -2.333   3.995  0.00  0.00    -0.004 A 
ATOM      4  C2  UNL d   1       2.253  -1.473   3.278  0.00  0.00    -0.047 A 
ATOM      5  C3  UNL d   1       2.350  -0.198   3.884  0.00  0.00    -0.047 A 
ATOM      6  C4  UNL d   1       3.210  -0.317   4.956  0.00  0.00    -0.004 A 
ENDROOT
TORSDOF 0
ENDMDL
