MODEL 1
REMARK minimizedAffinity 1.53038216
REMARK minimizedRMSD -1
REMARK  0 active torsions:
REMARK  status: ('A' for Active; 'I' for Inactive)
ROOT
ATOM      1  C   UNL d   1      -5.999   2.425  -0.755  0.00  0.00     0.172 C 
ATOM      2  N   UNL d   1      -5.230   2.610   0.453  0.00  0.00    -0.070 N 
ATOM      3  C1  UNL d   1      -5.746   2.814   1.705  0.00  0.00    -0.004 A 
ATOM      4  C2  UNL d   1      -4.690   2.943   2.581  0.00  0.00    -0.047 A 
ATOM      5  C3  UNL d   1      -3.498   2.812   1.830  0.00  0.00    -0.047 A 
ATOM      6  C4  UNL d   1      -3.862   2.607   0.515  0.00  0.00    -0.004 A 
ENDROOT
TORSDOF 0
ENDMDL
