MODEL 1
REMARK minimizedAffinity 8.46685791
REMARK minimizedRMSD -1
REMARK  2 active torsions:
REMARK  status: ('A' for Active; 'I' for Inactive)
REMARK    1  A    between atoms: C1_2  and  C2_3 
REMARK    2  A    between atoms: C2_3  and  C3_4 
ROOT
ATOM      1  C3  UNL d   1       0.243  -2.381   1.418  0.00  0.00    -0.075 A 
ATOM      2  C4  UNL d   1       0.673  -3.639   0.970  0.00  0.00     0.002 A 
ATOM      3  C5  UNL d   1      -0.194  -4.474   0.265  0.00  0.00     0.002 A 
ATOM      4  C6  UNL d   1      -1.501  -4.068   0.008  0.00  0.00    -0.004 A 
ATOM      5  C7  UNL d   1      -1.944  -2.828   0.463  0.00  0.00     0.002 A 
ATOM      6  C8  UNL d   1      -1.078  -1.988   1.165  0.00  0.00     0.002 A 
ENDROOT
BRANCH   1   7
ATOM      7  C2  UNL d   1       1.186  -1.460   2.156  0.00  0.00     0.056 C 
BRANCH   7   8
ATOM      8  C1  UNL d   1       2.005  -2.152   3.251  0.00  0.00     0.007 C 
ATOM      9  C   UNL d   1       1.455  -1.917   4.651  0.00  0.00     0.009 C 
ENDBRANCH   7   8
ENDBRANCH   1   7
TORSDOF 2
ENDMDL
