MODEL 1
REMARK minimizedAffinity 10.314414
REMARK minimizedRMSD -1
REMARK  2 active torsions:
REMARK  status: ('A' for Active; 'I' for Inactive)
REMARK    1  A    between atoms: C1_2  and  C2_3 
REMARK    2  A    between atoms: C2_3  and  C3_4 
ROOT
ATOM      1  C3  UNL d   1      -1.818  -0.868  -0.026  0.00  0.00    -0.075 A 
ATOM      2  C4  UNL d   1      -2.513  -0.493  -1.185  0.00  0.00     0.002 A 
ATOM      3  C5  UNL d   1      -2.152   0.658  -1.886  0.00  0.00     0.002 A 
ATOM      4  C6  UNL d   1      -1.101   1.452  -1.434  0.00  0.00    -0.004 A 
ATOM      5  C7  UNL d   1      -0.414   1.099  -0.274  0.00  0.00     0.002 A 
ATOM      6  C8  UNL d   1      -0.770  -0.055   0.427  0.00  0.00     0.002 A 
ENDROOT
BRANCH   1   7
ATOM      7  C2  UNL d   1      -2.184  -2.127   0.722  0.00  0.00     0.056 C 
BRANCH   7   8
ATOM      8  C1  UNL d   1      -1.067  -3.175   0.764  0.00  0.00     0.007 C 
ATOM      9  C   UNL d   1      -1.506  -4.542   0.255  0.00  0.00     0.009 C 
ENDBRANCH   7   8
ENDBRANCH   1   7
TORSDOF 2
ENDMDL
