MODEL 1
REMARK minimizedAffinity 5.28940487
REMARK minimizedRMSD -1
REMARK  2 active torsions:
REMARK  status: ('A' for Active; 'I' for Inactive)
REMARK    1  A    between atoms: C1_2  and  C2_3 
REMARK    2  A    between atoms: C2_3  and  C3_4 
ROOT
ATOM      1  C3  UNL d   1      -3.879   3.086  -3.639  0.00  0.00    -0.075 A 
ATOM      2  C4  UNL d   1      -4.158   4.433  -3.369  0.00  0.00     0.002 A 
ATOM      3  C5  UNL d   1      -4.221   5.365  -4.406  0.00  0.00     0.002 A 
ATOM      4  C6  UNL d   1      -3.997   4.965  -5.721  0.00  0.00    -0.004 A 
ATOM      5  C7  UNL d   1      -3.703   3.632  -5.999  0.00  0.00     0.002 A 
ATOM      6  C8  UNL d   1      -3.643   2.696  -4.965  0.00  0.00     0.002 A 
ENDROOT
BRANCH   1   7
ATOM      7  C2  UNL d   1      -3.838   2.067  -2.526  0.00  0.00     0.056 C 
BRANCH   7   8
ATOM      8  C1  UNL d   1      -3.158   0.749  -2.911  0.00  0.00     0.007 C 
ATOM      9  C   UNL d   1      -2.374   0.121  -1.766  0.00  0.00     0.009 C 
ENDBRANCH   7   8
ENDBRANCH   1   7
TORSDOF 2
ENDMDL
