MODEL 1
REMARK minimizedAffinity 5.56376553
REMARK minimizedRMSD -1
REMARK  2 active torsions:
REMARK  status: ('A' for Active; 'I' for Inactive)
REMARK    1  A    between atoms: C1_2  and  C2_3 
REMARK    2  A    between atoms: C2_3  and  C3_4 
ROOT
ATOM      1  C3  UNL d   1       2.381  -2.162   2.175  0.00  0.00    -0.075 A 
ATOM      2  C4  UNL d   1       2.418  -2.923   3.352  0.00  0.00     0.002 A 
ATOM      3  C5  UNL d   1       1.935  -2.398   4.551  0.00  0.00     0.002 A 
ATOM      4  C6  UNL d   1       1.420  -1.104   4.591  0.00  0.00    -0.004 A 
ATOM      5  C7  UNL d   1       1.393  -0.333   3.431  0.00  0.00     0.002 A 
ATOM      6  C8  UNL d   1       1.871  -0.858   2.229  0.00  0.00     0.002 A 
ENDROOT
BRANCH   1   7
ATOM      7  C2  UNL d   1       2.875  -2.735   0.868  0.00  0.00     0.056 C 
BRANCH   7   8
ATOM      8  C1  UNL d   1       4.116  -2.033   0.308  0.00  0.00     0.007 C 
ATOM      9  C   UNL d   1       5.373  -2.889   0.379  0.00  0.00     0.009 C 
ENDBRANCH   7   8
ENDBRANCH   1   7
TORSDOF 2
ENDMDL
