MODEL 1
REMARK minimizedAffinity 5.79544449
REMARK minimizedRMSD -1
REMARK  2 active torsions:
REMARK  status: ('A' for Active; 'I' for Inactive)
REMARK    1  A    between atoms: C1_2  and  C2_3 
REMARK    2  A    between atoms: C2_3  and  C3_4 
ROOT
ATOM      1  C3  UNL d   1      -1.111  -4.098  -0.351  0.00  0.00    -0.075 A 
ATOM      2  C4  UNL d   1      -0.150  -4.463   0.602  0.00  0.00     0.002 A 
ATOM      3  C5  UNL d   1       1.142  -4.811   0.207  0.00  0.00     0.002 A 
ATOM      4  C6  UNL d   1       1.486  -4.809  -1.143  0.00  0.00    -0.004 A 
ATOM      5  C7  UNL d   1       0.534  -4.464  -2.100  0.00  0.00     0.002 A 
ATOM      6  C8  UNL d   1      -0.758  -4.111  -1.707  0.00  0.00     0.002 A 
ENDROOT
BRANCH   1   7
ATOM      7  C2  UNL d   1      -2.503  -3.691   0.071  0.00  0.00     0.056 C 
BRANCH   7   8
ATOM      8  C1  UNL d   1      -3.614  -4.573  -0.508  0.00  0.00     0.007 C 
ATOM      9  C   UNL d   1      -3.587  -6.000   0.024  0.00  0.00     0.009 C 
ENDBRANCH   7   8
ENDBRANCH   1   7
TORSDOF 2
ENDMDL
