MODEL 1
REMARK minimizedAffinity 13.8353262
REMARK minimizedRMSD -1
REMARK  2 active torsions:
REMARK  status: ('A' for Active; 'I' for Inactive)
REMARK    1  A    between atoms: C1_2  and  C2_3 
REMARK    2  A    between atoms: C2_3  and  C3_4 
ROOT
ATOM      1  C3  UNL d   1       0.783  -5.182  -1.073  0.00  0.00    -0.075 A 
ATOM      2  C4  UNL d   1      -0.401  -5.569  -1.718  0.00  0.00     0.002 A 
ATOM      3  C5  UNL d   1      -1.627  -5.485  -1.058  0.00  0.00     0.002 A 
ATOM      4  C6  UNL d   1      -1.684  -5.025   0.256  0.00  0.00    -0.004 A 
ATOM      5  C7  UNL d   1      -0.512  -4.654   0.912  0.00  0.00     0.002 A 
ATOM      6  C8  UNL d   1       0.715  -4.733   0.252  0.00  0.00     0.002 A 
ENDROOT
BRANCH   1   7
ATOM      7  C2  UNL d   1       2.110  -5.242  -1.792  0.00  0.00     0.056 C 
BRANCH   7   8
ATOM      8  C1  UNL d   1       2.719  -3.869  -2.093  0.00  0.00     0.007 C 
ATOM      9  C   UNL d   1       3.301  -3.187  -0.862  0.00  0.00     0.009 C 
ENDBRANCH   7   8
ENDBRANCH   1   7
TORSDOF 2
ENDMDL
