MODEL 1
REMARK minimizedAffinity 11.4641562
REMARK minimizedRMSD -1
REMARK  2 active torsions:
REMARK  status: ('A' for Active; 'I' for Inactive)
REMARK    1  A    between atoms: C1_2  and  C2_3 
REMARK    2  A    between atoms: C2_3  and  C3_4 
ROOT
ATOM      1  C3  UNL d   1       0.396  -2.667   1.444  0.00  0.00    -0.075 A 
ATOM      2  C4  UNL d   1      -0.856  -2.036   1.430  0.00  0.00     0.002 A 
ATOM      3  C5  UNL d   1      -1.964  -2.670   0.867  0.00  0.00     0.002 A 
ATOM      4  C6  UNL d   1      -1.832  -3.937   0.301  0.00  0.00    -0.004 A 
ATOM      5  C7  UNL d   1      -0.589  -4.567   0.294  0.00  0.00     0.002 A 
ATOM      6  C8  UNL d   1       0.520  -3.936   0.862  0.00  0.00     0.002 A 
ENDROOT
BRANCH   1   7
ATOM      7  C2  UNL d   1       1.592  -1.999   2.079  0.00  0.00     0.056 C 
BRANCH   7   8
ATOM      8  C1  UNL d   1       1.231  -0.950   3.136  0.00  0.00     0.007 C 
ATOM      9  C   UNL d   1       1.025  -1.543   4.524  0.00  0.00     0.009 C 
ENDBRANCH   7   8
ENDBRANCH   1   7
TORSDOF 2
ENDMDL
