MODEL 1
REMARK minimizedAffinity 8.23762035
REMARK minimizedRMSD -1
REMARK  2 active torsions:
REMARK  status: ('A' for Active; 'I' for Inactive)
REMARK    1  A    between atoms: C1_2  and  C2_3 
REMARK    2  A    between atoms: C2_3  and  C3_4 
ROOT
ATOM      1  C3  UNL d   1       4.569  -2.107  -1.510  0.00  0.00    -0.075 A 
ATOM      2  C4  UNL d   1       5.276  -3.265  -1.864  0.00  0.00     0.002 A 
ATOM      3  C5  UNL d   1       5.983  -3.986  -0.901  0.00  0.00     0.002 A 
ATOM      4  C6  UNL d   1       5.999  -3.554   0.423  0.00  0.00    -0.004 A 
ATOM      5  C7  UNL d   1       5.314  -2.395   0.783  0.00  0.00     0.002 A 
ATOM      6  C8  UNL d   1       4.602  -1.675  -0.178  0.00  0.00     0.002 A 
ENDROOT
BRANCH   1   7
ATOM      7  C2  UNL d   1       3.778  -1.339  -2.542  0.00  0.00     0.056 C 
BRANCH   7   8
ATOM      8  C1  UNL d   1       4.550  -0.183  -3.186  0.00  0.00     0.007 C 
ATOM      9  C   UNL d   1       4.608   1.061  -2.310  0.00  0.00     0.009 C 
ENDBRANCH   7   8
ENDBRANCH   1   7
TORSDOF 2
ENDMDL
