MODEL 1
REMARK minimizedAffinity 7.66456509
REMARK minimizedRMSD -1
REMARK  0 active torsions:
REMARK  status: ('A' for Active; 'I' for Inactive)
ROOT
ATOM      1  C   UNL d   1      -1.876  -1.425  -1.106  0.00  0.00     0.077 C 
ATOM      2  C1  UNL d   1      -2.374  -2.237  -2.264  0.00  0.00    -0.074 A 
ATOM      3  C2  UNL d   1      -3.385  -3.188  -2.094  0.00  0.00    -0.005 A 
ATOM      4  C3  UNL d   1      -3.845  -3.929  -3.183  0.00  0.00     0.006 A 
ATOM      5  C4  UNL d   1      -3.298  -3.727  -4.451  0.00  0.00    -0.005 A 
ATOM      6  C5  UNL d   1      -2.287  -2.780  -4.641  0.00  0.00    -0.074 A 
ATOM      7  C6  UNL d   1      -1.696  -2.544  -5.999  0.00  0.00     0.077 C 
ATOM      8  C7  UNL d   1      -1.836  -2.035  -3.543  0.00  0.00    -0.001 A 
ENDROOT
TORSDOF 0
ENDMDL
