MODEL 1
REMARK minimizedAffinity 11.2567997
REMARK minimizedRMSD -1
REMARK  0 active torsions:
REMARK  status: ('A' for Active; 'I' for Inactive)
ROOT
ATOM      1  C   UNL d   1       1.313   2.488   0.688  0.00  0.00     0.077 C 
ATOM      2  C1  UNL d   1       1.451   2.232  -0.783  0.00  0.00    -0.074 A 
ATOM      3  C2  UNL d   1       0.531   2.762  -1.694  0.00  0.00    -0.005 A 
ATOM      4  C3  UNL d   1       0.677   2.524  -3.061  0.00  0.00     0.006 A 
ATOM      5  C4  UNL d   1       1.742   1.753  -3.529  0.00  0.00    -0.005 A 
ATOM      6  C5  UNL d   1       2.672   1.216  -2.634  0.00  0.00    -0.074 A 
ATOM      7  C6  UNL d   1       3.828   0.394  -3.122  0.00  0.00     0.077 C 
ATOM      8  C7  UNL d   1       2.522   1.466  -1.263  0.00  0.00    -0.001 A 
ENDROOT
TORSDOF 0
ENDMDL
