MODEL 1
REMARK minimizedAffinity 15.1002254
REMARK minimizedRMSD -1
REMARK  0 active torsions:
REMARK  status: ('A' for Active; 'I' for Inactive)
ROOT
ATOM      1  C   UNL d   1       1.858   0.434   2.051  0.00  0.00     0.077 C 
ATOM      2  C1  UNL d   1       0.781   0.232   3.076  0.00  0.00    -0.074 A 
ATOM      3  C2  UNL d   1       0.587   1.157   4.106  0.00  0.00    -0.005 A 
ATOM      4  C3  UNL d   1      -0.425   0.961   5.046  0.00  0.00     0.006 A 
ATOM      5  C4  UNL d   1      -1.251  -0.160   4.965  0.00  0.00    -0.005 A 
ATOM      6  C5  UNL d   1      -1.073  -1.095   3.941  0.00  0.00    -0.074 A 
ATOM      7  C6  UNL d   1      -1.959  -2.301   3.834  0.00  0.00     0.077 C 
ATOM      8  C7  UNL d   1      -0.059  -0.888   2.996  0.00  0.00    -0.001 A 
ENDROOT
TORSDOF 0
ENDMDL
