MODEL 1
REMARK minimizedAffinity 15.9270382
REMARK minimizedRMSD -1
REMARK  0 active torsions:
REMARK  status: ('A' for Active; 'I' for Inactive)
ROOT
ATOM      1  C   UNL d   1      -1.439  -1.652   3.152  0.00  0.00     0.077 C 
ATOM      2  C1  UNL d   1      -1.734  -3.009   3.719  0.00  0.00    -0.074 A 
ATOM      3  C2  UNL d   1      -0.795  -4.043   3.636  0.00  0.00    -0.005 A 
ATOM      4  C3  UNL d   1      -1.080  -5.296   4.176  0.00  0.00     0.006 A 
ATOM      5  C4  UNL d   1      -2.304  -5.529   4.805  0.00  0.00    -0.005 A 
ATOM      6  C5  UNL d   1      -3.254  -4.508   4.899  0.00  0.00    -0.074 A 
ATOM      7  C6  UNL d   1      -4.570  -4.738   5.580  0.00  0.00     0.077 C 
ATOM      8  C7  UNL d   1      -2.958  -3.248   4.359  0.00  0.00    -0.001 A 
ENDROOT
TORSDOF 0
ENDMDL
