MODEL 1
REMARK minimizedAffinity 13.1704855
REMARK minimizedRMSD -1
REMARK  0 active torsions:
REMARK  status: ('A' for Active; 'I' for Inactive)
ROOT
ATOM      1  C   UNL d   1       1.266   0.102   3.327  0.00  0.00     0.077 C 
ATOM      2  C1  UNL d   1       0.681   1.234   2.535  0.00  0.00    -0.074 A 
ATOM      3  C2  UNL d   1       1.412   1.851   1.514  0.00  0.00    -0.005 A 
ATOM      4  C3  UNL d   1       0.852   2.896   0.780  0.00  0.00     0.006 A 
ATOM      5  C4  UNL d   1      -0.443   3.335   1.059  0.00  0.00    -0.005 A 
ATOM      6  C5  UNL d   1      -1.190   2.730   2.076  0.00  0.00    -0.074 A 
ATOM      7  C6  UNL d   1      -2.586   3.183   2.382  0.00  0.00     0.077 C 
ATOM      8  C7  UNL d   1      -0.622   1.676   2.804  0.00  0.00    -0.001 A 
ENDROOT
TORSDOF 0
ENDMDL
