MODEL 1
REMARK minimizedAffinity 2.51492524
REMARK minimizedRMSD -1
REMARK  0 active torsions:
REMARK  status: ('A' for Active; 'I' for Inactive)
ROOT
ATOM      1  C   UNL d   1       1.421   2.752  -3.416  0.00  0.00     0.077 C 
ATOM      2  C1  UNL d   1       2.272   1.914  -2.508  0.00  0.00    -0.074 A 
ATOM      3  C2  UNL d   1       3.424   1.281  -2.985  0.00  0.00    -0.005 A 
ATOM      4  C3  UNL d   1       4.210   0.512  -2.127  0.00  0.00     0.006 A 
ATOM      5  C4  UNL d   1       3.852   0.368  -0.786  0.00  0.00    -0.005 A 
ATOM      6  C5  UNL d   1       2.704   0.994  -0.291  0.00  0.00    -0.074 A 
ATOM      7  C6  UNL d   1       2.311   0.857   1.149  0.00  0.00     0.077 C 
ATOM      8  C7  UNL d   1       1.923   1.771  -1.158  0.00  0.00    -0.001 A 
ENDROOT
TORSDOF 0
ENDMDL
