MODEL 1
REMARK minimizedAffinity 25.0588245
REMARK minimizedRMSD -1
REMARK  0 active torsions:
REMARK  status: ('A' for Active; 'I' for Inactive)
ROOT
ATOM      1  C   UNL d   1       5.245   5.444  -2.642  0.00  0.00     0.077 C 
ATOM      2  C1  UNL d   1       5.247   4.050  -3.196  0.00  0.00    -0.074 A 
ATOM      3  C2  UNL d   1       5.999   3.728  -4.330  0.00  0.00    -0.005 A 
ATOM      4  C3  UNL d   1       5.998   2.425  -4.828  0.00  0.00     0.006 A 
ATOM      5  C4  UNL d   1       5.246   1.432  -4.198  0.00  0.00    -0.005 A 
ATOM      6  C5  UNL d   1       4.488   1.735  -3.062  0.00  0.00    -0.074 A 
ATOM      7  C6  UNL d   1       3.682   0.679  -2.368  0.00  0.00     0.077 C 
ATOM      8  C7  UNL d   1       4.500   3.045  -2.564  0.00  0.00    -0.001 A 
ENDROOT
TORSDOF 0
ENDMDL
