MODEL 1
REMARK minimizedAffinity 4.7300806
REMARK minimizedRMSD -1
REMARK  0 active torsions:
REMARK  status: ('A' for Active; 'I' for Inactive)
ROOT
ATOM      1  C   UNL d   1       0.604  -4.566  -0.315  0.00  0.00     0.077 C 
ATOM      2  C1  UNL d   1       0.004  -4.007   0.940  0.00  0.00    -0.074 A 
ATOM      3  C2  UNL d   1      -0.161  -2.628   1.106  0.00  0.00    -0.005 A 
ATOM      4  C3  UNL d   1      -0.730  -2.123   2.275  0.00  0.00     0.006 A 
ATOM      5  C4  UNL d   1      -1.139  -2.990   3.288  0.00  0.00    -0.005 A 
ATOM      6  C5  UNL d   1      -0.983  -4.372   3.140  0.00  0.00    -0.074 A 
ATOM      7  C6  UNL d   1      -1.427  -5.318   4.216  0.00  0.00     0.077 C 
ATOM      8  C7  UNL d   1      -0.417  -4.872   1.960  0.00  0.00    -0.001 A 
ENDROOT
TORSDOF 0
ENDMDL
