MODEL 1
REMARK minimizedAffinity 11.4965973
REMARK minimizedRMSD -1
REMARK  0 active torsions:
REMARK  status: ('A' for Active; 'I' for Inactive)
ROOT
ATOM      1  C   UNL d   1       3.652   0.171   3.224  0.00  0.00     0.077 C 
ATOM      2  C1  UNL d   1       2.228   0.591   3.013  0.00  0.00    -0.074 A 
ATOM      3  C2  UNL d   1       1.921   1.820   2.421  0.00  0.00    -0.005 A 
ATOM      4  C3  UNL d   1       0.592   2.194   2.222  0.00  0.00     0.006 A 
ATOM      5  C4  UNL d   1      -0.443   1.343   2.613  0.00  0.00    -0.005 A 
ATOM      6  C5  UNL d   1      -0.156   0.109   3.207  0.00  0.00    -0.074 A 
ATOM      7  C6  UNL d   1      -1.255  -0.821   3.624  0.00  0.00     0.077 C 
ATOM      8  C7  UNL d   1       1.183  -0.262   3.396  0.00  0.00    -0.001 A 
ENDROOT
TORSDOF 0
ENDMDL
