MODEL 1
REMARK minimizedAffinity 11.7048302
REMARK minimizedRMSD -1
REMARK  0 active torsions:
REMARK  status: ('A' for Active; 'I' for Inactive)
ROOT
ATOM      1  C   UNL d   1       1.507  -1.584  -6.000  0.00  0.00     0.077 C 
ATOM      2  C1  UNL d   1       2.993  -1.727  -5.851  0.00  0.00    -0.074 A 
ATOM      3  C2  UNL d   1       3.610  -2.977  -5.972  0.00  0.00    -0.005 A 
ATOM      4  C3  UNL d   1       4.994  -3.093  -5.840  0.00  0.00     0.006 A 
ATOM      5  C4  UNL d   1       5.773  -1.964  -5.587  0.00  0.00    -0.005 A 
ATOM      6  C5  UNL d   1       5.173  -0.706  -5.463  0.00  0.00    -0.074 A 
ATOM      7  C6  UNL d   1       5.997   0.519  -5.201  0.00  0.00     0.077 C 
ATOM      8  C7  UNL d   1       3.783  -0.596  -5.604  0.00  0.00    -0.001 A 
ENDROOT
TORSDOF 0
ENDMDL
