MODEL 1
REMARK minimizedAffinity -1.08616829
REMARK minimizedRMSD -1
REMARK  0 active torsions:
REMARK  status: ('A' for Active; 'I' for Inactive)
ROOT
ATOM      1  C   UNL d   1       2.647  -0.371  -5.996  0.00  0.00     0.077 C 
ATOM      2  C1  UNL d   1       3.809   0.503  -5.625  0.00  0.00    -0.074 A 
ATOM      3  C2  UNL d   1       4.922  -0.024  -4.962  0.00  0.00    -0.005 A 
ATOM      4  C3  UNL d   1       5.999   0.799  -4.633  0.00  0.00     0.006 A 
ATOM      5  C4  UNL d   1       5.974   2.155  -4.963  0.00  0.00    -0.005 A 
ATOM      6  C5  UNL d   1       4.869   2.699  -5.627  0.00  0.00    -0.074 A 
ATOM      7  C6  UNL d   1       4.831   4.152  -5.998  0.00  0.00     0.077 C 
ATOM      8  C7  UNL d   1       3.794   1.864  -5.961  0.00  0.00    -0.001 A 
ENDROOT
TORSDOF 0
ENDMDL
