MODEL 1
REMARK minimizedAffinity 15.66712
REMARK minimizedRMSD -1
REMARK  0 active torsions:
REMARK  status: ('A' for Active; 'I' for Inactive)
ROOT
ATOM      1  C   UNL d   1      -4.385  -0.798  -5.708  0.00  0.00     0.077 C 
ATOM      2  C1  UNL d   1      -3.774  -2.165  -5.802  0.00  0.00    -0.074 A 
ATOM      3  C2  UNL d   1      -4.577  -3.307  -5.888  0.00  0.00    -0.005 A 
ATOM      4  C3  UNL d   1      -3.994  -4.570  -5.985  0.00  0.00     0.006 A 
ATOM      5  C4  UNL d   1      -2.606  -4.705  -5.996  0.00  0.00    -0.005 A 
ATOM      6  C5  UNL d   1      -1.787  -3.574  -5.912  0.00  0.00    -0.074 A 
ATOM      7  C6  UNL d   1      -0.292  -3.701  -5.933  0.00  0.00     0.077 C 
ATOM      8  C7  UNL d   1      -2.379  -2.308  -5.822  0.00  0.00    -0.001 A 
ENDROOT
TORSDOF 0
ENDMDL
