MODEL 1
REMARK minimizedAffinity 1.71782482
REMARK minimizedRMSD -1
REMARK  0 active torsions:
REMARK  status: ('A' for Active; 'I' for Inactive)
ROOT
ATOM      1  C   UNL d   1      -2.577  -5.599   4.942  0.00  0.00     0.077 C 
ATOM      2  C1  UNL d   1      -2.067  -4.363   4.263  0.00  0.00    -0.074 A 
ATOM      3  C2  UNL d   1      -0.907  -4.399   3.483  0.00  0.00    -0.005 A 
ATOM      4  C3  UNL d   1      -0.450  -3.243   2.849  0.00  0.00     0.006 A 
ATOM      5  C4  UNL d   1      -1.146  -2.042   2.990  0.00  0.00    -0.005 A 
ATOM      6  C5  UNL d   1      -2.309  -1.988   3.766  0.00  0.00    -0.074 A 
ATOM      7  C6  UNL d   1      -3.075  -0.708   3.919  0.00  0.00     0.077 C 
ATOM      8  C7  UNL d   1      -2.766  -3.155   4.393  0.00  0.00    -0.001 A 
ENDROOT
TORSDOF 0
ENDMDL
