MODEL 1
REMARK minimizedAffinity 10.1270952
REMARK minimizedRMSD -1
REMARK  0 active torsions:
REMARK  status: ('A' for Active; 'I' for Inactive)
ROOT
ATOM      1  C   UNL d   1       1.829   4.182   0.981  0.00  0.00     0.077 C 
ATOM      2  C1  UNL d   1       2.062   2.704   1.093  0.00  0.00    -0.074 A 
ATOM      3  C2  UNL d   1       2.226   1.914  -0.049  0.00  0.00    -0.005 A 
ATOM      4  C3  UNL d   1       2.451   0.543   0.071  0.00  0.00     0.006 A 
ATOM      5  C4  UNL d   1       2.515  -0.051   1.332  0.00  0.00    -0.005 A 
ATOM      6  C5  UNL d   1       2.355   0.723   2.485  0.00  0.00    -0.074 A 
ATOM      7  C6  UNL d   1       2.430   0.102   3.849  0.00  0.00     0.077 C 
ATOM      8  C7  UNL d   1       2.135   2.102   2.357  0.00  0.00    -0.001 A 
ENDROOT
TORSDOF 0
ENDMDL
