MODEL 1
REMARK minimizedAffinity 9.61722565
REMARK minimizedRMSD -1
REMARK  0 active torsions:
REMARK  status: ('A' for Active; 'I' for Inactive)
ROOT
ATOM      1  C   UNL d   1      -5.518  -5.214   5.318  0.00  0.00     0.077 C 
ATOM      2  C1  UNL d   1      -4.027  -5.213   5.160  0.00  0.00    -0.074 A 
ATOM      3  C2  UNL d   1      -3.216  -6.000   5.986  0.00  0.00    -0.005 A 
ATOM      4  C3  UNL d   1      -1.831  -5.996   5.821  0.00  0.00     0.006 A 
ATOM      5  C4  UNL d   1      -1.243  -5.207   4.832  0.00  0.00    -0.005 A 
ATOM      6  C5  UNL d   1      -2.037  -4.415   3.996  0.00  0.00    -0.074 A 
ATOM      7  C6  UNL d   1      -1.422  -3.569   2.922  0.00  0.00     0.077 C 
ATOM      8  C7  UNL d   1      -3.429  -4.430   4.163  0.00  0.00    -0.001 A 
ENDROOT
TORSDOF 0
ENDMDL
