MODEL 1
REMARK minimizedAffinity 10.5042715
REMARK minimizedRMSD -1
REMARK  0 active torsions:
REMARK  status: ('A' for Active; 'I' for Inactive)
ROOT
ATOM      1  C   UNL d   1       2.391   1.535   5.112  0.00  0.00     0.077 C 
ATOM      2  C1  UNL d   1       1.973   1.490   3.672  0.00  0.00    -0.074 A 
ATOM      3  C2  UNL d   1       2.389   0.450   2.835  0.00  0.00    -0.005 A 
ATOM      4  C3  UNL d   1       1.984   0.417   1.500  0.00  0.00     0.006 A 
ATOM      5  C4  UNL d   1       1.160   1.421   0.991  0.00  0.00    -0.005 A 
ATOM      6  C5  UNL d   1       0.733   2.468   1.814  0.00  0.00    -0.074 A 
ATOM      7  C6  UNL d   1      -0.161   3.550   1.285  0.00  0.00     0.077 C 
ATOM      8  C7  UNL d   1       1.138   2.491   3.155  0.00  0.00    -0.001 A 
ENDROOT
TORSDOF 0
ENDMDL
