MODEL 1
REMARK minimizedAffinity 10.0218248
REMARK minimizedRMSD -1
REMARK  0 active torsions:
REMARK  status: ('A' for Active; 'I' for Inactive)
ROOT
ATOM      1  C   UNL d   1      -1.919   3.389   2.198  0.00  0.00     0.077 C 
ATOM      2  C1  UNL d   1      -0.509   2.914   2.013  0.00  0.00    -0.074 A 
ATOM      3  C2  UNL d   1       0.296   3.432   0.993  0.00  0.00    -0.005 A 
ATOM      4  C3  UNL d   1       1.609   2.988   0.838  0.00  0.00     0.006 A 
ATOM      5  C4  UNL d   1       2.130   2.023   1.701  0.00  0.00    -0.005 A 
ATOM      6  C5  UNL d   1       1.341   1.494   2.727  0.00  0.00    -0.074 A 
ATOM      7  C6  UNL d   1       1.888   0.463   3.670  0.00  0.00     0.077 C 
ATOM      8  C7  UNL d   1       0.024   1.951   2.880  0.00  0.00    -0.001 A 
ENDROOT
TORSDOF 0
ENDMDL
