MODEL 1
REMARK minimizedAffinity 11.518651
REMARK minimizedRMSD -1
REMARK  0 active torsions:
REMARK  status: ('A' for Active; 'I' for Inactive)
ROOT
ATOM      1  C   UNL d   1       2.751  -1.091  -6.000  0.00  0.00     0.077 C 
ATOM      2  C1  UNL d   1       3.619  -0.285  -5.080  0.00  0.00    -0.074 A 
ATOM      3  C2  UNL d   1       5.012  -0.410  -5.112  0.00  0.00    -0.005 A 
ATOM      4  C3  UNL d   1       5.807   0.352  -4.257  0.00  0.00     0.006 A 
ATOM      5  C4  UNL d   1       5.219   1.246  -3.362  0.00  0.00    -0.005 A 
ATOM      6  C5  UNL d   1       3.828   1.386  -3.315  0.00  0.00    -0.074 A 
ATOM      7  C6  UNL d   1       3.180   2.349  -2.365  0.00  0.00     0.077 C 
ATOM      8  C7  UNL d   1       3.036   0.621  -4.183  0.00  0.00    -0.001 A 
ENDROOT
TORSDOF 0
ENDMDL
