MODEL 1
REMARK minimizedAffinity -5.52236414
REMARK minimizedRMSD -1
REMARK  1 active torsions:
REMARK  status: ('A' for Active; 'I' for Inactive)
REMARK    1  A    between atoms: C1_2  and  C2_3 
ROOT
ATOM      1  C2  UNL d   1      -0.742   2.988  -3.741  0.00  0.00    -0.073 A 
ATOM      2  C3  UNL d   1      -2.127   2.980  -3.946  0.00  0.00    -0.002 A 
ATOM      3  C4  UNL d   1      -2.978   2.431  -2.986  0.00  0.00     0.004 A 
ATOM      4  C5  UNL d   1      -2.455   1.891  -1.810  0.00  0.00    -0.004 A 
ATOM      5  C6  UNL d   1      -1.075   1.901  -1.583  0.00  0.00    -0.075 A 
ATOM      6  C7  UNL d   1      -0.497   1.323  -0.324  0.00  0.00     0.076 C 
ATOM      7  C8  UNL d   1      -0.227   2.452  -2.553  0.00  0.00     0.001 A 
ENDROOT
BRANCH   1   8
ATOM      8  C1  UNL d   1       0.180   3.586  -4.772  0.00  0.00     0.053 C 
ATOM      9  C   UNL d   1       0.543   5.026  -4.446  0.00  0.00     0.018 C 
ENDBRANCH   1   8
TORSDOF 1
ENDMDL
