MODEL 1
REMARK minimizedAffinity -3.97453141
REMARK minimizedRMSD -1
REMARK  1 active torsions:
REMARK  status: ('A' for Active; 'I' for Inactive)
REMARK    1  A    between atoms: C1_2  and  C2_3 
ROOT
ATOM      1  C2  UNL d   1       0.109   3.581  -3.594  0.00  0.00    -0.073 A 
ATOM      2  C3  UNL d   1      -0.789   3.032  -4.517  0.00  0.00    -0.002 A 
ATOM      3  C4  UNL d   1      -1.683   2.036  -4.123  0.00  0.00     0.004 A 
ATOM      4  C5  UNL d   1      -1.694   1.584  -2.804  0.00  0.00    -0.004 A 
ATOM      5  C6  UNL d   1      -0.814   2.129  -1.864  0.00  0.00    -0.075 A 
ATOM      6  C7  UNL d   1      -0.812   1.652  -0.441  0.00  0.00     0.076 C 
ATOM      7  C8  UNL d   1       0.083   3.127  -2.268  0.00  0.00     0.001 A 
ENDROOT
BRANCH   1   8
ATOM      8  C1  UNL d   1       1.072   4.662  -4.013  0.00  0.00     0.053 C 
ATOM      9  C   UNL d   1       0.377   6.000  -4.209  0.00  0.00     0.018 C 
ENDBRANCH   1   8
TORSDOF 1
ENDMDL
