MODEL 1
REMARK minimizedAffinity -0.543880522
REMARK minimizedRMSD -1
REMARK  1 active torsions:
REMARK  status: ('A' for Active; 'I' for Inactive)
REMARK    1  A    between atoms: C1_2  and  C2_3 
ROOT
ATOM      1  C2  UNL d   1       0.189   0.378   0.012  0.00  0.00    -0.073 A 
ATOM      2  C3  UNL d   1       1.198   0.717  -0.897  0.00  0.00    -0.002 A 
ATOM      3  C4  UNL d   1       2.410   0.025  -0.894  0.00  0.00     0.004 A 
ATOM      4  C5  UNL d   1       2.623  -1.015   0.011  0.00  0.00    -0.004 A 
ATOM      5  C6  UNL d   1       1.622  -1.376   0.919  0.00  0.00    -0.075 A 
ATOM      6  C7  UNL d   1       1.836  -2.490   1.900  0.00  0.00     0.076 C 
ATOM      7  C8  UNL d   1       0.408  -0.675   0.911  0.00  0.00     0.001 A 
ENDROOT
BRANCH   1   8
ATOM      8  C1  UNL d   1      -1.124   1.118   0.008  0.00  0.00     0.053 C 
ATOM      9  C   UNL d   1      -1.412   1.761  -1.340  0.00  0.00     0.018 C 
ENDBRANCH   1   8
TORSDOF 1
ENDMDL
