MODEL 1
REMARK minimizedAffinity -6.72033548
REMARK minimizedRMSD -1
REMARK  1 active torsions:
REMARK  status: ('A' for Active; 'I' for Inactive)
REMARK    1  A    between atoms: C1_2  and  C2_3 
ROOT
ATOM      1  C2  UNL d   1       0.731  -0.417   0.289  0.00  0.00    -0.073 A 
ATOM      2  C3  UNL d   1       1.625  -1.490   0.210  0.00  0.00    -0.002 A 
ATOM      3  C4  UNL d   1       1.527  -2.557   1.104  0.00  0.00     0.004 A 
ATOM      4  C5  UNL d   1       0.531  -2.565   2.080  0.00  0.00    -0.004 A 
ATOM      5  C6  UNL d   1      -0.380  -1.507   2.168  0.00  0.00    -0.075 A 
ATOM      6  C7  UNL d   1      -1.455  -1.500   3.214  0.00  0.00     0.076 C 
ATOM      7  C8  UNL d   1      -0.273  -0.438   1.268  0.00  0.00     0.001 A 
ENDROOT
BRANCH   1   8
ATOM      8  C1  UNL d   1       0.829   0.735  -0.678  0.00  0.00     0.053 C 
ATOM      9  C   UNL d   1      -0.485   1.490  -0.801  0.00  0.00     0.018 C 
ENDBRANCH   1   8
TORSDOF 1
ENDMDL
