MODEL 1
REMARK minimizedAffinity -5.051301
REMARK minimizedRMSD -1
REMARK  1 active torsions:
REMARK  status: ('A' for Active; 'I' for Inactive)
REMARK    1  A    between atoms: C1_2  and  C2_3 
ROOT
ATOM      1  C2  UNL d   1      -0.066   0.348  -0.315  0.00  0.00    -0.073 A 
ATOM      2  C3  UNL d   1       1.173   0.444  -0.958  0.00  0.00    -0.002 A 
ATOM      3  C4  UNL d   1       2.161  -0.514  -0.732  0.00  0.00     0.004 A 
ATOM      4  C5  UNL d   1       1.919  -1.581   0.133  0.00  0.00    -0.004 A 
ATOM      5  C6  UNL d   1       0.682  -1.701   0.776  0.00  0.00    -0.075 A 
ATOM      6  C7  UNL d   1       0.407  -2.842   1.711  0.00  0.00     0.076 C 
ATOM      7  C8  UNL d   1      -0.304  -0.733   0.545  0.00  0.00     0.001 A 
ENDROOT
BRANCH   1   8
ATOM      8  C1  UNL d   1      -1.139   1.378  -0.562  0.00  0.00     0.053 C 
ATOM      9  C   UNL d   1      -1.151   1.853  -2.006  0.00  0.00     0.018 C 
ENDBRANCH   1   8
TORSDOF 1
ENDMDL
