MODEL 1
REMARK minimizedAffinity -5.05151844
REMARK minimizedRMSD -1
REMARK  1 active torsions:
REMARK  status: ('A' for Active; 'I' for Inactive)
REMARK    1  A    between atoms: C1_2  and  C2_3 
ROOT
ATOM      1  C2  UNL d   1       0.584   0.013  -0.120  0.00  0.00    -0.073 A 
ATOM      2  C3  UNL d   1       1.863  -0.531   0.046  0.00  0.00    -0.002 A 
ATOM      3  C4  UNL d   1       2.107  -1.464   1.055  0.00  0.00     0.004 A 
ATOM      4  C5  UNL d   1       1.075  -1.866   1.903  0.00  0.00    -0.004 A 
ATOM      5  C6  UNL d   1      -0.212  -1.343   1.746  0.00  0.00    -0.075 A 
ATOM      6  C7  UNL d   1      -1.332  -1.764   2.651  0.00  0.00     0.076 C 
ATOM      7  C8  UNL d   1      -0.449  -0.405   0.731  0.00  0.00     0.001 A 
ENDROOT
BRANCH   1   8
ATOM      8  C1  UNL d   1       0.315   1.015  -1.213  0.00  0.00     0.053 C 
ATOM      9  C   UNL d   1      -1.148   1.430  -1.257  0.00  0.00     0.018 C 
ENDBRANCH   1   8
TORSDOF 1
ENDMDL
