MODEL 1
REMARK minimizedAffinity -4.48984289
REMARK minimizedRMSD -1
REMARK  1 active torsions:
REMARK  status: ('A' for Active; 'I' for Inactive)
REMARK    1  A    between atoms: C1_2  and  C2_3 
ROOT
ATOM      1  C2  UNL d   1      -0.412   0.193   0.800  0.00  0.00    -0.073 A 
ATOM      2  C3  UNL d   1       0.358   1.031  -0.015  0.00  0.00    -0.002 A 
ATOM      3  C4  UNL d   1       1.572   0.583  -0.538  0.00  0.00     0.004 A 
ATOM      4  C5  UNL d   1       2.024  -0.707  -0.258  0.00  0.00    -0.004 A 
ATOM      5  C6  UNL d   1       1.263  -1.562   0.545  0.00  0.00    -0.075 A 
ATOM      6  C7  UNL d   1       1.736  -2.951   0.857  0.00  0.00     0.076 C 
ATOM      7  C8  UNL d   1       0.046  -1.104   1.068  0.00  0.00     0.001 A 
ENDROOT
BRANCH   1   8
ATOM      8  C1  UNL d   1      -1.727   0.670   1.361  0.00  0.00     0.053 C 
ATOM      9  C   UNL d   1      -2.102  -0.066   2.638  0.00  0.00     0.018 C 
ENDBRANCH   1   8
TORSDOF 1
ENDMDL
