MODEL 1
REMARK minimizedAffinity -4.13610554
REMARK minimizedRMSD -1
REMARK  1 active torsions:
REMARK  status: ('A' for Active; 'I' for Inactive)
REMARK    1  A    between atoms: C1_2  and  C2_3 
ROOT
ATOM      1  C2  UNL d   1      -0.148   0.691  -0.168  0.00  0.00    -0.073 A 
ATOM      2  C3  UNL d   1       0.989   1.293  -0.719  0.00  0.00    -0.002 A 
ATOM      3  C4  UNL d   1       2.190   0.588  -0.802  0.00  0.00     0.004 A 
ATOM      4  C5  UNL d   1       2.266  -0.726  -0.342  0.00  0.00    -0.004 A 
ATOM      5  C6  UNL d   1       1.138  -1.350   0.201  0.00  0.00    -0.075 A 
ATOM      6  C7  UNL d   1       1.203  -2.763   0.702  0.00  0.00     0.076 C 
ATOM      7  C8  UNL d   1      -0.065  -0.634   0.283  0.00  0.00     0.001 A 
ENDROOT
BRANCH   1   8
ATOM      8  C1  UNL d   1      -1.449   1.446  -0.083  0.00  0.00     0.053 C 
ATOM      9  C   UNL d   1      -1.787   2.149  -1.388  0.00  0.00     0.018 C 
ENDBRANCH   1   8
TORSDOF 1
ENDMDL
