MODEL 1
REMARK minimizedAffinity -3.39100385
REMARK minimizedRMSD -1
REMARK  0 active torsions:
REMARK  status: ('A' for Active; 'I' for Inactive)
ROOT
ATOM      1  C   UNL d   1       0.452  -1.156   1.709  0.00  0.00     0.078 C 
ATOM      2  C1  UNL d   1       0.235  -0.093   0.673  0.00  0.00    -0.077 A 
ATOM      3  C2  UNL d   1      -1.057   0.308   0.311  0.00  0.00    -0.001 A 
ATOM      4  C3  UNL d   1      -1.244   1.292  -0.661  0.00  0.00     0.003 A 
ATOM      5  C4  UNL d   1      -0.143   1.881  -1.280  0.00  0.00    -0.005 A 
ATOM      6  C5  UNL d   1       1.146   1.487  -0.928  0.00  0.00     0.003 A 
ATOM      7  C6  UNL d   1       1.335   0.503   0.044  0.00  0.00    -0.001 A 
ENDROOT
TORSDOF 0
ENDMDL
