MODEL 1
REMARK minimizedAffinity -5.11419678
REMARK minimizedRMSD -1
REMARK  0 active torsions:
REMARK  status: ('A' for Active; 'I' for Inactive)
ROOT
ATOM      1  C   UNL d   1       1.540  -1.611  -1.013  0.00  0.00     0.078 C 
ATOM      2  C1  UNL d   1       0.591  -0.482  -0.742  0.00  0.00    -0.077 A 
ATOM      3  C2  UNL d   1      -0.725  -0.728  -0.332  0.00  0.00    -0.001 A 
ATOM      4  C3  UNL d   1      -1.600   0.333  -0.092  0.00  0.00     0.003 A 
ATOM      5  C4  UNL d   1      -1.169   1.647  -0.262  0.00  0.00    -0.005 A 
ATOM      6  C5  UNL d   1       0.138   1.902  -0.672  0.00  0.00     0.003 A 
ATOM      7  C6  UNL d   1       1.015   0.842  -0.912  0.00  0.00    -0.001 A 
ENDROOT
TORSDOF 0
ENDMDL
