MODEL 1
REMARK minimizedAffinity -4.10930538
REMARK minimizedRMSD -1
REMARK  0 active torsions:
REMARK  status: ('A' for Active; 'I' for Inactive)
ROOT
ATOM      1  C   UNL d   1      -2.221   2.354   0.893  0.00  0.00     0.078 C 
ATOM      2  C1  UNL d   1      -1.232   1.229   0.953  0.00  0.00    -0.077 A 
ATOM      3  C2  UNL d   1      -0.240   1.192   1.941  0.00  0.00    -0.001 A 
ATOM      4  C3  UNL d   1       0.680   0.143   1.979  0.00  0.00     0.003 A 
ATOM      5  C4  UNL d   1       0.619  -0.876   1.031  0.00  0.00    -0.005 A 
ATOM      6  C5  UNL d   1      -0.363  -0.847   0.043  0.00  0.00     0.003 A 
ATOM      7  C6  UNL d   1      -1.284   0.201   0.003  0.00  0.00    -0.001 A 
ENDROOT
TORSDOF 0
ENDMDL
