MODEL 1
REMARK minimizedAffinity -4.60598278
REMARK minimizedRMSD -1
REMARK  0 active torsions:
REMARK  status: ('A' for Active; 'I' for Inactive)
ROOT
ATOM      1  C   UNL d   1      -1.867   1.386   0.350  0.00  0.00     0.078 C 
ATOM      2  C1  UNL d   1      -0.564   0.960  -0.256  0.00  0.00    -0.077 A 
ATOM      3  C2  UNL d   1       0.124   1.793  -1.146  0.00  0.00    -0.001 A 
ATOM      4  C3  UNL d   1       1.332   1.380  -1.711  0.00  0.00     0.003 A 
ATOM      5  C4  UNL d   1       1.862   0.131  -1.393  0.00  0.00    -0.005 A 
ATOM      6  C5  UNL d   1       1.183  -0.707  -0.509  0.00  0.00     0.003 A 
ATOM      7  C6  UNL d   1      -0.025  -0.295   0.056  0.00  0.00    -0.001 A 
ENDROOT
TORSDOF 0
ENDMDL
