MODEL 1
REMARK minimizedAffinity -1.61942637
REMARK minimizedRMSD -1
REMARK  0 active torsions:
REMARK  status: ('A' for Active; 'I' for Inactive)
ROOT
ATOM      1  C   UNL d   1      -1.851   1.744  -0.698  0.00  0.00     0.078 C 
ATOM      2  C1  UNL d   1      -1.050   1.117   0.404  0.00  0.00    -0.077 A 
ATOM      3  C2  UNL d   1      -0.197   0.036   0.151  0.00  0.00    -0.001 A 
ATOM      4  C3  UNL d   1       0.534  -0.544   1.188  0.00  0.00     0.003 A 
ATOM      5  C4  UNL d   1       0.420  -0.051   2.486  0.00  0.00    -0.005 A 
ATOM      6  C5  UNL d   1      -0.428   1.023   2.748  0.00  0.00     0.003 A 
ATOM      7  C6  UNL d   1      -1.161   1.605   1.712  0.00  0.00    -0.001 A 
ENDROOT
TORSDOF 0
ENDMDL
