MODEL 1
REMARK minimizedAffinity -3.56035066
REMARK minimizedRMSD -1
REMARK  0 active torsions:
REMARK  status: ('A' for Active; 'I' for Inactive)
ROOT
ATOM      1  C   UNL d   1       1.005  -0.894  -0.480  0.00  0.00     0.078 C 
ATOM      2  C1  UNL d   1       0.113  -0.173   0.486  0.00  0.00    -0.077 A 
ATOM      3  C2  UNL d   1      -0.260   1.159   0.266  0.00  0.00    -0.001 A 
ATOM      4  C3  UNL d   1      -1.083   1.821   1.179  0.00  0.00     0.003 A 
ATOM      5  C4  UNL d   1      -1.537   1.161   2.319  0.00  0.00    -0.005 A 
ATOM      6  C5  UNL d   1      -1.168  -0.164   2.548  0.00  0.00     0.003 A 
ATOM      7  C6  UNL d   1      -0.346  -0.828   1.636  0.00  0.00    -0.001 A 
ENDROOT
TORSDOF 0
ENDMDL
