MODEL 1
REMARK minimizedAffinity -4.05544615
REMARK minimizedRMSD -1
REMARK  0 active torsions:
REMARK  status: ('A' for Active; 'I' for Inactive)
ROOT
ATOM      1  C   UNL d   1      -1.689   1.118   0.307  0.00  0.00     0.078 C 
ATOM      2  C1  UNL d   1      -0.361   0.775  -0.299  0.00  0.00    -0.077 A 
ATOM      3  C2  UNL d   1       0.236  -0.471  -0.071  0.00  0.00    -0.001 A 
ATOM      4  C3  UNL d   1       1.477  -0.772  -0.634  0.00  0.00     0.003 A 
ATOM      5  C4  UNL d   1       2.133   0.168  -1.427  0.00  0.00    -0.005 A 
ATOM      6  C5  UNL d   1       1.547   1.411  -1.657  0.00  0.00     0.003 A 
ATOM      7  C6  UNL d   1       0.306   1.714  -1.095  0.00  0.00    -0.001 A 
ENDROOT
TORSDOF 0
ENDMDL
