MODEL 1
REMARK minimizedAffinity -2.17630315
REMARK minimizedRMSD -1
REMARK  0 active torsions:
REMARK  status: ('A' for Active; 'I' for Inactive)
ROOT
ATOM      1  C   UNL d   1      -1.583   1.781   2.175  0.00  0.00     0.078 C 
ATOM      2  C1  UNL d   1      -0.794   1.142   1.071  0.00  0.00    -0.077 A 
ATOM      3  C2  UNL d   1      -0.516  -0.230   1.084  0.00  0.00    -0.001 A 
ATOM      4  C3  UNL d   1       0.228  -0.809   0.055  0.00  0.00     0.003 A 
ATOM      5  C4  UNL d   1       0.701  -0.024  -0.994  0.00  0.00    -0.005 A 
ATOM      6  C5  UNL d   1       0.430   1.343  -1.015  0.00  0.00     0.003 A 
ATOM      7  C6  UNL d   1      -0.313   1.924   0.014  0.00  0.00    -0.001 A 
ENDROOT
TORSDOF 0
ENDMDL
