MODEL 1
REMARK minimizedAffinity -5.61438799
REMARK minimizedRMSD -1
REMARK  0 active torsions:
REMARK  status: ('A' for Active; 'I' for Inactive)
ROOT
ATOM      1  C   UNL d   1       1.337  -0.410   0.022  0.00  0.00     0.078 C 
ATOM      2  C1  UNL d   1       0.149   0.424   0.400  0.00  0.00    -0.077 A 
ATOM      3  C2  UNL d   1      -0.455   1.282  -0.527  0.00  0.00    -0.001 A 
ATOM      4  C3  UNL d   1      -1.554   2.059  -0.158  0.00  0.00     0.003 A 
ATOM      5  C4  UNL d   1      -2.057   1.988   1.139  0.00  0.00    -0.005 A 
ATOM      6  C5  UNL d   1      -1.461   1.140   2.070  0.00  0.00     0.003 A 
ATOM      7  C6  UNL d   1      -0.362   0.361   1.702  0.00  0.00    -0.001 A 
ENDROOT
TORSDOF 0
ENDMDL
