MODEL 1
REMARK minimizedAffinity -2.94752192
REMARK minimizedRMSD -1
REMARK  0 active torsions:
REMARK  status: ('A' for Active; 'I' for Inactive)
ROOT
ATOM      1  C   UNL d   1       0.390  -1.402  -0.854  0.00  0.00     0.078 C 
ATOM      2  C1  UNL d   1      -0.117  -0.344   0.080  0.00  0.00    -0.077 A 
ATOM      3  C2  UNL d   1       0.103   1.014  -0.181  0.00  0.00    -0.001 A 
ATOM      4  C3  UNL d   1      -0.366   1.988   0.703  0.00  0.00     0.003 A 
ATOM      5  C4  UNL d   1      -1.057   1.614   1.853  0.00  0.00    -0.005 A 
ATOM      6  C5  UNL d   1      -1.279   0.265   2.122  0.00  0.00     0.003 A 
ATOM      7  C6  UNL d   1      -0.810  -0.710   1.240  0.00  0.00    -0.001 A 
ENDROOT
TORSDOF 0
ENDMDL
