MODEL 1
REMARK minimizedAffinity -3.28846765
REMARK minimizedRMSD -1
REMARK  0 active torsions:
REMARK  status: ('A' for Active; 'I' for Inactive)
ROOT
ATOM      1  C   UNL d   1      -1.696   1.784   1.832  0.00  0.00     0.078 C 
ATOM      2  C1  UNL d   1      -0.777   0.878   1.069  0.00  0.00    -0.077 A 
ATOM      3  C2  UNL d   1      -0.264  -0.287   1.653  0.00  0.00    -0.001 A 
ATOM      4  C3  UNL d   1       0.598  -1.116   0.934  0.00  0.00     0.003 A 
ATOM      5  C4  UNL d   1       0.957  -0.788  -0.372  0.00  0.00    -0.005 A 
ATOM      6  C5  UNL d   1       0.454   0.370  -0.961  0.00  0.00     0.003 A 
ATOM      7  C6  UNL d   1      -0.408   1.200  -0.244  0.00  0.00    -0.001 A 
ENDROOT
TORSDOF 0
ENDMDL
