MODEL 1
REMARK minimizedAffinity 5.88511086
REMARK minimizedRMSD -1
REMARK  0 active torsions:
REMARK  status: ('A' for Active; 'I' for Inactive)
ROOT
ATOM      1  C   UNL d   1      -1.543   4.370  -0.069  0.00  0.00     0.023 A 
ATOM      2  C1  UNL d   1      -1.524   3.227   0.730  0.00  0.00     0.003 A 
ATOM      3  C2  UNL d   1      -0.996   2.034   0.231  0.00  0.00     0.048 A 
ATOM      4  C3  UNL d   1      -0.488   1.992  -1.066  0.00  0.00     0.023 A 
ATOM      5  C4  UNL d   1      -0.503   3.134  -1.869  0.00  0.00     0.048 A 
ATOM      6  C5  UNL d   1      -1.033   4.324  -1.366  0.00  0.00     0.003 A 
ATOM      7  I   UNL d   1       0.298   0.218  -1.810  0.00  0.00    -0.146 I 
ENDROOT
TORSDOF 0
ENDMDL
