MODEL 1
REMARK minimizedAffinity 2.07079268
REMARK minimizedRMSD -1
REMARK  0 active torsions:
REMARK  status: ('A' for Active; 'I' for Inactive)
ROOT
ATOM      1  C   UNL d   1      -1.097   3.824   0.452  0.00  0.00     0.023 A 
ATOM      2  C1  UNL d   1      -1.164   3.974   1.837  0.00  0.00     0.003 A 
ATOM      3  C2  UNL d   1      -0.917   2.881   2.671  0.00  0.00     0.048 A 
ATOM      4  C3  UNL d   1      -0.604   1.642   2.113  0.00  0.00     0.023 A 
ATOM      5  C4  UNL d   1      -0.536   1.488   0.728  0.00  0.00     0.048 A 
ATOM      6  C5  UNL d   1      -0.784   2.583  -0.102  0.00  0.00     0.003 A 
ATOM      7  I   UNL d   1      -0.237   0.015   3.353  0.00  0.00    -0.146 I 
ENDROOT
TORSDOF 0
ENDMDL
