MODEL 1
REMARK minimizedAffinity 7.45129442
REMARK minimizedRMSD -1
REMARK  0 active torsions:
REMARK  status: ('A' for Active; 'I' for Inactive)
ROOT
ATOM      1  C   UNL d   1      -0.288   0.442   3.420  0.00  0.00     0.023 A 
ATOM      2  C1  UNL d   1       0.782   0.844   2.621  0.00  0.00     0.003 A 
ATOM      3  C2  UNL d   1       0.610   1.863   1.682  0.00  0.00     0.048 A 
ATOM      4  C3  UNL d   1      -0.635   2.477   1.548  0.00  0.00     0.023 A 
ATOM      5  C4  UNL d   1      -1.708   2.079   2.346  0.00  0.00     0.048 A 
ATOM      6  C5  UNL d   1      -1.532   1.059   3.283  0.00  0.00     0.003 A 
ATOM      7  I   UNL d   1      -0.893   3.995   0.151  0.00  0.00    -0.146 I 
ENDROOT
TORSDOF 0
ENDMDL
