MODEL 1
REMARK minimizedAffinity 3.59484911
REMARK minimizedRMSD -1
REMARK  0 active torsions:
REMARK  status: ('A' for Active; 'I' for Inactive)
ROOT
ATOM      1  C   UNL d   1       3.436  -5.183   0.376  0.00  0.00     0.023 A 
ATOM      2  C1  UNL d   1       2.996  -4.172  -0.478  0.00  0.00     0.003 A 
ATOM      3  C2  UNL d   1       3.624  -3.975  -1.710  0.00  0.00     0.048 A 
ATOM      4  C3  UNL d   1       4.690  -4.793  -2.081  0.00  0.00     0.023 A 
ATOM      5  C4  UNL d   1       5.133  -5.807  -1.230  0.00  0.00     0.048 A 
ATOM      6  C5  UNL d   1       4.503  -6.000   0.001  0.00  0.00     0.003 A 
ATOM      7  I   UNL d   1       5.626  -4.501  -3.914  0.00  0.00    -0.146 I 
ENDROOT
TORSDOF 0
ENDMDL
