MODEL 1
REMARK minimizedAffinity -3.78705335
REMARK minimizedRMSD -1
REMARK  0 active torsions:
REMARK  status: ('A' for Active; 'I' for Inactive)
ROOT
ATOM      1  C2' OXE d   1       0.937   1.402   1.600  0.00  0.00     0.078 C 
ATOM      2  C1' OXE d   1      -1.267   0.854  -0.050  0.00  0.00     0.078 C 
ATOM      3  C1  OXE d   1      -0.102  -0.104  -0.091  0.00  0.00    -0.078 A 
ATOM      4  C2  OXE d   1       0.992   0.197   0.685  0.00  0.00    -0.078 A 
ATOM      5  C3  OXE d   1       2.070  -0.681   0.726  0.00  0.00     0.003 A 
ATOM      6  C4  OXE d   1       2.117  -1.788  -0.131  0.00  0.00    -0.002 A 
ATOM      7  C5  OXE d   1       1.030  -2.091  -0.958  0.00  0.00    -0.002 A 
ATOM      8  C6  OXE d   1      -0.102  -1.285  -0.919  0.00  0.00     0.003 A 
ENDROOT
TORSDOF 0
ENDMDL
