MODEL 1
REMARK minimizedAffinity -6.32178879
REMARK minimizedRMSD -1
REMARK  0 active torsions:
REMARK  status: ('A' for Active; 'I' for Inactive)
ROOT
ATOM      1  C2' OXE d   1      -0.107  -1.668  -0.866  0.00  0.00     0.078 C 
ATOM      2  C1' OXE d   1      -0.419   1.055  -0.259  0.00  0.00     0.078 C 
ATOM      3  C1  OXE d   1       0.892   0.400   0.098  0.00  0.00    -0.078 A 
ATOM      4  C2  OXE d   1       1.019  -0.944  -0.160  0.00  0.00    -0.078 A 
ATOM      5  C3  OXE d   1       2.227  -1.584   0.100  0.00  0.00     0.003 A 
ATOM      6  C4  OXE d   1       3.259  -0.910   0.762  0.00  0.00    -0.002 A 
ATOM      7  C5  OXE d   1       3.136   0.449   1.070  0.00  0.00    -0.002 A 
ATOM      8  C6  OXE d   1       1.978   1.128   0.707  0.00  0.00     0.003 A 
ENDROOT
TORSDOF 0
ENDMDL
