MODEL 1
REMARK minimizedAffinity -2.86655569
REMARK minimizedRMSD -1
REMARK  0 active torsions:
REMARK  status: ('A' for Active; 'I' for Inactive)
ROOT
ATOM      1  C2' OXE d   1       0.918   0.642   0.379  0.00  0.00     0.078 C 
ATOM      2  C1' OXE d   1      -0.555  -1.222  -1.116  0.00  0.00     0.078 C 
ATOM      3  C1  OXE d   1      -1.321  -0.205  -0.309  0.00  0.00    -0.078 A 
ATOM      4  C2  OXE d   1      -0.593   0.674   0.456  0.00  0.00    -0.078 A 
ATOM      5  C3  OXE d   1      -1.249   1.668   1.177  0.00  0.00     0.003 A 
ATOM      6  C4  OXE d   1      -2.647   1.684   1.251  0.00  0.00    -0.002 A 
ATOM      7  C5  OXE d   1      -3.408   0.773   0.511  0.00  0.00    -0.002 A 
ATOM      8  C6  OXE d   1      -2.762  -0.149  -0.306  0.00  0.00     0.003 A 
ENDROOT
TORSDOF 0
ENDMDL
