MODEL 1
REMARK minimizedAffinity -3.99148297
REMARK minimizedRMSD -1
REMARK  0 active torsions:
REMARK  status: ('A' for Active; 'I' for Inactive)
ROOT
ATOM      1  C2' OXE d   1      -1.554   0.395  -0.014  0.00  0.00     0.078 C 
ATOM      2  C1' OXE d   1      -0.582  -1.726  -1.576  0.00  0.00     0.078 C 
ATOM      3  C1  OXE d   1       0.379  -1.051  -0.629  0.00  0.00    -0.078 A 
ATOM      4  C2  OXE d   1      -0.093   0.016   0.097  0.00  0.00    -0.078 A 
ATOM      5  C3  OXE d   1       0.737   0.640   1.024  0.00  0.00     0.003 A 
ATOM      6  C4  OXE d   1       2.089   0.290   1.114  0.00  0.00    -0.002 A 
ATOM      7  C5  OXE d   1       2.601  -0.768   0.354  0.00  0.00    -0.002 A 
ATOM      8  C6  OXE d   1       1.751  -1.475  -0.489  0.00  0.00     0.003 A 
ENDROOT
TORSDOF 0
ENDMDL
