MODEL 1
REMARK minimizedAffinity -1.59827352
REMARK minimizedRMSD -1
REMARK  0 active torsions:
REMARK  status: ('A' for Active; 'I' for Inactive)
ROOT
ATOM      1  C2' OXE d   1      -1.649   0.294   0.446  0.00  0.00     0.078 C 
ATOM      2  C1' OXE d   1      -0.614  -1.229  -1.673  0.00  0.00     0.078 C 
ATOM      3  C1  OXE d   1       0.323  -0.854  -0.552  0.00  0.00    -0.078 A 
ATOM      4  C2  OXE d   1      -0.180  -0.070   0.457  0.00  0.00    -0.078 A 
ATOM      5  C3  OXE d   1       0.627   0.259   1.542  0.00  0.00     0.003 A 
ATOM      6  C4  OXE d   1       1.987  -0.073   1.540  0.00  0.00    -0.002 A 
ATOM      7  C5  OXE d   1       2.530  -0.838   0.503  0.00  0.00    -0.002 A 
ATOM      8  C6  OXE d   1       1.703  -1.272  -0.528  0.00  0.00     0.003 A 
ENDROOT
TORSDOF 0
ENDMDL
