MODEL 1
REMARK minimizedAffinity -5.16952753
REMARK minimizedRMSD -1
REMARK  0 active torsions:
REMARK  status: ('A' for Active; 'I' for Inactive)
ROOT
ATOM      1  C2' OXE d   1      -1.426   0.409  -0.432  0.00  0.00     0.078 C 
ATOM      2  C1' OXE d   1       0.821   1.797   0.520  0.00  0.00     0.078 C 
ATOM      3  C1  OXE d   1       0.958   0.313   0.286  0.00  0.00    -0.078 A 
ATOM      4  C2  OXE d   1      -0.160  -0.366  -0.135  0.00  0.00    -0.078 A 
ATOM      5  C3  OXE d   1      -0.074  -1.726  -0.417  0.00  0.00     0.003 A 
ATOM      6  C4  OXE d   1       1.097  -2.437  -0.130  0.00  0.00    -0.002 A 
ATOM      7  C5  OXE d   1       2.236  -1.771   0.337  0.00  0.00    -0.002 A 
ATOM      8  C6  OXE d   1       2.195  -0.392   0.510  0.00  0.00     0.003 A 
ENDROOT
TORSDOF 0
ENDMDL
