MODEL 1
REMARK minimizedAffinity -2.66705775
REMARK minimizedRMSD -1
REMARK  0 active torsions:
REMARK  status: ('A' for Active; 'I' for Inactive)
ROOT
ATOM      1  C2' OXE d   1       0.015  -2.163  -0.608  0.00  0.00     0.078 C 
ATOM      2  C1' OXE d   1      -0.823   0.493  -0.256  0.00  0.00     0.078 C 
ATOM      3  C1  OXE d   1       0.660   0.217  -0.253  0.00  0.00    -0.078 A 
ATOM      4  C2  OXE d   1       1.060  -1.092  -0.379  0.00  0.00    -0.078 A 
ATOM      5  C3  OXE d   1       2.417  -1.395  -0.438  0.00  0.00     0.003 A 
ATOM      6  C4  OXE d   1       3.376  -0.400  -0.215  0.00  0.00    -0.002 A 
ATOM      7  C5  OXE d   1       2.989   0.934  -0.044  0.00  0.00    -0.002 A 
ATOM      8  C6  OXE d   1       1.640   1.264  -0.103  0.00  0.00     0.003 A 
ENDROOT
TORSDOF 0
ENDMDL
