MODEL 1
REMARK minimizedAffinity -4.14570808
REMARK minimizedRMSD -1
REMARK  0 active torsions:
REMARK  status: ('A' for Active; 'I' for Inactive)
ROOT
ATOM      1  C2' OXE d   1       3.305  -1.039   0.710  0.00  0.00     0.078 C 
ATOM      2  C1' OXE d   1       3.244   1.763   0.537  0.00  0.00     0.078 C 
ATOM      3  C1  OXE d   1       1.967   1.012   0.251  0.00  0.00    -0.078 A 
ATOM      4  C2  OXE d   1       2.018  -0.360   0.293  0.00  0.00    -0.078 A 
ATOM      5  C3  OXE d   1       0.855  -1.100   0.092  0.00  0.00     0.003 A 
ATOM      6  C4  OXE d   1      -0.329  -0.465  -0.303  0.00  0.00    -0.002 A 
ATOM      7  C5  OXE d   1      -0.392   0.930  -0.390  0.00  0.00    -0.002 A 
ATOM      8  C6  OXE d   1       0.733   1.684  -0.075  0.00  0.00     0.003 A 
ENDROOT
TORSDOF 0
ENDMDL
