MODEL 1
REMARK minimizedAffinity -6.17910004
REMARK minimizedRMSD -1
REMARK  0 active torsions:
REMARK  status: ('A' for Active; 'I' for Inactive)
ROOT
ATOM      1  C2' OXE d   1       0.808   2.456  -0.649  0.00  0.00     0.078 C 
ATOM      2  C1' OXE d   1       3.427   1.470  -0.868  0.00  0.00     0.078 C 
ATOM      3  C1  OXE d   1       2.308   0.469  -0.729  0.00  0.00    -0.078 A 
ATOM      4  C2  OXE d   1       1.034   0.961  -0.576  0.00  0.00    -0.078 A 
ATOM      5  C3  OXE d   1      -0.041   0.081  -0.499  0.00  0.00     0.003 A 
ATOM      6  C4  OXE d   1       0.178  -1.300  -0.422  0.00  0.00    -0.002 A 
ATOM      7  C5  OXE d   1       1.471  -1.821  -0.536  0.00  0.00    -0.002 A 
ATOM      8  C6  OXE d   1       2.540  -0.955  -0.733  0.00  0.00     0.003 A 
ENDROOT
TORSDOF 0
ENDMDL
