MODEL 1
REMARK minimizedAffinity -3.82738924
REMARK minimizedRMSD -1
REMARK  0 active torsions:
REMARK  status: ('A' for Active; 'I' for Inactive)
ROOT
ATOM      1  C2' OXE d   1       4.484  -1.254   0.397  0.00  0.00     0.078 C 
ATOM      2  C1' OXE d   1       3.929   1.383  -0.387  0.00  0.00     0.078 C 
ATOM      3  C1  OXE d   1       2.761   0.462  -0.143  0.00  0.00    -0.078 A 
ATOM      4  C2  OXE d   1       3.042  -0.840   0.195  0.00  0.00    -0.078 A 
ATOM      5  C3  OXE d   1       2.002  -1.718   0.485  0.00  0.00     0.003 A 
ATOM      6  C4  OXE d   1       0.671  -1.330   0.286  0.00  0.00    -0.002 A 
ATOM      7  C5  OXE d   1       0.363  -0.020  -0.096  0.00  0.00    -0.002 A 
ATOM      8  C6  OXE d   1       1.393   0.898  -0.273  0.00  0.00     0.003 A 
ENDROOT
TORSDOF 0
ENDMDL
