MODEL 1
REMARK minimizedAffinity -3.59374619
REMARK minimizedRMSD -1
REMARK  0 active torsions:
REMARK  status: ('A' for Active; 'I' for Inactive)
ROOT
ATOM      1  C1  BNZ d   1      -1.113  -0.241   1.168  0.00  0.00     0.000 A 
ATOM      2  C2  BNZ d   1      -0.845  -1.582   1.113  0.00  0.00     0.000 A 
ATOM      3  C3  BNZ d   1      -0.006  -2.091   0.161  0.00  0.00     0.000 A 
ATOM      4  C4  BNZ d   1       0.531  -1.264  -0.759  0.00  0.00     0.000 A 
ATOM      5  C5  BNZ d   1       0.263   0.090  -0.723  0.00  0.00     0.000 A 
ATOM      6  C6  BNZ d   1      -0.551   0.604   0.260  0.00  0.00     0.000 A 
ENDROOT
TORSDOF 0
ENDMDL
