MODEL 1
REMARK minimizedAffinity -5.17500782
REMARK minimizedRMSD -1
REMARK  0 active torsions:
REMARK  status: ('A' for Active; 'I' for Inactive)
ROOT
ATOM      1  C1  BNZ d   1       0.369  -1.936  -1.946  0.00  0.00     0.000 A 
ATOM      2  C2  BNZ d   1      -0.082  -3.226  -2.046  0.00  0.00     0.000 A 
ATOM      3  C3  BNZ d   1      -0.416  -3.939  -0.929  0.00  0.00     0.000 A 
ATOM      4  C4  BNZ d   1      -0.262  -3.377   0.287  0.00  0.00     0.000 A 
ATOM      5  C5  BNZ d   1       0.200  -2.081   0.405  0.00  0.00     0.000 A 
ATOM      6  C6  BNZ d   1       0.498  -1.353  -0.724  0.00  0.00     0.000 A 
ENDROOT
TORSDOF 0
ENDMDL
