MODEL 1
REMARK minimizedAffinity -3.63037395
REMARK minimizedRMSD -1
REMARK  0 active torsions:
REMARK  status: ('A' for Active; 'I' for Inactive)
ROOT
ATOM      1  C1  BNZ d   1      -0.367   1.039  -0.441  0.00  0.00     0.000 A 
ATOM      2  C2  BNZ d   1       0.120   0.022   0.337  0.00  0.00     0.000 A 
ATOM      3  C3  BNZ d   1       0.554  -1.145  -0.227  0.00  0.00     0.000 A 
ATOM      4  C4  BNZ d   1       0.462  -1.310  -1.563  0.00  0.00     0.000 A 
ATOM      5  C5  BNZ d   1      -0.036  -0.298  -2.359  0.00  0.00     0.000 A 
ATOM      6  C6  BNZ d   1      -0.434   0.891  -1.792  0.00  0.00     0.000 A 
ENDROOT
TORSDOF 0
ENDMDL
