MODEL 1
REMARK minimizedAffinity -3.01994276
REMARK minimizedRMSD -1
REMARK  0 active torsions:
REMARK  status: ('A' for Active; 'I' for Inactive)
ROOT
ATOM      1  C1  BNZ d   1      -0.822  -2.491   0.445  0.00  0.00     0.000 A 
ATOM      2  C2  BNZ d   1       0.022  -1.670  -0.254  0.00  0.00     0.000 A 
ATOM      3  C3  BNZ d   1       0.054  -0.326  -0.007  0.00  0.00     0.000 A 
ATOM      4  C4  BNZ d   1      -0.785   0.200   0.908  0.00  0.00     0.000 A 
ATOM      5  C5  BNZ d   1      -1.648  -0.614   1.615  0.00  0.00     0.000 A 
ATOM      6  C6  BNZ d   1      -1.650  -1.971   1.391  0.00  0.00     0.000 A 
ENDROOT
TORSDOF 0
ENDMDL
