MODEL 1
REMARK minimizedAffinity -4.11303663
REMARK minimizedRMSD -1
REMARK  0 active torsions:
REMARK  status: ('A' for Active; 'I' for Inactive)
ROOT
ATOM      1  C1  BNZ d   1      -0.992  -1.438   1.142  0.00  0.00     0.000 A 
ATOM      2  C2  BNZ d   1      -1.283  -0.100   1.174  0.00  0.00     0.000 A 
ATOM      3  C3  BNZ d   1      -0.853   0.734   0.181  0.00  0.00     0.000 A 
ATOM      4  C4  BNZ d   1      -0.099   0.238  -0.821  0.00  0.00     0.000 A 
ATOM      5  C5  BNZ d   1       0.211  -1.107  -0.863  0.00  0.00     0.000 A 
ATOM      6  C6  BNZ d   1      -0.257  -1.951   0.118  0.00  0.00     0.000 A 
ENDROOT
TORSDOF 0
ENDMDL
