MODEL 1
REMARK minimizedAffinity -3.76803541
REMARK minimizedRMSD -1
REMARK  0 active torsions:
REMARK  status: ('A' for Active; 'I' for Inactive)
ROOT
ATOM      1  C1  BNZ d   1       0.801  -1.039  -0.862  0.00  0.00     0.000 A 
ATOM      2  C2  BNZ d   1       0.384  -2.072  -0.065  0.00  0.00     0.000 A 
ATOM      3  C3  BNZ d   1      -0.393  -1.837   1.035  0.00  0.00     0.000 A 
ATOM      4  C4  BNZ d   1      -0.716  -0.568   1.360  0.00  0.00     0.000 A 
ATOM      5  C5  BNZ d   1      -0.295   0.484   0.572  0.00  0.00     0.000 A 
ATOM      6  C6  BNZ d   1       0.454   0.241  -0.557  0.00  0.00     0.000 A 
ENDROOT
TORSDOF 0
ENDMDL
