MODEL 1
REMARK minimizedAffinity -2.89031124
REMARK minimizedRMSD -1
REMARK  0 active torsions:
REMARK  status: ('A' for Active; 'I' for Inactive)
ROOT
ATOM      1  C1  BNZ d   1       0.748  -1.925  -0.437  0.00  0.00     0.000 A 
ATOM      2  C2  BNZ d   1       0.743  -0.563  -0.295  0.00  0.00     0.000 A 
ATOM      3  C3  BNZ d   1      -0.108   0.047   0.583  0.00  0.00     0.000 A 
ATOM      4  C4  BNZ d   1      -0.981  -0.702   1.288  0.00  0.00     0.000 A 
ATOM      5  C5  BNZ d   1      -0.995  -2.075   1.149  0.00  0.00     0.000 A 
ATOM      6  C6  BNZ d   1      -0.110  -2.689   0.293  0.00  0.00     0.000 A 
ENDROOT
TORSDOF 0
ENDMDL
