MODEL 1
REMARK minimizedAffinity -2.48412204
REMARK minimizedRMSD -1
REMARK  0 active torsions:
REMARK  status: ('A' for Active; 'I' for Inactive)
ROOT
ATOM      1  C1  BNZ d   1      -0.771  -0.222   1.280  0.00  0.00     0.000 A 
ATOM      2  C2  BNZ d   1      -0.439  -1.542   1.135  0.00  0.00     0.000 A 
ATOM      3  C3  BNZ d   1       0.452  -1.939   0.177  0.00  0.00     0.000 A 
ATOM      4  C4  BNZ d   1       0.977  -1.021  -0.660  0.00  0.00     0.000 A 
ATOM      5  C5  BNZ d   1       0.645   0.313  -0.533  0.00  0.00     0.000 A 
ATOM      6  C6  BNZ d   1      -0.222   0.714   0.458  0.00  0.00     0.000 A 
ENDROOT
TORSDOF 0
ENDMDL
