MODEL 1
REMARK minimizedAffinity -2.69227958
REMARK minimizedRMSD -1
REMARK  0 active torsions:
REMARK  status: ('A' for Active; 'I' for Inactive)
ROOT
ATOM      1  C1  BNZ d   1      -0.846  -1.358   0.991  0.00  0.00     0.000 A 
ATOM      2  C2  BNZ d   1      -0.170  -1.764  -0.129  0.00  0.00     0.000 A 
ATOM      3  C3  BNZ d   1       0.230  -0.858  -1.071  0.00  0.00     0.000 A 
ATOM      4  C4  BNZ d   1      -0.081   0.445  -0.913  0.00  0.00     0.000 A 
ATOM      5  C5  BNZ d   1      -0.770   0.868   0.206  0.00  0.00     0.000 A 
ATOM      6  C6  BNZ d   1      -1.137  -0.041   1.172  0.00  0.00     0.000 A 
ENDROOT
TORSDOF 0
ENDMDL
