MODEL 1
REMARK minimizedAffinity -3.81349158
REMARK minimizedRMSD -1
REMARK  0 active torsions:
REMARK  status: ('A' for Active; 'I' for Inactive)
ROOT
ATOM      1  C1  BNZ d   1       0.519  -3.413  -1.292  0.00  0.00     0.000 A 
ATOM      2  C2  BNZ d   1       0.699  -2.074  -1.514  0.00  0.00     0.000 A 
ATOM      3  C3  BNZ d   1       0.045  -1.144  -0.755  0.00  0.00     0.000 A 
ATOM      4  C4  BNZ d   1      -0.818  -1.555   0.197  0.00  0.00     0.000 A 
ATOM      5  C5  BNZ d   1      -1.018  -2.901   0.427  0.00  0.00     0.000 A 
ATOM      6  C6  BNZ d   1      -0.328  -3.834  -0.314  0.00  0.00     0.000 A 
ENDROOT
TORSDOF 0
ENDMDL
