MODEL 1
REMARK minimizedAffinity -4.52476025
REMARK minimizedRMSD -1
REMARK  0 active torsions:
REMARK  status: ('A' for Active; 'I' for Inactive)
ROOT
ATOM      1  C1  BNZ d   1      -1.213  -0.609   1.094  0.00  0.00     0.000 A 
ATOM      2  C2  BNZ d   1      -0.730   0.377   0.276  0.00  0.00     0.000 A 
ATOM      3  C3  BNZ d   1       0.143   0.083  -0.734  0.00  0.00     0.000 A 
ATOM      4  C4  BNZ d   1       0.562  -1.188  -0.899  0.00  0.00     0.000 A 
ATOM      5  C5  BNZ d   1       0.092  -2.192  -0.076  0.00  0.00     0.000 A 
ATOM      6  C6  BNZ d   1      -0.817  -1.898   0.915  0.00  0.00     0.000 A 
ENDROOT
TORSDOF 0
ENDMDL
