MODEL 1
REMARK minimizedAffinity -4.38267803
REMARK minimizedRMSD -1
REMARK  0 active torsions:
REMARK  status: ('A' for Active; 'I' for Inactive)
ROOT
ATOM      1  C1  BNZ d   1       0.437  -3.601   0.098  0.00  0.00     0.000 A 
ATOM      2  C2  BNZ d   1      -0.112  -2.977   1.186  0.00  0.00     0.000 A 
ATOM      3  C3  BNZ d   1      -0.512  -1.671   1.117  0.00  0.00     0.000 A 
ATOM      4  C4  BNZ d   1      -0.324  -0.980  -0.026  0.00  0.00     0.000 A 
ATOM      5  C5  BNZ d   1       0.238  -1.592  -1.129  0.00  0.00     0.000 A 
ATOM      6  C6  BNZ d   1       0.602  -2.918  -1.068  0.00  0.00     0.000 A 
ENDROOT
TORSDOF 0
ENDMDL
