MODEL 1
REMARK minimizedAffinity -3.75997734
REMARK minimizedRMSD -1
REMARK  0 active torsions:
REMARK  status: ('A' for Active; 'I' for Inactive)
ROOT
ATOM      1  C1  BNZ d   1      -0.700   0.342   0.763  0.00  0.00     0.000 A 
ATOM      2  C2  BNZ d   1      -0.552  -1.014   0.883  0.00  0.00     0.000 A 
ATOM      3  C3  BNZ d   1       0.070  -1.740  -0.094  0.00  0.00     0.000 A 
ATOM      4  C4  BNZ d   1       0.507  -1.116  -1.207  0.00  0.00     0.000 A 
ATOM      5  C5  BNZ d   1       0.357   0.249  -1.348  0.00  0.00     0.000 A 
ATOM      6  C6  BNZ d   1      -0.235   0.982  -0.345  0.00  0.00     0.000 A 
ENDROOT
TORSDOF 0
ENDMDL
