MODEL 1
REMARK minimizedAffinity -3.34260702
REMARK minimizedRMSD -1
REMARK  0 active torsions:
REMARK  status: ('A' for Active; 'I' for Inactive)
ROOT
ATOM      1  C1  BNZ d   1      -0.426   0.421  -0.103  0.00  0.00     0.000 A 
ATOM      2  C2  BNZ d   1      -0.276  -0.802   0.494  0.00  0.00     0.000 A 
ATOM      3  C3  BNZ d   1       0.174  -1.878  -0.218  0.00  0.00     0.000 A 
ATOM      4  C4  BNZ d   1       0.434  -1.741  -1.534  0.00  0.00     0.000 A 
ATOM      5  C5  BNZ d   1       0.279  -0.516  -2.153  0.00  0.00     0.000 A 
ATOM      6  C6  BNZ d   1      -0.136   0.574  -1.424  0.00  0.00     0.000 A 
ENDROOT
TORSDOF 0
ENDMDL
