MODEL 1
REMARK minimizedAffinity -3.79299808
REMARK minimizedRMSD -1
REMARK  0 active torsions:
REMARK  status: ('A' for Active; 'I' for Inactive)
ROOT
ATOM      1  C1  BNZ d   1      -0.571   0.255   0.402  0.00  0.00     0.000 A 
ATOM      2  C2  BNZ d   1      -1.015  -0.771   1.192  0.00  0.00     0.000 A 
ATOM      3  C3  BNZ d   1      -1.075  -2.049   0.712  0.00  0.00     0.000 A 
ATOM      4  C4  BNZ d   1      -0.731  -2.293  -0.569  0.00  0.00     0.000 A 
ATOM      5  C5  BNZ d   1      -0.291  -1.267  -1.382  0.00  0.00     0.000 A 
ATOM      6  C6  BNZ d   1      -0.194   0.012  -0.883  0.00  0.00     0.000 A 
ENDROOT
TORSDOF 0
ENDMDL
