MODEL 1
REMARK minimizedAffinity -3.49630523
REMARK minimizedRMSD -1
REMARK  0 active torsions:
REMARK  status: ('A' for Active; 'I' for Inactive)
ROOT
ATOM      1  C1  BNZ d   1      -1.150  -0.881   0.718  0.00  0.00     0.000 A 
ATOM      2  C2  BNZ d   1      -1.261  -2.246   0.731  0.00  0.00     0.000 A 
ATOM      3  C3  BNZ d   1      -0.282  -3.034   0.193  0.00  0.00     0.000 A 
ATOM      4  C4  BNZ d   1       0.787  -2.456  -0.392  0.00  0.00     0.000 A 
ATOM      5  C5  BNZ d   1       0.909  -1.081  -0.422  0.00  0.00     0.000 A 
ATOM      6  C6  BNZ d   1      -0.060  -0.292   0.155  0.00  0.00     0.000 A 
ENDROOT
TORSDOF 0
ENDMDL
