MODEL 1
REMARK minimizedAffinity -0.899781346
REMARK minimizedRMSD -1
REMARK  0 active torsions:
REMARK  status: ('A' for Active; 'I' for Inactive)
ROOT
ATOM      1  C   UNL d   1      -2.932   0.738   0.140  0.00  0.00     0.078 C 
ATOM      2  C1  UNL d   1      -1.512   0.302  -0.065  0.00  0.00    -0.077 A 
ATOM      3  C2  UNL d   1      -0.475   1.239  -0.156  0.00  0.00    -0.001 A 
ATOM      4  C3  UNL d   1       0.840   0.818  -0.357  0.00  0.00     0.003 A 
ATOM      5  C4  UNL d   1       1.131  -0.540  -0.471  0.00  0.00    -0.005 A 
ATOM      6  C5  UNL d   1       0.106  -1.479  -0.384  0.00  0.00     0.003 A 
ATOM      7  C6  UNL d   1      -1.210  -1.061  -0.183  0.00  0.00    -0.001 A 
ENDROOT
TORSDOF 0
ENDMDL
