MODEL 1
REMARK minimizedAffinity -4.22717619
REMARK minimizedRMSD -1
REMARK  0 active torsions:
REMARK  status: ('A' for Active; 'I' for Inactive)
ROOT
ATOM      1  C   UNL d   1       3.230  -0.874   0.900  0.00  0.00     0.078 C 
ATOM      2  C1  UNL d   1       2.029  -0.137   0.386  0.00  0.00    -0.077 A 
ATOM      3  C2  UNL d   1       2.007   1.262   0.337  0.00  0.00    -0.001 A 
ATOM      4  C3  UNL d   1       0.879   1.934  -0.135  0.00  0.00     0.003 A 
ATOM      5  C4  UNL d   1      -0.236   1.216  -0.562  0.00  0.00    -0.005 A 
ATOM      6  C5  UNL d   1      -0.225  -0.176  -0.515  0.00  0.00     0.003 A 
ATOM      7  C6  UNL d   1       0.903  -0.851  -0.043  0.00  0.00    -0.001 A 
ENDROOT
TORSDOF 0
ENDMDL
