MODEL 1
REMARK minimizedAffinity 0.0674916506
REMARK minimizedRMSD -1
REMARK  0 active torsions:
REMARK  status: ('A' for Active; 'I' for Inactive)
ROOT
ATOM      1  C   UNL d   1       1.149   2.029  -0.042  0.00  0.00     0.078 C 
ATOM      2  C1  UNL d   1       0.901   0.567  -0.260  0.00  0.00    -0.077 A 
ATOM      3  C2  UNL d   1       1.955  -0.309  -0.545  0.00  0.00    -0.001 A 
ATOM      4  C3  UNL d   1       1.708  -1.667  -0.755  0.00  0.00     0.003 A 
ATOM      5  C4  UNL d   1       0.407  -2.160  -0.685  0.00  0.00    -0.005 A 
ATOM      6  C5  UNL d   1      -0.649  -1.296  -0.404  0.00  0.00     0.003 A 
ATOM      7  C6  UNL d   1      -0.404   0.062  -0.193  0.00  0.00    -0.001 A 
ENDROOT
TORSDOF 0
ENDMDL
