MODEL 1
REMARK minimizedAffinity -5.37398958
REMARK minimizedRMSD -1
REMARK  0 active torsions:
REMARK  status: ('A' for Active; 'I' for Inactive)
ROOT
ATOM      1  C   UNL d   1      -0.828   0.574  -0.098  0.00  0.00     0.078 C 
ATOM      2  C1  UNL d   1       0.605   0.217   0.160  0.00  0.00    -0.077 A 
ATOM      3  C2  UNL d   1       0.995  -1.116   0.339  0.00  0.00    -0.001 A 
ATOM      4  C3  UNL d   1       2.331  -1.433   0.589  0.00  0.00     0.003 A 
ATOM      5  C4  UNL d   1       3.288  -0.423   0.663  0.00  0.00    -0.005 A 
ATOM      6  C5  UNL d   1       2.909   0.906   0.488  0.00  0.00     0.003 A 
ATOM      7  C6  UNL d   1       1.574   1.225   0.238  0.00  0.00    -0.001 A 
ENDROOT
TORSDOF 0
ENDMDL
