MODEL 1
REMARK minimizedAffinity 12.1420946
REMARK minimizedRMSD -1
REMARK  2 active torsions:
REMARK  status: ('A' for Active; 'I' for Inactive)
REMARK    1  A    between atoms: C2'_3  and  C1'_4 
REMARK    2  A    between atoms: C1'_4  and  C1_5 
ROOT
ATOM      1  C1  I4B d   1      -1.474   3.178  -1.885  0.00  0.00    -0.075 A 
ATOM      2  C2  I4B d   1      -1.258   4.532  -1.958  0.00  0.00     0.003 A 
ATOM      3  C3  I4B d   1      -2.152   5.358  -2.680  0.00  0.00     0.002 A 
ATOM      4  C4  I4B d   1      -3.213   4.787  -3.353  0.00  0.00    -0.004 A 
ATOM      5  C5  I4B d   1      -3.443   3.418  -3.259  0.00  0.00     0.002 A 
ATOM      6  C6  I4B d   1      -2.576   2.609  -2.511  0.00  0.00     0.003 A 
ENDROOT
BRANCH   1   7
ATOM      7  C1' I4B d   1      -0.491   2.331  -1.141  0.00  0.00     0.060 C 
BRANCH   7   8
ATOM      8  C2' I4B d   1      -0.267   2.960   0.219  0.00  0.00    -0.013 C 
ATOM      9  C4' I4B d   1      -0.524   1.972   1.326  0.00  0.00     0.013 C 
ATOM     10  C3' I4B d   1       1.142   3.472   0.266  0.00  0.00     0.013 C 
ENDBRANCH   7   8
ENDBRANCH   1   7
TORSDOF 2
ENDMDL
