MODEL 1
REMARK minimizedAffinity 6.01572895
REMARK minimizedRMSD -1
REMARK  2 active torsions:
REMARK  status: ('A' for Active; 'I' for Inactive)
REMARK    1  A    between atoms: C2'_3  and  C1'_4 
REMARK    2  A    between atoms: C1'_4  and  C1_5 
ROOT
ATOM      1  C1  I4B d   1      -4.108  -2.290   3.659  0.00  0.00    -0.075 A 
ATOM      2  C2  I4B d   1      -3.255  -2.759   4.627  0.00  0.00     0.003 A 
ATOM      3  C3  I4B d   1      -3.770  -3.348   5.807  0.00  0.00     0.002 A 
ATOM      4  C4  I4B d   1      -5.136  -3.400   6.000  0.00  0.00    -0.004 A 
ATOM      5  C5  I4B d   1      -5.999  -2.944   5.008  0.00  0.00     0.002 A 
ATOM      6  C6  I4B d   1      -5.483  -2.397   3.825  0.00  0.00     0.003 A 
ENDROOT
BRANCH   1   7
ATOM      7  C1' I4B d   1      -3.530  -1.644   2.440  0.00  0.00     0.060 C 
BRANCH   7   8
ATOM      8  C2' I4B d   1      -4.394  -0.450   2.089  0.00  0.00    -0.013 C 
ATOM      9  C4' I4B d   1      -4.282   0.629   3.133  0.00  0.00     0.013 C 
ATOM     10  C3' I4B d   1      -3.966   0.052   0.743  0.00  0.00     0.013 C 
ENDBRANCH   7   8
ENDBRANCH   1   7
TORSDOF 2
ENDMDL
