MODEL 1
REMARK minimizedAffinity 17.6488571
REMARK minimizedRMSD -1
REMARK  2 active torsions:
REMARK  status: ('A' for Active; 'I' for Inactive)
REMARK    1  A    between atoms: C2'_3  and  C1'_4 
REMARK    2  A    between atoms: C1'_4  and  C1_5 
ROOT
ATOM      1  C1  I4B d   1      -1.038   3.213  -2.124  0.00  0.00    -0.075 A 
ATOM      2  C2  I4B d   1      -1.135   4.561  -2.364  0.00  0.00     0.003 A 
ATOM      3  C3  I4B d   1      -2.304   5.097  -2.956  0.00  0.00     0.002 A 
ATOM      4  C4  I4B d   1      -3.323   4.248  -3.337  0.00  0.00    -0.004 A 
ATOM      5  C5  I4B d   1      -3.232   2.884  -3.072  0.00  0.00     0.002 A 
ATOM      6  C6  I4B d   1      -2.088   2.365  -2.450  0.00  0.00     0.003 A 
ENDROOT
BRANCH   1   7
ATOM      7  C1' I4B d   1       0.225   2.677  -1.527  0.00  0.00     0.060 C 
BRANCH   7   8
ATOM      8  C2' I4B d   1       0.222   3.013  -0.049  0.00  0.00    -0.013 C 
ATOM      9  C4' I4B d   1      -0.566   1.999   0.739  0.00  0.00     0.013 C 
ATOM     10  C3' I4B d   1       1.646   3.071   0.415  0.00  0.00     0.013 C 
ENDBRANCH   7   8
ENDBRANCH   1   7
TORSDOF 2
ENDMDL
