MODEL 1
REMARK minimizedAffinity 11.8620825
REMARK minimizedRMSD -1
REMARK  2 active torsions:
REMARK  status: ('A' for Active; 'I' for Inactive)
REMARK    1  A    between atoms: C2'_3  and  C1'_4 
REMARK    2  A    between atoms: C1'_4  and  C1_5 
ROOT
ATOM      1  C1  I4B d   1       0.432   3.090  -0.331  0.00  0.00    -0.075 A 
ATOM      2  C2  I4B d   1       1.725   3.346   0.052  0.00  0.00     0.003 A 
ATOM      3  C3  I4B d   1       2.192   2.915   1.318  0.00  0.00     0.002 A 
ATOM      4  C4  I4B d   1       1.324   2.280   2.183  0.00  0.00    -0.004 A 
ATOM      5  C5  I4B d   1       0.020   2.001   1.784  0.00  0.00     0.002 A 
ATOM      6  C6  I4B d   1      -0.426   2.397   0.514  0.00  0.00     0.003 A 
ENDROOT
BRANCH   1   7
ATOM      7  C1' I4B d   1      -0.038   3.588  -1.660  0.00  0.00     0.060 C 
BRANCH   7   8
ATOM      8  C2' I4B d   1      -1.301   4.396  -1.437  0.00  0.00    -0.013 C 
ATOM      9  C4' I4B d   1      -0.997   5.704  -0.755  0.00  0.00     0.013 C 
ATOM     10  C3' I4B d   1      -1.951   4.617  -2.770  0.00  0.00     0.013 C 
ENDBRANCH   7   8
ENDBRANCH   1   7
TORSDOF 2
ENDMDL
