MODEL 1
REMARK minimizedAffinity 10.6988897
REMARK minimizedRMSD -1
REMARK  2 active torsions:
REMARK  status: ('A' for Active; 'I' for Inactive)
REMARK    1  A    between atoms: C2'_3  and  C1'_4 
REMARK    2  A    between atoms: C1'_4  and  C1_5 
ROOT
ATOM      1  C1  I4B d   1      -2.081  -3.986  -5.965  0.00  0.00    -0.075 A 
ATOM      2  C2  I4B d   1      -2.161  -5.356  -5.964  0.00  0.00     0.003 A 
ATOM      3  C3  I4B d   1      -3.423  -5.997  -5.988  0.00  0.00     0.002 A 
ATOM      4  C4  I4B d   1      -4.573  -5.234  -5.960  0.00  0.00    -0.004 A 
ATOM      5  C5  I4B d   1      -4.490  -3.845  -5.983  0.00  0.00     0.002 A 
ATOM      6  C6  I4B d   1      -3.236  -3.216  -5.998  0.00  0.00     0.003 A 
ENDROOT
BRANCH   1   7
ATOM      7  C1' I4B d   1      -0.731  -3.343  -5.907  0.00  0.00     0.060 C 
BRANCH   7   8
ATOM      8  C2' I4B d   1       0.275  -4.405  -5.514  0.00  0.00    -0.013 C 
ATOM      9  C4' I4B d   1       1.683  -3.958  -5.810  0.00  0.00     0.013 C 
ATOM     10  C3' I4B d   1       0.096  -4.695  -4.053  0.00  0.00     0.013 C 
ENDBRANCH   7   8
ENDBRANCH   1   7
TORSDOF 2
ENDMDL
