MODEL 1
REMARK minimizedAffinity 2.46870732
REMARK minimizedRMSD -1
REMARK  2 active torsions:
REMARK  status: ('A' for Active; 'I' for Inactive)
REMARK    1  A    between atoms: C2'_3  and  C1'_4 
REMARK    2  A    between atoms: C1'_4  and  C1_5 
ROOT
ATOM      1  C1  I4B d   1      -5.815  -2.351   3.347  0.00  0.00    -0.075 A 
ATOM      2  C2  I4B d   1      -5.843  -3.692   3.639  0.00  0.00     0.003 A 
ATOM      3  C3  I4B d   1      -5.963  -4.126   4.981  0.00  0.00     0.002 A 
ATOM      4  C4  I4B d   1      -5.999  -3.193   5.997  0.00  0.00    -0.004 A 
ATOM      5  C5  I4B d   1      -5.993  -1.834   5.697  0.00  0.00     0.002 A 
ATOM      6  C6  I4B d   1      -5.913  -1.409   4.363  0.00  0.00     0.003 A 
ENDROOT
BRANCH   1   7
ATOM      7  C1' I4B d   1      -5.655  -1.927   1.921  0.00  0.00     0.060 C 
BRANCH   7   8
ATOM      8  C2' I4B d   1      -5.574  -0.415   1.890  0.00  0.00    -0.013 C 
ATOM      9  C4' I4B d   1      -4.606   0.101   2.922  0.00  0.00     0.013 C 
ATOM     10  C3' I4B d   1      -5.163  -0.001   0.508  0.00  0.00     0.013 C 
ENDBRANCH   7   8
ENDBRANCH   1   7
TORSDOF 2
ENDMDL
