MODEL 1
REMARK minimizedAffinity 11.3800182
REMARK minimizedRMSD -1
REMARK  2 active torsions:
REMARK  status: ('A' for Active; 'I' for Inactive)
REMARK    1  A    between atoms: C2'_3  and  C1'_4 
REMARK    2  A    between atoms: C1'_4  and  C1_5 
ROOT
ATOM      1  C1  I4B d   1      -0.332   3.610  -0.944  0.00  0.00    -0.075 A 
ATOM      2  C2  I4B d   1      -0.317   3.711  -2.312  0.00  0.00     0.003 A 
ATOM      3  C3  I4B d   1      -0.668   4.930  -2.942  0.00  0.00     0.002 A 
ATOM      4  C4  I4B d   1      -1.074   6.000  -2.171  0.00  0.00    -0.004 A 
ATOM      5  C5  I4B d   1      -1.067   5.903  -0.782  0.00  0.00     0.002 A 
ATOM      6  C6  I4B d   1      -0.682   4.705  -0.164  0.00  0.00     0.003 A 
ENDROOT
BRANCH   1   7
ATOM      7  C1' I4B d   1       0.013   2.298  -0.313  0.00  0.00     0.060 C 
BRANCH   7   8
ATOM      8  C2' I4B d   1      -0.191   2.431   1.182  0.00  0.00    -0.013 C 
ATOM      9  C4' I4B d   1      -1.482   1.787   1.616  0.00  0.00     0.013 C 
ATOM     10  C3' I4B d   1       0.985   1.801   1.867  0.00  0.00     0.013 C 
ENDBRANCH   7   8
ENDBRANCH   1   7
TORSDOF 2
ENDMDL
