MODEL 1
REMARK minimizedAffinity -4.79013872
REMARK minimizedRMSD -1
REMARK  2 active torsions:
REMARK  status: ('A' for Active; 'I' for Inactive)
REMARK    1  A    between atoms: C1_2  and  C2_3 
REMARK    2  A    between atoms: C2_3  and  C3_4 
ROOT
ATOM      1  C3  UNL d   1      -0.503   0.510  -0.989  0.00  0.00    -0.075 A 
ATOM      2  C4  UNL d   1      -1.112   0.412   0.271  0.00  0.00     0.002 A 
ATOM      3  C5  UNL d   1      -0.448  -0.201   1.333  0.00  0.00     0.002 A 
ATOM      4  C6  UNL d   1       0.826  -0.733   1.148  0.00  0.00    -0.004 A 
ATOM      5  C7  UNL d   1       1.434  -0.657  -0.103  0.00  0.00     0.002 A 
ATOM      6  C8  UNL d   1       0.773  -0.040  -1.167  0.00  0.00     0.002 A 
ENDROOT
BRANCH   1   7
ATOM      7  C2  UNL d   1      -1.205   1.199  -2.135  0.00  0.00     0.056 C 
BRANCH   7   8
ATOM      8  C1  UNL d   1      -0.493   2.461  -2.633  0.00  0.00     0.007 C 
ATOM      9  C   UNL d   1      -1.230   3.746  -2.276  0.00  0.00     0.009 C 
ENDBRANCH   7   8
ENDBRANCH   1   7
TORSDOF 2
ENDMDL
