MODEL 1
REMARK minimizedAffinity -3.43057895
REMARK minimizedRMSD -1
REMARK  2 active torsions:
REMARK  status: ('A' for Active; 'I' for Inactive)
REMARK    1  A    between atoms: C1_2  and  C2_3 
REMARK    2  A    between atoms: C2_3  and  C3_4 
ROOT
ATOM      1  C3  UNL d   1       0.102   0.077   0.675  0.00  0.00    -0.075 A 
ATOM      2  C4  UNL d   1      -0.321  -0.614   1.820  0.00  0.00     0.002 A 
ATOM      3  C5  UNL d   1       0.607  -1.234   2.657  0.00  0.00     0.002 A 
ATOM      4  C6  UNL d   1       1.966  -1.180   2.355  0.00  0.00    -0.004 A 
ATOM      5  C7  UNL d   1       2.396  -0.511   1.211  0.00  0.00     0.002 A 
ATOM      6  C8  UNL d   1       1.470   0.114   0.375  0.00  0.00     0.002 A 
ENDROOT
BRANCH   1   7
ATOM      7  C2  UNL d   1      -0.895   0.776  -0.218  0.00  0.00     0.056 C 
BRANCH   7   8
ATOM      8  C1  UNL d   1      -0.494   0.807  -1.697  0.00  0.00     0.007 C 
ATOM      9  C   UNL d   1      -0.521   2.206  -2.297  0.00  0.00     0.009 C 
ENDBRANCH   7   8
ENDBRANCH   1   7
TORSDOF 2
ENDMDL
