MODEL 1
REMARK minimizedAffinity -3.95603871
REMARK minimizedRMSD -1
REMARK  2 active torsions:
REMARK  status: ('A' for Active; 'I' for Inactive)
REMARK    1  A    between atoms: C1_2  and  C2_3 
REMARK    2  A    between atoms: C2_3  and  C3_4 
ROOT
ATOM      1  C3  UNL d   1       0.364   1.022  -0.558  0.00  0.00    -0.075 A 
ATOM      2  C4  UNL d   1       1.437   0.403   0.100  0.00  0.00     0.002 A 
ATOM      3  C5  UNL d   1       1.225  -0.724   0.895  0.00  0.00     0.002 A 
ATOM      4  C6  UNL d   1      -0.060  -1.238   1.051  0.00  0.00    -0.004 A 
ATOM      5  C7  UNL d   1      -1.135  -0.622   0.416  0.00  0.00     0.002 A 
ATOM      6  C8  UNL d   1      -0.926   0.503  -0.385  0.00  0.00     0.002 A 
ENDROOT
BRANCH   1   7
ATOM      7  C2  UNL d   1       0.591   2.223  -1.444  0.00  0.00     0.056 C 
BRANCH   7   8
ATOM      8  C1  UNL d   1      -0.622   2.605  -2.300  0.00  0.00     0.007 C 
ATOM      9  C   UNL d   1      -1.228   3.948  -1.918  0.00  0.00     0.009 C 
ENDBRANCH   7   8
ENDBRANCH   1   7
TORSDOF 2
ENDMDL
