MODEL 1
REMARK minimizedAffinity -5.28501129
REMARK minimizedRMSD -1
REMARK  2 active torsions:
REMARK  status: ('A' for Active; 'I' for Inactive)
REMARK    1  A    between atoms: C1_2  and  C2_3 
REMARK    2  A    between atoms: C2_3  and  C3_4 
ROOT
ATOM      1  C3  UNL d   1       0.161  -0.448   0.404  0.00  0.00    -0.075 A 
ATOM      2  C4  UNL d   1       0.010  -0.714   1.773  0.00  0.00     0.002 A 
ATOM      3  C5  UNL d   1       1.023  -1.357   2.485  0.00  0.00     0.002 A 
ATOM      4  C6  UNL d   1       2.192  -1.751   1.838  0.00  0.00    -0.004 A 
ATOM      5  C7  UNL d   1       2.346  -1.507   0.475  0.00  0.00     0.002 A 
ATOM      6  C8  UNL d   1       1.336  -0.860  -0.239  0.00  0.00     0.002 A 
ENDROOT
BRANCH   1   7
ATOM      7  C2  UNL d   1      -0.918   0.274  -0.366  0.00  0.00     0.056 C 
BRANCH   7   8
ATOM      8  C1  UNL d   1      -0.398   1.081  -1.561  0.00  0.00     0.007 C 
ATOM      9  C   UNL d   1      -1.509   1.727  -2.378  0.00  0.00     0.009 C 
ENDBRANCH   7   8
ENDBRANCH   1   7
TORSDOF 2
ENDMDL
