MODEL 1
REMARK minimizedAffinity -0.939370275
REMARK minimizedRMSD -1
REMARK  2 active torsions:
REMARK  status: ('A' for Active; 'I' for Inactive)
REMARK    1  A    between atoms: C1_2  and  C2_3 
REMARK    2  A    between atoms: C2_3  and  C3_4 
ROOT
ATOM      1  C3  UNL d   1       0.150  -0.060  -0.074  0.00  0.00    -0.075 A 
ATOM      2  C4  UNL d   1       1.467   0.031   0.399  0.00  0.00     0.002 A 
ATOM      3  C5  UNL d   1       1.811  -0.500   1.642  0.00  0.00     0.002 A 
ATOM      4  C6  UNL d   1       0.843  -1.118   2.432  0.00  0.00    -0.004 A 
ATOM      5  C7  UNL d   1      -0.472  -1.198   1.979  0.00  0.00     0.002 A 
ATOM      6  C8  UNL d   1      -0.818  -0.672   0.733  0.00  0.00     0.002 A 
ENDROOT
BRANCH   1   7
ATOM      7  C2  UNL d   1      -0.222   0.487  -1.432  0.00  0.00     0.056 C 
BRANCH   7   8
ATOM      8  C1  UNL d   1      -1.480   1.362  -1.428  0.00  0.00     0.007 C 
ATOM      9  C   UNL d   1      -1.442   2.472  -2.470  0.00  0.00     0.009 C 
ENDBRANCH   7   8
ENDBRANCH   1   7
TORSDOF 2
ENDMDL
