MODEL 1
REMARK minimizedAffinity -2.14542055
REMARK minimizedRMSD -1
REMARK  1 active torsions:
REMARK  status: ('A' for Active; 'I' for Inactive)
REMARK    1  A    between atoms: C1_2  and  C2_3 
ROOT
ATOM      1  C2  UNL d   1      -0.870   0.044   0.618  0.00  0.00    -0.073 A 
ATOM      2  C3  UNL d   1      -0.915  -1.327   0.897  0.00  0.00    -0.002 A 
ATOM      3  C4  UNL d   1      -0.282  -2.239   0.052  0.00  0.00     0.004 A 
ATOM      4  C5  UNL d   1       0.406  -1.792  -1.075  0.00  0.00    -0.004 A 
ATOM      5  C6  UNL d   1       0.472  -0.425  -1.365  0.00  0.00    -0.075 A 
ATOM      6  C7  UNL d   1       1.206   0.072  -2.575  0.00  0.00     0.076 C 
ATOM      7  C8  UNL d   1      -0.168   0.485  -0.513  0.00  0.00     0.001 A 
ENDROOT
BRANCH   1   8
ATOM      8  C1  UNL d   1      -1.546   1.034   1.531  0.00  0.00     0.053 C 
ATOM      9  C   UNL d   1      -3.026   0.731   1.704  0.00  0.00     0.018 C 
ENDBRANCH   1   8
TORSDOF 1
ENDMDL
