MODEL 1
REMARK minimizedAffinity -3.96634364
REMARK minimizedRMSD -1
REMARK  1 active torsions:
REMARK  status: ('A' for Active; 'I' for Inactive)
REMARK    1  A    between atoms: C1_2  and  C2_3 
ROOT
ATOM      1  C2  UNL d   1      -1.224   0.105   1.577  0.00  0.00    -0.073 A 
ATOM      2  C3  UNL d   1      -2.199  -0.856   1.286  0.00  0.00    -0.002 A 
ATOM      3  C4  UNL d   1      -3.491  -0.725   1.795  0.00  0.00     0.004 A 
ATOM      4  C5  UNL d   1      -3.825   0.370   2.592  0.00  0.00    -0.004 A 
ATOM      5  C6  UNL d   1      -2.868   1.348   2.884  0.00  0.00    -0.075 A 
ATOM      6  C7  UNL d   1      -3.209   2.530   3.741  0.00  0.00     0.076 C 
ATOM      7  C8  UNL d   1      -1.571   1.208   2.371  0.00  0.00     0.001 A 
ENDROOT
BRANCH   1   8
ATOM      8  C1  UNL d   1       0.171  -0.028   1.024  0.00  0.00     0.053 C 
ATOM      9  C   UNL d   1       0.654   1.260   0.375  0.00  0.00     0.018 C 
ENDBRANCH   1   8
TORSDOF 1
ENDMDL
