MODEL 1
REMARK minimizedAffinity -0.656800807
REMARK minimizedRMSD -1
REMARK  1 active torsions:
REMARK  status: ('A' for Active; 'I' for Inactive)
REMARK    1  A    between atoms: C1_2  and  C2_3 
ROOT
ATOM      1  C2  UNL d   1       2.204  -0.690  -1.540  0.00  0.00    -0.073 A 
ATOM      2  C3  UNL d   1       2.517   0.615  -1.934  0.00  0.00    -0.002 A 
ATOM      3  C4  UNL d   1       1.801   1.698  -1.420  0.00  0.00     0.004 A 
ATOM      4  C5  UNL d   1       0.771   1.486  -0.503  0.00  0.00    -0.004 A 
ATOM      5  C6  UNL d   1       0.451   0.190  -0.089  0.00  0.00    -0.075 A 
ATOM      6  C7  UNL d   1      -0.656  -0.055   0.895  0.00  0.00     0.076 C 
ATOM      7  C8  UNL d   1       1.173  -0.892  -0.612  0.00  0.00     0.001 A 
ENDROOT
BRANCH   1   8
ATOM      8  C1  UNL d   1       2.978  -1.862  -2.088  0.00  0.00     0.053 C 
ATOM      9  C   UNL d   1       2.455  -3.188  -1.559  0.00  0.00     0.018 C 
ENDBRANCH   1   8
TORSDOF 1
ENDMDL
