MODEL 1
REMARK minimizedAffinity -4.2016201
REMARK minimizedRMSD -1
REMARK  1 active torsions:
REMARK  status: ('A' for Active; 'I' for Inactive)
REMARK    1  A    between atoms: C1_2  and  C2_3 
ROOT
ATOM      1  C2  UNL d   1      -1.805  -0.384   1.377  0.00  0.00    -0.073 A 
ATOM      2  C3  UNL d   1      -0.939   0.374   2.172  0.00  0.00    -0.002 A 
ATOM      3  C4  UNL d   1       0.332   0.712   1.706  0.00  0.00     0.004 A 
ATOM      4  C5  UNL d   1       0.747   0.302   0.439  0.00  0.00    -0.004 A 
ATOM      5  C6  UNL d   1      -0.109  -0.446  -0.376  0.00  0.00    -0.075 A 
ATOM      6  C7  UNL d   1       0.323  -0.897  -1.740  0.00  0.00     0.076 C 
ATOM      7  C8  UNL d   1      -1.383  -0.784   0.101  0.00  0.00     0.001 A 
ENDROOT
BRANCH   1   8
ATOM      8  C1  UNL d   1      -3.181  -0.746   1.874  0.00  0.00     0.053 C 
ATOM      9  C   UNL d   1      -4.182   0.375   1.647  0.00  0.00     0.018 C 
ENDBRANCH   1   8
TORSDOF 1
ENDMDL
