MODEL 1
REMARK minimizedAffinity -3.46519542
REMARK minimizedRMSD -1
REMARK  1 active torsions:
REMARK  status: ('A' for Active; 'I' for Inactive)
REMARK    1  A    between atoms: C1_2  and  C2_3 
ROOT
ATOM      1  C2  UNL d   1      -5.015   2.225  -5.670  0.00  0.00    -0.073 A 
ATOM      2  C3  UNL d   1      -3.624   2.119  -5.554  0.00  0.00    -0.002 A 
ATOM      3  C4  UNL d   1      -2.825   3.263  -5.585  0.00  0.00     0.004 A 
ATOM      4  C5  UNL d   1      -3.408   4.522  -5.726  0.00  0.00    -0.004 A 
ATOM      5  C6  UNL d   1      -4.796   4.649  -5.831  0.00  0.00    -0.075 A 
ATOM      6  C7  UNL d   1      -5.438   5.997  -5.985  0.00  0.00     0.076 C 
ATOM      7  C8  UNL d   1      -5.592   3.496  -5.802  0.00  0.00     0.001 A 
ENDROOT
BRANCH   1   8
ATOM      8  C1  UNL d   1      -5.882   0.993  -5.630  0.00  0.00     0.053 C 
ATOM      9  C   UNL d   1      -5.067  -0.272  -5.411  0.00  0.00     0.018 C 
ENDBRANCH   1   8
TORSDOF 1
ENDMDL
