MODEL 1
REMARK minimizedAffinity -2.41595197
REMARK minimizedRMSD -1
REMARK  1 active torsions:
REMARK  status: ('A' for Active; 'I' for Inactive)
REMARK    1  A    between atoms: C1_2  and  C2_3 
ROOT
ATOM      1  C2  UNL d   1       0.654  -0.750  -1.450  0.00  0.00    -0.073 A 
ATOM      2  C3  UNL d   1      -0.031  -1.569  -0.545  0.00  0.00    -0.002 A 
ATOM      3  C4  UNL d   1      -0.418  -1.073   0.700  0.00  0.00     0.004 A 
ATOM      4  C5  UNL d   1      -0.132   0.246   1.051  0.00  0.00    -0.004 A 
ATOM      5  C6  UNL d   1       0.542   1.083   0.156  0.00  0.00    -0.075 A 
ATOM      6  C7  UNL d   1       0.860   2.504   0.520  0.00  0.00     0.076 C 
ATOM      7  C8  UNL d   1       0.930   0.578  -1.092  0.00  0.00     0.001 A 
ENDROOT
BRANCH   1   8
ATOM      8  C1  UNL d   1       1.069  -1.278  -2.799  0.00  0.00     0.053 C 
ATOM      9  C   UNL d   1       2.342  -0.617  -3.303  0.00  0.00     0.018 C 
ENDBRANCH   1   8
TORSDOF 1
ENDMDL
