MODEL 1
REMARK minimizedAffinity -4.55439043
REMARK minimizedRMSD -1
REMARK  1 active torsions:
REMARK  status: ('A' for Active; 'I' for Inactive)
REMARK    1  A    between atoms: C1_2  and  C2_3 
ROOT
ATOM      1  C2  UNL d   1       0.962  -0.043  -1.124  0.00  0.00    -0.073 A 
ATOM      2  C3  UNL d   1       0.663  -1.407  -1.221  0.00  0.00    -0.002 A 
ATOM      3  C4  UNL d   1      -0.115  -2.029  -0.243  0.00  0.00     0.004 A 
ATOM      4  C5  UNL d   1      -0.607  -1.294   0.835  0.00  0.00    -0.004 A 
ATOM      5  C6  UNL d   1      -0.330   0.073   0.943  0.00  0.00    -0.075 A 
ATOM      6  C7  UNL d   1      -0.850   0.877   2.097  0.00  0.00     0.076 C 
ATOM      7  C8  UNL d   1       0.454   0.690  -0.041  0.00  0.00     0.001 A 
ENDROOT
BRANCH   1   8
ATOM      8  C1  UNL d   1       1.796   0.635  -2.180  0.00  0.00     0.053 C 
ATOM      9  C   UNL d   1       1.896  -0.197  -3.449  0.00  0.00     0.018 C 
ENDBRANCH   1   8
TORSDOF 1
ENDMDL
