MODEL 1
REMARK minimizedAffinity -2.01720953
REMARK minimizedRMSD -1
REMARK  1 active torsions:
REMARK  status: ('A' for Active; 'I' for Inactive)
REMARK    1  A    between atoms: C1_2  and  C2_3 
ROOT
ATOM      1  C2  UNL d   1      -1.445   0.139   1.222  0.00  0.00    -0.073 A 
ATOM      2  C3  UNL d   1      -0.729   1.285   1.586  0.00  0.00    -0.002 A 
ATOM      3  C4  UNL d   1       0.433   1.638   0.898  0.00  0.00     0.004 A 
ATOM      4  C5  UNL d   1       0.886   0.854  -0.163  0.00  0.00    -0.004 A 
ATOM      5  C6  UNL d   1       0.178  -0.288  -0.549  0.00  0.00    -0.075 A 
ATOM      6  C7  UNL d   1       0.653  -1.143  -1.687  0.00  0.00     0.076 C 
ATOM      7  C8  UNL d   1      -0.987  -0.638   0.148  0.00  0.00     0.001 A 
ENDROOT
BRANCH   1   8
ATOM      8  C1  UNL d   1      -2.704  -0.243   1.957  0.00  0.00     0.053 C 
ATOM      9  C   UNL d   1      -3.703   0.901   2.009  0.00  0.00     0.018 C 
ENDBRANCH   1   8
TORSDOF 1
ENDMDL
