MODEL 1
REMARK minimizedAffinity 1.77242815
REMARK minimizedRMSD -1
REMARK  0 active torsions:
REMARK  status: ('A' for Active; 'I' for Inactive)
ROOT
ATOM      1  N1  IND d   1      -5.334   3.755  -5.973  0.00  0.00    -0.196 N 
ATOM      2  C2  IND d   1      -5.955   4.972  -5.940  0.00  0.00     0.054 A 
ATOM      3  C3  IND d   1      -5.040   5.967  -5.906  0.00  0.00    -0.031 A 
ATOM      4  C4  IND d   1      -2.471   5.830  -5.999  0.00  0.00     0.051 A 
ATOM      5  C5  IND d   1      -1.440   4.934  -5.998  0.00  0.00    -0.031 A 
ATOM      6  C6  IND d   1      -1.658   3.571  -5.992  0.00  0.00     0.015 A 
ATOM      7  C7  IND d   1      -2.921   3.052  -5.997  0.00  0.00    -0.016 A 
ATOM      8  C8  IND d   1      -3.971   3.959  -5.991  0.00  0.00    -0.047 A 
ATOM      9  C9  IND d   1      -3.756   5.343  -5.955  0.00  0.00    -0.096 A 
ATOM     10  HN1 IND d   1      -5.727   2.991  -5.981  0.00  0.00     0.298 HD
ENDROOT
TORSDOF 0
ENDMDL
