MODEL 1
REMARK minimizedAffinity 6.65214777
REMARK minimizedRMSD -1
REMARK  0 active torsions:
REMARK  status: ('A' for Active; 'I' for Inactive)
ROOT
ATOM      1  N1  IND d   1       2.545   1.868   1.551  0.00  0.00    -0.196 N 
ATOM      2  C2  IND d   1       2.736   2.892   2.435  0.00  0.00     0.054 A 
ATOM      3  C3  IND d   1       1.565   3.515   2.695  0.00  0.00    -0.031 A 
ATOM      4  C4  IND d   1      -0.805   2.955   1.859  0.00  0.00     0.051 A 
ATOM      5  C5  IND d   1      -1.478   2.128   1.005  0.00  0.00    -0.031 A 
ATOM      6  C6  IND d   1      -0.833   1.150   0.276  0.00  0.00     0.015 A 
ATOM      7  C7  IND d   1       0.515   0.955   0.384  0.00  0.00    -0.016 A 
ATOM      8  C8  IND d   1       1.203   1.797   1.245  0.00  0.00    -0.047 A 
ATOM      9  C9  IND d   1       0.560   2.819   1.955  0.00  0.00    -0.096 A 
ATOM     10  HN1 IND d   1       3.159   1.353   1.238  0.00  0.00     0.298 HD
ENDROOT
TORSDOF 0
ENDMDL
