MODEL 1
REMARK minimizedAffinity 2.94353199
REMARK minimizedRMSD -1
REMARK  0 active torsions:
REMARK  status: ('A' for Active; 'I' for Inactive)
ROOT
ATOM      1  N1  IND d   1      -0.671  -2.829  -2.659  0.00  0.00    -0.196 N 
ATOM      2  C2  IND d   1      -1.782  -3.317  -2.031  0.00  0.00     0.054 A 
ATOM      3  C3  IND d   1      -1.848  -2.853  -0.763  0.00  0.00    -0.031 A 
ATOM      4  C4  IND d   1      -0.295  -1.201   0.457  0.00  0.00     0.051 A 
ATOM      5  C5  IND d   1       0.875  -0.511   0.306  0.00  0.00    -0.031 A 
ATOM      6  C6  IND d   1       1.602  -0.556  -0.866  0.00  0.00     0.015 A 
ATOM      7  C7  IND d   1       1.180  -1.288  -1.939  0.00  0.00    -0.016 A 
ATOM      8  C8  IND d   1      -0.004  -1.997  -1.787  0.00  0.00    -0.047 A 
ATOM      9  C9  IND d   1      -0.725  -1.988  -0.586  0.00  0.00    -0.096 A 
ATOM     10  HN1 IND d   1      -0.429  -3.011  -3.464  0.00  0.00     0.298 HD
ENDROOT
TORSDOF 0
ENDMDL
