MODEL 1
REMARK minimizedAffinity 8.35113811
REMARK minimizedRMSD -1
REMARK  0 active torsions:
REMARK  status: ('A' for Active; 'I' for Inactive)
ROOT
ATOM      1  N1  IND d   1      -1.840   2.197   1.509  0.00  0.00    -0.196 N 
ATOM      2  C2  IND d   1      -1.196   3.402   1.495  0.00  0.00     0.054 A 
ATOM      3  C3  IND d   1       0.094   3.242   1.125  0.00  0.00    -0.031 A 
ATOM      4  C4  IND d   1       1.334   1.105   0.398  0.00  0.00     0.051 A 
ATOM      5  C5  IND d   1       1.173  -0.247   0.284  0.00  0.00    -0.031 A 
ATOM      6  C6  IND d   1      -0.025  -0.866   0.576  0.00  0.00     0.015 A 
ATOM      7  C7  IND d   1      -1.116  -0.151   0.983  0.00  0.00    -0.016 A 
ATOM      8  C8  IND d   1      -0.954   1.221   1.107  0.00  0.00    -0.047 A 
ATOM      9  C9  IND d   1       0.271   1.850   0.853  0.00  0.00    -0.096 A 
ATOM     10  HN1 IND d   1      -2.661   2.069   1.731  0.00  0.00     0.298 HD
ENDROOT
TORSDOF 0
ENDMDL
