MODEL 1
REMARK minimizedAffinity 2.33823514
REMARK minimizedRMSD -1
REMARK  0 active torsions:
REMARK  status: ('A' for Active; 'I' for Inactive)
ROOT
ATOM      1  N1  IND d   1      -4.027   3.902  -5.966  0.00  0.00    -0.196 N 
ATOM      2  C2  IND d   1      -3.912   2.539  -5.970  0.00  0.00     0.054 A 
ATOM      3  C3  IND d   1      -2.610   2.177  -5.999  0.00  0.00    -0.031 A 
ATOM      4  C4  IND d   1      -0.501   3.652  -5.941  0.00  0.00     0.051 A 
ATOM      5  C5  IND d   1      -0.098   4.958  -5.969  0.00  0.00    -0.031 A 
ATOM      6  C6  IND d   1      -1.003   5.999  -5.996  0.00  0.00     0.015 A 
ATOM      7  C7  IND d   1      -2.350   5.773  -5.984  0.00  0.00    -0.016 A 
ATOM      8  C8  IND d   1      -2.763   4.448  -5.962  0.00  0.00    -0.047 A 
ATOM      9  C9  IND d   1      -1.849   3.386  -5.977  0.00  0.00    -0.096 A 
ATOM     10  HN1 IND d   1      -4.765   4.343  -5.965  0.00  0.00     0.298 HD
ENDROOT
TORSDOF 0
ENDMDL
