MODEL 1
REMARK minimizedAffinity 9.07379436
REMARK minimizedRMSD -1
REMARK  0 active torsions:
REMARK  status: ('A' for Active; 'I' for Inactive)
ROOT
ATOM      1  N1  IND d   1      -1.766   2.473   1.528  0.00  0.00    -0.196 N 
ATOM      2  C2  IND d   1      -0.792   3.430   1.473  0.00  0.00     0.054 A 
ATOM      3  C3  IND d   1       0.398   2.872   1.155  0.00  0.00    -0.031 A 
ATOM      4  C4  IND d   1       0.956   0.425   0.584  0.00  0.00     0.051 A 
ATOM      5  C5  IND d   1       0.402  -0.823   0.536  0.00  0.00    -0.031 A 
ATOM      6  C6  IND d   1      -0.931  -1.041   0.819  0.00  0.00     0.015 A 
ATOM      7  C7  IND d   1      -1.766  -0.011   1.151  0.00  0.00    -0.016 A 
ATOM      8  C8  IND d   1      -1.205   1.257   1.208  0.00  0.00    -0.047 A 
ATOM      9  C9  IND d   1       0.157   1.477   0.963  0.00  0.00    -0.096 A 
ATOM     10  HN1 IND d   1      -2.591   2.608   1.728  0.00  0.00     0.298 HD
ENDROOT
TORSDOF 0
ENDMDL
