MODEL 1
REMARK minimizedAffinity -0.849585295
REMARK minimizedRMSD -1
REMARK  0 active torsions:
REMARK  status: ('A' for Active; 'I' for Inactive)
ROOT
ATOM      1  N1  IND d   1       1.674   2.128   1.042  0.00  0.00    -0.196 N 
ATOM      2  C2  IND d   1       2.298   0.957   0.711  0.00  0.00     0.054 A 
ATOM      3  C3  IND d   1       1.385  -0.015   0.487  0.00  0.00    -0.031 A 
ATOM      4  C4  IND d   1      -1.186   0.120   0.507  0.00  0.00     0.051 A 
ATOM      5  C5  IND d   1      -2.218   0.970   0.790  0.00  0.00    -0.031 A 
ATOM      6  C6  IND d   1      -2.001   2.277   1.178  0.00  0.00     0.015 A 
ATOM      7  C7  IND d   1      -0.738   2.787   1.285  0.00  0.00    -0.016 A 
ATOM      8  C8  IND d   1       0.312   1.925   1.005  0.00  0.00    -0.047 A 
ATOM      9  C9  IND d   1       0.099   0.586   0.653  0.00  0.00    -0.096 A 
ATOM     10  HN1 IND d   1       2.067   2.867   1.241  0.00  0.00     0.298 HD
ENDROOT
TORSDOF 0
ENDMDL
