MODEL 1
REMARK minimizedAffinity 4.11916113
REMARK minimizedRMSD -1
REMARK  0 active torsions:
REMARK  status: ('A' for Active; 'I' for Inactive)
ROOT
ATOM      1  N1  IND d   1      -2.254   2.019   1.509  0.00  0.00    -0.196 N 
ATOM      2  C2  IND d   1      -1.683   1.378   0.445  0.00  0.00     0.054 A 
ATOM      3  C3  IND d   1      -0.337   1.494   0.493  0.00  0.00    -0.031 A 
ATOM      4  C4  IND d   1       1.146   2.604   2.281  0.00  0.00     0.051 A 
ATOM      5  C5  IND d   1       1.080   3.352   3.423  0.00  0.00    -0.031 A 
ATOM      6  C6  IND d   1      -0.125   3.698   3.998  0.00  0.00     0.015 A 
ATOM      7  C7  IND d   1      -1.314   3.298   3.457  0.00  0.00    -0.016 A 
ATOM      8  C8  IND d   1      -1.251   2.545   2.294  0.00  0.00    -0.047 A 
ATOM      9  C9  IND d   1      -0.032   2.226   1.682  0.00  0.00    -0.096 A 
ATOM     10  HN1 IND d   1      -3.097   2.082   1.663  0.00  0.00     0.298 HD
ENDROOT
TORSDOF 0
ENDMDL
