MODEL 1
REMARK minimizedAffinity 1.22032738
REMARK minimizedRMSD -1
REMARK  0 active torsions:
REMARK  status: ('A' for Active; 'I' for Inactive)
ROOT
ATOM      1  N1  IND d   1      -2.379   2.159  -5.998  0.00  0.00    -0.196 N 
ATOM      2  C2  IND d   1      -1.029   2.375  -5.991  0.00  0.00     0.054 A 
ATOM      3  C3  IND d   1      -0.765   3.701  -5.995  0.00  0.00    -0.031 A 
ATOM      4  C4  IND d   1      -2.392   5.693  -5.909  0.00  0.00     0.051 A 
ATOM      5  C5  IND d   1      -3.724   5.998  -5.939  0.00  0.00    -0.031 A 
ATOM      6  C6  IND d   1      -4.695   5.020  -5.989  0.00  0.00     0.015 A 
ATOM      7  C7  IND d   1      -4.370   3.693  -5.999  0.00  0.00    -0.016 A 
ATOM      8  C8  IND d   1      -3.018   3.379  -5.975  0.00  0.00    -0.047 A 
ATOM      9  C9  IND d   1      -2.027   4.369  -5.967  0.00  0.00    -0.096 A 
ATOM     10  HN1 IND d   1      -2.764   1.391  -6.013  0.00  0.00     0.298 HD
ENDROOT
TORSDOF 0
ENDMDL
