MODEL 1
REMARK minimizedAffinity -0.431546599
REMARK minimizedRMSD -1
REMARK  0 active torsions:
REMARK  status: ('A' for Active; 'I' for Inactive)
ROOT
ATOM      1  N1  IND d   1       3.086   2.074   1.315  0.00  0.00    -0.196 N 
ATOM      2  C2  IND d   1       3.189   3.052   2.264  0.00  0.00     0.054 A 
ATOM      3  C3  IND d   1       1.970   3.558   2.552  0.00  0.00    -0.031 A 
ATOM      4  C4  IND d   1      -0.343   2.862   1.660  0.00  0.00     0.051 A 
ATOM      5  C5  IND d   1      -0.942   2.040   0.748  0.00  0.00    -0.031 A 
ATOM      6  C6  IND d   1      -0.216   1.167  -0.036  0.00  0.00     0.015 A 
ATOM      7  C7  IND d   1       1.143   1.076   0.072  0.00  0.00    -0.016 A 
ATOM      8  C8  IND d   1       1.756   1.915   0.992  0.00  0.00    -0.047 A 
ATOM      9  C9  IND d   1       1.028   2.833   1.760  0.00  0.00    -0.096 A 
ATOM     10  HN1 IND d   1       3.742   1.633   0.976  0.00  0.00     0.298 HD
ENDROOT
TORSDOF 0
ENDMDL
