MODEL 1
REMARK minimizedAffinity 2.23968911
REMARK minimizedRMSD -1
REMARK  0 active torsions:
REMARK  status: ('A' for Active; 'I' for Inactive)
ROOT
ATOM      1  N1  IND d   1      -2.295   3.359  -5.923  0.00  0.00    -0.196 N 
ATOM      2  C2  IND d   1      -1.506   4.476  -5.941  0.00  0.00     0.054 A 
ATOM      3  C3  IND d   1      -2.270   5.590  -5.999  0.00  0.00    -0.031 A 
ATOM      4  C4  IND d   1      -4.834   5.820  -5.973  0.00  0.00     0.051 A 
ATOM      5  C5  IND d   1      -5.982   5.079  -6.000  0.00  0.00    -0.031 A 
ATOM      6  C6  IND d   1      -5.959   3.699  -6.000  0.00  0.00     0.015 A 
ATOM      7  C7  IND d   1      -4.783   3.006  -5.961  0.00  0.00    -0.016 A 
ATOM      8  C8  IND d   1      -3.615   3.755  -5.941  0.00  0.00    -0.047 A 
ATOM      9  C9  IND d   1      -3.630   5.155  -5.984  0.00  0.00    -0.096 A 
ATOM     10  HN1 IND d   1      -2.014   2.547  -5.904  0.00  0.00     0.298 HD
ENDROOT
TORSDOF 0
ENDMDL
