MODEL 1
REMARK minimizedAffinity 5.45310974
REMARK minimizedRMSD -1
REMARK  0 active torsions:
REMARK  status: ('A' for Active; 'I' for Inactive)
ROOT
ATOM      1  N1  IND d   1       3.466   2.878  -4.276  0.00  0.00    -0.196 N 
ATOM      2  C2  IND d   1       3.937   2.672  -3.009  0.00  0.00     0.054 A 
ATOM      3  C3  IND d   1       3.601   1.436  -2.578  0.00  0.00    -0.031 A 
ATOM      4  C4  IND d   1       2.368  -0.452  -3.821  0.00  0.00     0.051 A 
ATOM      5  C5  IND d   1       1.712  -0.723  -4.989  0.00  0.00    -0.031 A 
ATOM      6  C6  IND d   1       1.607   0.210  -6.000  0.00  0.00     0.015 A 
ATOM      7  C7  IND d   1       2.166   1.451  -5.885  0.00  0.00    -0.016 A 
ATOM      8  C8  IND d   1       2.828   1.732  -4.698  0.00  0.00    -0.047 A 
ATOM      9  C9  IND d   1       2.901   0.804  -3.651  0.00  0.00    -0.096 A 
ATOM     10  HN1 IND d   1       3.553   3.602  -4.732  0.00  0.00     0.298 HD
ENDROOT
TORSDOF 0
ENDMDL
