MODEL 1
REMARK minimizedAffinity 4.11891079
REMARK minimizedRMSD -1
REMARK  0 active torsions:
REMARK  status: ('A' for Active; 'I' for Inactive)
ROOT
ATOM      1  N1  IND d   1      -1.635  -3.162  -0.421  0.00  0.00    -0.196 N 
ATOM      2  C2  IND d   1      -1.650  -3.850  -1.602  0.00  0.00     0.054 A 
ATOM      3  C3  IND d   1      -0.645  -3.431  -2.403  0.00  0.00    -0.031 A 
ATOM      4  C4  IND d   1       1.203  -1.701  -1.940  0.00  0.00     0.051 A 
ATOM      5  C5  IND d   1       1.611  -0.783  -1.014  0.00  0.00    -0.031 A 
ATOM      6  C6  IND d   1       0.946  -0.609   0.183  0.00  0.00     0.015 A 
ATOM      7  C7  IND d   1      -0.150  -1.358   0.504  0.00  0.00    -0.016 A 
ATOM      8  C8  IND d   1      -0.571  -2.287  -0.437  0.00  0.00    -0.047 A 
ATOM      9  C9  IND d   1       0.074  -2.438  -1.671  0.00  0.00    -0.096 A 
ATOM     10  HN1 IND d   1      -2.196  -3.259   0.223  0.00  0.00     0.298 HD
ENDROOT
TORSDOF 0
ENDMDL
