MODEL 1
REMARK minimizedAffinity -1.06507778
REMARK minimizedRMSD -1
REMARK  0 active torsions:
REMARK  status: ('A' for Active; 'I' for Inactive)
ROOT
ATOM      1  N1  IND d   1      -5.443   3.786  -5.918  0.00  0.00    -0.196 N 
ATOM      2  C2  IND d   1      -5.941   5.058  -5.957  0.00  0.00     0.054 A 
ATOM      3  C3  IND d   1      -4.931   5.958  -5.956  0.00  0.00    -0.031 A 
ATOM      4  C4  IND d   1      -2.388   5.562  -5.996  0.00  0.00     0.051 A 
ATOM      5  C5  IND d   1      -1.451   4.569  -5.932  0.00  0.00    -0.031 A 
ATOM      6  C6  IND d   1      -1.804   3.237  -5.861  0.00  0.00     0.015 A 
ATOM      7  C7  IND d   1      -3.113   2.846  -5.864  0.00  0.00    -0.016 A 
ATOM      8  C8  IND d   1      -4.067   3.852  -5.921  0.00  0.00    -0.047 A 
ATOM      9  C9  IND d   1      -3.715   5.208  -5.950  0.00  0.00    -0.096 A 
ATOM     10  HN1 IND d   1      -5.911   3.065  -5.895  0.00  0.00     0.298 HD
ENDROOT
TORSDOF 0
ENDMDL
