MODEL 1
REMARK minimizedAffinity -2.76768208
REMARK minimizedRMSD -1
REMARK  0 active torsions:
REMARK  status: ('A' for Active; 'I' for Inactive)
ROOT
ATOM      1  N1  IND d   1      -3.360   2.536   0.661  0.00  0.00    -0.196 N 
ATOM      2  C2  IND d   1      -4.330   1.639   0.310  0.00  0.00     0.054 A 
ATOM      3  C3  IND d   1      -3.780   0.435   0.036  0.00  0.00    -0.031 A 
ATOM      4  C4  IND d   1      -1.322  -0.316   0.197  0.00  0.00     0.051 A 
ATOM      5  C5  IND d   1      -0.064   0.160   0.440  0.00  0.00    -0.031 A 
ATOM      6  C6  IND d   1       0.164   1.479   0.778  0.00  0.00     0.015 A 
ATOM      7  C7  IND d   1      -0.863   2.371   0.898  0.00  0.00    -0.016 A 
ATOM      8  C8  IND d   1      -2.141   1.893   0.645  0.00  0.00    -0.047 A 
ATOM      9  C9  IND d   1      -2.375   0.567   0.260  0.00  0.00    -0.096 A 
ATOM     10  HN1 IND d   1      -3.489   3.363   0.858  0.00  0.00     0.298 HD
ENDROOT
TORSDOF 0
ENDMDL
