MODEL 1
REMARK minimizedAffinity 4.80879021
REMARK minimizedRMSD -1
REMARK  0 active torsions:
REMARK  status: ('A' for Active; 'I' for Inactive)
ROOT
ATOM      1  N1  IND d   1       1.735   1.538   1.388  0.00  0.00    -0.196 N 
ATOM      2  C2  IND d   1       2.171   2.590   2.144  0.00  0.00     0.054 A 
ATOM      3  C3  IND d   1       1.133   3.388   2.482  0.00  0.00    -0.031 A 
ATOM      4  C4  IND d   1      -1.377   3.101   1.992  0.00  0.00     0.051 A 
ATOM      5  C5  IND d   1      -2.258   2.313   1.306  0.00  0.00    -0.031 A 
ATOM      6  C6  IND d   1      -1.844   1.202   0.600  0.00  0.00     0.015 A 
ATOM      7  C7  IND d   1      -0.530   0.830   0.563  0.00  0.00    -0.016 A 
ATOM      8  C8  IND d   1       0.367   1.632   1.253  0.00  0.00    -0.047 A 
ATOM      9  C9  IND d   1      -0.041   2.785   1.936  0.00  0.00    -0.096 A 
ATOM     10  HN1 IND d   1       2.232   0.920   1.054  0.00  0.00     0.298 HD
ENDROOT
TORSDOF 0
ENDMDL
