MODEL 1
REMARK minimizedAffinity -5.08163404
REMARK minimizedRMSD -1
REMARK  1 active torsions:
REMARK  status: ('A' for Active; 'I' for Inactive)
REMARK    1  A    between atoms: C1_2  and  C2_3 
ROOT
ATOM      1  C2  UNL d   1      -1.832  -4.273  -4.919  0.00  0.00    -0.081 A 
ATOM      2  C3  UNL d   1      -2.000  -2.991  -4.382  0.00  0.00     0.006 A 
ATOM      3  C4  UNL d   1      -3.224  -2.327  -4.504  0.00  0.00     0.002 A 
ATOM      4  C5  UNL d   1      -4.300  -2.937  -5.157  0.00  0.00    -0.080 A 
ATOM      5  C6  UNL d   1      -5.628  -2.248  -5.268  0.00  0.00     0.076 C 
ATOM      6  C7  UNL d   1      -4.126  -4.211  -5.708  0.00  0.00     0.002 A 
ATOM      7  C8  UNL d   1      -2.903  -4.875  -5.588  0.00  0.00     0.006 A 
ENDROOT
BRANCH   1   8
ATOM      8  C1  UNL d   1      -0.534  -5.017  -4.733  0.00  0.00     0.054 C 
ATOM      9  C   UNL d   1      -0.292  -6.000  -5.869  0.00  0.00     0.018 C 
ENDBRANCH   1   8
TORSDOF 1
ENDMDL
