MODEL 1
REMARK minimizedAffinity 1.86079299
REMARK minimizedRMSD -1
REMARK  1 active torsions:
REMARK  status: ('A' for Active; 'I' for Inactive)
REMARK    1  A    between atoms: C1_2  and  C2_3 
ROOT
ATOM      1  C2  UNL d   1       3.142  -0.920  -1.687  0.00  0.00    -0.081 A 
ATOM      2  C3  UNL d   1       3.258   0.453  -1.937  0.00  0.00     0.006 A 
ATOM      3  C4  UNL d   1       2.278   1.340  -1.485  0.00  0.00     0.002 A 
ATOM      4  C5  UNL d   1       1.171   0.871  -0.771  0.00  0.00    -0.080 A 
ATOM      5  C6  UNL d   1       0.127   1.816  -0.254  0.00  0.00     0.076 C 
ATOM      6  C7  UNL d   1       1.045  -0.503  -0.537  0.00  0.00     0.002 A 
ATOM      7  C8  UNL d   1       2.025  -1.391  -0.988  0.00  0.00     0.006 A 
ENDROOT
BRANCH   1   8
ATOM      8  C1  UNL d   1       4.229  -1.872  -2.116  0.00  0.00     0.054 C 
ATOM      9  C   UNL d   1       4.254  -2.039  -3.629  0.00  0.00     0.018 C 
ENDBRANCH   1   8
TORSDOF 1
ENDMDL
