MODEL 1
REMARK minimizedAffinity 0.231882036
REMARK minimizedRMSD -1
REMARK  1 active torsions:
REMARK  status: ('A' for Active; 'I' for Inactive)
REMARK    1  A    between atoms: C1_2  and  C2_3 
ROOT
ATOM      1  C2  UNL d   1      -0.832  -1.867  -2.354  0.00  0.00    -0.081 A 
ATOM      2  C3  UNL d   1      -0.341  -1.981  -1.048  0.00  0.00     0.006 A 
ATOM      3  C4  UNL d   1       0.239  -0.882  -0.410  0.00  0.00     0.002 A 
ATOM      4  C5  UNL d   1       0.332   0.350  -1.065  0.00  0.00    -0.080 A 
ATOM      5  C6  UNL d   1       0.925   1.546  -0.381  0.00  0.00     0.076 C 
ATOM      6  C7  UNL d   1      -0.142   0.460  -2.377  0.00  0.00     0.002 A 
ATOM      7  C8  UNL d   1      -0.722  -0.638  -3.015  0.00  0.00     0.006 A 
ENDROOT
BRANCH   1   8
ATOM      8  C1  UNL d   1      -1.517  -3.033  -3.020  0.00  0.00     0.054 C 
ATOM      9  C   UNL d   1      -2.045  -2.652  -4.396  0.00  0.00     0.018 C 
ENDBRANCH   1   8
TORSDOF 1
ENDMDL
