MODEL 1
REMARK minimizedAffinity 6.16678429
REMARK minimizedRMSD -1
REMARK  1 active torsions:
REMARK  status: ('A' for Active; 'I' for Inactive)
REMARK    1  A    between atoms: C1_2  and  C2_3 
ROOT
ATOM      1  C2  UNL d   1      -4.101  -2.893  -4.899  0.00  0.00    -0.081 A 
ATOM      2  C3  UNL d   1      -3.115  -1.975  -4.517  0.00  0.00     0.006 A 
ATOM      3  C4  UNL d   1      -1.836  -2.413  -4.169  0.00  0.00     0.002 A 
ATOM      4  C5  UNL d   1      -1.518  -3.775  -4.203  0.00  0.00    -0.080 A 
ATOM      5  C6  UNL d   1      -0.140  -4.257  -3.860  0.00  0.00     0.076 C 
ATOM      6  C7  UNL d   1      -2.508  -4.695  -4.568  0.00  0.00     0.002 A 
ATOM      7  C8  UNL d   1      -3.788  -4.257  -4.916  0.00  0.00     0.006 A 
ENDROOT
BRANCH   1   8
ATOM      8  C1  UNL d   1      -5.463  -2.418  -5.338  0.00  0.00     0.054 C 
ATOM      9  C   UNL d   1      -5.993  -1.330  -4.415  0.00  0.00     0.018 C 
ENDBRANCH   1   8
TORSDOF 1
ENDMDL
