MODEL 1
REMARK minimizedAffinity 5.95970917
REMARK minimizedRMSD -1
REMARK  1 active torsions:
REMARK  status: ('A' for Active; 'I' for Inactive)
REMARK    1  A    between atoms: C1_2  and  C2_3 
ROOT
ATOM      1  C2  UNL d   1      -0.421  -0.751  -1.586  0.00  0.00    -0.081 A 
ATOM      2  C3  UNL d   1       0.315  -0.921  -0.407  0.00  0.00     0.006 A 
ATOM      3  C4  UNL d   1       1.064   0.134   0.119  0.00  0.00     0.002 A 
ATOM      4  C5  UNL d   1       1.083   1.378  -0.519  0.00  0.00    -0.080 A 
ATOM      5  C6  UNL d   1       1.859   2.528   0.052  0.00  0.00     0.076 C 
ATOM      6  C7  UNL d   1       0.362   1.544  -1.706  0.00  0.00     0.002 A 
ATOM      7  C8  UNL d   1      -0.387   0.489  -2.233  0.00  0.00     0.006 A 
ENDROOT
BRANCH   1   8
ATOM      8  C1  UNL d   1      -1.282  -1.867  -2.121  0.00  0.00     0.054 C 
ATOM      9  C   UNL d   1      -1.555  -1.691  -3.607  0.00  0.00     0.018 C 
ENDBRANCH   1   8
TORSDOF 1
ENDMDL
