MODEL 1
REMARK minimizedAffinity 7.2557621
REMARK minimizedRMSD -1
REMARK  1 active torsions:
REMARK  status: ('A' for Active; 'I' for Inactive)
REMARK    1  A    between atoms: C1_2  and  C2_3 
ROOT
ATOM      1  C2  UNL d   1       0.800   0.420  -0.219  0.00  0.00    -0.081 A 
ATOM      2  C3  UNL d   1       1.451   1.459  -0.895  0.00  0.00     0.006 A 
ATOM      3  C4  UNL d   1       1.895   2.587  -0.201  0.00  0.00     0.002 A 
ATOM      4  C5  UNL d   1       1.703   2.692   1.181  0.00  0.00    -0.080 A 
ATOM      5  C6  UNL d   1       2.201   3.883   1.943  0.00  0.00     0.076 C 
ATOM      6  C7  UNL d   1       1.037   1.661   1.854  0.00  0.00     0.002 A 
ATOM      7  C8  UNL d   1       0.592   0.534   1.160  0.00  0.00     0.006 A 
ENDROOT
BRANCH   1   8
ATOM      8  C1  UNL d   1       0.378  -0.826  -0.953  0.00  0.00     0.054 C 
ATOM      9  C   UNL d   1      -0.113  -1.897   0.010  0.00  0.00     0.018 C 
ENDBRANCH   1   8
TORSDOF 1
ENDMDL
