MODEL 1
REMARK minimizedAffinity 4.4505496
REMARK minimizedRMSD -1
REMARK  1 active torsions:
REMARK  status: ('A' for Active; 'I' for Inactive)
REMARK    1  A    between atoms: C1_2  and  C2_3 
ROOT
ATOM      1  C2  UNL d   1      -1.171  -1.538  -2.932  0.00  0.00    -0.081 A 
ATOM      2  C3  UNL d   1      -0.367  -0.406  -3.116  0.00  0.00     0.006 A 
ATOM      3  C4  UNL d   1       0.244   0.213  -2.023  0.00  0.00     0.002 A 
ATOM      4  C5  UNL d   1       0.068  -0.292  -0.731  0.00  0.00    -0.080 A 
ATOM      5  C6  UNL d   1       0.743   0.345   0.447  0.00  0.00     0.076 C 
ATOM      6  C7  UNL d   1      -0.750  -1.412  -0.545  0.00  0.00     0.002 A 
ATOM      7  C8  UNL d   1      -1.361  -2.032  -1.637  0.00  0.00     0.006 A 
ENDROOT
BRANCH   1   8
ATOM      8  C1  UNL d   1      -1.779  -2.246  -4.115  0.00  0.00     0.054 C 
ATOM      9  C   UNL d   1      -1.351  -3.706  -4.166  0.00  0.00     0.018 C 
ENDBRANCH   1   8
TORSDOF 1
ENDMDL
