MODEL 1
REMARK minimizedAffinity -2.60413957
REMARK minimizedRMSD -1
REMARK  1 active torsions:
REMARK  status: ('A' for Active; 'I' for Inactive)
REMARK    1  A    between atoms: C1_2  and  C2_3 
ROOT
ATOM      1  C2  UNL d   1      -2.416  -3.012  -3.835  0.00  0.00    -0.081 A 
ATOM      2  C3  UNL d   1      -2.493  -4.229  -4.523  0.00  0.00     0.006 A 
ATOM      3  C4  UNL d   1      -3.656  -4.580  -5.213  0.00  0.00     0.002 A 
ATOM      4  C5  UNL d   1      -4.757  -3.717  -5.234  0.00  0.00    -0.080 A 
ATOM      5  C6  UNL d   1      -6.000  -4.068  -5.996  0.00  0.00     0.076 C 
ATOM      6  C7  UNL d   1      -4.686  -2.509  -4.532  0.00  0.00     0.002 A 
ATOM      7  C8  UNL d   1      -3.524  -2.158  -3.841  0.00  0.00     0.006 A 
ENDROOT
BRANCH   1   8
ATOM      8  C1  UNL d   1      -1.141  -2.602  -3.143  0.00  0.00     0.054 C 
ATOM      9  C   UNL d   1      -1.409  -1.581  -2.047  0.00  0.00     0.018 C 
ENDBRANCH   1   8
TORSDOF 1
ENDMDL
