MODEL 1
REMARK minimizedAffinity 3.72214627
REMARK minimizedRMSD -1
REMARK  1 active torsions:
REMARK  status: ('A' for Active; 'I' for Inactive)
REMARK    1  A    between atoms: C1_2  and  C2_3 
ROOT
ATOM      1  C2  UNL d   1       0.793   1.080  -0.465  0.00  0.00    -0.081 A 
ATOM      2  C3  UNL d   1       0.532   0.726   0.864  0.00  0.00     0.006 A 
ATOM      3  C4  UNL d   1      -0.105  -0.480   1.164  0.00  0.00     0.002 A 
ATOM      4  C5  UNL d   1      -0.483  -1.356   0.141  0.00  0.00    -0.080 A 
ATOM      5  C6  UNL d   1      -1.140  -2.669   0.450  0.00  0.00     0.076 C 
ATOM      6  C7  UNL d   1      -0.238  -0.995  -1.188  0.00  0.00     0.002 A 
ATOM      7  C8  UNL d   1       0.398   0.212  -1.488  0.00  0.00     0.006 A 
ENDROOT
BRANCH   1   8
ATOM      8  C1  UNL d   1       1.537   2.351  -0.788  0.00  0.00     0.054 C 
ATOM      9  C   UNL d   1       2.987   2.066  -1.152  0.00  0.00     0.018 C 
ENDBRANCH   1   8
TORSDOF 1
ENDMDL
