MODEL 1
REMARK minimizedAffinity 2.81372881
REMARK minimizedRMSD -1
REMARK  1 active torsions:
REMARK  status: ('A' for Active; 'I' for Inactive)
REMARK    1  A    between atoms: C1_2  and  C2_3 
ROOT
ATOM      1  C2  UNL d   1      -0.284  -1.244  -2.054  0.00  0.00    -0.081 A 
ATOM      2  C3  UNL d   1       0.071  -1.304  -0.701  0.00  0.00     0.006 A 
ATOM      3  C4  UNL d   1       0.512  -0.158  -0.034  0.00  0.00     0.002 A 
ATOM      4  C5  UNL d   1       0.599   1.066  -0.706  0.00  0.00    -0.080 A 
ATOM      5  C6  UNL d   1       1.042   2.309   0.007  0.00  0.00     0.076 C 
ATOM      6  C7  UNL d   1       0.261   1.121  -2.062  0.00  0.00     0.002 A 
ATOM      7  C8  UNL d   1      -0.180  -0.024  -2.730  0.00  0.00     0.006 A 
ENDROOT
BRANCH   1   8
ATOM      8  C1  UNL d   1      -0.822  -2.463  -2.759  0.00  0.00     0.054 C 
ATOM      9  C   UNL d   1      -1.684  -2.076  -3.952  0.00  0.00     0.018 C 
ENDBRANCH   1   8
TORSDOF 1
ENDMDL
