MODEL 1
REMARK minimizedAffinity 3.78795552
REMARK minimizedRMSD -1
REMARK  1 active torsions:
REMARK  status: ('A' for Active; 'I' for Inactive)
REMARK    1  A    between atoms: C1_2  and  C2_3 
ROOT
ATOM      1  C2  UNL d   1      -3.228  -3.296  -4.683  0.00  0.00    -0.081 A 
ATOM      2  C3  UNL d   1      -2.770  -4.610  -4.530  0.00  0.00     0.006 A 
ATOM      3  C4  UNL d   1      -1.439  -4.861  -4.186  0.00  0.00     0.002 A 
ATOM      4  C5  UNL d   1      -0.547  -3.803  -3.981  0.00  0.00    -0.080 A 
ATOM      5  C6  UNL d   1       0.876  -4.057  -3.582  0.00  0.00     0.076 C 
ATOM      6  C7  UNL d   1      -1.001  -2.490  -4.151  0.00  0.00     0.002 A 
ATOM      7  C8  UNL d   1      -2.330  -2.239  -4.496  0.00  0.00     0.006 A 
ENDROOT
BRANCH   1   8
ATOM      8  C1  UNL d   1      -4.678  -3.021  -4.990  0.00  0.00     0.054 C 
ATOM      9  C   UNL d   1      -5.228  -4.018  -6.000  0.00  0.00     0.018 C 
ENDBRANCH   1   8
TORSDOF 1
ENDMDL
