MODEL 1
REMARK minimizedAffinity -1.91199076
REMARK minimizedRMSD -1
REMARK  1 active torsions:
REMARK  status: ('A' for Active; 'I' for Inactive)
REMARK    1  A    between atoms: C1_2  and  C2_3 
ROOT
ATOM      1  C2  UNL d   1      -4.162  -3.606  -5.417  0.00  0.00    -0.081 A 
ATOM      2  C3  UNL d   1      -3.023  -3.010  -4.861  0.00  0.00     0.006 A 
ATOM      3  C4  UNL d   1      -1.901  -3.782  -4.548  0.00  0.00     0.002 A 
ATOM      4  C5  UNL d   1      -1.897  -5.159  -4.792  0.00  0.00    -0.080 A 
ATOM      5  C6  UNL d   1      -0.689  -5.994  -4.488  0.00  0.00     0.076 C 
ATOM      6  C7  UNL d   1      -3.042  -5.757  -5.330  0.00  0.00     0.002 A 
ATOM      7  C8  UNL d   1      -4.163  -4.986  -5.643  0.00  0.00     0.006 A 
ENDROOT
BRANCH   1   8
ATOM      8  C1  UNL d   1      -5.349  -2.766  -5.816  0.00  0.00     0.054 C 
ATOM      9  C   UNL d   1      -4.960  -1.304  -5.985  0.00  0.00     0.018 C 
ENDBRANCH   1   8
TORSDOF 1
ENDMDL
