MODEL 1
REMARK minimizedAffinity 3.95084214
REMARK minimizedRMSD -1
REMARK  1 active torsions:
REMARK  status: ('A' for Active; 'I' for Inactive)
REMARK    1  A    between atoms: C1_2  and  C2_3 
ROOT
ATOM      1  C2  UNL d   1       1.620  -2.516   1.961  0.00  0.00    -0.077 A 
ATOM      2  C3  UNL d   1       1.521  -3.657   1.154  0.00  0.00     0.002 A 
ATOM      3  C4  UNL d   1       2.364  -4.749   1.367  0.00  0.00     0.002 A 
ATOM      4  C5  UNL d   1       3.309  -4.712   2.390  0.00  0.00    -0.004 A 
ATOM      5  C6  UNL d   1       3.417  -3.580   3.197  0.00  0.00     0.002 A 
ATOM      6  C7  UNL d   1       2.576  -2.487   2.984  0.00  0.00     0.002 A 
ENDROOT
BRANCH   1   7
ATOM      7  C1  UNL d   1       0.679  -1.356   1.764  0.00  0.00     0.055 C 
ATOM      8  C   UNL d   1       0.218  -1.257   0.317  0.00  0.00     0.019 C 
ENDBRANCH   1   7
TORSDOF 1
ENDMDL
