MODEL 1
REMARK minimizedAffinity 3.81110501
REMARK minimizedRMSD -1
REMARK  1 active torsions:
REMARK  status: ('A' for Active; 'I' for Inactive)
REMARK    1  A    between atoms: C1_2  and  C2_3 
ROOT
ATOM      1  C2  UNL d   1      -0.959   2.388  -2.730  0.00  0.00    -0.077 A 
ATOM      2  C3  UNL d   1       0.141   2.745  -3.522  0.00  0.00     0.002 A 
ATOM      3  C4  UNL d   1       1.376   2.121  -3.338  0.00  0.00     0.002 A 
ATOM      4  C5  UNL d   1       1.521   1.133  -2.366  0.00  0.00    -0.004 A 
ATOM      5  C6  UNL d   1       0.434   0.772  -1.572  0.00  0.00     0.002 A 
ATOM      6  C7  UNL d   1      -0.801   1.396  -1.753  0.00  0.00     0.002 A 
ENDROOT
BRANCH   1   7
ATOM      7  C1  UNL d   1      -2.305   3.025  -2.959  0.00  0.00     0.055 C 
ATOM      8  C   UNL d   1      -3.418   2.220  -2.303  0.00  0.00     0.019 C 
ENDBRANCH   1   7
TORSDOF 1
ENDMDL
