MODEL 1
REMARK minimizedAffinity 4.73354149
REMARK minimizedRMSD -1
REMARK  1 active torsions:
REMARK  status: ('A' for Active; 'I' for Inactive)
REMARK    1  A    between atoms: C1_2  and  C2_3 
ROOT
ATOM      1  C2  UNL d   1       5.906   1.634  -4.148  0.00  0.00    -0.077 A 
ATOM      2  C3  UNL d   1       5.816   1.358  -5.519  0.00  0.00     0.002 A 
ATOM      3  C4  UNL d   1       5.818   0.039  -5.976  0.00  0.00     0.002 A 
ATOM      4  C5  UNL d   1       5.906  -1.014  -5.068  0.00  0.00    -0.004 A 
ATOM      5  C6  UNL d   1       5.998  -0.751  -3.702  0.00  0.00     0.002 A 
ATOM      6  C7  UNL d   1       5.998   0.568  -3.244  0.00  0.00     0.002 A 
ENDROOT
BRANCH   1   7
ATOM      7  C1  UNL d   1       5.855   3.055  -3.650  0.00  0.00     0.055 C 
ATOM      8  C   UNL d   1       4.758   3.846  -4.348  0.00  0.00     0.019 C 
ENDBRANCH   1   7
TORSDOF 1
ENDMDL
