MODEL 1
REMARK minimizedAffinity 1.90825403
REMARK minimizedRMSD -1
REMARK  1 active torsions:
REMARK  status: ('A' for Active; 'I' for Inactive)
REMARK    1  A    between atoms: C1_2  and  C2_3 
ROOT
ATOM      1  C2  UNL d   1       0.411  -1.871   1.838  0.00  0.00    -0.077 A 
ATOM      2  C3  UNL d   1      -0.684  -1.496   1.046  0.00  0.00     0.002 A 
ATOM      3  C4  UNL d   1      -1.776  -0.839   1.615  0.00  0.00     0.002 A 
ATOM      4  C5  UNL d   1      -1.782  -0.546   2.978  0.00  0.00    -0.004 A 
ATOM      5  C6  UNL d   1      -0.699  -0.917   3.774  0.00  0.00     0.002 A 
ATOM      6  C7  UNL d   1       0.393  -1.575   3.207  0.00  0.00     0.002 A 
ENDROOT
BRANCH   1   7
ATOM      7  C1  UNL d   1       1.611  -2.536   1.216  0.00  0.00     0.055 C 
ATOM      8  C   UNL d   1       2.151  -1.724   0.048  0.00  0.00     0.019 C 
ENDBRANCH   1   7
TORSDOF 1
ENDMDL
