MODEL 1
REMARK minimizedAffinity 10.6652155
REMARK minimizedRMSD -1
REMARK  1 active torsions:
REMARK  status: ('A' for Active; 'I' for Inactive)
REMARK    1  A    between atoms: C1_2  and  C2_3 
ROOT
ATOM      1  C2  UNL d   1       0.663  -1.835   1.431  0.00  0.00    -0.077 A 
ATOM      2  C3  UNL d   1      -0.706  -2.042   1.648  0.00  0.00     0.002 A 
ATOM      3  C4  UNL d   1      -1.302  -1.631   2.842  0.00  0.00     0.002 A 
ATOM      4  C5  UNL d   1      -0.537  -1.006   3.825  0.00  0.00    -0.004 A 
ATOM      5  C6  UNL d   1       0.826  -0.798   3.620  0.00  0.00     0.002 A 
ATOM      6  C7  UNL d   1       1.423  -1.209   2.427  0.00  0.00     0.002 A 
ENDROOT
BRANCH   1   7
ATOM      7  C1  UNL d   1       1.298  -2.233   0.124  0.00  0.00     0.055 C 
ATOM      8  C   UNL d   1       0.800  -1.363  -1.021  0.00  0.00     0.019 C 
ENDBRANCH   1   7
TORSDOF 1
ENDMDL
