MODEL 1
REMARK minimizedAffinity 6.50645733
REMARK minimizedRMSD -1
REMARK  1 active torsions:
REMARK  status: ('A' for Active; 'I' for Inactive)
REMARK    1  A    between atoms: C1_2  and  C2_3 
ROOT
ATOM      1  C2  UNL d   1      -3.985   3.168  -3.787  0.00  0.00    -0.077 A 
ATOM      2  C3  UNL d   1      -4.954   4.010  -3.224  0.00  0.00     0.002 A 
ATOM      3  C4  UNL d   1      -5.824   4.732  -4.044  0.00  0.00     0.002 A 
ATOM      4  C5  UNL d   1      -5.737   4.616  -5.429  0.00  0.00    -0.004 A 
ATOM      5  C6  UNL d   1      -4.775   3.783  -5.999  0.00  0.00     0.002 A 
ATOM      6  C7  UNL d   1      -3.903   3.061  -5.182  0.00  0.00     0.002 A 
ENDROOT
BRANCH   1   7
ATOM      7  C1  UNL d   1      -3.078   2.350  -2.905  0.00  0.00     0.055 C 
ATOM      8  C   UNL d   1      -3.706   1.008  -2.558  0.00  0.00     0.019 C 
ENDBRANCH   1   7
TORSDOF 1
ENDMDL
