MODEL 1
REMARK minimizedAffinity -1.85906577
REMARK minimizedRMSD -1
REMARK  1 active torsions:
REMARK  status: ('A' for Active; 'I' for Inactive)
REMARK    1  A    between atoms: C1_2  and  C2_3 
ROOT
ATOM      1  C2  UNL d   1       0.973  -0.864  -0.468  0.00  0.00    -0.077 A 
ATOM      2  C3  UNL d   1       1.716   0.249  -0.048  0.00  0.00     0.002 A 
ATOM      3  C4  UNL d   1       2.134   1.208  -0.972  0.00  0.00     0.002 A 
ATOM      4  C5  UNL d   1       1.812   1.067  -2.320  0.00  0.00    -0.004 A 
ATOM      5  C6  UNL d   1       1.075  -0.037  -2.748  0.00  0.00     0.002 A 
ATOM      6  C7  UNL d   1       0.657  -0.997  -1.826  0.00  0.00     0.002 A 
ENDROOT
BRANCH   1   7
ATOM      7  C1  UNL d   1       0.478  -1.874   0.534  0.00  0.00     0.055 C 
ATOM      8  C   UNL d   1       1.629  -2.671   1.130  0.00  0.00     0.019 C 
ENDBRANCH   1   7
TORSDOF 1
ENDMDL
