MODEL 1
REMARK minimizedAffinity -2.82017541
REMARK minimizedRMSD -1
REMARK  0 active torsions:
REMARK  status: ('A' for Active; 'I' for Inactive)
ROOT
ATOM      1  C   UNL d   1       3.136  -0.952  -1.637  0.00  0.00    -0.002 A 
ATOM      2  C1  UNL d   1       3.147   0.423  -1.448  0.00  0.00     0.010 A 
ATOM      3  C2  UNL d   1       2.032   1.077  -0.920  0.00  0.00     0.041 A 
ATOM      4  C3  UNL d   1       0.895   0.318  -0.579  0.00  0.00    -0.075 A 
ATOM      5  S   UNL d   1      -0.584   0.903   0.085  0.00  0.00     0.015 SA
ATOM      6  C4  UNL d   1      -1.266  -0.658   0.134  0.00  0.00     0.022 A 
ATOM      7  C5  UNL d   1      -0.400  -1.614  -0.340  0.00  0.00     0.026 A 
ATOM      8  C6  UNL d   1       0.860  -1.068  -0.758  0.00  0.00    -0.082 A 
ATOM      9  C7  UNL d   1       2.006  -1.701  -1.297  0.00  0.00     0.045 A 
ENDROOT
TORSDOF 0
ENDMDL
