MODEL 1
REMARK minimizedAffinity 0.752291262
REMARK minimizedRMSD -1
REMARK  0 active torsions:
REMARK  status: ('A' for Active; 'I' for Inactive)
ROOT
ATOM      1  C   UNL d   1       2.259  -2.600  -2.398  0.00  0.00    -0.002 A 
ATOM      2  C1  UNL d   1       1.288  -3.277  -1.673  0.00  0.00     0.010 A 
ATOM      3  C2  UNL d   1       0.578  -2.630  -0.660  0.00  0.00     0.041 A 
ATOM      4  C3  UNL d   1       0.861  -1.278  -0.386  0.00  0.00    -0.075 A 
ATOM      5  S   UNL d   1       0.116  -0.282   0.809  0.00  0.00     0.015 SA
ATOM      6  C4  UNL d   1       1.069   1.067   0.385  0.00  0.00     0.022 A 
ATOM      7  C5  UNL d   1       1.939   0.782  -0.641  0.00  0.00     0.026 A 
ATOM      8  C6  UNL d   1       1.833  -0.574  -1.102  0.00  0.00    -0.082 A 
ATOM      9  C7  UNL d   1       2.537  -1.258  -2.123  0.00  0.00     0.045 A 
ENDROOT
TORSDOF 0
ENDMDL
