MODEL 1
REMARK minimizedAffinity -0.531087637
REMARK minimizedRMSD -1
REMARK  0 active torsions:
REMARK  status: ('A' for Active; 'I' for Inactive)
ROOT
ATOM      1  C   UNL d   1       2.337  -2.129  -1.326  0.00  0.00    -0.002 A 
ATOM      2  C1  UNL d   1       1.280  -2.680  -0.616  0.00  0.00     0.010 A 
ATOM      3  C2  UNL d   1       0.299  -1.860  -0.053  0.00  0.00     0.041 A 
ATOM      4  C3  UNL d   1       0.399  -0.465  -0.220  0.00  0.00    -0.075 A 
ATOM      5  S   UNL d   1      -0.685   0.734   0.380  0.00  0.00     0.015 SA
ATOM      6  C4  UNL d   1       0.230   2.005  -0.293  0.00  0.00     0.022 A 
ATOM      7  C5  UNL d   1       1.339   1.544  -0.962  0.00  0.00     0.026 A 
ATOM      8  C6  UNL d   1       1.455   0.113  -0.931  0.00  0.00    -0.082 A 
ATOM      9  C7  UNL d   1       2.434  -0.745  -1.489  0.00  0.00     0.045 A 
ENDROOT
TORSDOF 0
ENDMDL
