MODEL 1
REMARK minimizedAffinity -0.721966147
REMARK minimizedRMSD -1
REMARK  0 active torsions:
REMARK  status: ('A' for Active; 'I' for Inactive)
ROOT
ATOM      1  C   UNL d   1      -2.340  -3.593  -0.335  0.00  0.00    -0.002 A 
ATOM      2  C1  UNL d   1      -3.285  -2.591  -0.505  0.00  0.00     0.010 A 
ATOM      3  C2  UNL d   1      -2.920  -1.247  -0.412  0.00  0.00     0.041 A 
ATOM      4  C3  UNL d   1      -1.575  -0.923  -0.145  0.00  0.00    -0.075 A 
ATOM      5  S   UNL d   1      -0.897   0.654   0.011  0.00  0.00     0.015 SA
ATOM      6  C4  UNL d   1       0.664   0.035   0.305  0.00  0.00     0.022 A 
ATOM      7  C5  UNL d   1       0.685  -1.339   0.289  0.00  0.00     0.026 A 
ATOM      8  C6  UNL d   1      -0.604  -1.914   0.028  0.00  0.00    -0.082 A 
ATOM      9  C7  UNL d   1      -1.007  -3.268  -0.071  0.00  0.00     0.045 A 
ENDROOT
TORSDOF 0
ENDMDL
