MODEL 1
REMARK minimizedAffinity -2.20806193
REMARK minimizedRMSD -1
REMARK  0 active torsions:
REMARK  status: ('A' for Active; 'I' for Inactive)
ROOT
ATOM      1  C   UNL d   1      -2.978  -4.033  -0.730  0.00  0.00    -0.002 A 
ATOM      2  C1  UNL d   1      -3.597  -2.818  -0.987  0.00  0.00     0.010 A 
ATOM      3  C2  UNL d   1      -2.885  -1.622  -0.880  0.00  0.00     0.041 A 
ATOM      4  C3  UNL d   1      -1.526  -1.668  -0.508  0.00  0.00    -0.075 A 
ATOM      5  S   UNL d   1      -0.456  -0.331  -0.315  0.00  0.00     0.015 SA
ATOM      6  C4  UNL d   1       0.849  -1.341   0.112  0.00  0.00     0.022 A 
ATOM      7  C5  UNL d   1       0.494  -2.669   0.112  0.00  0.00     0.026 A 
ATOM      8  C6  UNL d   1      -0.881  -2.880  -0.246  0.00  0.00    -0.082 A 
ATOM      9  C7  UNL d   1      -1.630  -4.075  -0.362  0.00  0.00     0.045 A 
ENDROOT
TORSDOF 0
ENDMDL
