MODEL 1
REMARK minimizedAffinity -0.0339281932
REMARK minimizedRMSD -1
REMARK  0 active torsions:
REMARK  status: ('A' for Active; 'I' for Inactive)
ROOT
ATOM      1  C   UNL d   1      -2.055   1.285   3.669  0.00  0.00    -0.002 A 
ATOM      2  C1  UNL d   1      -3.001   0.288   3.475  0.00  0.00     0.010 A 
ATOM      3  C2  UNL d   1      -2.989  -0.487   2.314  0.00  0.00     0.041 A 
ATOM      4  C3  UNL d   1      -2.000  -0.241   1.341  0.00  0.00    -0.075 A 
ATOM      5  S   UNL d   1      -1.790  -1.065  -0.159  0.00  0.00     0.015 SA
ATOM      6  C4  UNL d   1      -0.439  -0.113  -0.577  0.00  0.00     0.022 A 
ATOM      7  C5  UNL d   1      -0.142   0.815   0.392  0.00  0.00     0.026 A 
ATOM      8  C6  UNL d   1      -1.036   0.756   1.514  0.00  0.00    -0.082 A 
ATOM      9  C7  UNL d   1      -1.075   1.525   2.702  0.00  0.00     0.045 A 
ENDROOT
TORSDOF 0
ENDMDL
