MODEL 1
REMARK minimizedAffinity 3.61653328
REMARK minimizedRMSD -1
REMARK  0 active torsions:
REMARK  status: ('A' for Active; 'I' for Inactive)
ROOT
ATOM      1  C   UNL d   1       4.516   5.355   2.755  0.00  0.00    -0.002 A 
ATOM      2  C1  UNL d   1       5.559   5.666   3.616  0.00  0.00     0.010 A 
ATOM      3  C2  UNL d   1       5.999   4.739   4.562  0.00  0.00     0.041 A 
ATOM      4  C3  UNL d   1       5.370   3.481   4.629  0.00  0.00    -0.075 A 
ATOM      5  S   UNL d   1       5.741   2.188   5.707  0.00  0.00     0.015 SA
ATOM      6  C4  UNL d   1       4.525   1.191   5.049  0.00  0.00     0.022 A 
ATOM      7  C5  UNL d   1       3.842   1.814   4.032  0.00  0.00     0.026 A 
ATOM      8  C6  UNL d   1       4.318   3.143   3.772  0.00  0.00    -0.082 A 
ATOM      9  C7  UNL d   1       3.893   4.105   2.824  0.00  0.00     0.045 A 
ENDROOT
TORSDOF 0
ENDMDL
