MODEL 1
REMARK minimizedAffinity -4.92431307
REMARK minimizedRMSD -1
REMARK  0 active torsions:
REMARK  status: ('A' for Active; 'I' for Inactive)
ROOT
ATOM      1  C   UNL d   1       5.381   4.560   2.423  0.00  0.00    -0.002 A 
ATOM      2  C1  UNL d   1       5.698   5.048   3.683  0.00  0.00     0.010 A 
ATOM      3  C2  UNL d   1       5.809   4.183   4.773  0.00  0.00     0.041 A 
ATOM      4  C3  UNL d   1       5.597   2.804   4.573  0.00  0.00    -0.075 A 
ATOM      5  S   UNL d   1       5.682   1.557   5.760  0.00  0.00     0.015 SA
ATOM      6  C4  UNL d   1       5.301   0.346   4.623  0.00  0.00     0.022 A 
ATOM      7  C5  UNL d   1       5.110   0.863   3.364  0.00  0.00     0.026 A 
ATOM      8  C6  UNL d   1       5.279   2.288   3.314  0.00  0.00    -0.082 A 
ATOM      9  C7  UNL d   1       5.172   3.192   2.229  0.00  0.00     0.045 A 
ENDROOT
TORSDOF 0
ENDMDL
