MODEL 1
REMARK minimizedAffinity 5.30779886
REMARK minimizedRMSD -1
REMARK  0 active torsions:
REMARK  status: ('A' for Active; 'I' for Inactive)
ROOT
ATOM      1  C   UNL d   1       4.163   5.996  -1.091  0.00  0.00    -0.002 A 
ATOM      2  C1  UNL d   1       5.323   5.999  -1.852  0.00  0.00     0.010 A 
ATOM      3  C2  UNL d   1       5.257   5.999  -3.247  0.00  0.00     0.041 A 
ATOM      4  C3  UNL d   1       3.994   5.998  -3.869  0.00  0.00    -0.075 A 
ATOM      5  S   UNL d   1       3.669   5.999  -5.563  0.00  0.00     0.015 SA
ATOM      6  C4  UNL d   1       1.983   5.996  -5.316  0.00  0.00     0.022 A 
ATOM      7  C5  UNL d   1       1.658   5.995  -3.980  0.00  0.00     0.026 A 
ATOM      8  C6  UNL d   1       2.811   5.996  -3.124  0.00  0.00    -0.082 A 
ATOM      9  C7  UNL d   1       2.911   5.995  -1.712  0.00  0.00     0.045 A 
ENDROOT
TORSDOF 0
ENDMDL
