MODEL 1
REMARK minimizedAffinity -1.09363866
REMARK minimizedRMSD -1
REMARK  0 active torsions:
REMARK  status: ('A' for Active; 'I' for Inactive)
ROOT
ATOM      1  C   UNL d   1       4.911   3.820   3.711  0.00  0.00    -0.002 A 
ATOM      2  C1  UNL d   1       5.609   3.992   4.898  0.00  0.00     0.010 A 
ATOM      3  C2  UNL d   1       5.984   2.889   5.668  0.00  0.00     0.041 A 
ATOM      4  C3  UNL d   1       5.644   1.597   5.219  0.00  0.00    -0.075 A 
ATOM      5  S   UNL d   1       5.999   0.100   5.995  0.00  0.00     0.015 SA
ATOM      6  C4  UNL d   1       5.234  -0.803   4.769  0.00  0.00     0.022 A 
ATOM      7  C5  UNL d   1       4.714   0.002   3.784  0.00  0.00     0.026 A 
ATOM      8  C6  UNL d   1       4.942   1.399   4.026  0.00  0.00    -0.082 A 
ATOM      9  C7  UNL d   1       4.576   2.538   3.269  0.00  0.00     0.045 A 
ENDROOT
TORSDOF 0
ENDMDL
