MODEL 1
REMARK minimizedAffinity -6.00730991
REMARK minimizedRMSD -1
REMARK  1 active torsions:
REMARK  status: ('A' for Active; 'I' for Inactive)
REMARK    1  A    between atoms: C1_2  and  C2_3 
ROOT
ATOM      1  C2  UNL d   1      -0.218   0.149   0.981  0.00  0.00    -0.073 A 
ATOM      2  C3  UNL d   1       1.036   0.019   1.588  0.00  0.00    -0.002 A 
ATOM      3  C4  UNL d   1       2.158  -0.308   0.825  0.00  0.00     0.004 A 
ATOM      4  C5  UNL d   1       2.039  -0.501  -0.551  0.00  0.00    -0.004 A 
ATOM      5  C6  UNL d   1       0.796  -0.365  -1.178  0.00  0.00    -0.075 A 
ATOM      6  C7  UNL d   1       0.651  -0.572  -2.657  0.00  0.00     0.076 C 
ATOM      7  C8  UNL d   1      -0.326  -0.039  -0.405  0.00  0.00     0.001 A 
ENDROOT
BRANCH   1   8
ATOM      8  C1  UNL d   1      -1.431   0.508   1.799  0.00  0.00     0.053 C 
ATOM      9  C   UNL d   1      -1.063   1.280   3.056  0.00  0.00     0.018 C 
ENDBRANCH   1   8
TORSDOF 1
ENDMDL
