MODEL 1
REMARK minimizedAffinity -5.13833046
REMARK minimizedRMSD -1
REMARK  1 active torsions:
REMARK  status: ('A' for Active; 'I' for Inactive)
REMARK    1  A    between atoms: C1_2  and  C2_3 
ROOT
ATOM      1  C2  UNL d   1      -0.195   0.136   1.139  0.00  0.00    -0.073 A 
ATOM      2  C3  UNL d   1      -1.305   0.721   1.758  0.00  0.00    -0.002 A 
ATOM      3  C4  UNL d   1      -1.200   1.242   3.049  0.00  0.00     0.004 A 
ATOM      4  C5  UNL d   1       0.016   1.189   3.730  0.00  0.00    -0.004 A 
ATOM      5  C6  UNL d   1       1.140   0.618   3.124  0.00  0.00    -0.075 A 
ATOM      6  C7  UNL d   1       2.455   0.551   3.844  0.00  0.00     0.076 C 
ATOM      7  C8  UNL d   1       1.026   0.096   1.829  0.00  0.00     0.001 A 
ENDROOT
BRANCH   1   8
ATOM      8  C1  UNL d   1      -0.302  -0.421  -0.256  0.00  0.00     0.053 C 
ATOM      9  C   UNL d   1       1.054  -0.823  -0.815  0.00  0.00     0.018 C 
ENDBRANCH   1   8
TORSDOF 1
ENDMDL
