MODEL 1
REMARK minimizedAffinity -6.30988646
REMARK minimizedRMSD -1
REMARK  1 active torsions:
REMARK  status: ('A' for Active; 'I' for Inactive)
REMARK    1  A    between atoms: C1_2  and  C2_3 
ROOT
ATOM      1  C2  UNL d   1       0.071  -0.406  -0.140  0.00  0.00    -0.073 A 
ATOM      2  C3  UNL d   1      -1.158   0.255  -0.026  0.00  0.00    -0.002 A 
ATOM      3  C4  UNL d   1      -1.535   0.840   1.183  0.00  0.00     0.004 A 
ATOM      4  C5  UNL d   1      -0.685   0.778   2.288  0.00  0.00    -0.004 A 
ATOM      5  C6  UNL d   1       0.552   0.132   2.191  0.00  0.00    -0.075 A 
ATOM      6  C7  UNL d   1       1.476   0.054   3.371  0.00  0.00     0.076 C 
ATOM      7  C8  UNL d   1       0.922  -0.456   0.974  0.00  0.00     0.001 A 
ENDROOT
BRANCH   1   8
ATOM      8  C1  UNL d   1       0.484  -1.034  -1.445  0.00  0.00     0.053 C 
ATOM      9  C   UNL d   1       0.877   0.008  -2.480  0.00  0.00     0.018 C 
ENDBRANCH   1   8
TORSDOF 1
ENDMDL
