MODEL 1
REMARK minimizedAffinity -4.46011305
REMARK minimizedRMSD -1
REMARK  1 active torsions:
REMARK  status: ('A' for Active; 'I' for Inactive)
REMARK    1  A    between atoms: C1_2  and  C2_3 
ROOT
ATOM      1  C2  UNL d   1      -0.530  -0.112  -4.307  0.00  0.00    -0.073 A 
ATOM      2  C3  UNL d   1       0.605   0.622  -4.667  0.00  0.00    -0.002 A 
ATOM      3  C4  UNL d   1       1.672   0.752  -3.777  0.00  0.00     0.004 A 
ATOM      4  C5  UNL d   1       1.617   0.145  -2.522  0.00  0.00    -0.004 A 
ATOM      5  C6  UNL d   1       0.496  -0.603  -2.149  0.00  0.00    -0.075 A 
ATOM      6  C7  UNL d   1       0.421  -1.260  -0.802  0.00  0.00     0.076 C 
ATOM      7  C8  UNL d   1      -0.572  -0.727  -3.047  0.00  0.00     0.001 A 
ENDROOT
BRANCH   1   8
ATOM      8  C1  UNL d   1      -1.682  -0.261  -5.267  0.00  0.00     0.053 C 
ATOM      9  C   UNL d   1      -2.091  -1.714  -5.447  0.00  0.00     0.018 C 
ENDBRANCH   1   8
TORSDOF 1
ENDMDL
