MODEL 1
REMARK minimizedAffinity -3.05580974
REMARK minimizedRMSD -1
REMARK  1 active torsions:
REMARK  status: ('A' for Active; 'I' for Inactive)
REMARK    1  A    between atoms: C1_2  and  C2_3 
ROOT
ATOM      1  C2  UNL d   1      -0.470  -0.024  -1.060  0.00  0.00    -0.073 A 
ATOM      2  C3  UNL d   1       0.392  -1.097  -0.805  0.00  0.00    -0.002 A 
ATOM      3  C4  UNL d   1       1.462  -1.359  -1.662  0.00  0.00     0.004 A 
ATOM      4  C5  UNL d   1       1.685  -0.550  -2.775  0.00  0.00    -0.004 A 
ATOM      5  C6  UNL d   1       0.842   0.534  -3.040  0.00  0.00    -0.075 A 
ATOM      6  C7  UNL d   1       1.067   1.413  -4.235  0.00  0.00     0.076 C 
ATOM      7  C8  UNL d   1      -0.232   0.789  -2.177  0.00  0.00     0.001 A 
ENDROOT
BRANCH   1   8
ATOM      8  C1  UNL d   1      -1.623   0.267  -0.134  0.00  0.00     0.053 C 
ATOM      9  C   UNL d   1      -2.642  -0.862  -0.121  0.00  0.00     0.018 C 
ENDBRANCH   1   8
TORSDOF 1
ENDMDL
