MODEL 1
REMARK minimizedAffinity -5.3584199
REMARK minimizedRMSD -1
REMARK  1 active torsions:
REMARK  status: ('A' for Active; 'I' for Inactive)
REMARK    1  A    between atoms: C1_2  and  C2_3 
ROOT
ATOM      1  C2  UNL d   1       0.623  -0.343  -0.206  0.00  0.00    -0.073 A 
ATOM      2  C3  UNL d   1       1.905  -0.651   0.264  0.00  0.00    -0.002 A 
ATOM      3  C4  UNL d   1       2.260  -0.364   1.582  0.00  0.00     0.004 A 
ATOM      4  C5  UNL d   1       1.336   0.226   2.446  0.00  0.00    -0.004 A 
ATOM      5  C6  UNL d   1       0.047   0.529   1.998  0.00  0.00    -0.075 A 
ATOM      6  C7  UNL d   1      -0.958   1.166   2.913  0.00  0.00     0.076 C 
ATOM      7  C8  UNL d   1      -0.301   0.241   0.671  0.00  0.00     0.001 A 
ENDROOT
BRANCH   1   8
ATOM      8  C1  UNL d   1       0.234  -0.657  -1.628  0.00  0.00     0.053 C 
ATOM      9  C   UNL d   1       1.130   0.048  -2.633  0.00  0.00     0.018 C 
ENDBRANCH   1   8
TORSDOF 1
ENDMDL
