MODEL 1
REMARK minimizedAffinity 0.893776059
REMARK minimizedRMSD -1
REMARK  1 active torsions:
REMARK  status: ('A' for Active; 'I' for Inactive)
REMARK    1  A    between atoms: C1_2  and  C2_3 
ROOT
ATOM      1  C2  UNL d   1       1.449  -1.141   0.943  0.00  0.00    -0.077 A 
ATOM      2  C3  UNL d   1       2.076  -0.800   2.150  0.00  0.00     0.002 A 
ATOM      3  C4  UNL d   1       1.366  -0.842   3.351  0.00  0.00     0.002 A 
ATOM      4  C5  UNL d   1       0.027  -1.229   3.358  0.00  0.00    -0.004 A 
ATOM      5  C6  UNL d   1      -0.606  -1.568   2.163  0.00  0.00     0.002 A 
ATOM      6  C7  UNL d   1       0.102  -1.525   0.961  0.00  0.00     0.002 A 
ENDROOT
BRANCH   1   7
ATOM      7  C1  UNL d   1       2.227  -1.144  -0.347  0.00  0.00     0.055 C 
ATOM      8  C   UNL d   1       1.309  -0.965  -1.547  0.00  0.00     0.019 C 
ENDBRANCH   1   7
TORSDOF 1
ENDMDL
