MODEL 1
REMARK minimizedAffinity 6.33569145
REMARK minimizedRMSD -1
REMARK  1 active torsions:
REMARK  status: ('A' for Active; 'I' for Inactive)
REMARK    1  A    between atoms: C1_2  and  C2_3 
ROOT
ATOM      1  C2  UNL d   1       3.761  -1.015  -0.024  0.00  0.00    -0.077 A 
ATOM      2  C3  UNL d   1       3.773   0.383   0.084  0.00  0.00     0.002 A 
ATOM      3  C4  UNL d   1       4.887   1.041   0.609  0.00  0.00     0.002 A 
ATOM      4  C5  UNL d   1       5.998   0.311   1.024  0.00  0.00    -0.004 A 
ATOM      5  C6  UNL d   1       5.996  -1.079   0.922  0.00  0.00     0.002 A 
ATOM      6  C7  UNL d   1       4.883  -1.740   0.400  0.00  0.00     0.002 A 
ENDROOT
BRANCH   1   7
ATOM      7  C1  UNL d   1       2.581  -1.724  -0.635  0.00  0.00     0.055 C 
ATOM      8  C   UNL d   1       2.227  -1.139  -1.994  0.00  0.00     0.019 C 
ENDBRANCH   1   7
TORSDOF 1
ENDMDL
