MODEL 1
REMARK minimizedAffinity 3.33438993
REMARK minimizedRMSD -1
REMARK  1 active torsions:
REMARK  status: ('A' for Active; 'I' for Inactive)
REMARK    1  A    between atoms: C1_2  and  C2_3 
ROOT
ATOM      1  C2  UNL d   1      -4.352  -1.133  -3.812  0.00  0.00    -0.077 A 
ATOM      2  C3  UNL d   1      -3.488  -1.185  -4.915  0.00  0.00     0.002 A 
ATOM      3  C4  UNL d   1      -3.670  -0.321  -5.996  0.00  0.00     0.002 A 
ATOM      4  C5  UNL d   1      -4.713   0.603  -5.984  0.00  0.00    -0.004 A 
ATOM      5  C6  UNL d   1      -5.579   0.662  -4.892  0.00  0.00     0.002 A 
ATOM      6  C7  UNL d   1      -5.398  -0.202  -3.811  0.00  0.00     0.002 A 
ENDROOT
BRANCH   1   7
ATOM      7  C1  UNL d   1      -4.127  -2.030  -2.623  0.00  0.00     0.055 C 
ATOM      8  C   UNL d   1      -2.984  -1.524  -1.756  0.00  0.00     0.019 C 
ENDBRANCH   1   7
TORSDOF 1
ENDMDL
