MODEL 1
REMARK minimizedAffinity 2.58016396
REMARK minimizedRMSD -1
REMARK  1 active torsions:
REMARK  status: ('A' for Active; 'I' for Inactive)
REMARK    1  A    between atoms: C1_2  and  C2_3 
ROOT
ATOM      1  C2  UNL d   1       1.970  -1.598  -0.260  0.00  0.00    -0.077 A 
ATOM      2  C3  UNL d   1       1.088  -1.120  -1.240  0.00  0.00     0.002 A 
ATOM      3  C4  UNL d   1       1.566  -0.744  -2.497  0.00  0.00     0.002 A 
ATOM      4  C5  UNL d   1       2.925  -0.846  -2.787  0.00  0.00    -0.004 A 
ATOM      5  C6  UNL d   1       3.810  -1.318  -1.818  0.00  0.00     0.002 A 
ATOM      6  C7  UNL d   1       3.335  -1.693  -0.561  0.00  0.00     0.002 A 
ENDROOT
BRANCH   1   7
ATOM      7  C1  UNL d   1       1.450  -2.050   1.079  0.00  0.00     0.055 C 
ATOM      8  C   UNL d   1       0.972  -0.871   1.915  0.00  0.00     0.019 C 
ENDBRANCH   1   7
TORSDOF 1
ENDMDL
