MODEL 1
REMARK minimizedAffinity 0.918035209
REMARK minimizedRMSD -1
REMARK  1 active torsions:
REMARK  status: ('A' for Active; 'I' for Inactive)
REMARK    1  A    between atoms: C1_2  and  C2_3 
ROOT
ATOM      1  C2  UNL d   1       1.467   2.246  -2.102  0.00  0.00    -0.077 A 
ATOM      2  C3  UNL d   1       0.697   3.307  -2.599  0.00  0.00     0.002 A 
ATOM      3  C4  UNL d   1      -0.634   3.102  -2.968  0.00  0.00     0.002 A 
ATOM      4  C5  UNL d   1      -1.207   1.838  -2.840  0.00  0.00    -0.004 A 
ATOM      5  C6  UNL d   1      -0.449   0.776  -2.349  0.00  0.00     0.002 A 
ATOM      6  C7  UNL d   1       0.881   0.979  -1.981  0.00  0.00     0.002 A 
ENDROOT
BRANCH   1   7
ATOM      7  C1  UNL d   1       2.887   2.476  -1.657  0.00  0.00     0.055 C 
ATOM      8  C   UNL d   1       3.014   2.390  -0.143  0.00  0.00     0.019 C 
ENDBRANCH   1   7
TORSDOF 1
ENDMDL
