MODEL 1
REMARK minimizedAffinity -4.5184927
REMARK minimizedRMSD -1
REMARK  1 active torsions:
REMARK  status: ('A' for Active; 'I' for Inactive)
REMARK    1  A    between atoms: C1_2  and  C2_3 
ROOT
ATOM      1  C2  UNL d   1       2.062  -0.181  -0.994  0.00  0.00    -0.077 A 
ATOM      2  C3  UNL d   1       2.646   0.157  -2.224  0.00  0.00     0.002 A 
ATOM      3  C4  UNL d   1       3.211   1.420  -2.414  0.00  0.00     0.002 A 
ATOM      4  C5  UNL d   1       3.202   2.352  -1.379  0.00  0.00    -0.004 A 
ATOM      5  C6  UNL d   1       2.623   2.026  -0.153  0.00  0.00     0.002 A 
ATOM      6  C7  UNL d   1       2.056   0.766   0.038  0.00  0.00     0.002 A 
ENDROOT
BRANCH   1   7
ATOM      7  C1  UNL d   1       1.496  -1.558  -0.771  0.00  0.00     0.055 C 
ATOM      8  C   UNL d   1       1.942  -2.130   0.567  0.00  0.00     0.019 C 
ENDBRANCH   1   7
TORSDOF 1
ENDMDL
