MODEL 1
REMARK minimizedAffinity 1.94446063
REMARK minimizedRMSD -1
REMARK  0 active torsions:
REMARK  status: ('A' for Active; 'I' for Inactive)
ROOT
ATOM      1  C2' OXE d   1       3.326  -3.348   6.000  0.00  0.00     0.078 C 
ATOM      2  C1' OXE d   1       1.003  -4.763   5.306  0.00  0.00     0.078 C 
ATOM      3  C1  OXE d   1       1.427  -3.624   4.412  0.00  0.00    -0.078 A 
ATOM      4  C2  OXE d   1       2.539  -2.908   4.785  0.00  0.00    -0.078 A 
ATOM      5  C3  OXE d   1       3.004  -1.883   3.966  0.00  0.00     0.003 A 
ATOM      6  C4  OXE d   1       2.264  -1.476   2.850  0.00  0.00    -0.002 A 
ATOM      7  C5  OXE d   1       1.107  -2.166   2.474  0.00  0.00    -0.002 A 
ATOM      8  C6  OXE d   1       0.699  -3.267   3.219  0.00  0.00     0.003 A 
ENDROOT
TORSDOF 0
ENDMDL
