MODEL 1
REMARK minimizedAffinity 3.87979984
REMARK minimizedRMSD -1
REMARK  0 active torsions:
REMARK  status: ('A' for Active; 'I' for Inactive)
ROOT
ATOM      1  C2' OXE d   1       3.566  -4.398   4.750  0.00  0.00     0.078 C 
ATOM      2  C1' OXE d   1       2.052  -5.131   2.502  0.00  0.00     0.078 C 
ATOM      3  C1  OXE d   1       2.041  -3.680   2.916  0.00  0.00    -0.078 A 
ATOM      4  C2  OXE d   1       2.747  -3.339   4.044  0.00  0.00    -0.078 A 
ATOM      5  C3  OXE d   1       2.814  -2.006   4.438  0.00  0.00     0.003 A 
ATOM      6  C4  OXE d   1       2.046  -1.034   3.786  0.00  0.00    -0.002 A 
ATOM      7  C5  OXE d   1       1.288  -1.367   2.658  0.00  0.00    -0.002 A 
ATOM      8  C6  OXE d   1       1.308  -2.675   2.186  0.00  0.00     0.003 A 
ENDROOT
TORSDOF 0
ENDMDL
