MODEL 1
REMARK minimizedAffinity -3.35806131
REMARK minimizedRMSD -1
REMARK  0 active torsions:
REMARK  status: ('A' for Active; 'I' for Inactive)
ROOT
ATOM      1  C2' OXE d   1       1.539  -5.996  -5.513  0.00  0.00     0.078 C 
ATOM      2  C1' OXE d   1       4.334  -5.976  -5.256  0.00  0.00     0.078 C 
ATOM      3  C1  OXE d   1       3.512  -5.980  -3.992  0.00  0.00    -0.078 A 
ATOM      4  C2  OXE d   1       2.145  -5.943  -4.127  0.00  0.00    -0.078 A 
ATOM      5  C3  OXE d   1       1.338  -6.000  -2.994  0.00  0.00     0.003 A 
ATOM      6  C4  OXE d   1       1.907  -5.940  -1.715  0.00  0.00    -0.002 A 
ATOM      7  C5  OXE d   1       3.296  -5.937  -1.556  0.00  0.00    -0.002 A 
ATOM      8  C6  OXE d   1       4.112  -6.000  -2.680  0.00  0.00     0.003 A 
ENDROOT
TORSDOF 0
ENDMDL
