MODEL 1
REMARK minimizedAffinity 5.71058798
REMARK minimizedRMSD -1
REMARK  0 active torsions:
REMARK  status: ('A' for Active; 'I' for Inactive)
ROOT
ATOM      1  C2' OXE d   1       3.760  -5.983  -5.800  0.00  0.00     0.078 C 
ATOM      2  C1' OXE d   1       1.187  -5.985  -4.677  0.00  0.00     0.078 C 
ATOM      3  C1  OXE d   1       2.366  -5.950  -3.736  0.00  0.00    -0.078 A 
ATOM      4  C2  OXE d   1       3.621  -5.997  -4.293  0.00  0.00    -0.078 A 
ATOM      5  C3  OXE d   1       4.743  -5.912  -3.473  0.00  0.00     0.003 A 
ATOM      6  C4  OXE d   1       4.606  -5.936  -2.080  0.00  0.00    -0.002 A 
ATOM      7  C5  OXE d   1       3.337  -5.928  -1.491  0.00  0.00    -0.002 A 
ATOM      8  C6  OXE d   1       2.209  -5.893  -2.304  0.00  0.00     0.003 A 
ENDROOT
TORSDOF 0
ENDMDL
