MODEL 1
REMARK minimizedAffinity 5.33213282
REMARK minimizedRMSD -1
REMARK  0 active torsions:
REMARK  status: ('A' for Active; 'I' for Inactive)
ROOT
ATOM      1  C2' OXE d   1      -2.281   3.569  -1.203  0.00  0.00     0.078 C 
ATOM      2  C1' OXE d   1      -1.903   1.268   0.359  0.00  0.00     0.078 C 
ATOM      3  C1  OXE d   1      -3.177   2.051   0.557  0.00  0.00    -0.078 A 
ATOM      4  C2  OXE d   1      -3.332   3.201  -0.179  0.00  0.00    -0.078 A 
ATOM      5  C3  OXE d   1      -4.513   3.932  -0.075  0.00  0.00     0.003 A 
ATOM      6  C4  OXE d   1      -5.476   3.590   0.882  0.00  0.00    -0.002 A 
ATOM      7  C5  OXE d   1      -5.319   2.445   1.669  0.00  0.00    -0.002 A 
ATOM      8  C6  OXE d   1      -4.198   1.642   1.490  0.00  0.00     0.003 A 
ENDROOT
TORSDOF 0
ENDMDL
