MODEL 1
REMARK minimizedAffinity 9.49601936
REMARK minimizedRMSD -1
REMARK  0 active torsions:
REMARK  status: ('A' for Active; 'I' for Inactive)
ROOT
ATOM      1  C2' OXE d   1       3.194  -4.809   4.418  0.00  0.00     0.078 C 
ATOM      2  C1' OXE d   1       4.728  -2.494   4.828  0.00  0.00     0.078 C 
ATOM      3  C1  OXE d   1       3.491  -2.376   3.972  0.00  0.00    -0.078 A 
ATOM      4  C2  OXE d   1       2.772  -3.524   3.739  0.00  0.00    -0.078 A 
ATOM      5  C3  OXE d   1       1.593  -3.460   3.002  0.00  0.00     0.003 A 
ATOM      6  C4  OXE d   1       1.216  -2.270   2.369  0.00  0.00    -0.002 A 
ATOM      7  C5  OXE d   1       1.956  -1.098   2.561  0.00  0.00    -0.002 A 
ATOM      8  C6  OXE d   1       3.070  -1.125   3.393  0.00  0.00     0.003 A 
ENDROOT
TORSDOF 0
ENDMDL
