MODEL 1
REMARK minimizedAffinity -0.362234622
REMARK minimizedRMSD -1
REMARK  0 active torsions:
REMARK  status: ('A' for Active; 'I' for Inactive)
ROOT
ATOM      1  C2' OXE d   1       5.414  -2.823   4.160  0.00  0.00     0.078 C 
ATOM      2  C1' OXE d   1       3.312  -4.320   5.263  0.00  0.00     0.078 C 
ATOM      3  C1  OXE d   1       2.971  -3.311   4.196  0.00  0.00    -0.078 A 
ATOM      4  C2  OXE d   1       4.000  -2.550   3.694  0.00  0.00    -0.078 A 
ATOM      5  C3  OXE d   1       3.750  -1.642   2.669  0.00  0.00     0.003 A 
ATOM      6  C4  OXE d   1       2.438  -1.389   2.251  0.00  0.00    -0.002 A 
ATOM      7  C5  OXE d   1       1.370  -2.125   2.777  0.00  0.00    -0.002 A 
ATOM      8  C6  OXE d   1       1.625  -3.118   3.717  0.00  0.00     0.003 A 
ENDROOT
TORSDOF 0
ENDMDL
