MODEL 1
REMARK minimizedAffinity 10.9225054
REMARK minimizedRMSD -1
REMARK  0 active torsions:
REMARK  status: ('A' for Active; 'I' for Inactive)
ROOT
ATOM      1  C2' OXE d   1       1.639  -4.458   4.374  0.00  0.00     0.078 C 
ATOM      2  C1' OXE d   1       4.184  -3.279   4.485  0.00  0.00     0.078 C 
ATOM      3  C1  OXE d   1       3.136  -2.611   3.631  0.00  0.00    -0.078 A 
ATOM      4  C2  OXE d   1       1.907  -3.221   3.545  0.00  0.00    -0.078 A 
ATOM      5  C3  OXE d   1       0.888  -2.618   2.814  0.00  0.00     0.003 A 
ATOM      6  C4  OXE d   1       1.147  -1.479   2.042  0.00  0.00    -0.002 A 
ATOM      7  C5  OXE d   1       2.403  -0.864   2.083  0.00  0.00    -0.002 A 
ATOM      8  C6  OXE d   1       3.393  -1.392   2.904  0.00  0.00     0.003 A 
ENDROOT
TORSDOF 0
ENDMDL
