MODEL 1
REMARK minimizedAffinity 11.7155151
REMARK minimizedRMSD -1
REMARK  0 active torsions:
REMARK  status: ('A' for Active; 'I' for Inactive)
ROOT
ATOM      1  C2' OXE d   1      -5.170   1.782  -5.322  0.00  0.00     0.078 C 
ATOM      2  C1' OXE d   1      -5.450  -0.957  -5.871  0.00  0.00     0.078 C 
ATOM      3  C1  OXE d   1      -4.497  -0.553  -4.774  0.00  0.00    -0.078 A 
ATOM      4  C2  OXE d   1      -4.331   0.791  -4.544  0.00  0.00    -0.078 A 
ATOM      5  C3  OXE d   1      -3.506   1.216  -3.507  0.00  0.00     0.003 A 
ATOM      6  C4  OXE d   1      -2.726   0.294  -2.798  0.00  0.00    -0.002 A 
ATOM      7  C5  OXE d   1      -2.850  -1.078  -3.044  0.00  0.00    -0.002 A 
ATOM      8  C6  OXE d   1      -3.761  -1.519  -3.997  0.00  0.00     0.003 A 
ENDROOT
TORSDOF 0
ENDMDL
