MODEL 1
REMARK minimizedAffinity 4.39242744
REMARK minimizedRMSD -1
REMARK  0 active torsions:
REMARK  status: ('A' for Active; 'I' for Inactive)
ROOT
ATOM      1  C2' OXE d   1       1.396  -4.496   5.371  0.00  0.00     0.078 C 
ATOM      2  C1' OXE d   1       1.758  -5.086   2.650  0.00  0.00     0.078 C 
ATOM      3  C1  OXE d   1       1.958  -3.659   3.093  0.00  0.00    -0.078 A 
ATOM      4  C2  OXE d   1       1.734  -3.370   4.418  0.00  0.00    -0.078 A 
ATOM      5  C3  OXE d   1       1.957  -2.080   4.890  0.00  0.00     0.003 A 
ATOM      6  C4  OXE d   1       2.259  -1.042   4.000  0.00  0.00    -0.002 A 
ATOM      7  C5  OXE d   1       2.453  -1.307   2.640  0.00  0.00    -0.002 A 
ATOM      8  C6  OXE d   1       2.348  -2.614   2.179  0.00  0.00     0.003 A 
ENDROOT
TORSDOF 0
ENDMDL
