MODEL 1
REMARK minimizedAffinity 6.18843317
REMARK minimizedRMSD -1
REMARK  0 active torsions:
REMARK  status: ('A' for Active; 'I' for Inactive)
ROOT
ATOM      1  C2' OXE d   1       5.443  -2.991   3.996  0.00  0.00     0.078 C 
ATOM      2  C1' OXE d   1       3.655  -5.045   4.679  0.00  0.00     0.078 C 
ATOM      3  C1  OXE d   1       3.092  -3.816   4.010  0.00  0.00    -0.078 A 
ATOM      4  C2  OXE d   1       3.967  -2.796   3.722  0.00  0.00    -0.078 A 
ATOM      5  C3  OXE d   1       3.510  -1.663   3.055  0.00  0.00     0.003 A 
ATOM      6  C4  OXE d   1       2.142  -1.487   2.814  0.00  0.00    -0.002 A 
ATOM      7  C5  OXE d   1       1.228  -2.496   3.136  0.00  0.00    -0.002 A 
ATOM      8  C6  OXE d   1       1.692  -3.682   3.694  0.00  0.00     0.003 A 
ENDROOT
TORSDOF 0
ENDMDL
