MODEL 1
REMARK minimizedAffinity 7.66076946
REMARK minimizedRMSD -1
REMARK  0 active torsions:
REMARK  status: ('A' for Active; 'I' for Inactive)
ROOT
ATOM      1  C2' OXE d   1       2.278  -1.413   2.538  0.00  0.00     0.078 C 
ATOM      2  C1' OXE d   1       4.239  -2.965   3.812  0.00  0.00     0.078 C 
ATOM      3  C1  OXE d   1       2.870  -3.571   3.632  0.00  0.00    -0.078 A 
ATOM      4  C2  OXE d   1       1.903  -2.787   3.049  0.00  0.00    -0.078 A 
ATOM      5  C3  OXE d   1       0.638  -3.317   2.810  0.00  0.00     0.003 A 
ATOM      6  C4  OXE d   1       0.297  -4.585   3.295  0.00  0.00    -0.002 A 
ATOM      7  C5  OXE d   1       1.256  -5.385   3.926  0.00  0.00    -0.002 A 
ATOM      8  C6  OXE d   1       2.556  -4.910   4.064  0.00  0.00     0.003 A 
ENDROOT
TORSDOF 0
ENDMDL
