MODEL 1
REMARK minimizedAffinity 2.48040032
REMARK minimizedRMSD -1
REMARK  0 active torsions:
REMARK  status: ('A' for Active; 'I' for Inactive)
ROOT
ATOM      1  C2' OXE d   1       2.304  -6.000  -5.589  0.00  0.00     0.078 C 
ATOM      2  C1' OXE d   1       5.066  -5.627  -5.923  0.00  0.00     0.078 C 
ATOM      3  C1  OXE d   1       4.534  -5.719  -4.515  0.00  0.00    -0.078 A 
ATOM      4  C2  OXE d   1       3.175  -5.855  -4.360  0.00  0.00    -0.078 A 
ATOM      5  C3  OXE d   1       2.638  -6.000  -3.084  0.00  0.00     0.003 A 
ATOM      6  C4  OXE d   1       3.449  -5.854  -1.952  0.00  0.00    -0.002 A 
ATOM      7  C5  OXE d   1       4.830  -5.676  -2.087  0.00  0.00    -0.002 A 
ATOM      8  C6  OXE d   1       5.393  -5.649  -3.359  0.00  0.00     0.003 A 
ENDROOT
TORSDOF 0
ENDMDL
