MODEL 1
REMARK minimizedAffinity 12.024909
REMARK minimizedRMSD -1
REMARK  0 active torsions:
REMARK  status: ('A' for Active; 'I' for Inactive)
ROOT
ATOM      1  C   UNL d   1      -1.555   5.860  -2.385  0.00  0.00     0.124 A 
ATOM      2  C1  UNL d   1      -0.212   5.842  -2.037  0.00  0.00     0.062 A 
ATOM      3  C2  UNL d   1       0.768   5.876  -3.025  0.00  0.00     0.162 A 
ATOM      4  C3  UNL d   1       0.408   5.930  -4.371  0.00  0.00    -0.034 A 
ATOM      5  C4  UNL d   1      -0.945   5.947  -4.714  0.00  0.00     0.162 A 
ATOM      6  C5  UNL d   1      -1.921   5.913  -3.723  0.00  0.00     0.062 A 
ATOM      7  F   UNL d   1      -3.218   5.930  -4.061  0.00  0.00    -0.097 F 
ATOM      8  F1  UNL d   1      -1.326   5.998  -5.999  0.00  0.00    -0.096 F 
ATOM      9  I   UNL d   1       1.870   5.981  -5.852  0.00  0.00    -0.060 I 
ATOM     10  F2  UNL d   1       2.058   5.857  -2.659  0.00  0.00    -0.096 F 
ATOM     11  F3  UNL d   1       0.144   5.790  -0.745  0.00  0.00    -0.097 F 
ATOM     12  F4  UNL d   1      -2.496   5.826  -1.432  0.00  0.00    -0.092 F 
ENDROOT
TORSDOF 0
ENDMDL
