MODEL 1
REMARK minimizedAffinity 10.250248
REMARK minimizedRMSD -1
REMARK  0 active torsions:
REMARK  status: ('A' for Active; 'I' for Inactive)
ROOT
ATOM      1  C   UNL d   1       3.972   3.532  -3.257  0.00  0.00     0.124 A 
ATOM      2  C1  UNL d   1       4.426   4.431  -4.211  0.00  0.00     0.062 A 
ATOM      3  C2  UNL d   1       3.518   5.137  -4.996  0.00  0.00     0.162 A 
ATOM      4  C3  UNL d   1       2.146   4.947  -4.828  0.00  0.00    -0.034 A 
ATOM      5  C4  UNL d   1       1.697   4.040  -3.867  0.00  0.00     0.162 A 
ATOM      6  C5  UNL d   1       2.609   3.337  -3.085  0.00  0.00     0.062 A 
ATOM      7  F   UNL d   1       2.168   2.469  -2.163  0.00  0.00    -0.097 F 
ATOM      8  F1  UNL d   1       0.385   3.833  -3.680  0.00  0.00    -0.096 F 
ATOM      9  I   UNL d   1       0.786   6.000  -6.000  0.00  0.00    -0.060 I 
ATOM     10  F2  UNL d   1       3.985   6.000  -5.911  0.00  0.00    -0.096 F 
ATOM     11  F3  UNL d   1       5.742   4.621  -4.380  0.00  0.00    -0.097 F 
ATOM     12  F4  UNL d   1       4.847   2.854  -2.504  0.00  0.00    -0.092 F 
ENDROOT
TORSDOF 0
ENDMDL
