MODEL 1
REMARK minimizedAffinity 2.34120989
REMARK minimizedRMSD -1
REMARK  0 active torsions:
REMARK  status: ('A' for Active; 'I' for Inactive)
ROOT
ATOM      1  C   UNL d   1       1.125   4.290  -4.326  0.00  0.00     0.124 A 
ATOM      2  C1  UNL d   1       1.816   5.155  -5.163  0.00  0.00     0.062 A 
ATOM      3  C2  UNL d   1       3.208   5.150  -5.181  0.00  0.00     0.162 A 
ATOM      4  C3  UNL d   1       3.919   4.275  -4.358  0.00  0.00    -0.034 A 
ATOM      5  C4  UNL d   1       3.217   3.409  -3.518  0.00  0.00     0.162 A 
ATOM      6  C5  UNL d   1       1.826   3.418  -3.504  0.00  0.00     0.062 A 
ATOM      7  F   UNL d   1       1.160   2.582  -2.694  0.00  0.00    -0.097 F 
ATOM      8  F1  UNL d   1       3.869   2.555  -2.715  0.00  0.00    -0.096 F 
ATOM      9  I   UNL d   1       6.000   4.264  -4.382  0.00  0.00    -0.060 I 
ATOM     10  F2  UNL d   1       3.849   5.996  -6.000  0.00  0.00    -0.096 F 
ATOM     11  F3  UNL d   1       1.141   5.999  -5.957  0.00  0.00    -0.097 F 
ATOM     12  F4  UNL d   1      -0.214   4.298  -4.310  0.00  0.00    -0.092 F 
ENDROOT
TORSDOF 0
ENDMDL
