MODEL 1
REMARK minimizedAffinity 8.06990051
REMARK minimizedRMSD -1
REMARK  0 active torsions:
REMARK  status: ('A' for Active; 'I' for Inactive)
ROOT
ATOM      1  C   UNL d   1      -2.443   5.963  -3.320  0.00  0.00     0.124 A 
ATOM      2  C1  UNL d   1      -1.889   5.957  -4.592  0.00  0.00     0.062 A 
ATOM      3  C2  UNL d   1      -0.506   5.961  -4.754  0.00  0.00     0.162 A 
ATOM      4  C3  UNL d   1       0.332   5.971  -3.639  0.00  0.00    -0.034 A 
ATOM      5  C4  UNL d   1      -0.232   5.979  -2.362  0.00  0.00     0.162 A 
ATOM      6  C5  UNL d   1      -1.615   5.974  -2.206  0.00  0.00     0.062 A 
ATOM      7  F   UNL d   1      -2.148   5.981  -0.976  0.00  0.00    -0.097 F 
ATOM      8  F1  UNL d   1       0.545   5.989  -1.269  0.00  0.00    -0.096 F 
ATOM      9  I   UNL d   1       2.400   5.978  -3.876  0.00  0.00    -0.060 I 
ATOM     10  F2  UNL d   1       0.002   5.955  -5.995  0.00  0.00    -0.096 F 
ATOM     11  F3  UNL d   1      -2.687   5.947  -5.670  0.00  0.00    -0.097 F 
ATOM     12  F4  UNL d   1      -3.774   5.960  -3.167  0.00  0.00    -0.092 F 
ENDROOT
TORSDOF 0
ENDMDL
