MODEL 1
REMARK minimizedAffinity 11.0740528
REMARK minimizedRMSD -1
REMARK  0 active torsions:
REMARK  status: ('A' for Active; 'I' for Inactive)
ROOT
ATOM      1  C   UNL d   1      -0.860   5.947  -4.286  0.00  0.00     0.124 A 
ATOM      2  C1  UNL d   1      -0.402   5.964  -2.975  0.00  0.00     0.062 A 
ATOM      3  C2  UNL d   1      -1.307   5.979  -1.918  0.00  0.00     0.162 A 
ATOM      4  C3  UNL d   1      -2.680   5.976  -2.166  0.00  0.00    -0.034 A 
ATOM      5  C4  UNL d   1      -3.132   5.960  -3.487  0.00  0.00     0.162 A 
ATOM      6  C5  UNL d   1      -2.224   5.946  -4.540  0.00  0.00     0.062 A 
ATOM      7  F   UNL d   1      -2.668   5.930  -5.805  0.00  0.00    -0.097 F 
ATOM      8  F1  UNL d   1      -4.445   5.957  -3.761  0.00  0.00    -0.096 F 
ATOM      9  I   UNL d   1      -4.036   5.998  -0.588  0.00  0.00    -0.060 I 
ATOM     10  F2  UNL d   1      -0.837   5.994  -0.662  0.00  0.00    -0.096 F 
ATOM     11  F3  UNL d   1       0.916   5.966  -2.727  0.00  0.00    -0.097 F 
ATOM     12  F4  UNL d   1       0.013   5.934  -5.301  0.00  0.00    -0.092 F 
ENDROOT
TORSDOF 0
ENDMDL
