MODEL 1
REMARK minimizedAffinity 11.5892935
REMARK minimizedRMSD -1
REMARK  0 active torsions:
REMARK  status: ('A' for Active; 'I' for Inactive)
ROOT
ATOM      1  C   UNL d   1       1.071   2.883  -3.468  0.00  0.00     0.124 A 
ATOM      2  C1  UNL d   1       2.446   2.901  -3.282  0.00  0.00     0.062 A 
ATOM      3  C2  UNL d   1       3.238   3.789  -4.003  0.00  0.00     0.162 A 
ATOM      4  C3  UNL d   1       2.657   4.668  -4.917  0.00  0.00    -0.034 A 
ATOM      5  C4  UNL d   1       1.273   4.644  -5.099  0.00  0.00     0.162 A 
ATOM      6  C5  UNL d   1       0.486   3.754  -4.376  0.00  0.00     0.062 A 
ATOM      7  F   UNL d   1      -0.843   3.738  -4.558  0.00  0.00    -0.097 F 
ATOM      8  F1  UNL d   1       0.682   5.475  -5.970  0.00  0.00    -0.096 F 
ATOM      9  I   UNL d   1       3.839   5.998  -5.997  0.00  0.00    -0.060 I 
ATOM     10  F2  UNL d   1       4.565   3.785  -3.802  0.00  0.00    -0.096 F 
ATOM     11  F3  UNL d   1       3.014   2.060  -2.405  0.00  0.00    -0.097 F 
ATOM     12  F4  UNL d   1       0.311   2.026  -2.773  0.00  0.00    -0.092 F 
ENDROOT
TORSDOF 0
ENDMDL
