MODEL 1
REMARK minimizedAffinity 23.0139103
REMARK minimizedRMSD -1
REMARK  0 active torsions:
REMARK  status: ('A' for Active; 'I' for Inactive)
ROOT
ATOM      1  C   UNL d   1      -3.618  -2.489   4.616  0.00  0.00     0.124 A 
ATOM      2  C1  UNL d   1      -2.561  -2.771   3.762  0.00  0.00     0.062 A 
ATOM      3  C2  UNL d   1      -1.883  -1.737   3.122  0.00  0.00     0.162 A 
ATOM      4  C3  UNL d   1      -2.260  -0.411   3.335  0.00  0.00    -0.034 A 
ATOM      5  C4  UNL d   1      -3.325  -0.136   4.194  0.00  0.00     0.162 A 
ATOM      6  C5  UNL d   1      -3.999  -1.173   4.832  0.00  0.00     0.062 A 
ATOM      7  F   UNL d   1      -5.020  -0.898   5.657  0.00  0.00    -0.097 F 
ATOM      8  F1  UNL d   1      -3.713   1.128   4.422  0.00  0.00    -0.096 F 
ATOM      9  I   UNL d   1      -1.250   1.138   2.380  0.00  0.00    -0.060 I 
ATOM     10  F2  UNL d   1      -0.866  -2.039   2.301  0.00  0.00    -0.096 F 
ATOM     11  F3  UNL d   1      -2.192  -4.043   3.551  0.00  0.00    -0.097 F 
ATOM     12  F4  UNL d   1      -4.269  -3.486   5.230  0.00  0.00    -0.092 F 
ENDROOT
TORSDOF 0
ENDMDL
