MODEL 1
REMARK minimizedAffinity 11.7637644
REMARK minimizedRMSD -1
REMARK  0 active torsions:
REMARK  status: ('A' for Active; 'I' for Inactive)
ROOT
ATOM      1  C   UNL d   1       1.047   2.142   0.833  0.00  0.00     0.124 A 
ATOM      2  C1  UNL d   1       0.987   2.540  -0.495  0.00  0.00     0.062 A 
ATOM      3  C2  UNL d   1       1.268   1.631  -1.512  0.00  0.00     0.162 A 
ATOM      4  C3  UNL d   1       1.611   0.315  -1.203  0.00  0.00    -0.034 A 
ATOM      5  C4  UNL d   1       1.671  -0.077   0.135  0.00  0.00     0.162 A 
ATOM      6  C5  UNL d   1       1.389   0.834   1.147  0.00  0.00     0.062 A 
ATOM      7  F   UNL d   1       1.449   0.448   2.430  0.00  0.00    -0.097 F 
ATOM      8  F1  UNL d   1       1.998  -1.335   0.467  0.00  0.00    -0.096 F 
ATOM      9  I   UNL d   1       2.032  -1.047  -2.720  0.00  0.00    -0.060 I 
ATOM     10  F2  UNL d   1       1.201   2.043  -2.786  0.00  0.00    -0.096 F 
ATOM     11  F3  UNL d   1       0.657   3.803  -0.801  0.00  0.00    -0.097 F 
ATOM     12  F4  UNL d   1       0.777   3.019   1.809  0.00  0.00    -0.092 F 
ENDROOT
TORSDOF 0
ENDMDL
