MODEL 1
REMARK minimizedAffinity 21.8780804
REMARK minimizedRMSD -1
REMARK  0 active torsions:
REMARK  status: ('A' for Active; 'I' for Inactive)
ROOT
ATOM      1  C   UNL d   1       1.316   1.892  -1.024  0.00  0.00     0.124 A 
ATOM      2  C1  UNL d   1       1.275   2.833  -0.005  0.00  0.00     0.062 A 
ATOM      3  C2  UNL d   1       0.699   2.512   1.221  0.00  0.00     0.162 A 
ATOM      4  C3  UNL d   1       0.158   1.244   1.434  0.00  0.00    -0.034 A 
ATOM      5  C4  UNL d   1       0.202   0.303   0.404  0.00  0.00     0.162 A 
ATOM      6  C5  UNL d   1       0.780   0.628  -0.819  0.00  0.00     0.062 A 
ATOM      7  F   UNL d   1       0.819  -0.282  -1.803  0.00  0.00    -0.097 F 
ATOM      8  F1  UNL d   1      -0.308  -0.925   0.576  0.00  0.00    -0.096 F 
ATOM      9  I   UNL d   1      -0.705   0.762   3.265  0.00  0.00    -0.060 I 
ATOM     10  F2  UNL d   1       0.673   3.441   2.188  0.00  0.00    -0.096 F 
ATOM     11  F3  UNL d   1       1.792   4.054  -0.201  0.00  0.00    -0.097 F 
ATOM     12  F4  UNL d   1       1.871   2.203  -2.203  0.00  0.00    -0.092 F 
ENDROOT
TORSDOF 0
ENDMDL
