MODEL 1
REMARK minimizedAffinity 14.183651
REMARK minimizedRMSD -1
REMARK  0 active torsions:
REMARK  status: ('A' for Active; 'I' for Inactive)
ROOT
ATOM      1  C   UNL d   1       0.696   1.972   1.667  0.00  0.00     0.124 A 
ATOM      2  C1  UNL d   1       0.309   0.641   1.722  0.00  0.00     0.062 A 
ATOM      3  C2  UNL d   1       0.406  -0.164   0.591  0.00  0.00     0.162 A 
ATOM      4  C3  UNL d   1       0.893   0.361  -0.607  0.00  0.00    -0.034 A 
ATOM      5  C4  UNL d   1       1.280   1.701  -0.655  0.00  0.00     0.162 A 
ATOM      6  C5  UNL d   1       1.181   2.501   0.479  0.00  0.00     0.062 A 
ATOM      7  F   UNL d   1       1.556   3.788   0.424  0.00  0.00    -0.097 F 
ATOM      8  F1  UNL d   1       1.753   2.238  -1.789  0.00  0.00    -0.096 F 
ATOM      9  I   UNL d   1       1.040  -0.839  -2.301  0.00  0.00    -0.060 I 
ATOM     10  F2  UNL d   1       0.025  -1.447   0.673  0.00  0.00    -0.096 F 
ATOM     11  F3  UNL d   1      -0.160   0.127   2.868  0.00  0.00    -0.097 F 
ATOM     12  F4  UNL d   1       0.601   2.745   2.757  0.00  0.00    -0.092 F 
ENDROOT
TORSDOF 0
ENDMDL
