MODEL 1
REMARK minimizedAffinity 1.81145298
REMARK minimizedRMSD -1
REMARK  0 active torsions:
REMARK  status: ('A' for Active; 'I' for Inactive)
ROOT
ATOM      1  C   UNL d   1      -2.485   5.988  -2.321  0.00  0.00     0.124 A 
ATOM      2  C1  UNL d   1      -1.126   5.994  -2.043  0.00  0.00     0.062 A 
ATOM      3  C2  UNL d   1      -0.198   5.993  -3.081  0.00  0.00     0.162 A 
ATOM      4  C3  UNL d   1      -0.628   5.987  -4.408  0.00  0.00    -0.034 A 
ATOM      5  C4  UNL d   1      -1.997   5.980  -4.680  0.00  0.00     0.162 A 
ATOM      6  C5  UNL d   1      -2.920   5.981  -3.639  0.00  0.00     0.062 A 
ATOM      7  F   UNL d   1      -4.233   5.976  -3.910  0.00  0.00    -0.097 F 
ATOM      8  F1  UNL d   1      -2.445   5.975  -5.945  0.00  0.00    -0.096 F 
ATOM      9  I   UNL d   1       0.755   5.986  -5.963  0.00  0.00    -0.060 I 
ATOM     10  F2  UNL d   1       1.109   5.999  -2.782  0.00  0.00    -0.096 F 
ATOM     11  F3  UNL d   1      -0.703   5.999  -0.770  0.00  0.00    -0.097 F 
ATOM     12  F4  UNL d   1      -3.375   5.988  -1.321  0.00  0.00    -0.092 F 
ENDROOT
TORSDOF 0
ENDMDL
