MODEL 1
REMARK minimizedAffinity 10.4684153
REMARK minimizedRMSD -1
REMARK  0 active torsions:
REMARK  status: ('A' for Active; 'I' for Inactive)
ROOT
ATOM      1  C   UNL d   1       0.670   1.288   1.048  0.00  0.00     0.124 A 
ATOM      2  C1  UNL d   1       1.448   1.792   0.015  0.00  0.00     0.062 A 
ATOM      3  C2  UNL d   1       1.208   1.400  -1.299  0.00  0.00     0.162 A 
ATOM      4  C3  UNL d   1       0.184   0.498  -1.588  0.00  0.00    -0.034 A 
ATOM      5  C4  UNL d   1      -0.594  -0.006  -0.544  0.00  0.00     0.162 A 
ATOM      6  C5  UNL d   1      -0.350   0.389   0.767  0.00  0.00     0.062 A 
ATOM      7  F   UNL d   1      -1.102  -0.100   1.764  0.00  0.00    -0.097 F 
ATOM      8  F1  UNL d   1      -1.586  -0.875  -0.786  0.00  0.00    -0.096 F 
ATOM      9  I   UNL d   1      -0.178  -0.091  -3.551  0.00  0.00    -0.060 I 
ATOM     10  F2  UNL d   1       1.976   1.904  -2.276  0.00  0.00    -0.096 F 
ATOM     11  F3  UNL d   1       2.435   2.660   0.283  0.00  0.00    -0.097 F 
ATOM     12  F4  UNL d   1       0.904   1.666   2.311  0.00  0.00    -0.092 F 
ENDROOT
TORSDOF 0
ENDMDL
