MODEL 1
REMARK minimizedAffinity 5.74565649
REMARK minimizedRMSD -1
REMARK  0 active torsions:
REMARK  status: ('A' for Active; 'I' for Inactive)
ROOT
ATOM      1  C   UNL d   1       2.361   3.445  -3.419  0.00  0.00     0.124 A 
ATOM      2  C1  UNL d   1       3.719   3.241  -3.221  0.00  0.00     0.062 A 
ATOM      3  C2  UNL d   1       4.651   3.967  -3.957  0.00  0.00     0.162 A 
ATOM      4  C3  UNL d   1       4.228   4.906  -4.898  0.00  0.00    -0.034 A 
ATOM      5  C4  UNL d   1       2.860   5.105  -5.092  0.00  0.00     0.162 A 
ATOM      6  C5  UNL d   1       1.932   4.376  -4.354  0.00  0.00     0.062 A 
ATOM      7  F   UNL d   1       0.620   4.575  -4.547  0.00  0.00    -0.097 F 
ATOM      8  F1  UNL d   1       2.418   6.000  -5.988  0.00  0.00    -0.096 F 
ATOM      9  I   UNL d   1       5.618   5.994  -6.000  0.00  0.00    -0.060 I 
ATOM     10  F2  UNL d   1       5.958   3.749  -3.744  0.00  0.00    -0.096 F 
ATOM     11  F3  UNL d   1       4.136   2.340  -2.319  0.00  0.00    -0.097 F 
ATOM     12  F4  UNL d   1       1.467   2.744  -2.710  0.00  0.00    -0.092 F 
ENDROOT
TORSDOF 0
ENDMDL
