MODEL 1
REMARK minimizedAffinity 7.18574858
REMARK minimizedRMSD -1
REMARK  0 active torsions:
REMARK  status: ('A' for Active; 'I' for Inactive)
ROOT
ATOM      1  C   UNL d   1      -2.680   5.990  -1.674  0.00  0.00     0.124 A 
ATOM      2  C1  UNL d   1      -1.293   5.986  -1.621  0.00  0.00     0.062 A 
ATOM      3  C2  UNL d   1      -0.548   5.987  -2.797  0.00  0.00     0.162 A 
ATOM      4  C3  UNL d   1      -1.188   5.992  -4.036  0.00  0.00    -0.034 A 
ATOM      5  C4  UNL d   1      -2.584   5.994  -4.081  0.00  0.00     0.162 A 
ATOM      6  C5  UNL d   1      -3.324   5.993  -2.903  0.00  0.00     0.062 A 
ATOM      7  F   UNL d   1      -4.664   5.996  -2.956  0.00  0.00    -0.097 F 
ATOM      8  F1  UNL d   1      -3.231   5.999  -5.255  0.00  0.00    -0.096 F 
ATOM      9  I   UNL d   1      -0.078   5.993  -5.796  0.00  0.00    -0.060 I 
ATOM     10  F2  UNL d   1       0.791   5.984  -2.716  0.00  0.00    -0.096 F 
ATOM     11  F3  UNL d   1      -0.668   5.982  -0.434  0.00  0.00    -0.097 F 
ATOM     12  F4  UNL d   1      -3.394   5.988  -0.541  0.00  0.00    -0.092 F 
ENDROOT
TORSDOF 0
ENDMDL
