MODEL 1
REMARK minimizedAffinity 11.9040766
REMARK minimizedRMSD -1
REMARK  0 active torsions:
REMARK  status: ('A' for Active; 'I' for Inactive)
ROOT
ATOM      1  C   UNL d   1       4.811   3.227  -4.105  0.00  0.00     0.124 A 
ATOM      2  C1  UNL d   1       3.655   2.519  -3.807  0.00  0.00     0.062 A 
ATOM      3  C2  UNL d   1       2.418   2.981  -4.247  0.00  0.00     0.162 A 
ATOM      4  C3  UNL d   1       2.330   4.158  -4.991  0.00  0.00    -0.034 A 
ATOM      5  C4  UNL d   1       3.497   4.865  -5.286  0.00  0.00     0.162 A 
ATOM      6  C5  UNL d   1       4.731   4.399  -4.844  0.00  0.00     0.062 A 
ATOM      7  F   UNL d   1       5.847   5.084  -5.134  0.00  0.00    -0.097 F 
ATOM      8  F1  UNL d   1       3.449   6.000  -6.000  0.00  0.00    -0.096 F 
ATOM      9  I   UNL d   1       0.483   4.852  -5.651  0.00  0.00    -0.060 I 
ATOM     10  F2  UNL d   1       1.317   2.277  -3.944  0.00  0.00    -0.096 F 
ATOM     11  F3  UNL d   1       3.729   1.387  -3.092  0.00  0.00    -0.097 F 
ATOM     12  F4  UNL d   1       6.000   2.781  -3.680  0.00  0.00    -0.092 F 
ENDROOT
TORSDOF 0
ENDMDL
