MODEL 1
REMARK minimizedAffinity 5.31417561
REMARK minimizedRMSD -1
REMARK  0 active torsions:
REMARK  status: ('A' for Active; 'I' for Inactive)
ROOT
ATOM      1  C   UNL d   1       1.439   1.577  -1.112  0.00  0.00     0.124 A 
ATOM      2  C1  UNL d   1       1.471   2.515  -0.090  0.00  0.00     0.062 A 
ATOM      3  C2  UNL d   1       0.981   2.191   1.172  0.00  0.00     0.162 A 
ATOM      4  C3  UNL d   1       0.455   0.923   1.419  0.00  0.00    -0.034 A 
ATOM      5  C4  UNL d   1       0.426  -0.015   0.386  0.00  0.00     0.162 A 
ATOM      6  C5  UNL d   1       0.917   0.313  -0.874  0.00  0.00     0.062 A 
ATOM      7  F   UNL d   1       0.885  -0.594  -1.860  0.00  0.00    -0.097 F 
ATOM      8  F1  UNL d   1      -0.073  -1.243   0.589  0.00  0.00    -0.096 F 
ATOM      9  I   UNL d   1      -0.279   0.436   3.305  0.00  0.00    -0.060 I 
ATOM     10  F2  UNL d   1       1.024   3.117   2.142  0.00  0.00    -0.096 F 
ATOM     11  F3  UNL d   1       1.974   3.736  -0.318  0.00  0.00    -0.097 F 
ATOM     12  F4  UNL d   1       1.911   1.891  -2.326  0.00  0.00    -0.092 F 
ENDROOT
TORSDOF 0
ENDMDL
