MODEL 1
REMARK minimizedAffinity 8.63376141
REMARK minimizedRMSD -1
REMARK  0 active torsions:
REMARK  status: ('A' for Active; 'I' for Inactive)
ROOT
ATOM      1  C   UNL d   1       0.319   1.821   2.382  0.00  0.00     0.124 A 
ATOM      2  C1  UNL d   1       1.080   2.477   1.424  0.00  0.00     0.062 A 
ATOM      3  C2  UNL d   1       1.331   1.874   0.195  0.00  0.00     0.162 A 
ATOM      4  C3  UNL d   1       0.818   0.607  -0.085  0.00  0.00    -0.034 A 
ATOM      5  C4  UNL d   1       0.055  -0.047   0.883  0.00  0.00     0.162 A 
ATOM      6  C5  UNL d   1      -0.193   0.560   2.110  0.00  0.00     0.062 A 
ATOM      7  F   UNL d   1      -0.928  -0.076   3.034  0.00  0.00    -0.097 F 
ATOM      8  F1  UNL d   1      -0.453  -1.266   0.647  0.00  0.00    -0.096 F 
ATOM      9  I   UNL d   1       1.190  -0.297  -1.922  0.00  0.00    -0.060 I 
ATOM     10  F2  UNL d   1       2.069   2.532  -0.711  0.00  0.00    -0.096 F 
ATOM     11  F3  UNL d   1       1.577   3.695   1.684  0.00  0.00    -0.097 F 
ATOM     12  F4  UNL d   1       0.081   2.403   3.564  0.00  0.00    -0.092 F 
ENDROOT
TORSDOF 0
ENDMDL
