MODEL 1
REMARK minimizedAffinity 4.29637432
REMARK minimizedRMSD -1
REMARK  0 active torsions:
REMARK  status: ('A' for Active; 'I' for Inactive)
ROOT
ATOM      1  C   UNL d   1      -2.415   5.997  -1.138  0.00  0.00     0.124 A 
ATOM      2  C1  UNL d   1      -3.216   5.998  -2.271  0.00  0.00     0.062 A 
ATOM      3  C2  UNL d   1      -2.638   5.998  -3.537  0.00  0.00     0.162 A 
ATOM      4  C3  UNL d   1      -1.250   5.998  -3.677  0.00  0.00    -0.034 A 
ATOM      5  C4  UNL d   1      -0.451   5.999  -2.532  0.00  0.00     0.162 A 
ATOM      6  C5  UNL d   1      -1.034   5.998  -1.269  0.00  0.00     0.062 A 
ATOM      7  F   UNL d   1      -0.258   5.998  -0.175  0.00  0.00    -0.097 F 
ATOM      8  F1  UNL d   1       0.887   5.999  -2.630  0.00  0.00    -0.096 F 
ATOM      9  I   UNL d   1      -0.381   6.000  -5.568  0.00  0.00    -0.060 I 
ATOM     10  F2  UNL d   1      -3.436   5.998  -4.615  0.00  0.00    -0.096 F 
ATOM     11  F3  UNL d   1      -4.551   5.998  -2.147  0.00  0.00    -0.097 F 
ATOM     12  F4  UNL d   1      -2.974   5.998   0.079  0.00  0.00    -0.092 F 
ENDROOT
TORSDOF 0
ENDMDL
