MODEL 1
REMARK minimizedAffinity 6.92786551
REMARK minimizedRMSD -1
REMARK  0 active torsions:
REMARK  status: ('A' for Active; 'I' for Inactive)
ROOT
ATOM      1  C   UNL d   1       4.723   4.072  -3.578  0.00  0.00     0.124 A 
ATOM      2  C1  UNL d   1       3.790   3.107  -3.225  0.00  0.00     0.062 A 
ATOM      3  C2  UNL d   1       2.526   3.110  -3.807  0.00  0.00     0.162 A 
ATOM      4  C3  UNL d   1       2.186   4.082  -4.748  0.00  0.00    -0.034 A 
ATOM      5  C4  UNL d   1       3.129   5.050  -5.097  0.00  0.00     0.162 A 
ATOM      6  C5  UNL d   1       4.392   5.042  -4.513  0.00  0.00     0.062 A 
ATOM      7  F   UNL d   1       5.292   5.976  -4.855  0.00  0.00    -0.097 F 
ATOM      8  F1  UNL d   1       2.836   5.999  -5.998  0.00  0.00    -0.096 F 
ATOM      9  I   UNL d   1       0.296   4.090  -5.619  0.00  0.00    -0.060 I 
ATOM     10  F2  UNL d   1       1.644   2.165  -3.447  0.00  0.00    -0.096 F 
ATOM     11  F3  UNL d   1       4.108   2.168  -2.322  0.00  0.00    -0.097 F 
ATOM     12  F4  UNL d   1       5.939   4.067  -3.017  0.00  0.00    -0.092 F 
ENDROOT
TORSDOF 0
ENDMDL
