MODEL 1
REMARK minimizedAffinity 10.1913376
REMARK minimizedRMSD -1
REMARK  0 active torsions:
REMARK  status: ('A' for Active; 'I' for Inactive)
ROOT
ATOM      1  C   UNL d   1       0.523   2.092   1.389  0.00  0.00     0.124 A 
ATOM      2  C1  UNL d   1      -0.428   1.518   2.221  0.00  0.00     0.062 A 
ATOM      3  C2  UNL d   1      -0.796   0.187   2.049  0.00  0.00     0.162 A 
ATOM      4  C3  UNL d   1      -0.211  -0.580   1.041  0.00  0.00    -0.034 A 
ATOM      5  C4  UNL d   1       0.744   0.005   0.208  0.00  0.00     0.162 A 
ATOM      6  C5  UNL d   1       1.108   1.336   0.384  0.00  0.00     0.062 A 
ATOM      7  F   UNL d   1       2.027   1.889  -0.421  0.00  0.00    -0.097 F 
ATOM      8  F1  UNL d   1       1.326  -0.704  -0.771  0.00  0.00    -0.096 F 
ATOM      9  I   UNL d   1      -0.759  -2.571   0.781  0.00  0.00    -0.060 I 
ATOM     10  F2  UNL d   1      -1.718  -0.342   2.867  0.00  0.00    -0.096 F 
ATOM     11  F3  UNL d   1      -0.996   2.248   3.192  0.00  0.00    -0.097 F 
ATOM     12  F4  UNL d   1       0.874   3.374   1.556  0.00  0.00    -0.092 F 
ENDROOT
TORSDOF 0
ENDMDL
