MODEL 1
REMARK minimizedAffinity -2.32043004
REMARK minimizedRMSD -1
REMARK  1 active torsions:
REMARK  status: ('A' for Active; 'I' for Inactive)
REMARK    1  A    between atoms: N_2  and  C1_3 
ROOT
ATOM      1  C1  UNL d   1      -0.246   0.420   0.120  0.00  0.00     0.143 A 
ATOM      2  C2  UNL d   1      -1.556   0.864   0.333  0.00  0.00    -0.057 A 
ATOM      3  C3  UNL d   1      -2.094   0.946   1.623  0.00  0.00     0.033 A 
ATOM      4  C4  UNL d   1      -1.339   0.557   2.724  0.00  0.00    -0.042 A 
ATOM      5  C5  UNL d   1      -0.043   0.090   2.534  0.00  0.00     0.033 A 
ATOM      6  C6  UNL d   1       0.491   0.016   1.244  0.00  0.00    -0.057 A 
ENDROOT
BRANCH   1   7
ATOM      7  N   UNL d   1       0.312   0.222  -1.145  0.00  0.00    -0.732 N 
ATOM      8  C   UNL d   1      -0.156  -0.849  -1.998  0.00  0.00     0.284 C 
ATOM      9  H3  UNL d   1       0.485   1.098  -1.634  0.00  0.00     0.395 HD
ENDBRANCH   1   7
TORSDOF 1
ENDMDL
