MODEL 1
REMARK minimizedAffinity -3.81757498
REMARK minimizedRMSD -1
REMARK  1 active torsions:
REMARK  status: ('A' for Active; 'I' for Inactive)
REMARK    1  A    between atoms: N_2  and  C1_3 
ROOT
ATOM      1  C1  UNL d   1      -0.206   0.292  -0.954  0.00  0.00     0.143 A 
ATOM      2  C2  UNL d   1       0.124   1.354  -1.803  0.00  0.00    -0.057 A 
ATOM      3  C3  UNL d   1       0.810   1.138  -3.004  0.00  0.00     0.033 A 
ATOM      4  C4  UNL d   1       1.205  -0.146  -3.365  0.00  0.00    -0.042 A 
ATOM      5  C5  UNL d   1       0.910  -1.214  -2.524  0.00  0.00     0.033 A 
ATOM      6  C6  UNL d   1       0.219  -0.992  -1.330  0.00  0.00    -0.057 A 
ENDROOT
BRANCH   1   7
ATOM      7  N   UNL d   1      -0.800   0.455   0.300  0.00  0.00    -0.732 N 
ATOM      8  C   UNL d   1      -2.238   0.557   0.427  0.00  0.00     0.284 C 
ATOM      9  H3  UNL d   1      -0.359  -0.119   1.015  0.00  0.00     0.395 HD
ENDBRANCH   1   7
TORSDOF 1
ENDMDL
