MODEL 1
REMARK minimizedAffinity -2.5610888
REMARK minimizedRMSD -1
REMARK  1 active torsions:
REMARK  status: ('A' for Active; 'I' for Inactive)
REMARK    1  A    between atoms: N_2  and  C1_3 
ROOT
ATOM      1  C1  UNL d   1       0.745  -0.186  -2.114  0.00  0.00     0.143 A 
ATOM      2  C2  UNL d   1      -0.322   0.143  -2.956  0.00  0.00    -0.057 A 
ATOM      3  C3  UNL d   1      -0.125   0.899  -4.118  0.00  0.00     0.033 A 
ATOM      4  C4  UNL d   1       1.144   1.367  -4.443  0.00  0.00    -0.042 A 
ATOM      5  C5  UNL d   1       2.216   1.074  -3.607  0.00  0.00     0.033 A 
ATOM      6  C6  UNL d   1       2.013   0.313  -2.452  0.00  0.00    -0.057 A 
ENDROOT
BRANCH   1   7
ATOM      7  N   UNL d   1       0.598  -0.850  -0.894  0.00  0.00    -0.732 N 
ATOM      8  C   UNL d   1      -0.060  -0.206   0.222  0.00  0.00     0.284 C 
ATOM      9  H3  UNL d   1       0.350  -1.830  -1.013  0.00  0.00     0.395 HD
ENDBRANCH   1   7
TORSDOF 1
ENDMDL
