MODEL 1
REMARK minimizedAffinity 17.4747143
REMARK minimizedRMSD -1
REMARK  0 active torsions:
REMARK  status: ('A' for Active; 'I' for Inactive)
ROOT
ATOM      1  O1  BZF d   1       4.829  -4.084   0.221  0.00  0.00    -0.204 OA
ATOM      2  C2  BZF d   1       5.601  -5.070  -0.362  0.00  0.00     0.174 A 
ATOM      3  C3  BZF d   1       4.824  -5.999  -0.953  0.00  0.00    -0.012 A 
ATOM      4  C3A BZF d   1       3.484  -5.519  -0.806  0.00  0.00    -0.107 A 
ATOM      5  C4  BZF d   1       2.267  -5.995  -1.201  0.00  0.00     0.055 A 
ATOM      6  C5  BZF d   1       1.144  -5.323  -0.835  0.00  0.00    -0.016 A 
ATOM      7  C6  BZF d   1       1.201  -4.175  -0.072  0.00  0.00     0.022 A 
ATOM      8  C7  BZF d   1       2.386  -3.662   0.340  0.00  0.00     0.029 A 
ATOM      9  C7A BZF d   1       3.524  -4.320  -0.056  0.00  0.00     0.058 A 
ENDROOT
TORSDOF 0
ENDMDL
