MODEL 1
REMARK minimizedAffinity 14.0127964
REMARK minimizedRMSD -1
REMARK  0 active torsions:
REMARK  status: ('A' for Active; 'I' for Inactive)
ROOT
ATOM      1  O1  BZF d   1       0.610   1.680   3.625  0.00  0.00    -0.204 OA
ATOM      2  C2  BZF d   1       1.981   1.687   3.461  0.00  0.00     0.174 A 
ATOM      3  C3  BZF d   1       2.312   2.073   2.212  0.00  0.00    -0.012 A 
ATOM      4  C3A BZF d   1       1.072   2.413   1.583  0.00  0.00    -0.107 A 
ATOM      5  C4  BZF d   1       0.746   2.880   0.342  0.00  0.00     0.055 A 
ATOM      6  C5  BZF d   1      -0.564   3.039   0.019  0.00  0.00    -0.016 A 
ATOM      7  C6  BZF d   1      -1.573   2.737   0.910  0.00  0.00     0.022 A 
ATOM      8  C7  BZF d   1      -1.299   2.276   2.155  0.00  0.00     0.029 A 
ATOM      9  C7A BZF d   1       0.025   2.145   2.495  0.00  0.00     0.058 A 
ENDROOT
TORSDOF 0
ENDMDL
