MODEL 1
REMARK minimizedAffinity 8.90365505
REMARK minimizedRMSD -1
REMARK  0 active torsions:
REMARK  status: ('A' for Active; 'I' for Inactive)
ROOT
ATOM      1  O1  BZF d   1      -1.087   2.700   2.441  0.00  0.00    -0.204 OA
ATOM      2  C2  BZF d   1      -0.348   1.534   2.390  0.00  0.00     0.174 A 
ATOM      3  C3  BZF d   1       0.133   1.326   1.147  0.00  0.00    -0.012 A 
ATOM      4  C3A BZF d   1      -0.258   2.479   0.395  0.00  0.00    -0.107 A 
ATOM      5  C4  BZF d   1      -0.062   2.866  -0.900  0.00  0.00     0.055 A 
ATOM      6  C5  BZF d   1      -0.637   4.016  -1.340  0.00  0.00    -0.016 A 
ATOM      7  C6  BZF d   1      -1.418   4.800  -0.515  0.00  0.00     0.022 A 
ATOM      8  C7  BZF d   1      -1.637   4.459   0.778  0.00  0.00     0.029 A 
ATOM      9  C7A BZF d   1      -1.030   3.315   1.235  0.00  0.00     0.058 A 
ENDROOT
TORSDOF 0
ENDMDL
