MODEL 1
REMARK minimizedAffinity 12.1041851
REMARK minimizedRMSD -1
REMARK  0 active torsions:
REMARK  status: ('A' for Active; 'I' for Inactive)
ROOT
ATOM      1  O1  BZF d   1      -5.948  -2.459  -5.916  0.00  0.00    -0.204 OA
ATOM      2  C2  BZF d   1      -4.980  -1.491  -5.734  0.00  0.00     0.174 A 
ATOM      3  C3  BZF d   1      -3.777  -2.055  -5.503  0.00  0.00    -0.012 A 
ATOM      4  C3A BZF d   1      -3.990  -3.464  -5.634  0.00  0.00    -0.107 A 
ATOM      5  C4  BZF d   1      -3.170  -4.551  -5.533  0.00  0.00     0.055 A 
ATOM      6  C5  BZF d   1      -3.706  -5.795  -5.644  0.00  0.00    -0.016 A 
ATOM      7  C6  BZF d   1      -5.056  -5.988  -5.849  0.00  0.00     0.022 A 
ATOM      8  C7  BZF d   1      -5.909  -4.941  -5.961  0.00  0.00     0.029 A 
ATOM      9  C7A BZF d   1      -5.365  -3.682  -5.883  0.00  0.00     0.058 A 
ENDROOT
TORSDOF 0
ENDMDL
