MODEL 1
REMARK minimizedAffinity 14.1109991
REMARK minimizedRMSD -1
REMARK  0 active torsions:
REMARK  status: ('A' for Active; 'I' for Inactive)
ROOT
ATOM      1  O1  BZF d   1      -2.117  -5.993  -4.888  0.00  0.00    -0.204 OA
ATOM      2  C2  BZF d   1      -1.188  -4.997  -4.663  0.00  0.00     0.174 A 
ATOM      3  C3  BZF d   1      -1.706  -3.785  -4.949  0.00  0.00    -0.012 A 
ATOM      4  C3A BZF d   1      -3.073  -4.032  -5.293  0.00  0.00    -0.107 A 
ATOM      5  C4  BZF d   1      -4.110  -3.222  -5.657  0.00  0.00     0.055 A 
ATOM      6  C5  BZF d   1      -5.299  -3.785  -5.998  0.00  0.00    -0.016 A 
ATOM      7  C6  BZF d   1      -5.484  -5.152  -5.989  0.00  0.00     0.022 A 
ATOM      8  C7  BZF d   1      -4.486  -5.996  -5.630  0.00  0.00     0.029 A 
ATOM      9  C7A BZF d   1      -3.293  -5.428  -5.254  0.00  0.00     0.058 A 
ENDROOT
TORSDOF 0
ENDMDL
