MODEL 1
REMARK minimizedAffinity 9.74622154
REMARK minimizedRMSD -1
REMARK  0 active torsions:
REMARK  status: ('A' for Active; 'I' for Inactive)
ROOT
ATOM      1  O1  BZF d   1      -1.961  -4.140  -5.158  0.00  0.00    -0.204 OA
ATOM      2  C2  BZF d   1      -1.562  -5.243  -4.427  0.00  0.00     0.174 A 
ATOM      3  C3  BZF d   1      -2.625  -5.997  -4.080  0.00  0.00    -0.012 A 
ATOM      4  C3A BZF d   1      -3.750  -5.373  -4.708  0.00  0.00    -0.107 A 
ATOM      5  C4  BZF d   1      -5.083  -5.665  -4.749  0.00  0.00     0.055 A 
ATOM      6  C5  BZF d   1      -5.926  -4.813  -5.390  0.00  0.00    -0.016 A 
ATOM      7  C6  BZF d   1      -5.471  -3.660  -5.995  0.00  0.00     0.022 A 
ATOM      8  C7  BZF d   1      -4.156  -3.331  -5.985  0.00  0.00     0.029 A 
ATOM      9  C7A BZF d   1      -3.298  -4.206  -5.367  0.00  0.00     0.058 A 
ENDROOT
TORSDOF 0
ENDMDL
