MODEL 1
REMARK minimizedAffinity 9.8962574
REMARK minimizedRMSD -1
REMARK  0 active torsions:
REMARK  status: ('A' for Active; 'I' for Inactive)
ROOT
ATOM      1  O1  BZF d   1       1.692   3.807  -0.747  0.00  0.00    -0.204 OA
ATOM      2  C2  BZF d   1       0.596   4.101  -1.534  0.00  0.00     0.174 A 
ATOM      3  C3  BZF d   1      -0.510   3.489  -1.062  0.00  0.00    -0.012 A 
ATOM      4  C3A BZF d   1      -0.096   2.842   0.145  0.00  0.00    -0.107 A 
ATOM      5  C4  BZF d   1      -0.748   2.086   1.076  0.00  0.00     0.055 A 
ATOM      6  C5  BZF d   1      -0.039   1.542   2.100  0.00  0.00    -0.016 A 
ATOM      7  C6  BZF d   1       1.322   1.729   2.220  0.00  0.00     0.022 A 
ATOM      8  C7  BZF d   1       2.012   2.475   1.323  0.00  0.00     0.029 A 
ATOM      9  C7A BZF d   1       1.293   3.054   0.306  0.00  0.00     0.058 A 
ENDROOT
TORSDOF 0
ENDMDL
