MODEL 1
REMARK minimizedAffinity 13.6218719
REMARK minimizedRMSD -1
REMARK  0 active torsions:
REMARK  status: ('A' for Active; 'I' for Inactive)
ROOT
ATOM      1  O1  BZF d   1       0.919  -4.157  -3.293  0.00  0.00    -0.204 OA
ATOM      2  C2  BZF d   1       0.337  -4.223  -2.042  0.00  0.00     0.174 A 
ATOM      3  C3  BZF d   1       1.144  -4.866  -1.173  0.00  0.00    -0.012 A 
ATOM      4  C3A BZF d   1       2.341  -5.142  -1.905  0.00  0.00    -0.107 A 
ATOM      5  C4  BZF d   1       3.521  -5.748  -1.580  0.00  0.00     0.055 A 
ATOM      6  C5  BZF d   1       4.461  -5.925  -2.546  0.00  0.00    -0.016 A 
ATOM      7  C6  BZF d   1       4.252  -5.513  -3.846  0.00  0.00     0.022 A 
ATOM      8  C7  BZF d   1       3.100  -4.902  -4.215  0.00  0.00     0.029 A 
ATOM      9  C7A BZF d   1       2.162  -4.693  -3.234  0.00  0.00     0.058 A 
ENDROOT
TORSDOF 0
ENDMDL
