MODEL 1
REMARK minimizedAffinity 13.4826975
REMARK minimizedRMSD -1
REMARK  0 active torsions:
REMARK  status: ('A' for Active; 'I' for Inactive)
ROOT
ATOM      1  O1  BZF d   1       3.012  -1.688  -1.120  0.00  0.00    -0.204 OA
ATOM      2  C2  BZF d   1       2.323  -1.929   0.053  0.00  0.00     0.174 A 
ATOM      3  C3  BZF d   1       2.889  -2.941   0.741  0.00  0.00    -0.012 A 
ATOM      4  C3A BZF d   1       4.056  -3.298  -0.006  0.00  0.00    -0.107 A 
ATOM      5  C4  BZF d   1       5.040  -4.226   0.178  0.00  0.00     0.055 A 
ATOM      6  C5  BZF d   1       5.998  -4.370  -0.775  0.00  0.00    -0.016 A 
ATOM      7  C6  BZF d   1       6.000  -3.606  -1.924  0.00  0.00     0.022 A 
ATOM      8  C7  BZF d   1       5.047  -2.669  -2.148  0.00  0.00     0.029 A 
ATOM      9  C7A BZF d   1       4.096  -2.499  -1.172  0.00  0.00     0.058 A 
ENDROOT
TORSDOF 0
ENDMDL
