MODEL 1
REMARK minimizedAffinity 8.60597324
REMARK minimizedRMSD -1
REMARK  0 active torsions:
REMARK  status: ('A' for Active; 'I' for Inactive)
ROOT
ATOM      1  O1  BZF d   1      -4.864  -1.278   2.071  0.00  0.00    -0.204 OA
ATOM      2  C2  BZF d   1      -5.722  -0.744   3.012  0.00  0.00     0.174 A 
ATOM      3  C3  BZF d   1      -6.000   0.545   2.730  0.00  0.00    -0.012 A 
ATOM      4  C3A BZF d   1      -5.342   0.808   1.487  0.00  0.00    -0.107 A 
ATOM      5  C4  BZF d   1      -5.258   1.910   0.684  0.00  0.00     0.055 A 
ATOM      6  C5  BZF d   1      -4.475   1.860  -0.426  0.00  0.00    -0.016 A 
ATOM      7  C6  BZF d   1      -3.760   0.729  -0.759  0.00  0.00     0.022 A 
ATOM      8  C7  BZF d   1      -3.815  -0.390   0.004  0.00  0.00     0.029 A 
ATOM      9  C7A BZF d   1      -4.631  -0.354   1.108  0.00  0.00     0.058 A 
ENDROOT
TORSDOF 0
ENDMDL
