MODEL 1
REMARK minimizedAffinity 11.295558
REMARK minimizedRMSD -1
REMARK  0 active torsions:
REMARK  status: ('A' for Active; 'I' for Inactive)
ROOT
ATOM      1  O1  BZF d   1      -0.056  -4.219  -1.876  0.00  0.00    -0.204 OA
ATOM      2  C2  BZF d   1       0.705  -4.823  -0.894  0.00  0.00     0.174 A 
ATOM      3  C3  BZF d   1       1.821  -5.368  -1.421  0.00  0.00    -0.012 A 
ATOM      4  C3A BZF d   1       1.799  -5.005  -2.805  0.00  0.00    -0.107 A 
ATOM      5  C4  BZF d   1       2.646  -5.238  -3.850  0.00  0.00     0.055 A 
ATOM      6  C5  BZF d   1       2.298  -4.809  -5.092  0.00  0.00    -0.016 A 
ATOM      7  C6  BZF d   1       1.109  -4.150  -5.325  0.00  0.00     0.022 A 
ATOM      8  C7  BZF d   1       0.238  -3.891  -4.319  0.00  0.00     0.029 A 
ATOM      9  C7A BZF d   1       0.603  -4.294  -3.057  0.00  0.00     0.058 A 
ENDROOT
TORSDOF 0
ENDMDL
