MODEL 1
REMARK minimizedAffinity -2.20368934
REMARK minimizedRMSD -1
REMARK  1 active torsions:
REMARK  status: ('A' for Active; 'I' for Inactive)
REMARK    1  A    between atoms: C3_4  and  O_7 
ROOT
ATOM      1  C   UNL d   1      -0.071  -0.464  -0.383  0.00  0.00    -0.033 A 
ATOM      2  C1  UNL d   1      -1.055   0.120   0.417  0.00  0.00     0.039 A 
ATOM      3  C2  UNL d   1      -0.752   1.241   1.193  0.00  0.00    -0.080 A 
ATOM      4  C3  UNL d   1       0.536   1.767   1.158  0.00  0.00     0.150 A 
ATOM      5  C4  UNL d   1       1.520   1.193   0.361  0.00  0.00    -0.007 A 
ATOM      6  C5  UNL d   1       1.216   0.073  -0.412  0.00  0.00     0.039 A 
ENDROOT
BRANCH   4   7
ATOM      7  O   UNL d   1       0.881   2.857   1.902  0.00  0.00    -0.526 OA
ATOM      8  H5  UNL d   1       0.109   3.129   2.425  0.00  0.00     0.418 HD
ENDBRANCH   4   7
TORSDOF 1
ENDMDL
