MODEL 1
REMARK minimizedAffinity -3.60226417
REMARK minimizedRMSD -1
REMARK  1 active torsions:
REMARK  status: ('A' for Active; 'I' for Inactive)
REMARK    1  A    between atoms: C3_4  and  O_7 
ROOT
ATOM      1  C   UNL d   1       0.366  -0.899  -0.553  0.00  0.00    -0.033 A 
ATOM      2  C1  UNL d   1       1.659  -0.418  -0.765  0.00  0.00     0.039 A 
ATOM      3  C2  UNL d   1       2.014   0.857  -0.318  0.00  0.00    -0.080 A 
ATOM      4  C3  UNL d   1       1.068   1.638   0.340  0.00  0.00     0.150 A 
ATOM      5  C4  UNL d   1      -0.222   1.164   0.557  0.00  0.00    -0.007 A 
ATOM      6  C5  UNL d   1      -0.574  -0.109   0.109  0.00  0.00     0.039 A 
ENDROOT
BRANCH   4   7
ATOM      7  O   UNL d   1       1.366   2.890   0.790  0.00  0.00    -0.526 OA
ATOM      8  H5  UNL d   1       2.283   3.095   0.544  0.00  0.00     0.418 HD
ENDBRANCH   4   7
TORSDOF 1
ENDMDL
