MODEL 1
REMARK minimizedAffinity -4.9529953
REMARK minimizedRMSD -1
REMARK  1 active torsions:
REMARK  status: ('A' for Active; 'I' for Inactive)
REMARK    1  A    between atoms: C3_4  and  O_7 
ROOT
ATOM      1  C   UNL d   1      -0.380   1.004   1.438  0.00  0.00    -0.033 A 
ATOM      2  C1  UNL d   1      -0.784  -0.317   1.238  0.00  0.00     0.039 A 
ATOM      3  C2  UNL d   1      -0.034  -1.162   0.418  0.00  0.00    -0.080 A 
ATOM      4  C3  UNL d   1       1.117  -0.675  -0.195  0.00  0.00     0.150 A 
ATOM      5  C4  UNL d   1       1.528   0.640   0.004  0.00  0.00    -0.007 A 
ATOM      6  C5  UNL d   1       0.777   1.482   0.822  0.00  0.00     0.039 A 
ENDROOT
BRANCH   4   7
ATOM      7  O   UNL d   1       1.880  -1.460  -1.007  0.00  0.00    -0.526 OA
ATOM      8  H5  UNL d   1       1.459  -2.333  -1.074  0.00  0.00     0.418 HD
ENDBRANCH   4   7
TORSDOF 1
ENDMDL
