MODEL 1
REMARK minimizedAffinity -2.7506876
REMARK minimizedRMSD -1
REMARK  1 active torsions:
REMARK  status: ('A' for Active; 'I' for Inactive)
REMARK    1  A    between atoms: C3_4  and  O_7 
ROOT
ATOM      1  C   UNL d   1       0.590   1.857   1.709  0.00  0.00    -0.033 A 
ATOM      2  C1  UNL d   1       1.602   1.357   0.887  0.00  0.00     0.039 A 
ATOM      3  C2  UNL d   1       1.286   0.502  -0.170  0.00  0.00    -0.080 A 
ATOM      4  C3  UNL d   1      -0.043   0.155  -0.395  0.00  0.00     0.150 A 
ATOM      5  C4  UNL d   1      -1.057   0.652   0.417  0.00  0.00    -0.007 A 
ATOM      6  C5  UNL d   1      -0.739   1.506   1.473  0.00  0.00     0.039 A 
ENDROOT
BRANCH   4   7
ATOM      7  O   UNL d   1      -0.399  -0.680  -1.412  0.00  0.00    -0.526 OA
ATOM      8  H5  UNL d   1       0.407  -0.968  -1.871  0.00  0.00     0.418 HD
ENDBRANCH   4   7
TORSDOF 1
ENDMDL
