MODEL 1
REMARK minimizedAffinity -3.09187865
REMARK minimizedRMSD -1
REMARK  1 active torsions:
REMARK  status: ('A' for Active; 'I' for Inactive)
REMARK    1  A    between atoms: C3_4  and  O_7 
ROOT
ATOM      1  C   UNL d   1      -0.768   0.010  -0.009  0.00  0.00    -0.033 A 
ATOM      2  C1  UNL d   1       0.063   1.121   0.144  0.00  0.00     0.039 A 
ATOM      3  C2  UNL d   1       1.435   1.005  -0.088  0.00  0.00    -0.080 A 
ATOM      4  C3  UNL d   1       1.962  -0.224  -0.473  0.00  0.00     0.150 A 
ATOM      5  C4  UNL d   1       1.139  -1.334  -0.632  0.00  0.00    -0.007 A 
ATOM      6  C5  UNL d   1      -0.231  -1.217  -0.398  0.00  0.00     0.039 A 
ENDROOT
BRANCH   4   7
ATOM      7  O   UNL d   1       3.295  -0.387  -0.707  0.00  0.00    -0.526 OA
ATOM      8  H5  UNL d   1       3.744   0.457  -0.530  0.00  0.00     0.418 HD
ENDBRANCH   4   7
TORSDOF 1
ENDMDL
