MODEL 1
REMARK minimizedAffinity -4.16689253
REMARK minimizedRMSD -1
REMARK  1 active torsions:
REMARK  status: ('A' for Active; 'I' for Inactive)
REMARK    1  A    between atoms: C3_4  and  O_7 
ROOT
ATOM      1  C   UNL d   1      -0.284  -0.387   0.025  0.00  0.00    -0.033 A 
ATOM      2  C1  UNL d   1       0.837   0.192  -0.572  0.00  0.00     0.039 A 
ATOM      3  C2  UNL d   1       1.284   1.447  -0.153  0.00  0.00    -0.080 A 
ATOM      4  C3  UNL d   1       0.603   2.110   0.864  0.00  0.00     0.150 A 
ATOM      5  C4  UNL d   1      -0.512   1.536   1.467  0.00  0.00    -0.007 A 
ATOM      6  C5  UNL d   1      -0.958   0.284   1.046  0.00  0.00     0.039 A 
ENDROOT
BRANCH   4   7
ATOM      7  O   UNL d   1       0.999   3.338   1.304  0.00  0.00    -0.526 OA
ATOM      8  H5  UNL d   1       1.764   3.621   0.778  0.00  0.00     0.418 HD
ENDBRANCH   4   7
TORSDOF 1
ENDMDL
