MODEL 1
REMARK minimizedAffinity -4.18207932
REMARK minimizedRMSD -1
REMARK  1 active torsions:
REMARK  status: ('A' for Active; 'I' for Inactive)
REMARK    1  A    between atoms: C3_4  and  O_7 
ROOT
ATOM      1  C   UNL d   1      -0.055   0.020   0.465  0.00  0.00    -0.033 A 
ATOM      2  C1  UNL d   1       0.886   0.610  -0.381  0.00  0.00     0.039 A 
ATOM      3  C2  UNL d   1       1.478   1.825  -0.030  0.00  0.00    -0.080 A 
ATOM      4  C3  UNL d   1       1.120   2.439   1.168  0.00  0.00     0.150 A 
ATOM      5  C4  UNL d   1       0.186   1.855   2.017  0.00  0.00    -0.007 A 
ATOM      6  C5  UNL d   1      -0.405   0.642   1.664  0.00  0.00     0.039 A 
ENDROOT
BRANCH   4   7
ATOM      7  O   UNL d   1       1.667   3.627   1.551  0.00  0.00    -0.526 OA
ATOM      8  H5  UNL d   1       2.274   3.926   0.853  0.00  0.00     0.418 HD
ENDBRANCH   4   7
TORSDOF 1
ENDMDL
