MODEL 1
REMARK minimizedAffinity -4.57790041
REMARK minimizedRMSD -1
REMARK  1 active torsions:
REMARK  status: ('A' for Active; 'I' for Inactive)
REMARK    1  A    between atoms: C3_4  and  O_7 
ROOT
ATOM      1  C   UNL d   1      -0.303  -0.542   0.194  0.00  0.00    -0.033 A 
ATOM      2  C1  UNL d   1       0.695   0.029  -0.599  0.00  0.00     0.039 A 
ATOM      3  C2  UNL d   1       1.147   1.322  -0.331  0.00  0.00    -0.080 A 
ATOM      4  C3  UNL d   1       0.594   2.033   0.730  0.00  0.00     0.150 A 
ATOM      5  C4  UNL d   1      -0.397   1.470   1.527  0.00  0.00    -0.007 A 
ATOM      6  C5  UNL d   1      -0.848   0.178   1.258  0.00  0.00     0.039 A 
ENDROOT
BRANCH   4   7
ATOM      7  O   UNL d   1       1.000   3.301   1.027  0.00  0.00    -0.526 OA
ATOM      8  H5  UNL d   1       1.669   3.570   0.376  0.00  0.00     0.418 HD
ENDBRANCH   4   7
TORSDOF 1
ENDMDL
