MODEL 1
REMARK minimizedAffinity -2.61692476
REMARK minimizedRMSD -1
REMARK  1 active torsions:
REMARK  status: ('A' for Active; 'I' for Inactive)
REMARK    1  A    between atoms: C3_4  and  O_7 
ROOT
ATOM      1  C   UNL d   1       0.864   2.309   1.219  0.00  0.00    -0.033 A 
ATOM      2  C1  UNL d   1       1.722   1.845   0.220  0.00  0.00     0.039 A 
ATOM      3  C2  UNL d   1       1.444   0.647  -0.441  0.00  0.00    -0.080 A 
ATOM      4  C3  UNL d   1       0.306  -0.076  -0.094  0.00  0.00     0.150 A 
ATOM      5  C4  UNL d   1      -0.555   0.382   0.898  0.00  0.00    -0.007 A 
ATOM      6  C5  UNL d   1      -0.275   1.578   1.557  0.00  0.00     0.039 A 
ENDROOT
BRANCH   4   7
ATOM      7  O   UNL d   1      -0.005  -1.253  -0.707  0.00  0.00    -0.526 OA
ATOM      8  H5  UNL d   1       0.694  -1.459  -1.350  0.00  0.00     0.418 HD
ENDBRANCH   4   7
TORSDOF 1
ENDMDL
