MODEL 1
REMARK minimizedAffinity -4.80304241
REMARK minimizedRMSD -1
REMARK  1 active torsions:
REMARK  status: ('A' for Active; 'I' for Inactive)
REMARK    1  A    between atoms: C3_4  and  O_7 
ROOT
ATOM      1  C   UNL d   1      -0.625  -0.558   0.356  0.00  0.00    -0.033 A 
ATOM      2  C1  UNL d   1      -1.202   0.288   1.305  0.00  0.00     0.039 A 
ATOM      3  C2  UNL d   1      -0.599   1.510   1.612  0.00  0.00    -0.080 A 
ATOM      4  C3  UNL d   1       0.578   1.873   0.964  0.00  0.00     0.150 A 
ATOM      5  C4  UNL d   1       1.157   1.036   0.015  0.00  0.00    -0.007 A 
ATOM      6  C5  UNL d   1       0.554  -0.184  -0.290  0.00  0.00     0.039 A 
ENDROOT
BRANCH   4   7
ATOM      7  O   UNL d   1       1.205   3.053   1.234  0.00  0.00    -0.526 OA
ATOM      8  H5  UNL d   1       0.708   3.514   1.930  0.00  0.00     0.418 HD
ENDBRANCH   4   7
TORSDOF 1
ENDMDL
