MODEL 1
REMARK minimizedAffinity -4.53961515
REMARK minimizedRMSD -1
REMARK  1 active torsions:
REMARK  status: ('A' for Active; 'I' for Inactive)
REMARK    1  A    between atoms: C3_4  and  O_7 
ROOT
ATOM      1  C   UNL d   1      -0.421  -0.019   0.367  0.00  0.00    -0.033 A 
ATOM      2  C1  UNL d   1       0.674   0.407  -0.388  0.00  0.00     0.039 A 
ATOM      3  C2  UNL d   1       1.362   1.568  -0.030  0.00  0.00    -0.080 A 
ATOM      4  C3  UNL d   1       0.946   2.293   1.084  0.00  0.00     0.150 A 
ATOM      5  C4  UNL d   1      -0.142   1.872   1.843  0.00  0.00    -0.007 A 
ATOM      6  C5  UNL d   1      -0.828   0.713   1.483  0.00  0.00     0.039 A 
ENDROOT
BRANCH   4   7
ATOM      7  O   UNL d   1       1.583   3.435   1.470  0.00  0.00    -0.526 OA
ATOM      8  H5  UNL d   1       2.296   3.618   0.836  0.00  0.00     0.418 HD
ENDBRANCH   4   7
TORSDOF 1
ENDMDL
