MODEL 1
REMARK minimizedAffinity -5.43018293
REMARK minimizedRMSD -1
REMARK  1 active torsions:
REMARK  status: ('A' for Active; 'I' for Inactive)
REMARK    1  A    between atoms: C3_4  and  O_7 
ROOT
ATOM      1  C   UNL d   1      -0.766   0.954   1.363  0.00  0.00    -0.033 A 
ATOM      2  C1  UNL d   1       0.174   1.933   1.690  0.00  0.00     0.039 A 
ATOM      3  C2  UNL d   1       1.401   1.976   1.026  0.00  0.00    -0.080 A 
ATOM      4  C3  UNL d   1       1.676   1.036   0.037  0.00  0.00     0.150 A 
ATOM      5  C4  UNL d   1       0.743   0.059  -0.297  0.00  0.00    -0.007 A 
ATOM      6  C5  UNL d   1      -0.482   0.018   0.368  0.00  0.00     0.039 A 
ENDROOT
BRANCH   4   7
ATOM      7  O   UNL d   1       2.861   1.034  -0.635  0.00  0.00    -0.526 OA
ATOM      8  H5  UNL d   1       3.418   1.746  -0.279  0.00  0.00     0.418 HD
ENDBRANCH   4   7
TORSDOF 1
ENDMDL
