MODEL 1
REMARK minimizedAffinity -4.61955929
REMARK minimizedRMSD -1
REMARK  1 active torsions:
REMARK  status: ('A' for Active; 'I' for Inactive)
REMARK    1  A    between atoms: C3_4  and  O_7 
ROOT
ATOM      1  C   UNL d   1       0.231  -0.538   0.046  0.00  0.00    -0.033 A 
ATOM      2  C1  UNL d   1      -0.907   0.226   0.311  0.00  0.00     0.039 A 
ATOM      3  C2  UNL d   1      -0.779   1.559   0.707  0.00  0.00    -0.080 A 
ATOM      4  C3  UNL d   1       0.491   2.115   0.832  0.00  0.00     0.150 A 
ATOM      5  C4  UNL d   1       1.629   1.361   0.566  0.00  0.00    -0.007 A 
ATOM      6  C5  UNL d   1       1.499   0.030   0.171  0.00  0.00     0.039 A 
ENDROOT
BRANCH   4   7
ATOM      7  O   UNL d   1       0.666   3.411   1.220  0.00  0.00    -0.526 OA
ATOM      8  H5  UNL d   1      -0.206   3.800   1.398  0.00  0.00     0.418 HD
ENDBRANCH   4   7
TORSDOF 1
ENDMDL
