MODEL 1
REMARK minimizedAffinity -2.52638459
REMARK minimizedRMSD -1
REMARK  0 active torsions:
REMARK  status: ('A' for Active; 'I' for Inactive)
ROOT
ATOM      1  C4' PXY d   1      -2.444  -2.638  -6.000  0.00  0.00     0.077 C 
ATOM      2  C1' PXY d   1       1.556   0.806  -3.643  0.00  0.00     0.077 C 
ATOM      3  C1  PXY d   1       0.502  -0.087  -4.267  0.00  0.00    -0.082 A 
ATOM      4  C2  PXY d   1       0.200  -1.241  -3.695  0.00  0.00     0.003 A 
ATOM      5  C3  PXY d   1      -0.728  -2.076  -4.263  0.00  0.00     0.003 A 
ATOM      6  C4  PXY d   1      -1.393  -1.700  -5.400  0.00  0.00    -0.082 A 
ATOM      7  C5  PXY d   1      -1.099  -0.519  -5.984  0.00  0.00     0.003 A 
ATOM      8  C6  PXY d   1      -0.124   0.295  -5.414  0.00  0.00     0.003 A 
ENDROOT
TORSDOF 0
ENDMDL
