MODEL 1
REMARK minimizedAffinity -4.80782318
REMARK minimizedRMSD -1
REMARK  0 active torsions:
REMARK  status: ('A' for Active; 'I' for Inactive)
ROOT
ATOM      1  C4' PXY d   1       0.630  -0.358  -1.345  0.00  0.00     0.077 C 
ATOM      2  C1' PXY d   1      -0.283   1.165   4.156  0.00  0.00     0.077 C 
ATOM      3  C1  PXY d   1      -0.057   0.764   2.712  0.00  0.00    -0.082 A 
ATOM      4  C2  PXY d   1       1.127   0.306   2.338  0.00  0.00     0.003 A 
ATOM      5  C3  PXY d   1       1.359  -0.031   1.029  0.00  0.00     0.003 A 
ATOM      6  C4  PXY d   1       0.353   0.050   0.104  0.00  0.00    -0.082 A 
ATOM      7  C5  PXY d   1      -0.861   0.506   0.480  0.00  0.00     0.003 A 
ATOM      8  C6  PXY d   1      -1.064   0.882   1.805  0.00  0.00     0.003 A 
ENDROOT
TORSDOF 0
ENDMDL
