MODEL 1
REMARK minimizedAffinity -4.88737154
REMARK minimizedRMSD -1
REMARK  0 active torsions:
REMARK  status: ('A' for Active; 'I' for Inactive)
ROOT
ATOM      1  C4' PXY d   1       0.386  -0.542  -1.575  0.00  0.00     0.077 C 
ATOM      2  C1' PXY d   1      -0.602   1.108   3.876  0.00  0.00     0.077 C 
ATOM      3  C1  PXY d   1      -0.354   0.668   2.447  0.00  0.00    -0.082 A 
ATOM      4  C2  PXY d   1       0.877   0.685   1.962  0.00  0.00     0.003 A 
ATOM      5  C3  PXY d   1       1.114   0.321   0.661  0.00  0.00     0.003 A 
ATOM      6  C4  PXY d   1       0.089  -0.115  -0.134  0.00  0.00    -0.082 A 
ATOM      7  C5  PXY d   1      -1.168  -0.146   0.357  0.00  0.00     0.003 A 
ATOM      8  C6  PXY d   1      -1.394   0.267   1.667  0.00  0.00     0.003 A 
ENDROOT
TORSDOF 0
ENDMDL
