MODEL 1
REMARK minimizedAffinity -5.05328083
REMARK minimizedRMSD -1
REMARK  0 active torsions:
REMARK  status: ('A' for Active; 'I' for Inactive)
ROOT
ATOM      1  C4' PXY d   1       0.308   0.061  -2.878  0.00  0.00     0.077 C 
ATOM      2  C1' PXY d   1      -1.091   0.043   2.731  0.00  0.00     0.077 C 
ATOM      3  C1  PXY d   1      -0.712   0.045   1.263  0.00  0.00    -0.082 A 
ATOM      4  C2  PXY d   1      -1.430   0.749   0.402  0.00  0.00     0.003 A 
ATOM      5  C3  PXY d   1      -1.120   0.736  -0.933  0.00  0.00     0.003 A 
ATOM      6  C4  PXY d   1      -0.033   0.038  -1.385  0.00  0.00    -0.082 A 
ATOM      7  C5  PXY d   1       0.711  -0.674  -0.512  0.00  0.00     0.003 A 
ATOM      8  C6  PXY d   1       0.356  -0.681   0.833  0.00  0.00     0.003 A 
ENDROOT
TORSDOF 0
ENDMDL
