MODEL 1
REMARK minimizedAffinity -4.90991592
REMARK minimizedRMSD -1
REMARK  0 active torsions:
REMARK  status: ('A' for Active; 'I' for Inactive)
ROOT
ATOM      1  C4' PXY d   1       0.288  -0.747  -1.758  0.00  0.00     0.077 C 
ATOM      2  C1' PXY d   1      -0.641   1.550   3.465  0.00  0.00     0.077 C 
ATOM      3  C1  PXY d   1      -0.409   0.943   2.095  0.00  0.00    -0.082 A 
ATOM      4  C2  PXY d   1       0.823   0.657   1.706  0.00  0.00     0.003 A 
ATOM      5  C3  PXY d   1       1.053   0.138   0.458  0.00  0.00     0.003 A 
ATOM      6  C4  PXY d   1       0.007  -0.142  -0.380  0.00  0.00    -0.082 A 
ATOM      7  C5  PXY d   1      -1.254   0.136   0.014  0.00  0.00     0.003 A 
ATOM      8  C6  PXY d   1      -1.463   0.702   1.269  0.00  0.00     0.003 A 
ENDROOT
TORSDOF 0
ENDMDL
