MODEL 1
REMARK minimizedAffinity -3.66946816
REMARK minimizedRMSD -1
REMARK  0 active torsions:
REMARK  status: ('A' for Active; 'I' for Inactive)
ROOT
ATOM      1  C4' PXY d   1      -0.021   0.406   1.883  0.00  0.00     0.077 C 
ATOM      2  C1' PXY d   1       0.755  -0.911  -3.692  0.00  0.00     0.077 C 
ATOM      3  C1  PXY d   1       0.539  -0.562  -2.232  0.00  0.00    -0.082 A 
ATOM      4  C2  PXY d   1       1.578  -0.255  -1.472  0.00  0.00     0.003 A 
ATOM      5  C3  PXY d   1       1.404   0.032  -0.143  0.00  0.00     0.003 A 
ATOM      6  C4  PXY d   1       0.148   0.056   0.402  0.00  0.00    -0.082 A 
ATOM      7  C5  PXY d   1      -0.918  -0.246  -0.369  0.00  0.00     0.003 A 
ATOM      8  C6  PXY d   1      -0.716  -0.574  -1.706  0.00  0.00     0.003 A 
ENDROOT
TORSDOF 0
ENDMDL
