MODEL 1
REMARK minimizedAffinity -2.4097054
REMARK minimizedRMSD -1
REMARK  0 active torsions:
REMARK  status: ('A' for Active; 'I' for Inactive)
ROOT
ATOM      1  C4' PXY d   1       0.694  -0.797  -2.158  0.00  0.00     0.077 C 
ATOM      2  C1' PXY d   1      -1.598   1.206   2.756  0.00  0.00     0.077 C 
ATOM      3  C1  PXY d   1      -0.985   0.685   1.471  0.00  0.00    -0.082 A 
ATOM      4  C2  PXY d   1      -1.747   0.525   0.401  0.00  0.00     0.003 A 
ATOM      5  C3  PXY d   1      -1.216   0.025  -0.760  0.00  0.00     0.003 A 
ATOM      6  C4  PXY d   1       0.120  -0.264  -0.842  0.00  0.00    -0.082 A 
ATOM      7  C5  PXY d   1       0.906  -0.093   0.242  0.00  0.00     0.003 A 
ATOM      8  C6  PXY d   1       0.339   0.377   1.423  0.00  0.00     0.003 A 
ENDROOT
TORSDOF 0
ENDMDL
