MODEL 1
REMARK minimizedAffinity -5.39970446
REMARK minimizedRMSD -1
REMARK  0 active torsions:
REMARK  status: ('A' for Active; 'I' for Inactive)
ROOT
ATOM      1  C4' PXY d   1       0.180  -1.401  -1.481  0.00  0.00     0.077 C 
ATOM      2  C1' PXY d   1      -0.351   1.174   3.667  0.00  0.00     0.077 C 
ATOM      3  C1  PXY d   1      -0.199   0.501   2.317  0.00  0.00    -0.082 A 
ATOM      4  C2  PXY d   1      -1.225   0.469   1.482  0.00  0.00     0.003 A 
ATOM      5  C3  PXY d   1      -1.114  -0.164   0.271  0.00  0.00     0.003 A 
ATOM      6  C4  PXY d   1       0.075  -0.724  -0.112  0.00  0.00    -0.082 A 
ATOM      7  C5  PXY d   1       1.130  -0.687   0.730  0.00  0.00     0.003 A 
ATOM      8  C6  PXY d   1       0.984  -0.076   1.972  0.00  0.00     0.003 A 
ENDROOT
TORSDOF 0
ENDMDL
