MODEL 1
REMARK minimizedAffinity -5.54210281
REMARK minimizedRMSD -1
REMARK  0 active torsions:
REMARK  status: ('A' for Active; 'I' for Inactive)
ROOT
ATOM      1  C4' PXY d   1      -0.463   1.832   3.164  0.00  0.00     0.077 C 
ATOM      2  C1' PXY d   1       0.288  -1.425  -1.553  0.00  0.00     0.077 C 
ATOM      3  C1  PXY d   1       0.101  -0.577  -0.310  0.00  0.00    -0.082 A 
ATOM      4  C2  PXY d   1      -1.092  -0.079  -0.031  0.00  0.00     0.003 A 
ATOM      5  C3  PXY d   1      -1.272   0.717   1.071  0.00  0.00     0.003 A 
ATOM      6  C4  PXY d   1      -0.230   0.962   1.925  0.00  0.00    -0.082 A 
ATOM      7  C5  PXY d   1       0.988   0.448   1.654  0.00  0.00     0.003 A 
ATOM      8  C6  PXY d   1       1.159  -0.323   0.508  0.00  0.00     0.003 A 
ENDROOT
TORSDOF 0
ENDMDL
