MODEL 1
REMARK minimizedAffinity -5.22565079
REMARK minimizedRMSD -1
REMARK  0 active torsions:
REMARK  status: ('A' for Active; 'I' for Inactive)
ROOT
ATOM      1  C4' PXY d   1      -0.758   1.362   3.259  0.00  0.00     0.077 C 
ATOM      2  C1' PXY d   1       0.546  -1.404  -1.646  0.00  0.00     0.077 C 
ATOM      3  C1  PXY d   1       0.194  -0.673  -0.366  0.00  0.00    -0.082 A 
ATOM      4  C2  PXY d   1       1.137  -0.431   0.530  0.00  0.00     0.003 A 
ATOM      5  C3  PXY d   1       0.830   0.200   1.708  0.00  0.00     0.003 A 
ATOM      6  C4  PXY d   1      -0.446   0.636   1.948  0.00  0.00    -0.082 A 
ATOM      7  C5  PXY d   1      -1.412   0.402   1.034  0.00  0.00     0.003 A 
ATOM      8  C6  PXY d   1      -1.088  -0.277  -0.137  0.00  0.00     0.003 A 
ENDROOT
TORSDOF 0
ENDMDL
