MODEL 1
REMARK minimizedAffinity -5.35510921
REMARK minimizedRMSD -1
REMARK  0 active torsions:
REMARK  status: ('A' for Active; 'I' for Inactive)
ROOT
ATOM      1  C4' PXY d   1       0.343  -1.026  -1.966  0.00  0.00     0.077 C 
ATOM      2  C1' PXY d   1      -0.784   1.520   3.100  0.00  0.00     0.077 C 
ATOM      3  C1  PXY d   1      -0.501   0.847   1.771  0.00  0.00    -0.082 A 
ATOM      4  C2  PXY d   1       0.750   0.600   1.417  0.00  0.00     0.003 A 
ATOM      5  C3  PXY d   1       1.026   0.021   0.205  0.00  0.00     0.003 A 
ATOM      6  C4  PXY d   1       0.009  -0.357  -0.630  0.00  0.00    -0.082 A 
ATOM      7  C5  PXY d   1      -1.270  -0.117  -0.271  0.00  0.00     0.003 A 
ATOM      8  C6  PXY d   1      -1.527   0.509   0.945  0.00  0.00     0.003 A 
ENDROOT
TORSDOF 0
ENDMDL
