MODEL 1
REMARK minimizedAffinity -2.28176212
REMARK minimizedRMSD -1
REMARK  0 active torsions:
REMARK  status: ('A' for Active; 'I' for Inactive)
ROOT
ATOM      1  C4' PXY d   1       0.251  -0.931  -2.250  0.00  0.00     0.077 C 
ATOM      2  C1' PXY d   1      -0.810   1.623   2.826  0.00  0.00     0.077 C 
ATOM      3  C1  PXY d   1      -0.520   0.959   1.494  0.00  0.00    -0.082 A 
ATOM      4  C2  PXY d   1      -1.523   0.597   0.711  0.00  0.00     0.003 A 
ATOM      5  C3  PXY d   1      -1.280  -0.033  -0.482  0.00  0.00     0.003 A 
ATOM      6  C4  PXY d   1       0.005  -0.249  -0.902  0.00  0.00    -0.082 A 
ATOM      7  C5  PXY d   1       1.035   0.126  -0.113  0.00  0.00     0.003 A 
ATOM      8  C6  PXY d   1       0.765   0.728   1.113  0.00  0.00     0.003 A 
ENDROOT
TORSDOF 0
ENDMDL
