MODEL 1
REMARK minimizedAffinity -1.75843704
REMARK minimizedRMSD -1
REMARK  0 active torsions:
REMARK  status: ('A' for Active; 'I' for Inactive)
ROOT
ATOM      1  C4' PXY d   1      -2.808  -0.198  -0.372  0.00  0.00     0.077 C 
ATOM      2  C1' PXY d   1       2.538  -0.203   1.827  0.00  0.00     0.077 C 
ATOM      3  C1  PXY d   1       1.131  -0.201   1.262  0.00  0.00    -0.082 A 
ATOM      4  C2  PXY d   1       0.899  -0.752   0.082  0.00  0.00     0.003 A 
ATOM      5  C3  PXY d   1      -0.361  -0.731  -0.458  0.00  0.00     0.003 A 
ATOM      6  C4  PXY d   1      -1.405  -0.186   0.241  0.00  0.00    -0.082 A 
ATOM      7  C5  PXY d   1      -1.179   0.370   1.450  0.00  0.00     0.003 A 
ATOM      8  C6  PXY d   1       0.115   0.374   1.963  0.00  0.00     0.003 A 
ENDROOT
TORSDOF 0
ENDMDL
