MODEL 1
REMARK minimizedAffinity -3.67946792
REMARK minimizedRMSD -1
REMARK  0 active torsions:
REMARK  status: ('A' for Active; 'I' for Inactive)
ROOT
ATOM      1  C   UNL d   1      -1.392  -0.440   1.469  0.00  0.00     0.172 C 
ATOM      2  N   UNL d   1      -0.782  -1.501   0.703  0.00  0.00    -0.070 N 
ATOM      3  C1  UNL d   1       0.035  -1.333  -0.383  0.00  0.00    -0.004 A 
ATOM      4  C2  UNL d   1       0.408  -2.582  -0.828  0.00  0.00    -0.047 A 
ATOM      5  C3  UNL d   1      -0.207  -3.535   0.019  0.00  0.00    -0.047 A 
ATOM      6  C4  UNL d   1      -0.938  -2.838   0.958  0.00  0.00    -0.004 A 
ENDROOT
TORSDOF 0
ENDMDL
