MODEL 1
REMARK minimizedAffinity -2.5064795
REMARK minimizedRMSD -1
REMARK  0 active torsions:
REMARK  status: ('A' for Active; 'I' for Inactive)
ROOT
ATOM      1  C   UNL d   1      -0.404   0.866   0.324  0.00  0.00     0.172 C 
ATOM      2  N   UNL d   1      -0.682  -0.417   0.926  0.00  0.00    -0.070 N 
ATOM      3  C1  UNL d   1      -0.595  -1.630   0.296  0.00  0.00    -0.004 A 
ATOM      4  C2  UNL d   1      -0.938  -2.605   1.208  0.00  0.00    -0.047 A 
ATOM      5  C3  UNL d   1      -1.244  -1.955   2.427  0.00  0.00    -0.047 A 
ATOM      6  C4  UNL d   1      -1.077  -0.602   2.225  0.00  0.00    -0.004 A 
ENDROOT
TORSDOF 0
ENDMDL
