MODEL 1
REMARK minimizedAffinity -3.45945191
REMARK minimizedRMSD -1
REMARK  0 active torsions:
REMARK  status: ('A' for Active; 'I' for Inactive)
ROOT
ATOM      1  C   UNL d   1      -0.289   0.299  -0.548  0.00  0.00     0.172 C 
ATOM      2  N   UNL d   1      -0.346  -1.133  -0.371  0.00  0.00    -0.070 N 
ATOM      3  C1  UNL d   1      -0.040  -2.067  -1.324  0.00  0.00    -0.004 A 
ATOM      4  C2  UNL d   1      -0.219  -3.314  -0.765  0.00  0.00    -0.047 A 
ATOM      5  C3  UNL d   1      -0.648  -3.122   0.570  0.00  0.00    -0.047 A 
ATOM      6  C4  UNL d   1      -0.718  -1.762   0.787  0.00  0.00    -0.004 A 
ENDROOT
TORSDOF 0
ENDMDL
