MODEL 1
REMARK minimizedAffinity 5.09502363
REMARK minimizedRMSD -1
REMARK  0 active torsions:
REMARK  status: ('A' for Active; 'I' for Inactive)
ROOT
ATOM      1  C   UNL d   1       1.774  -1.449  -4.457  0.00  0.00     0.172 C 
ATOM      2  N   UNL d   1       2.801  -2.462  -4.523  0.00  0.00    -0.070 N 
ATOM      3  C1  UNL d   1       3.795  -2.531  -5.464  0.00  0.00    -0.004 A 
ATOM      4  C2  UNL d   1       4.567  -3.637  -5.181  0.00  0.00    -0.047 A 
ATOM      5  C3  UNL d   1       4.018  -4.254  -4.032  0.00  0.00    -0.047 A 
ATOM      6  C4  UNL d   1       2.926  -3.506  -3.646  0.00  0.00    -0.004 A 
ENDROOT
TORSDOF 0
ENDMDL
