MODEL 1
REMARK minimizedAffinity 2.7139256
REMARK minimizedRMSD -1
REMARK  0 active torsions:
REMARK  status: ('A' for Active; 'I' for Inactive)
ROOT
ATOM      1  C   UNL d   1      -0.884   0.453  -0.195  0.00  0.00     0.172 C 
ATOM      2  N   UNL d   1      -1.283  -0.891   0.152  0.00  0.00    -0.070 N 
ATOM      3  C1  UNL d   1      -1.468  -1.922  -0.729  0.00  0.00    -0.004 A 
ATOM      4  C2  UNL d   1      -1.843  -3.034  -0.006  0.00  0.00    -0.047 A 
ATOM      5  C3  UNL d   1      -1.887  -2.657   1.357  0.00  0.00    -0.047 A 
ATOM      6  C4  UNL d   1      -1.536  -1.325   1.427  0.00  0.00    -0.004 A 
ENDROOT
TORSDOF 0
ENDMDL
