MODEL 1
REMARK minimizedAffinity -2.51833463
REMARK minimizedRMSD -1
REMARK  0 active torsions:
REMARK  status: ('A' for Active; 'I' for Inactive)
ROOT
ATOM      1  C   UNL d   1       0.141   2.223  -1.093  0.00  0.00     0.172 C 
ATOM      2  N   UNL d   1       0.720   2.744   0.124  0.00  0.00    -0.070 N 
ATOM      3  C1  UNL d   1       2.028   3.113   0.291  0.00  0.00    -0.004 A 
ATOM      4  C2  UNL d   1       2.179   3.555   1.588  0.00  0.00    -0.047 A 
ATOM      5  C3  UNL d   1       0.918   3.446   2.222  0.00  0.00    -0.047 A 
ATOM      6  C4  UNL d   1       0.033   2.941   1.293  0.00  0.00    -0.004 A 
ENDROOT
TORSDOF 0
ENDMDL
