MODEL 1
REMARK minimizedAffinity -0.751461029
REMARK minimizedRMSD -1
REMARK  0 active torsions:
REMARK  status: ('A' for Active; 'I' for Inactive)
ROOT
ATOM      1  C   UNL d   1      -1.126  -2.748   0.247  0.00  0.00     0.172 C 
ATOM      2  N   UNL d   1      -1.387  -1.354   0.523  0.00  0.00    -0.070 N 
ATOM      3  C1  UNL d   1      -0.693  -0.294   0.003  0.00  0.00    -0.004 A 
ATOM      4  C2  UNL d   1      -1.248   0.862   0.508  0.00  0.00    -0.047 A 
ATOM      5  C3  UNL d   1      -2.312   0.483   1.361  0.00  0.00    -0.047 A 
ATOM      6  C4  UNL d   1      -2.376  -0.894   1.352  0.00  0.00    -0.004 A 
ENDROOT
TORSDOF 0
ENDMDL
