MODEL 1
REMARK minimizedAffinity -2.97195888
REMARK minimizedRMSD -1
REMARK  0 active torsions:
REMARK  status: ('A' for Active; 'I' for Inactive)
ROOT
ATOM      1  C   UNL d   1      -0.348   1.201   0.002  0.00  0.00     0.172 C 
ATOM      2  N   UNL d   1      -0.552  -0.174   0.395  0.00  0.00    -0.070 N 
ATOM      3  C1  UNL d   1       0.113  -1.257  -0.115  0.00  0.00    -0.004 A 
ATOM      4  C2  UNL d   1      -0.368  -2.383   0.518  0.00  0.00    -0.047 A 
ATOM      5  C3  UNL d   1      -1.356  -1.962   1.439  0.00  0.00    -0.047 A 
ATOM      6  C4  UNL d   1      -1.450  -0.590   1.342  0.00  0.00    -0.004 A 
ENDROOT
TORSDOF 0
ENDMDL
