MODEL 1
REMARK minimizedAffinity -4.0107851
REMARK minimizedRMSD -1
REMARK  0 active torsions:
REMARK  status: ('A' for Active; 'I' for Inactive)
ROOT
ATOM      1  C   UNL d   1       0.217  -1.557  -2.715  0.00  0.00     0.172 C 
ATOM      2  N   UNL d   1      -0.012  -1.766  -1.305  0.00  0.00    -0.070 N 
ATOM      3  C1  UNL d   1      -0.268  -2.971  -0.707  0.00  0.00    -0.004 A 
ATOM      4  C2  UNL d   1      -0.427  -2.748   0.643  0.00  0.00    -0.047 A 
ATOM      5  C3  UNL d   1      -0.261  -1.360   0.865  0.00  0.00    -0.047 A 
ATOM      6  C4  UNL d   1      -0.006  -0.776  -0.358  0.00  0.00    -0.004 A 
ENDROOT
TORSDOF 0
ENDMDL
