MODEL 1
REMARK minimizedAffinity -3.90923524
REMARK minimizedRMSD -1
REMARK  0 active torsions:
REMARK  status: ('A' for Active; 'I' for Inactive)
ROOT
ATOM      1  C   UNL d   1      -2.020  -0.033   1.693  0.00  0.00     0.172 C 
ATOM      2  N   UNL d   1      -1.220  -1.055   1.060  0.00  0.00    -0.070 N 
ATOM      3  C1  UNL d   1      -1.470  -2.401   1.098  0.00  0.00    -0.004 A 
ATOM      4  C2  UNL d   1      -0.481  -3.034   0.376  0.00  0.00    -0.047 A 
ATOM      5  C3  UNL d   1       0.394  -2.034  -0.111  0.00  0.00    -0.047 A 
ATOM      6  C4  UNL d   1      -0.087  -0.818   0.328  0.00  0.00    -0.004 A 
ENDROOT
TORSDOF 0
ENDMDL
