MODEL 1
REMARK minimizedAffinity -0.708886027
REMARK minimizedRMSD -1
REMARK  0 active torsions:
REMARK  status: ('A' for Active; 'I' for Inactive)
ROOT
ATOM      1  C   UNL d   1      -0.016   0.076  -2.150  0.00  0.00     0.172 C 
ATOM      2  N   UNL d   1      -0.506   0.350  -0.820  0.00  0.00    -0.070 N 
ATOM      3  C1  UNL d   1      -0.023   1.311   0.027  0.00  0.00    -0.004 A 
ATOM      4  C2  UNL d   1      -0.754   1.253   1.193  0.00  0.00    -0.047 A 
ATOM      5  C3  UNL d   1      -1.709   0.220   1.043  0.00  0.00    -0.047 A 
ATOM      6  C4  UNL d   1      -1.533  -0.323  -0.212  0.00  0.00    -0.004 A 
ENDROOT
TORSDOF 0
ENDMDL
