MODEL 1
REMARK minimizedAffinity 2.332407
REMARK minimizedRMSD -1
REMARK  0 active torsions:
REMARK  status: ('A' for Active; 'I' for Inactive)
ROOT
ATOM      1  C   UNL d   1      -0.745   0.393  -0.440  0.00  0.00     0.172 C 
ATOM      2  N   UNL d   1      -1.251  -0.386   0.665  0.00  0.00    -0.070 N 
ATOM      3  C1  UNL d   1      -1.356  -1.751   0.698  0.00  0.00    -0.004 A 
ATOM      4  C2  UNL d   1      -1.882  -2.104   1.921  0.00  0.00    -0.047 A 
ATOM      5  C3  UNL d   1      -2.103  -0.910   2.648  0.00  0.00    -0.047 A 
ATOM      6  C4  UNL d   1      -1.704   0.138   1.847  0.00  0.00    -0.004 A 
ENDROOT
TORSDOF 0
ENDMDL
