MODEL 1
REMARK minimizedAffinity 0.136175111
REMARK minimizedRMSD -1
REMARK  0 active torsions:
REMARK  status: ('A' for Active; 'I' for Inactive)
ROOT
ATOM      1  C   UNL d   1       0.135   5.930   3.199  0.00  0.00     0.172 C 
ATOM      2  N   UNL d   1       0.852   5.201   2.179  0.00  0.00    -0.070 N 
ATOM      3  C1  UNL d   1       0.580   5.229   0.837  0.00  0.00    -0.004 A 
ATOM      4  C2  UNL d   1       1.485   4.404   0.205  0.00  0.00    -0.047 A 
ATOM      5  C3  UNL d   1       2.329   3.860   1.202  0.00  0.00    -0.047 A 
ATOM      6  C4  UNL d   1       1.915   4.370   2.414  0.00  0.00    -0.004 A 
ENDROOT
TORSDOF 0
ENDMDL
