MODEL 1
REMARK minimizedAffinity 0.374660194
REMARK minimizedRMSD -1
REMARK  0 active torsions:
REMARK  status: ('A' for Active; 'I' for Inactive)
ROOT
ATOM      1  C   UNL d   1       0.576  -0.742   3.550  0.00  0.00     0.172 C 
ATOM      2  N   UNL d   1      -0.497  -0.771   2.584  0.00  0.00    -0.070 N 
ATOM      3  C1  UNL d   1      -1.549  -1.648   2.586  0.00  0.00    -0.004 A 
ATOM      4  C2  UNL d   1      -2.350  -1.348   1.505  0.00  0.00    -0.047 A 
ATOM      5  C3  UNL d   1      -1.759  -0.254   0.830  0.00  0.00    -0.047 A 
ATOM      6  C4  UNL d   1      -0.613   0.083   1.520  0.00  0.00    -0.004 A 
ENDROOT
TORSDOF 0
ENDMDL
