MODEL 1
REMARK minimizedAffinity 10.8283415
REMARK minimizedRMSD -1
REMARK  1 active torsions:
REMARK  status: ('A' for Active; 'I' for Inactive)
REMARK    1  A    between atoms: C1_2  and  C2_3 
ROOT
ATOM      1  C2  UNL d   1      -1.171  -3.082  -1.070  0.00  0.00    -0.073 A 
ATOM      2  C3  UNL d   1      -1.674  -2.056  -0.263  0.00  0.00    -0.002 A 
ATOM      3  C4  UNL d   1      -1.727  -2.210   1.123  0.00  0.00     0.004 A 
ATOM      4  C5  UNL d   1      -1.272  -3.388   1.716  0.00  0.00    -0.004 A 
ATOM      5  C6  UNL d   1      -0.755  -4.421   0.927  0.00  0.00    -0.075 A 
ATOM      6  C7  UNL d   1      -0.263  -5.695   1.550  0.00  0.00     0.076 C 
ATOM      7  C8  UNL d   1      -0.707  -4.259  -0.464  0.00  0.00     0.001 A 
ENDROOT
BRANCH   1   8
ATOM      8  C1  UNL d   1      -1.105  -2.918  -2.566  0.00  0.00     0.053 C 
ATOM      9  C   UNL d   1      -1.952  -1.750  -3.048  0.00  0.00     0.018 C 
ENDBRANCH   1   8
TORSDOF 1
ENDMDL
