MODEL 1
REMARK minimizedAffinity 3.86174536
REMARK minimizedRMSD -1
REMARK  1 active torsions:
REMARK  status: ('A' for Active; 'I' for Inactive)
REMARK    1  A    between atoms: C1_2  and  C2_3 
ROOT
ATOM      1  C2  UNL d   1      -1.806  -2.356   2.602  0.00  0.00    -0.073 A 
ATOM      2  C3  UNL d   1      -1.795  -1.540   1.465  0.00  0.00    -0.002 A 
ATOM      3  C4  UNL d   1      -1.467  -2.073   0.218  0.00  0.00     0.004 A 
ATOM      4  C5  UNL d   1      -1.154  -3.426   0.093  0.00  0.00    -0.004 A 
ATOM      5  C6  UNL d   1      -1.171  -4.261   1.216  0.00  0.00    -0.075 A 
ATOM      6  C7  UNL d   1      -0.835  -5.718   1.099  0.00  0.00     0.076 C 
ATOM      7  C8  UNL d   1      -1.499  -3.718   2.465  0.00  0.00     0.001 A 
ENDROOT
BRANCH   1   8
ATOM      8  C1  UNL d   1      -2.166  -1.787   3.950  0.00  0.00     0.053 C 
ATOM      9  C   UNL d   1      -0.975  -1.762   4.895  0.00  0.00     0.018 C 
ENDBRANCH   1   8
TORSDOF 1
ENDMDL
