MODEL 1
REMARK minimizedAffinity 7.05151558
REMARK minimizedRMSD -1
REMARK  1 active torsions:
REMARK  status: ('A' for Active; 'I' for Inactive)
REMARK    1  A    between atoms: C1_2  and  C2_3 
ROOT
ATOM      1  C2  UNL d   1       6.000   1.626  -1.878  0.00  0.00    -0.073 A 
ATOM      2  C3  UNL d   1       5.997   1.619  -3.278  0.00  0.00    -0.002 A 
ATOM      3  C4  UNL d   1       5.999   0.411  -3.976  0.00  0.00     0.004 A 
ATOM      4  C5  UNL d   1       5.996  -0.800  -3.285  0.00  0.00    -0.004 A 
ATOM      5  C6  UNL d   1       5.987  -0.814  -1.886  0.00  0.00    -0.075 A 
ATOM      6  C7  UNL d   1       5.986  -2.108  -1.127  0.00  0.00     0.076 C 
ATOM      7  C8  UNL d   1       5.988   0.403  -1.192  0.00  0.00     0.001 A 
ENDROOT
BRANCH   1   8
ATOM      8  C1  UNL d   1       5.992   2.928  -1.120  0.00  0.00     0.053 C 
ATOM      9  C   UNL d   1       4.684   3.145  -0.375  0.00  0.00     0.018 C 
ENDBRANCH   1   8
TORSDOF 1
ENDMDL
