MODEL 1
REMARK minimizedAffinity 5.99852514
REMARK minimizedRMSD -1
REMARK  1 active torsions:
REMARK  status: ('A' for Active; 'I' for Inactive)
REMARK    1  A    between atoms: C1_2  and  C2_3 
ROOT
ATOM      1  C2  UNL d   1       3.082   0.328  -1.689  0.00  0.00    -0.073 A 
ATOM      2  C3  UNL d   1       2.060  -0.178  -0.878  0.00  0.00    -0.002 A 
ATOM      3  C4  UNL d   1       1.764   0.427   0.344  0.00  0.00     0.004 A 
ATOM      4  C5  UNL d   1       2.482   1.547   0.765  0.00  0.00    -0.004 A 
ATOM      5  C6  UNL d   1       3.499   2.074  -0.037  0.00  0.00    -0.075 A 
ATOM      6  C7  UNL d   1       4.282   3.277   0.402  0.00  0.00     0.076 C 
ATOM      7  C8  UNL d   1       3.792   1.459  -1.261  0.00  0.00     0.001 A 
ENDROOT
BRANCH   1   8
ATOM      8  C1  UNL d   1       3.401  -0.318  -3.012  0.00  0.00     0.053 C 
ATOM      9  C   UNL d   1       4.856  -0.121  -3.407  0.00  0.00     0.018 C 
ENDBRANCH   1   8
TORSDOF 1
ENDMDL
