MODEL 1
REMARK minimizedAffinity 9.11205196
REMARK minimizedRMSD -1
REMARK  1 active torsions:
REMARK  status: ('A' for Active; 'I' for Inactive)
REMARK    1  A    between atoms: C1_2  and  C2_3 
ROOT
ATOM      1  C2  UNL d   1      -2.016  -3.169   2.696  0.00  0.00    -0.073 A 
ATOM      2  C3  UNL d   1      -1.209  -4.267   2.380  0.00  0.00    -0.002 A 
ATOM      3  C4  UNL d   1      -0.687  -4.412   1.094  0.00  0.00     0.004 A 
ATOM      4  C5  UNL d   1      -0.961  -3.458   0.114  0.00  0.00    -0.004 A 
ATOM      5  C6  UNL d   1      -1.756  -2.347   0.413  0.00  0.00    -0.075 A 
ATOM      6  C7  UNL d   1      -2.062  -1.313  -0.630  0.00  0.00     0.076 C 
ATOM      7  C8  UNL d   1      -2.278  -2.210   1.707  0.00  0.00     0.001 A 
ENDROOT
BRANCH   1   8
ATOM      8  C1  UNL d   1      -2.576  -3.005   4.085  0.00  0.00     0.053 C 
ATOM      9  C   UNL d   1      -2.157  -1.687   4.717  0.00  0.00     0.018 C 
ENDBRANCH   1   8
TORSDOF 1
ENDMDL
