MODEL 1
REMARK minimizedAffinity 13.006072
REMARK minimizedRMSD -1
REMARK  1 active torsions:
REMARK  status: ('A' for Active; 'I' for Inactive)
REMARK    1  A    between atoms: C1_2  and  C2_3 
ROOT
ATOM      1  C2  UNL d   1      -1.077  -3.961   0.529  0.00  0.00    -0.073 A 
ATOM      2  C3  UNL d   1      -1.029  -2.944  -0.431  0.00  0.00    -0.002 A 
ATOM      3  C4  UNL d   1      -1.686  -1.733  -0.210  0.00  0.00     0.004 A 
ATOM      4  C5  UNL d   1      -2.392  -1.524   0.975  0.00  0.00    -0.004 A 
ATOM      5  C6  UNL d   1      -2.442  -2.524   1.952  0.00  0.00    -0.075 A 
ATOM      6  C7  UNL d   1      -3.198  -2.316   3.231  0.00  0.00     0.076 C 
ATOM      7  C8  UNL d   1      -1.781  -3.738   1.721  0.00  0.00     0.001 A 
ENDROOT
BRANCH   1   8
ATOM      8  C1  UNL d   1      -0.363  -5.267   0.297  0.00  0.00     0.053 C 
ATOM      9  C   UNL d   1      -0.077  -5.999   1.598  0.00  0.00     0.018 C 
ENDBRANCH   1   8
TORSDOF 1
ENDMDL
