MODEL 1
REMARK minimizedAffinity 14.7148809
REMARK minimizedRMSD -1
REMARK  1 active torsions:
REMARK  status: ('A' for Active; 'I' for Inactive)
REMARK    1  A    between atoms: C1_2  and  C2_3 
ROOT
ATOM      1  C2  UNL d   1       4.607   2.100   1.208  0.00  0.00    -0.073 A 
ATOM      2  C3  UNL d   1       5.571   1.653   0.299  0.00  0.00    -0.002 A 
ATOM      3  C4  UNL d   1       5.998   2.481  -0.740  0.00  0.00     0.004 A 
ATOM      4  C5  UNL d   1       5.471   3.765  -0.876  0.00  0.00    -0.004 A 
ATOM      5  C6  UNL d   1       4.514   4.234   0.030  0.00  0.00    -0.075 A 
ATOM      6  C7  UNL d   1       3.935   5.612  -0.103  0.00  0.00     0.076 C 
ATOM      7  C8  UNL d   1       4.089   3.395   1.069  0.00  0.00     0.001 A 
ENDROOT
BRANCH   1   8
ATOM      8  C1  UNL d   1       4.147   1.211   2.335  0.00  0.00     0.053 C 
ATOM      9  C   UNL d   1       5.306   0.473   2.987  0.00  0.00     0.018 C 
ENDBRANCH   1   8
TORSDOF 1
ENDMDL
