MODEL 1
REMARK minimizedAffinity 11.7591171
REMARK minimizedRMSD -1
REMARK  1 active torsions:
REMARK  status: ('A' for Active; 'I' for Inactive)
REMARK    1  A    between atoms: C1_2  and  C2_3 
ROOT
ATOM      1  C2  UNL d   1       0.120  -0.382  -2.339  0.00  0.00    -0.073 A 
ATOM      2  C3  UNL d   1       1.024  -0.834  -3.308  0.00  0.00    -0.002 A 
ATOM      3  C4  UNL d   1       2.333  -0.353  -3.328  0.00  0.00     0.004 A 
ATOM      4  C5  UNL d   1       2.754   0.578  -2.379  0.00  0.00    -0.004 A 
ATOM      5  C6  UNL d   1       1.869   1.033  -1.396  0.00  0.00    -0.075 A 
ATOM      6  C7  UNL d   1       2.306   2.035  -0.368  0.00  0.00     0.076 C 
ATOM      7  C8  UNL d   1       0.555   0.547  -1.383  0.00  0.00     0.001 A 
ENDROOT
BRANCH   1   8
ATOM      8  C1  UNL d   1      -1.293  -0.904  -2.309  0.00  0.00     0.053 C 
ATOM      9  C   UNL d   1      -1.772  -1.171  -0.891  0.00  0.00     0.018 C 
ENDBRANCH   1   8
TORSDOF 1
ENDMDL
