MODEL 1
REMARK minimizedAffinity 15.8728352
REMARK minimizedRMSD -1
REMARK  1 active torsions:
REMARK  status: ('A' for Active; 'I' for Inactive)
REMARK    1  A    between atoms: C1_2  and  C2_3 
ROOT
ATOM      1  C2  UNL d   1      -0.792  -3.688   0.444  0.00  0.00    -0.073 A 
ATOM      2  C3  UNL d   1      -0.878  -2.725  -0.568  0.00  0.00    -0.002 A 
ATOM      3  C4  UNL d   1      -1.400  -1.460  -0.293  0.00  0.00     0.004 A 
ATOM      4  C5  UNL d   1      -1.832  -1.143   0.994  0.00  0.00    -0.004 A 
ATOM      5  C6  UNL d   1      -1.743  -2.088   2.021  0.00  0.00    -0.075 A 
ATOM      6  C7  UNL d   1      -2.206  -1.763   3.411  0.00  0.00     0.076 C 
ATOM      7  C8  UNL d   1      -1.221  -3.357   1.737  0.00  0.00     0.001 A 
ENDROOT
BRANCH   1   8
ATOM      8  C1  UNL d   1      -0.224  -5.053   0.154  0.00  0.00     0.053 C 
ATOM      9  C   UNL d   1      -0.251  -5.954   1.379  0.00  0.00     0.018 C 
ENDBRANCH   1   8
TORSDOF 1
ENDMDL
