MODEL 1
REMARK minimizedAffinity 10.3666382
REMARK minimizedRMSD -1
REMARK  1 active torsions:
REMARK  status: ('A' for Active; 'I' for Inactive)
REMARK    1  A    between atoms: C1_2  and  C2_3 
ROOT
ATOM      1  C2  UNL d   1      -1.381  -1.999  -1.609  0.00  0.00    -0.073 A 
ATOM      2  C3  UNL d   1      -2.328  -1.335  -0.820  0.00  0.00    -0.002 A 
ATOM      3  C4  UNL d   1      -2.613  -1.787   0.469  0.00  0.00     0.004 A 
ATOM      4  C5  UNL d   1      -1.950  -2.900   0.985  0.00  0.00    -0.004 A 
ATOM      5  C6  UNL d   1      -0.992  -3.570   0.218  0.00  0.00    -0.075 A 
ATOM      6  C7  UNL d   1      -0.272  -4.770   0.758  0.00  0.00     0.076 C 
ATOM      7  C8  UNL d   1      -0.713  -3.112  -1.077  0.00  0.00     0.001 A 
ENDROOT
BRANCH   1   8
ATOM      8  C1  UNL d   1      -1.065  -1.512  -2.999  0.00  0.00     0.053 C 
ATOM      9  C   UNL d   1      -1.251  -2.603  -4.042  0.00  0.00     0.018 C 
ENDBRANCH   1   8
TORSDOF 1
ENDMDL
