MODEL 1
REMARK minimizedAffinity 8.49698162
REMARK minimizedRMSD -1
REMARK  1 active torsions:
REMARK  status: ('A' for Active; 'I' for Inactive)
REMARK    1  A    between atoms: C1_2  and  C2_3 
ROOT
ATOM      1  C2  UNL d   1       3.159   0.521  -1.272  0.00  0.00    -0.073 A 
ATOM      2  C3  UNL d   1       2.134   0.300  -0.345  0.00  0.00    -0.002 A 
ATOM      3  C4  UNL d   1       1.980   1.150   0.751  0.00  0.00     0.004 A 
ATOM      4  C5  UNL d   1       2.842   2.232   0.927  0.00  0.00    -0.004 A 
ATOM      5  C6  UNL d   1       3.864   2.477   0.005  0.00  0.00    -0.075 A 
ATOM      6  C7  UNL d   1       4.801   3.635   0.181  0.00  0.00     0.076 C 
ATOM      7  C8  UNL d   1       4.015   1.617  -1.092  0.00  0.00     0.001 A 
ENDROOT
BRANCH   1   8
ATOM      8  C1  UNL d   1       3.325  -0.391  -2.460  0.00  0.00     0.053 C 
ATOM      9  C   UNL d   1       4.758  -0.405  -2.971  0.00  0.00     0.018 C 
ENDBRANCH   1   8
TORSDOF 1
ENDMDL
