MODEL 1
REMARK minimizedAffinity 8.11661816
REMARK minimizedRMSD -1
REMARK  1 active torsions:
REMARK  status: ('A' for Active; 'I' for Inactive)
REMARK    1  A    between atoms: C1_2  and  C2_3 
ROOT
ATOM      1  C2  UNL d   1       2.626   0.581  -1.308  0.00  0.00    -0.073 A 
ATOM      2  C3  UNL d   1       1.648   0.368  -0.330  0.00  0.00    -0.002 A 
ATOM      3  C4  UNL d   1       1.523   1.248   0.745  0.00  0.00     0.004 A 
ATOM      4  C5  UNL d   1       2.369   2.352   0.851  0.00  0.00    -0.004 A 
ATOM      5  C6  UNL d   1       3.345   2.589  -0.123  0.00  0.00    -0.075 A 
ATOM      6  C7  UNL d   1       4.264   3.770  -0.023  0.00  0.00     0.076 C 
ATOM      7  C8  UNL d   1       3.466   1.699  -1.199  0.00  0.00     0.001 A 
ENDROOT
BRANCH   1   8
ATOM      8  C1  UNL d   1       2.761  -0.363  -2.475  0.00  0.00     0.053 C 
ATOM      9  C   UNL d   1       4.215  -0.669  -2.797  0.00  0.00     0.018 C 
ENDBRANCH   1   8
TORSDOF 1
ENDMDL
