MODEL 1
REMARK minimizedAffinity 10.3649149
REMARK minimizedRMSD -1
REMARK  1 active torsions:
REMARK  status: ('A' for Active; 'I' for Inactive)
REMARK    1  A    between atoms: C1_2  and  C2_3 
ROOT
ATOM      1  C2  UNL d   1      -1.450  -3.828   0.655  0.00  0.00    -0.073 A 
ATOM      2  C3  UNL d   1      -0.759  -4.934   0.146  0.00  0.00    -0.002 A 
ATOM      3  C4  UNL d   1      -0.387  -5.982   0.990  0.00  0.00     0.004 A 
ATOM      4  C5  UNL d   1      -0.707  -5.938   2.346  0.00  0.00    -0.004 A 
ATOM      5  C6  UNL d   1      -1.407  -4.847   2.871  0.00  0.00    -0.075 A 
ATOM      6  C7  UNL d   1      -1.757  -4.784   4.329  0.00  0.00     0.076 C 
ATOM      7  C8  UNL d   1      -1.775  -3.798   2.018  0.00  0.00     0.001 A 
ENDROOT
BRANCH   1   8
ATOM      8  C1  UNL d   1      -1.860  -2.698  -0.253  0.00  0.00     0.053 C 
ATOM      9  C   UNL d   1      -2.546  -1.575   0.508  0.00  0.00     0.018 C 
ENDBRANCH   1   8
TORSDOF 1
ENDMDL
