MODEL 1
REMARK minimizedAffinity -3.11818147
REMARK minimizedRMSD -1
REMARK  2 active torsions:
REMARK  status: ('A' for Active; 'I' for Inactive)
REMARK    1  A    between atoms: C1_2  and  C2_3 
REMARK    2  A    between atoms: C2_3  and  C3_4 
ROOT
ATOM      1  C3  UNL d   1       1.115  -0.296   1.013  0.00  0.00    -0.075 A 
ATOM      2  C4  UNL d   1       0.468  -1.537   1.110  0.00  0.00     0.002 A 
ATOM      3  C5  UNL d   1       0.870  -2.472   2.064  0.00  0.00     0.002 A 
ATOM      4  C6  UNL d   1       1.928  -2.184   2.924  0.00  0.00    -0.004 A 
ATOM      5  C7  UNL d   1       2.588  -0.961   2.825  0.00  0.00     0.002 A 
ATOM      6  C8  UNL d   1       2.185  -0.022   1.874  0.00  0.00     0.002 A 
ENDROOT
BRANCH   1   7
ATOM      7  C2  UNL d   1       0.665   0.732   0.002  0.00  0.00     0.056 C 
BRANCH   7   8
ATOM      8  C1  UNL d   1       0.097   0.131  -1.288  0.00  0.00     0.007 C 
ATOM      9  C   UNL d   1      -1.374   0.458  -1.505  0.00  0.00     0.009 C 
ENDBRANCH   7   8
ENDBRANCH   1   7
TORSDOF 2
ENDMDL
