MODEL 1
REMARK minimizedAffinity 5.40431404
REMARK minimizedRMSD -1
REMARK  2 active torsions:
REMARK  status: ('A' for Active; 'I' for Inactive)
REMARK    1  A    between atoms: C1_2  and  C2_3 
REMARK    2  A    between atoms: C2_3  and  C3_4 
ROOT
ATOM      1  C3  UNL d   1      -2.756   1.326  -3.147  0.00  0.00    -0.075 A 
ATOM      2  C4  UNL d   1      -2.488   1.128  -1.785  0.00  0.00     0.002 A 
ATOM      3  C5  UNL d   1      -2.170  -0.142  -1.303  0.00  0.00     0.002 A 
ATOM      4  C6  UNL d   1      -2.126  -1.229  -2.172  0.00  0.00    -0.004 A 
ATOM      5  C7  UNL d   1      -2.406  -1.047  -3.525  0.00  0.00     0.002 A 
ATOM      6  C8  UNL d   1      -2.720   0.223  -4.011  0.00  0.00     0.002 A 
ENDROOT
BRANCH   1   7
ATOM      7  C2  UNL d   1      -3.072   2.703  -3.680  0.00  0.00     0.056 C 
BRANCH   7   8
ATOM      8  C1  UNL d   1      -4.258   3.383  -2.988  0.00  0.00     0.007 C 
ATOM      9  C   UNL d   1      -4.133   4.900  -2.935  0.00  0.00     0.009 C 
ENDBRANCH   7   8
ENDBRANCH   1   7
TORSDOF 2
ENDMDL
