MODEL 1
REMARK minimizedAffinity 4.3857193
REMARK minimizedRMSD -1
REMARK  2 active torsions:
REMARK  status: ('A' for Active; 'I' for Inactive)
REMARK    1  A    between atoms: C1_2  and  C2_3 
REMARK    2  A    between atoms: C2_3  and  C3_4 
ROOT
ATOM      1  C3  UNL d   1      -3.150   1.970  -2.952  0.00  0.00    -0.075 A 
ATOM      2  C4  UNL d   1      -2.998   1.780  -1.571  0.00  0.00     0.002 A 
ATOM      3  C5  UNL d   1      -2.462   0.591  -1.074  0.00  0.00     0.002 A 
ATOM      4  C6  UNL d   1      -2.081  -0.424  -1.949  0.00  0.00    -0.004 A 
ATOM      5  C7  UNL d   1      -2.243  -0.252  -3.322  0.00  0.00     0.002 A 
ATOM      6  C8  UNL d   1      -2.775   0.938  -3.822  0.00  0.00     0.002 A 
ENDROOT
BRANCH   1   7
ATOM      7  C2  UNL d   1      -3.703   3.265  -3.497  0.00  0.00     0.056 C 
BRANCH   7   8
ATOM      8  C1  UNL d   1      -4.184   4.241  -2.418  0.00  0.00     0.007 C 
ATOM      9  C   UNL d   1      -5.699   4.384  -2.371  0.00  0.00     0.009 C 
ENDBRANCH   7   8
ENDBRANCH   1   7
TORSDOF 2
ENDMDL
