MODEL 1
REMARK minimizedAffinity 7.49428606
REMARK minimizedRMSD -1
REMARK  2 active torsions:
REMARK  status: ('A' for Active; 'I' for Inactive)
REMARK    1  A    between atoms: C1_2  and  C2_3 
REMARK    2  A    between atoms: C2_3  and  C3_4 
ROOT
ATOM      1  C3  UNL d   1       1.157  -2.457   3.440  0.00  0.00    -0.075 A 
ATOM      2  C4  UNL d   1       1.638  -1.143   3.334  0.00  0.00     0.002 A 
ATOM      3  C5  UNL d   1       2.071  -0.454   4.467  0.00  0.00     0.002 A 
ATOM      4  C6  UNL d   1       2.020  -1.063   5.719  0.00  0.00    -0.004 A 
ATOM      5  C7  UNL d   1       1.529  -2.361   5.838  0.00  0.00     0.002 A 
ATOM      6  C8  UNL d   1       1.099  -3.055   4.706  0.00  0.00     0.002 A 
ENDROOT
BRANCH   1   7
ATOM      7  C2  UNL d   1       0.714  -3.219   2.214  0.00  0.00     0.056 C 
BRANCH   7   8
ATOM      8  C1  UNL d   1      -0.787  -3.118   1.925  0.00  0.00     0.007 C 
ATOM      9  C   UNL d   1      -1.271  -1.683   1.757  0.00  0.00     0.009 C 
ENDBRANCH   7   8
ENDBRANCH   1   7
TORSDOF 2
ENDMDL
