MODEL 1
REMARK minimizedAffinity 11.2189722
REMARK minimizedRMSD -1
REMARK  2 active torsions:
REMARK  status: ('A' for Active; 'I' for Inactive)
REMARK    1  A    between atoms: C1_2  and  C2_3 
REMARK    2  A    between atoms: C2_3  and  C3_4 
ROOT
ATOM      1  C3  UNL d   1      -2.410   0.616  -3.441  0.00  0.00    -0.075 A 
ATOM      2  C4  UNL d   1      -3.284  -0.140  -4.237  0.00  0.00     0.002 A 
ATOM      3  C5  UNL d   1      -3.414  -1.514  -4.038  0.00  0.00     0.002 A 
ATOM      4  C6  UNL d   1      -2.666  -2.152  -3.050  0.00  0.00    -0.004 A 
ATOM      5  C7  UNL d   1      -1.784  -1.414  -2.265  0.00  0.00     0.002 A 
ATOM      6  C8  UNL d   1      -1.655  -0.038  -2.458  0.00  0.00     0.002 A 
ENDROOT
BRANCH   1   7
ATOM      7  C2  UNL d   1      -2.287   2.109  -3.631  0.00  0.00     0.056 C 
BRANCH   7   8
ATOM      8  C1  UNL d   1      -3.629   2.848  -3.649  0.00  0.00     0.007 C 
ATOM      9  C   UNL d   1      -4.099   3.273  -2.264  0.00  0.00     0.009 C 
ENDBRANCH   7   8
ENDBRANCH   1   7
TORSDOF 2
ENDMDL
