MODEL 1
REMARK minimizedAffinity 0.195556596
REMARK minimizedRMSD -1
REMARK  0 active torsions:
REMARK  status: ('A' for Active; 'I' for Inactive)
ROOT
ATOM      1  C4' PXY d   1       0.659   0.380  -4.869  0.00  0.00     0.077 C 
ATOM      2  C1' PXY d   1      -1.781   5.620  -4.931  0.00  0.00     0.077 C 
ATOM      3  C1  PXY d   1      -1.133   4.250  -4.905  0.00  0.00    -0.082 A 
ATOM      4  C2  PXY d   1      -1.129   3.507  -6.000  0.00  0.00     0.003 A 
ATOM      5  C3  PXY d   1      -0.576   2.252  -5.985  0.00  0.00     0.003 A 
ATOM      6  C4  PXY d   1       0.025   1.774  -4.852  0.00  0.00    -0.082 A 
ATOM      7  C5  PXY d   1       0.034   2.529  -3.734  0.00  0.00     0.003 A 
ATOM      8  C6  PXY d   1      -0.568   3.784  -3.758  0.00  0.00     0.003 A 
ENDROOT
TORSDOF 0
ENDMDL
