MODEL 1
REMARK minimizedAffinity 5.73101425
REMARK minimizedRMSD -1
REMARK  0 active torsions:
REMARK  status: ('A' for Active; 'I' for Inactive)
ROOT
ATOM      1  C4' PXY d   1       2.705   4.451   1.522  0.00  0.00     0.077 C 
ATOM      2  C1' PXY d   1      -2.534   2.866   3.380  0.00  0.00     0.077 C 
ATOM      3  C1  PXY d   1      -1.162   3.275   2.882  0.00  0.00    -0.082 A 
ATOM      4  C2  PXY d   1      -0.233   3.641   3.750  0.00  0.00     0.003 A 
ATOM      5  C3  PXY d   1       1.003   4.044   3.315  0.00  0.00     0.003 A 
ATOM      6  C4  PXY d   1       1.309   4.022   1.980  0.00  0.00    -0.082 A 
ATOM      7  C5  PXY d   1       0.370   3.640   1.089  0.00  0.00     0.003 A 
ATOM      8  C6  PXY d   1      -0.892   3.273   1.549  0.00  0.00     0.003 A 
ENDROOT
TORSDOF 0
ENDMDL
