MODEL 1
REMARK minimizedAffinity 3.66503549
REMARK minimizedRMSD -1
REMARK  0 active torsions:
REMARK  status: ('A' for Active; 'I' for Inactive)
ROOT
ATOM      1  C4' PXY d   1      -2.564   2.566  -0.381  0.00  0.00     0.077 C 
ATOM      2  C1' PXY d   1       2.561   2.287   2.278  0.00  0.00     0.077 C 
ATOM      3  C1  PXY d   1       1.211   2.359   1.592  0.00  0.00    -0.082 A 
ATOM      4  C2  PXY d   1       1.120   2.093   0.299  0.00  0.00     0.003 A 
ATOM      5  C3  PXY d   1      -0.088   2.184  -0.344  0.00  0.00     0.003 A 
ATOM      6  C4  PXY d   1      -1.223   2.498   0.355  0.00  0.00    -0.082 A 
ATOM      7  C5  PXY d   1      -1.140   2.759   1.676  0.00  0.00     0.003 A 
ATOM      8  C6  PXY d   1       0.102   2.702   2.302  0.00  0.00     0.003 A 
ENDROOT
TORSDOF 0
ENDMDL
