MODEL 1
REMARK minimizedAffinity 6.10528135
REMARK minimizedRMSD -1
REMARK  0 active torsions:
REMARK  status: ('A' for Active; 'I' for Inactive)
ROOT
ATOM      1  C4' PXY d   1      -1.853  -1.509  -0.459  0.00  0.00     0.077 C 
ATOM      2  C1' PXY d   1       0.426   3.520   1.254  0.00  0.00     0.077 C 
ATOM      3  C1  PXY d   1      -0.182   2.203   0.812  0.00  0.00    -0.082 A 
ATOM      4  C2  PXY d   1       0.604   1.233   0.377  0.00  0.00     0.003 A 
ATOM      5  C3  PXY d   1       0.069   0.047  -0.056  0.00  0.00     0.003 A 
ATOM      6  C4  PXY d   1      -1.282  -0.166   0.006  0.00  0.00    -0.082 A 
ATOM      7  C5  PXY d   1      -2.091   0.815   0.459  0.00  0.00     0.003 A 
ATOM      8  C6  PXY d   1      -1.531   2.026   0.855  0.00  0.00     0.003 A 
ENDROOT
TORSDOF 0
ENDMDL
