MODEL 1
REMARK minimizedAffinity 2.15271306
REMARK minimizedRMSD -1
REMARK  0 active torsions:
REMARK  status: ('A' for Active; 'I' for Inactive)
ROOT
ATOM      1  C4' PXY d   1       2.482   0.889  -2.328  0.00  0.00     0.077 C 
ATOM      2  C1' PXY d   1      -2.079   0.433   1.193  0.00  0.00     0.077 C 
ATOM      3  C1  PXY d   1      -0.875   0.553   0.280  0.00  0.00    -0.082 A 
ATOM      4  C2  PXY d   1      -1.027   1.036  -0.943  0.00  0.00     0.003 A 
ATOM      5  C3  PXY d   1       0.046   1.121  -1.793  0.00  0.00     0.003 A 
ATOM      6  C4  PXY d   1       1.296   0.759  -1.369  0.00  0.00    -0.082 A 
ATOM      7  C5  PXY d   1       1.461   0.276  -0.119  0.00  0.00     0.003 A 
ATOM      8  C6  PXY d   1       0.352   0.158   0.714  0.00  0.00     0.003 A 
ENDROOT
TORSDOF 0
ENDMDL
