MODEL 1
REMARK minimizedAffinity 2.4315052
REMARK minimizedRMSD -1
REMARK  0 active torsions:
REMARK  status: ('A' for Active; 'I' for Inactive)
ROOT
ATOM      1  C4' PXY d   1      -1.828   2.818   1.888  0.00  0.00     0.077 C 
ATOM      2  C1' PXY d   1      -2.233  -2.391  -0.586  0.00  0.00     0.077 C 
ATOM      3  C1  PXY d   1      -2.132  -1.019   0.052  0.00  0.00    -0.082 A 
ATOM      4  C2  PXY d   1      -1.227  -0.800   0.992  0.00  0.00     0.003 A 
ATOM      5  C3  PXY d   1      -1.144   0.425   1.603  0.00  0.00     0.003 A 
ATOM      6  C4  PXY d   1      -1.959   1.452   1.209  0.00  0.00    -0.082 A 
ATOM      7  C5  PXY d   1      -2.878   1.239   0.243  0.00  0.00     0.003 A 
ATOM      8  C6  PXY d   1      -2.974  -0.023  -0.335  0.00  0.00     0.003 A 
ENDROOT
TORSDOF 0
ENDMDL
