MODEL 1
REMARK minimizedAffinity -1.12261498
REMARK minimizedRMSD -1
REMARK  0 active torsions:
REMARK  status: ('A' for Active; 'I' for Inactive)
ROOT
ATOM      1  C4' PXY d   1      -4.125   5.999  -5.438  0.00  0.00     0.077 C 
ATOM      2  C1' PXY d   1      -0.091   1.897  -5.999  0.00  0.00     0.077 C 
ATOM      3  C1  PXY d   1      -1.158   2.965  -5.858  0.00  0.00    -0.082 A 
ATOM      4  C2  PXY d   1      -0.801   4.231  -5.713  0.00  0.00     0.003 A 
ATOM      5  C3  PXY d   1      -1.752   5.206  -5.552  0.00  0.00     0.003 A 
ATOM      6  C4  PXY d   1      -3.083   4.889  -5.593  0.00  0.00    -0.082 A 
ATOM      7  C5  PXY d   1      -3.455   3.601  -5.752  0.00  0.00     0.003 A 
ATOM      8  C6  PXY d   1      -2.474   2.621  -5.872  0.00  0.00     0.003 A 
ENDROOT
TORSDOF 0
ENDMDL
