MODEL 1
REMARK minimizedAffinity 2.48279524
REMARK minimizedRMSD -1
REMARK  0 active torsions:
REMARK  status: ('A' for Active; 'I' for Inactive)
ROOT
ATOM      1  C4' PXY d   1       0.330   2.625  -4.875  0.00  0.00     0.077 C 
ATOM      2  C1' PXY d   1       6.000   3.746  -4.988  0.00  0.00     0.077 C 
ATOM      3  C1  PXY d   1       4.515   3.443  -4.949  0.00  0.00    -0.082 A 
ATOM      4  C2  PXY d   1       3.762   3.727  -6.000  0.00  0.00     0.003 A 
ATOM      5  C3  PXY d   1       2.412   3.489  -5.970  0.00  0.00     0.003 A 
ATOM      6  C4  PXY d   1       1.835   2.905  -4.873  0.00  0.00    -0.082 A 
ATOM      7  C5  PXY d   1       2.599   2.602  -3.802  0.00  0.00     0.003 A 
ATOM      8  C6  PXY d   1       3.960   2.890  -3.837  0.00  0.00     0.003 A 
ENDROOT
TORSDOF 0
ENDMDL
