MODEL 1
REMARK minimizedAffinity -0.581217647
REMARK minimizedRMSD -1
REMARK  0 active torsions:
REMARK  status: ('A' for Active; 'I' for Inactive)
ROOT
ATOM      1  C4' PXY d   1      -0.748  -2.324   0.903  0.00  0.00     0.077 C 
ATOM      2  C1' PXY d   1       0.058   3.400   0.992  0.00  0.00     0.077 C 
ATOM      3  C1  PXY d   1      -0.143   1.897   0.961  0.00  0.00    -0.082 A 
ATOM      4  C2  PXY d   1      -1.356   1.396   1.129  0.00  0.00     0.003 A 
ATOM      5  C3  PXY d   1      -1.550   0.038   1.136  0.00  0.00     0.003 A 
ATOM      6  C4  PXY d   1      -0.500  -0.813   0.917  0.00  0.00    -0.082 A 
ATOM      7  C5  PXY d   1       0.738  -0.308   0.734  0.00  0.00     0.003 A 
ATOM      8  C6  PXY d   1       0.921   1.071   0.772  0.00  0.00     0.003 A 
ENDROOT
TORSDOF 0
ENDMDL
