MODEL 1
REMARK minimizedAffinity -4.78385162
REMARK minimizedRMSD -1
REMARK  0 active torsions:
REMARK  status: ('A' for Active; 'I' for Inactive)
ROOT
ATOM      1  C4' PXY d   1      -1.253  -3.726   0.020  0.00  0.00     0.077 C 
ATOM      2  C1' PXY d   1       2.655   0.395  -1.060  0.00  0.00     0.077 C 
ATOM      3  C1  PXY d   1       1.631  -0.684  -0.764  0.00  0.00    -0.082 A 
ATOM      4  C2  PXY d   1       1.428  -1.651  -1.643  0.00  0.00     0.003 A 
ATOM      5  C3  PXY d   1       0.483  -2.617  -1.406  0.00  0.00     0.003 A 
ATOM      6  C4  PXY d   1      -0.223  -2.622  -0.233  0.00  0.00    -0.082 A 
ATOM      7  C5  PXY d   1      -0.013  -1.644   0.674  0.00  0.00     0.003 A 
ATOM      8  C6  PXY d   1       0.920  -0.650   0.396  0.00  0.00     0.003 A 
ENDROOT
TORSDOF 0
ENDMDL
