MODEL 1
REMARK minimizedAffinity 1.97730613
REMARK minimizedRMSD -1
REMARK  0 active torsions:
REMARK  status: ('A' for Active; 'I' for Inactive)
ROOT
ATOM      1  C4' PXY d   1      -0.451  -5.999  -3.043  0.00  0.00     0.077 C 
ATOM      2  C1' PXY d   1       4.045  -2.380  -3.361  0.00  0.00     0.077 C 
ATOM      3  C1  PXY d   1       2.874  -3.339  -3.280  0.00  0.00    -0.082 A 
ATOM      4  C2  PXY d   1       1.648  -2.895  -3.505  0.00  0.00     0.003 A 
ATOM      5  C3  PXY d   1       0.575  -3.742  -3.405  0.00  0.00     0.003 A 
ATOM      6  C4  PXY d   1       0.763  -5.069  -3.123  0.00  0.00    -0.082 A 
ATOM      7  C5  PXY d   1       2.011  -5.531  -2.902  0.00  0.00     0.003 A 
ATOM      8  C6  PXY d   1       3.084  -4.647  -2.968  0.00  0.00     0.003 A 
ENDROOT
TORSDOF 0
ENDMDL
