MODEL 1
REMARK minimizedAffinity -0.0346107148
REMARK minimizedRMSD -1
REMARK  0 active torsions:
REMARK  status: ('A' for Active; 'I' for Inactive)
ROOT
ATOM      1  C4' PXY d   1       2.922   2.207   2.006  0.00  0.00     0.077 C 
ATOM      2  C1' PXY d   1      -2.419   0.873   0.242  0.00  0.00     0.077 C 
ATOM      3  C1  PXY d   1      -1.016   1.210   0.705  0.00  0.00    -0.082 A 
ATOM      4  C2  PXY d   1      -0.786   2.363   1.313  0.00  0.00     0.003 A 
ATOM      5  C3  PXY d   1       0.483   2.698   1.709  0.00  0.00     0.003 A 
ATOM      6  C4  PXY d   1       1.519   1.820   1.530  0.00  0.00    -0.082 A 
ATOM      7  C5  PXY d   1       1.291   0.638   0.921  0.00  0.00     0.003 A 
ATOM      8  C6  PXY d   1       0.003   0.334   0.488  0.00  0.00     0.003 A 
ENDROOT
TORSDOF 0
ENDMDL
