MODEL 1
REMARK minimizedAffinity 1.24394619
REMARK minimizedRMSD -1
REMARK  0 active torsions:
REMARK  status: ('A' for Active; 'I' for Inactive)
ROOT
ATOM      1  C4' PXY d   1      -4.235   0.899   0.688  0.00  0.00     0.077 C 
ATOM      2  C1' PXY d   1       1.509   0.259   0.575  0.00  0.00     0.077 C 
ATOM      3  C1  PXY d   1       0.004   0.439   0.611  0.00  0.00    -0.082 A 
ATOM      4  C2  PXY d   1      -0.783  -0.622   0.535  0.00  0.00     0.003 A 
ATOM      5  C3  PXY d   1      -2.146  -0.476   0.534  0.00  0.00     0.003 A 
ATOM      6  C4  PXY d   1      -2.710   0.765   0.665  0.00  0.00    -0.082 A 
ATOM      7  C5  PXY d   1      -1.913   1.852   0.754  0.00  0.00     0.003 A 
ATOM      8  C6  PXY d   1      -0.532   1.685   0.711  0.00  0.00     0.003 A 
ENDROOT
TORSDOF 0
ENDMDL
