MODEL 1
REMARK minimizedAffinity 1.10534668
REMARK minimizedRMSD -1
REMARK  0 active torsions:
REMARK  status: ('A' for Active; 'I' for Inactive)
ROOT
ATOM      1  C4' PXY d   1      -5.985   5.903  -5.850  0.00  0.00     0.077 C 
ATOM      2  C1' PXY d   1      -1.916   1.800  -5.999  0.00  0.00     0.077 C 
ATOM      3  C1  PXY d   1      -2.974   2.884  -5.954  0.00  0.00    -0.082 A 
ATOM      4  C2  PXY d   1      -4.254   2.550  -5.986  0.00  0.00     0.003 A 
ATOM      5  C3  PXY d   1      -5.224   3.520  -5.978  0.00  0.00     0.003 A 
ATOM      6  C4  PXY d   1      -4.882   4.842  -5.884  0.00  0.00    -0.082 A 
ATOM      7  C5  PXY d   1      -3.578   5.190  -5.840  0.00  0.00     0.003 A 
ATOM      8  C6  PXY d   1      -2.608   4.193  -5.890  0.00  0.00     0.003 A 
ENDROOT
TORSDOF 0
ENDMDL
