MODEL 1
REMARK minimizedAffinity -1.39987373
REMARK minimizedRMSD -1
REMARK  0 active torsions:
REMARK  status: ('A' for Active; 'I' for Inactive)
ROOT
ATOM      1  C4' PXY d   1       3.079   3.312   2.332  0.00  0.00     0.077 C 
ATOM      2  C1' PXY d   1      -1.656   0.631   0.383  0.00  0.00     0.077 C 
ATOM      3  C1  PXY d   1      -0.408   1.322   0.895  0.00  0.00    -0.082 A 
ATOM      4  C2  PXY d   1      -0.510   2.502   1.485  0.00  0.00     0.003 A 
ATOM      5  C3  PXY d   1       0.612   3.157   1.926  0.00  0.00     0.003 A 
ATOM      6  C4  PXY d   1       1.845   2.573   1.808  0.00  0.00    -0.082 A 
ATOM      7  C5  PXY d   1       1.956   1.364   1.217  0.00  0.00     0.003 A 
ATOM      8  C6  PXY d   1       0.809   0.736   0.740  0.00  0.00     0.003 A 
ENDROOT
TORSDOF 0
ENDMDL
