MODEL 1
REMARK minimizedAffinity 3.20229483
REMARK minimizedRMSD -1
REMARK  0 active torsions:
REMARK  status: ('A' for Active; 'I' for Inactive)
ROOT
ATOM      1  C4' PXY d   1      -1.288  -0.353  -0.213  0.00  0.00     0.077 C 
ATOM      2  C1' PXY d   1       2.896   2.906   2.087  0.00  0.00     0.077 C 
ATOM      3  C1  PXY d   1       1.790   2.057   1.492  0.00  0.00    -0.082 A 
ATOM      4  C2  PXY d   1       2.091   0.912   0.900  0.00  0.00     0.003 A 
ATOM      5  C3  PXY d   1       1.106   0.148   0.329  0.00  0.00     0.003 A 
ATOM      6  C4  PXY d   1      -0.205   0.532   0.410  0.00  0.00    -0.082 A 
ATOM      7  C5  PXY d   1      -0.521   1.694   1.022  0.00  0.00     0.003 A 
ATOM      8  C6  PXY d   1       0.497   2.476   1.559  0.00  0.00     0.003 A 
ENDROOT
TORSDOF 0
ENDMDL
