MODEL 1
REMARK minimizedAffinity 3.09372854
REMARK minimizedRMSD -1
REMARK  0 active torsions:
REMARK  status: ('A' for Active; 'I' for Inactive)
ROOT
ATOM      1  C4' PXY d   1       2.659   2.311   2.598  0.00  0.00     0.077 C 
ATOM      2  C1' PXY d   1      -2.630   1.272   0.509  0.00  0.00     0.077 C 
ATOM      3  C1  PXY d   1      -1.240   1.532   1.056  0.00  0.00    -0.082 A 
ATOM      4  C2  PXY d   1      -1.036   2.559   1.864  0.00  0.00     0.003 A 
ATOM      5  C3  PXY d   1       0.221   2.828   2.341  0.00  0.00     0.003 A 
ATOM      6  C4  PXY d   1       1.270   2.005   2.031  0.00  0.00    -0.082 A 
ATOM      7  C5  PXY d   1       1.068   0.948   1.215  0.00  0.00     0.003 A 
ATOM      8  C6  PXY d   1      -0.207   0.717   0.708  0.00  0.00     0.003 A 
ENDROOT
TORSDOF 0
ENDMDL
