MODEL 1
REMARK minimizedAffinity 2.4342854
REMARK minimizedRMSD -1
REMARK  0 active torsions:
REMARK  status: ('A' for Active; 'I' for Inactive)
ROOT
ATOM      1  C4' PXY d   1      -3.475   0.244   1.412  0.00  0.00     0.077 C 
ATOM      2  C1' PXY d   1       2.228   0.368   0.475  0.00  0.00     0.077 C 
ATOM      3  C1  PXY d   1       0.733   0.347   0.726  0.00  0.00    -0.082 A 
ATOM      4  C2  PXY d   1       0.098  -0.811   0.801  0.00  0.00     0.003 A 
ATOM      5  C3  PXY d   1      -1.259  -0.848   0.996  0.00  0.00     0.003 A 
ATOM      6  C4  PXY d   1      -1.965   0.313   1.169  0.00  0.00    -0.082 A 
ATOM      7  C5  PXY d   1      -1.323   1.498   1.105  0.00  0.00     0.003 A 
ATOM      8  C6  PXY d   1       0.048   1.515   0.865  0.00  0.00     0.003 A 
ENDROOT
TORSDOF 0
ENDMDL
