MODEL 1
REMARK minimizedAffinity -0.52513051
REMARK minimizedRMSD -1
REMARK  0 active torsions:
REMARK  status: ('A' for Active; 'I' for Inactive)
ROOT
ATOM      1  C4' PXY d   1       2.531   2.971   2.598  0.00  0.00     0.077 C 
ATOM      2  C1' PXY d   1      -2.082   0.452   0.193  0.00  0.00     0.077 C 
ATOM      3  C1  PXY d   1      -0.867   1.101   0.826  0.00  0.00    -0.082 A 
ATOM      4  C2  PXY d   1      -0.976   2.300   1.374  0.00  0.00     0.003 A 
ATOM      5  C3  PXY d   1       0.120   2.915   1.922  0.00  0.00     0.003 A 
ATOM      6  C4  PXY d   1       1.329   2.274   1.957  0.00  0.00    -0.082 A 
ATOM      7  C5  PXY d   1       1.446   1.045   1.409  0.00  0.00     0.003 A 
ATOM      8  C6  PXY d   1       0.331   0.456   0.821  0.00  0.00     0.003 A 
ENDROOT
TORSDOF 0
ENDMDL
