MODEL 1
REMARK minimizedAffinity 3.7024765
REMARK minimizedRMSD -1
REMARK  0 active torsions:
REMARK  status: ('A' for Active; 'I' for Inactive)
ROOT
ATOM      1  C4' PXY d   1      -1.438  -2.569  -0.296  0.00  0.00     0.077 C 
ATOM      2  C1' PXY d   1      -0.783   2.775   1.809  0.00  0.00     0.077 C 
ATOM      3  C1  PXY d   1      -0.944   1.375   1.250  0.00  0.00    -0.082 A 
ATOM      4  C2  PXY d   1      -2.145   0.822   1.206  0.00  0.00     0.003 A 
ATOM      5  C3  PXY d   1      -2.304  -0.455   0.734  0.00  0.00     0.003 A 
ATOM      6  C4  PXY d   1      -1.230  -1.154   0.252  0.00  0.00    -0.082 A 
ATOM      7  C5  PXY d   1      -0.002  -0.593   0.283  0.00  0.00     0.003 A 
ATOM      8  C6  PXY d   1       0.144   0.689   0.805  0.00  0.00     0.003 A 
ENDROOT
TORSDOF 0
ENDMDL
