MODEL 1
REMARK minimizedAffinity 20.7687244
REMARK minimizedRMSD -1
REMARK  0 active torsions:
REMARK  status: ('A' for Active; 'I' for Inactive)
ROOT
ATOM      1  C1  DEN d   1      -4.396   0.256  -1.090  0.00  0.00     0.130 A 
ATOM      2  C2  DEN d   1      -4.228  -0.862  -2.016  0.00  0.00    -0.031 A 
ATOM      3  C3  DEN d   1      -2.984  -1.571  -1.655  0.00  0.00     0.027 A 
ATOM      4  C4  DEN d   1      -1.313  -1.053   0.240  0.00  0.00     0.027 A 
ATOM      5  C5  DEN d   1      -1.024  -0.196   1.279  0.00  0.00    -0.003 A 
ATOM      6  C6  DEN d   1      -1.814   0.882   1.578  0.00  0.00     0.001 A 
ATOM      7  C7  DEN d   1      -2.957   1.106   0.857  0.00  0.00     0.017 A 
ATOM      8  C8  DEN d   1      -3.251   0.251  -0.197  0.00  0.00    -0.094 A 
ATOM      9  C9  DEN d   1      -2.446  -0.841  -0.475  0.00  0.00    -0.072 A 
ENDROOT
TORSDOF 0
ENDMDL
