MODEL 1
REMARK minimizedAffinity 12.252182
REMARK minimizedRMSD -1
REMARK  0 active torsions:
REMARK  status: ('A' for Active; 'I' for Inactive)
ROOT
ATOM      1  C1  DEN d   1       4.146   0.825  -0.219  0.00  0.00     0.130 A 
ATOM      2  C2  DEN d   1       3.760   0.170   1.028  0.00  0.00    -0.031 A 
ATOM      3  C3  DEN d   1       4.205   1.023   2.149  0.00  0.00     0.027 A 
ATOM      4  C4  DEN d   1       5.443   3.285   2.075  0.00  0.00     0.027 A 
ATOM      5  C5  DEN d   1       5.995   4.235   1.245  0.00  0.00    -0.003 A 
ATOM      6  C6  DEN d   1       6.000   4.101  -0.118  0.00  0.00     0.001 A 
ATOM      7  C7  DEN d   1       5.401   3.012  -0.695  0.00  0.00     0.017 A 
ATOM      8  C8  DEN d   1       4.849   2.046   0.135  0.00  0.00    -0.094 A 
ATOM      9  C9  DEN d   1       4.843   2.206   1.511  0.00  0.00    -0.072 A 
ENDROOT
TORSDOF 0
ENDMDL
