MODEL 1
REMARK minimizedAffinity 16.9974098
REMARK minimizedRMSD -1
REMARK  0 active torsions:
REMARK  status: ('A' for Active; 'I' for Inactive)
ROOT
ATOM      1  C1  DEN d   1      -1.557  -1.796   1.081  0.00  0.00     0.130 A 
ATOM      2  C2  DEN d   1      -0.345  -1.699   1.889  0.00  0.00    -0.031 A 
ATOM      3  C3  DEN d   1      -0.497  -0.551   2.805  0.00  0.00     0.027 A 
ATOM      4  C4  DEN d   1      -2.485   1.075   3.051  0.00  0.00     0.027 A 
ATOM      5  C5  DEN d   1      -3.736   1.399   2.574  0.00  0.00    -0.003 A 
ATOM      6  C6  DEN d   1      -4.328   0.708   1.551  0.00  0.00     0.001 A 
ATOM      7  C7  DEN d   1      -3.689  -0.372   1.001  0.00  0.00     0.017 A 
ATOM      8  C8  DEN d   1      -2.425  -0.701   1.472  0.00  0.00    -0.094 A 
ATOM      9  C9  DEN d   1      -1.848   0.003   2.516  0.00  0.00    -0.072 A 
ENDROOT
TORSDOF 0
ENDMDL
