MODEL 1
REMARK minimizedAffinity 9.37545586
REMARK minimizedRMSD -1
REMARK  0 active torsions:
REMARK  status: ('A' for Active; 'I' for Inactive)
ROOT
ATOM      1  C1  DEN d   1       2.886   1.102   0.687  0.00  0.00     0.130 A 
ATOM      2  C2  DEN d   1       3.339   0.233  -0.395  0.00  0.00    -0.031 A 
ATOM      3  C3  DEN d   1       4.617   0.768  -0.906  0.00  0.00     0.027 A 
ATOM      4  C4  DEN d   1       5.934   2.845  -0.128  0.00  0.00     0.027 A 
ATOM      5  C5  DEN d   1       5.941   3.905   0.752  0.00  0.00    -0.003 A 
ATOM      6  C6  DEN d   1       4.922   4.122   1.642  0.00  0.00     0.001 A 
ATOM      7  C7  DEN d   1       3.874   3.241   1.702  0.00  0.00     0.017 A 
ATOM      8  C8  DEN d   1       3.856   2.175   0.813  0.00  0.00    -0.094 A 
ATOM      9  C9  DEN d   1       4.902   1.965  -0.070  0.00  0.00    -0.072 A 
ENDROOT
TORSDOF 0
ENDMDL
