MODEL 1
REMARK minimizedAffinity 4.45418596
REMARK minimizedRMSD -1
REMARK  0 active torsions:
REMARK  status: ('A' for Active; 'I' for Inactive)
ROOT
ATOM      1  C1  DEN d   1      -3.336   1.555   4.508  0.00  0.00     0.130 A 
ATOM      2  C2  DEN d   1      -4.717   2.018   4.399  0.00  0.00    -0.031 A 
ATOM      3  C3  DEN d   1      -5.306   1.418   3.186  0.00  0.00     0.027 A 
ATOM      4  C4  DEN d   1      -4.221  -0.179   1.475  0.00  0.00     0.027 A 
ATOM      5  C5  DEN d   1      -3.063  -0.845   1.139  0.00  0.00    -0.003 A 
ATOM      6  C6  DEN d   1      -1.915  -0.732   1.877  0.00  0.00     0.001 A 
ATOM      7  C7  DEN d   1      -1.912   0.031   3.015  0.00  0.00     0.017 A 
ATOM      8  C8  DEN d   1      -3.073   0.711   3.357  0.00  0.00    -0.094 A 
ATOM      9  C9  DEN d   1      -4.227   0.574   2.604  0.00  0.00    -0.072 A 
ENDROOT
TORSDOF 0
ENDMDL
