MODEL 1
REMARK minimizedAffinity 14.8982821
REMARK minimizedRMSD -1
REMARK  0 active torsions:
REMARK  status: ('A' for Active; 'I' for Inactive)
ROOT
ATOM      1  C1  DEN d   1       2.541   1.371   1.527  0.00  0.00     0.130 A 
ATOM      2  C2  DEN d   1       2.183   0.577   0.355  0.00  0.00    -0.031 A 
ATOM      3  C3  DEN d   1       3.200   0.820  -0.689  0.00  0.00     0.027 A 
ATOM      4  C4  DEN d   1       5.285   2.336  -0.601  0.00  0.00     0.027 A 
ATOM      5  C5  DEN d   1       6.000   3.217   0.179  0.00  0.00    -0.003 A 
ATOM      6  C6  DEN d   1       5.597   3.569   1.440  0.00  0.00     0.001 A 
ATOM      7  C7  DEN d   1       4.471   3.001   1.976  0.00  0.00     0.017 A 
ATOM      8  C8  DEN d   1       3.741   2.116   1.193  0.00  0.00    -0.094 A 
ATOM      9  C9  DEN d   1       4.172   1.765  -0.075  0.00  0.00    -0.072 A 
ENDROOT
TORSDOF 0
ENDMDL
