MODEL 1
REMARK minimizedAffinity 16.1201839
REMARK minimizedRMSD -1
REMARK  0 active torsions:
REMARK  status: ('A' for Active; 'I' for Inactive)
ROOT
ATOM      1  C1  DEN d   1      -0.752  -5.635  -5.058  0.00  0.00     0.130 A 
ATOM      2  C2  DEN d   1      -1.806  -6.000  -6.000  0.00  0.00    -0.031 A 
ATOM      3  C3  DEN d   1      -3.007  -5.204  -5.673  0.00  0.00     0.027 A 
ATOM      4  C4  DEN d   1      -3.332  -3.448  -3.812  0.00  0.00     0.027 A 
ATOM      5  C5  DEN d   1      -2.724  -2.807  -2.755  0.00  0.00    -0.003 A 
ATOM      6  C6  DEN d   1      -1.439  -3.087  -2.372  0.00  0.00     0.001 A 
ATOM      7  C7  DEN d   1      -0.703  -3.999  -3.081  0.00  0.00     0.017 A 
ATOM      8  C8  DEN d   1      -1.311  -4.654  -4.144  0.00  0.00    -0.094 A 
ATOM      9  C9  DEN d   1      -2.607  -4.349  -4.523  0.00  0.00    -0.072 A 
ENDROOT
TORSDOF 0
ENDMDL
