MODEL 1
REMARK minimizedAffinity 21.1310043
REMARK minimizedRMSD -1
REMARK  0 active torsions:
REMARK  status: ('A' for Active; 'I' for Inactive)
ROOT
ATOM      1  C1  DEN d   1       1.007  -1.436   4.236  0.00  0.00     0.130 A 
ATOM      2  C2  DEN d   1       1.633  -2.588   3.592  0.00  0.00    -0.031 A 
ATOM      3  C3  DEN d   1       0.832  -2.936   2.402  0.00  0.00     0.027 A 
ATOM      4  C4  DEN d   1      -1.302  -1.808   1.494  0.00  0.00     0.027 A 
ATOM      5  C5  DEN d   1      -2.217  -0.801   1.708  0.00  0.00    -0.003 A 
ATOM      6  C6  DEN d   1      -2.142   0.037   2.789  0.00  0.00     0.001 A 
ATOM      7  C7  DEN d   1      -1.103  -0.089   3.674  0.00  0.00     0.017 A 
ATOM      8  C8  DEN d   1      -0.181  -1.107   3.469  0.00  0.00    -0.094 A 
ATOM      9  C9  DEN d   1      -0.268  -1.936   2.363  0.00  0.00    -0.072 A 
ENDROOT
TORSDOF 0
ENDMDL
