MODEL 1
REMARK minimizedAffinity 18.9717121
REMARK minimizedRMSD -1
REMARK  0 active torsions:
REMARK  status: ('A' for Active; 'I' for Inactive)
ROOT
ATOM      1  C1  DEN d   1      -1.781   0.291   3.221  0.00  0.00     0.130 A 
ATOM      2  C2  DEN d   1      -2.526   0.024   1.993  0.00  0.00    -0.031 A 
ATOM      3  C3  DEN d   1      -1.905  -1.138   1.326  0.00  0.00     0.027 A 
ATOM      4  C4  DEN d   1       0.123  -2.546   2.072  0.00  0.00     0.027 A 
ATOM      5  C5  DEN d   1       1.090  -2.694   3.041  0.00  0.00    -0.003 A 
ATOM      6  C6  DEN d   1       1.189  -1.845   4.111  0.00  0.00     0.001 A 
ATOM      7  C7  DEN d   1       0.277  -0.835   4.262  0.00  0.00     0.017 A 
ATOM      8  C8  DEN d   1      -0.698  -0.674   3.286  0.00  0.00    -0.094 A 
ATOM      9  C9  DEN d   1      -0.788  -1.550   2.218  0.00  0.00    -0.072 A 
ENDROOT
TORSDOF 0
ENDMDL
