MODEL 1
REMARK minimizedAffinity 10.6331911
REMARK minimizedRMSD -1
REMARK  0 active torsions:
REMARK  status: ('A' for Active; 'I' for Inactive)
ROOT
ATOM      1  C1  DEN d   1       3.430   6.000  -1.861  0.00  0.00     0.130 A 
ATOM      2  C2  DEN d   1       4.782   5.452  -1.920  0.00  0.00    -0.031 A 
ATOM      3  C3  DEN d   1       4.682   4.033  -2.317  0.00  0.00     0.027 A 
ATOM      4  C4  DEN d   1       2.577   2.640  -2.848  0.00  0.00     0.027 A 
ATOM      5  C5  DEN d   1       1.202   2.668  -2.921  0.00  0.00    -0.003 A 
ATOM      6  C6  DEN d   1       0.477   3.790  -2.617  0.00  0.00     0.001 A 
ATOM      7  C7  DEN d   1       1.127   4.944  -2.267  0.00  0.00     0.017 A 
ATOM      8  C8  DEN d   1       2.513   4.921  -2.183  0.00  0.00    -0.094 A 
ATOM      9  C9  DEN d   1       3.228   3.781  -2.507  0.00  0.00    -0.072 A 
ENDROOT
TORSDOF 0
ENDMDL
