MODEL 1
REMARK minimizedAffinity 9.91038609
REMARK minimizedRMSD -1
REMARK  0 active torsions:
REMARK  status: ('A' for Active; 'I' for Inactive)
ROOT
ATOM      1  C1  DEN d   1       2.260   4.319  -2.950  0.00  0.00     0.130 A 
ATOM      2  C2  DEN d   1       2.713   5.125  -1.819  0.00  0.00    -0.031 A 
ATOM      3  C3  DEN d   1       4.128   5.477  -2.048  0.00  0.00     0.027 A 
ATOM      4  C4  DEN d   1       5.653   4.861  -4.035  0.00  0.00     0.027 A 
ATOM      5  C5  DEN d   1       5.718   4.182  -5.231  0.00  0.00    -0.003 A 
ATOM      6  C6  DEN d   1       4.655   3.479  -5.730  0.00  0.00     0.001 A 
ATOM      7  C7  DEN d   1       3.464   3.475  -5.052  0.00  0.00     0.017 A 
ATOM      8  C8  DEN d   1       3.393   4.152  -3.841  0.00  0.00    -0.094 A 
ATOM      9  C9  DEN d   1       4.476   4.867  -3.359  0.00  0.00    -0.072 A 
ENDROOT
TORSDOF 0
ENDMDL
