MODEL 1
REMARK minimizedAffinity 21.4768982
REMARK minimizedRMSD -1
REMARK  0 active torsions:
REMARK  status: ('A' for Active; 'I' for Inactive)
ROOT
ATOM      1  C1  DEN d   1      -1.952  -2.306   1.685  0.00  0.00     0.130 A 
ATOM      2  C2  DEN d   1      -0.716  -1.885   2.339  0.00  0.00    -0.031 A 
ATOM      3  C3  DEN d   1      -0.840  -0.450   2.667  0.00  0.00     0.027 A 
ATOM      4  C4  DEN d   1      -2.815   1.150   2.232  0.00  0.00     0.027 A 
ATOM      5  C5  DEN d   1      -4.078   1.253   1.693  0.00  0.00    -0.003 A 
ATOM      6  C6  DEN d   1      -4.703   0.195   1.088  0.00  0.00     0.001 A 
ATOM      7  C7  DEN d   1      -4.083  -1.026   1.048  0.00  0.00     0.017 A 
ATOM      8  C8  DEN d   1      -2.806  -1.136   1.582  0.00  0.00    -0.094 A 
ATOM      9  C9  DEN d   1      -2.197  -0.058   2.201  0.00  0.00    -0.072 A 
ENDROOT
TORSDOF 0
ENDMDL
