MODEL 1
REMARK minimizedAffinity 20.765192
REMARK minimizedRMSD -1
REMARK  0 active torsions:
REMARK  status: ('A' for Active; 'I' for Inactive)
ROOT
ATOM      1  C1  DEN d   1       2.959   1.800  -1.187  0.00  0.00     0.130 A 
ATOM      2  C2  DEN d   1       2.229   2.205  -2.386  0.00  0.00    -0.031 A 
ATOM      3  C3  DEN d   1       2.918   3.375  -2.967  0.00  0.00     0.027 A 
ATOM      4  C4  DEN d   1       5.035   4.590  -2.133  0.00  0.00     0.027 A 
ATOM      5  C5  DEN d   1       6.000   4.618  -1.150  0.00  0.00    -0.003 A 
ATOM      6  C6  DEN d   1       5.999   3.737  -0.101  0.00  0.00     0.001 A 
ATOM      7  C7  DEN d   1       5.039   2.762  -0.034  0.00  0.00     0.017 A 
ATOM      8  C8  DEN d   1       4.059   2.732  -1.018  0.00  0.00    -0.094 A 
ATOM      9  C9  DEN d   1       4.085   3.623  -2.077  0.00  0.00    -0.072 A 
ENDROOT
TORSDOF 0
ENDMDL
