MODEL 1
REMARK minimizedAffinity 21.5026112
REMARK minimizedRMSD -1
REMARK  0 active torsions:
REMARK  status: ('A' for Active; 'I' for Inactive)
ROOT
ATOM      1  C1  DEN d   1       1.882   4.428  -1.925  0.00  0.00     0.130 A 
ATOM      2  C2  DEN d   1       0.869   3.678  -2.662  0.00  0.00    -0.031 A 
ATOM      3  C3  DEN d   1       1.499   3.143  -3.886  0.00  0.00     0.027 A 
ATOM      4  C4  DEN d   1       3.932   3.399  -4.704  0.00  0.00     0.027 A 
ATOM      5  C5  DEN d   1       5.158   3.958  -4.421  0.00  0.00    -0.003 A 
ATOM      6  C6  DEN d   1       5.368   4.734  -3.312  0.00  0.00     0.001 A 
ATOM      7  C7  DEN d   1       4.347   4.936  -2.422  0.00  0.00     0.017 A 
ATOM      8  C8  DEN d   1       3.105   4.382  -2.704  0.00  0.00    -0.094 A 
ATOM      9  C9  DEN d   1       2.916   3.590  -3.824  0.00  0.00    -0.072 A 
ENDROOT
TORSDOF 0
ENDMDL
