MODEL 1
REMARK minimizedAffinity 23.2908115
REMARK minimizedRMSD -1
REMARK  0 active torsions:
REMARK  status: ('A' for Active; 'I' for Inactive)
ROOT
ATOM      1  C1  DEN d   1      -1.787  -2.172   1.324  0.00  0.00     0.130 A 
ATOM      2  C2  DEN d   1      -0.584  -1.954   2.123  0.00  0.00    -0.031 A 
ATOM      3  C3  DEN d   1      -0.699  -0.632   2.771  0.00  0.00     0.027 A 
ATOM      4  C4  DEN d   1      -2.615   1.088   2.619  0.00  0.00     0.027 A 
ATOM      5  C5  DEN d   1      -3.842   1.355   2.052  0.00  0.00    -0.003 A 
ATOM      6  C6  DEN d   1      -4.449   0.487   1.184  0.00  0.00     0.001 A 
ATOM      7  C7  DEN d   1      -3.852  -0.711   0.892  0.00  0.00     0.017 A 
ATOM      8  C8  DEN d   1      -2.611  -0.983   1.453  0.00  0.00    -0.094 A 
ATOM      9  C9  DEN d   1      -2.019  -0.098   2.338  0.00  0.00    -0.072 A 
ENDROOT
TORSDOF 0
ENDMDL
