MODEL 1
REMARK minimizedAffinity 15.3122301
REMARK minimizedRMSD -1
REMARK  0 active torsions:
REMARK  status: ('A' for Active; 'I' for Inactive)
ROOT
ATOM      1  N1  IND d   1       1.497  -0.212   3.897  0.00  0.00    -0.196 N 
ATOM      2  C2  IND d   1       1.852  -1.520   3.716  0.00  0.00     0.054 A 
ATOM      3  C3  IND d   1       2.559  -1.661   2.572  0.00  0.00    -0.031 A 
ATOM      4  C4  IND d   1       3.337   0.133   0.898  0.00  0.00     0.051 A 
ATOM      5  C5  IND d   1       3.226   1.466   0.619  0.00  0.00    -0.031 A 
ATOM      6  C6  IND d   1       2.521   2.326   1.436  0.00  0.00     0.015 A 
ATOM      7  C7  IND d   1       1.907   1.884   2.574  0.00  0.00    -0.016 A 
ATOM      8  C8  IND d   1       2.012   0.530   2.857  0.00  0.00    -0.047 A 
ATOM      9  C9  IND d   1       2.691  -0.355   2.009  0.00  0.00    -0.096 A 
ATOM     10  HN1 IND d   1       1.031   0.095   4.551  0.00  0.00     0.298 HD
ENDROOT
TORSDOF 0
ENDMDL
