MODEL 1
REMARK minimizedAffinity 5.24243116
REMARK minimizedRMSD -1
REMARK  0 active torsions:
REMARK  status: ('A' for Active; 'I' for Inactive)
ROOT
ATOM      1  N1  IND d   1       3.495  -5.713  -2.267  0.00  0.00    -0.196 N 
ATOM      2  C2  IND d   1       2.164  -5.665  -2.574  0.00  0.00     0.054 A 
ATOM      3  C3  IND d   1       1.989  -5.706  -3.914  0.00  0.00    -0.031 A 
ATOM      4  C4  IND d   1       3.740  -5.954  -5.785  0.00  0.00     0.051 A 
ATOM      5  C5  IND d   1       5.089  -5.999  -5.999  0.00  0.00    -0.031 A 
ATOM      6  C6  IND d   1       5.994  -5.953  -4.958  0.00  0.00     0.015 A 
ATOM      7  C7  IND d   1       5.581  -5.871  -3.659  0.00  0.00    -0.016 A 
ATOM      8  C8  IND d   1       4.212  -5.818  -3.438  0.00  0.00    -0.047 A 
ATOM      9  C9  IND d   1       3.290  -5.822  -4.493  0.00  0.00    -0.096 A 
ATOM     10  HN1 IND d   1       3.828  -5.682  -1.475  0.00  0.00     0.298 HD
ENDROOT
TORSDOF 0
ENDMDL
