MODEL 1
REMARK minimizedAffinity 11.7913132
REMARK minimizedRMSD -1
REMARK  0 active torsions:
REMARK  status: ('A' for Active; 'I' for Inactive)
ROOT
ATOM      1  N1  IND d   1       3.617  -3.406   2.602  0.00  0.00    -0.196 N 
ATOM      2  C2  IND d   1       3.432  -3.917   3.856  0.00  0.00     0.054 A 
ATOM      3  C3  IND d   1       2.703  -3.064   4.609  0.00  0.00    -0.031 A 
ATOM      4  C4  IND d   1       1.622  -0.820   3.956  0.00  0.00     0.051 A 
ATOM      5  C5  IND d   1       1.543   0.079   2.930  0.00  0.00    -0.031 A 
ATOM      6  C6  IND d   1       2.161  -0.144   1.716  0.00  0.00     0.015 A 
ATOM      7  C7  IND d   1       2.875  -1.284   1.479  0.00  0.00    -0.016 A 
ATOM      8  C8  IND d   1       2.964  -2.196   2.521  0.00  0.00    -0.047 A 
ATOM      9  C9  IND d   1       2.374  -1.956   3.769  0.00  0.00    -0.096 A 
ATOM     10  HN1 IND d   1       4.065  -3.778   1.969  0.00  0.00     0.298 HD
ENDROOT
TORSDOF 0
ENDMDL
