MODEL 1
REMARK minimizedAffinity 6.40613174
REMARK minimizedRMSD -1
REMARK  0 active torsions:
REMARK  status: ('A' for Active; 'I' for Inactive)
ROOT
ATOM      1  N1  IND d   1       5.242  -5.969  -2.058  0.00  0.00    -0.196 N 
ATOM      2  C2  IND d   1       4.074  -5.990  -1.348  0.00  0.00     0.054 A 
ATOM      3  C3  IND d   1       3.013  -5.967  -2.186  0.00  0.00    -0.031 A 
ATOM      4  C4  IND d   1       2.961  -5.999  -4.759  0.00  0.00     0.051 A 
ATOM      5  C5  IND d   1       3.778  -5.946  -5.854  0.00  0.00    -0.031 A 
ATOM      6  C6  IND d   1       5.152  -5.900  -5.737  0.00  0.00     0.015 A 
ATOM      7  C7  IND d   1       5.764  -5.917  -4.515  0.00  0.00    -0.016 A 
ATOM      8  C8  IND d   1       4.938  -5.963  -3.401  0.00  0.00    -0.047 A 
ATOM      9  C9  IND d   1       3.541  -5.967  -3.513  0.00  0.00    -0.096 A 
ATOM     10  HN1 IND d   1       6.033  -5.961  -1.722  0.00  0.00     0.298 HD
ENDROOT
TORSDOF 0
ENDMDL
