MODEL 1
REMARK minimizedAffinity 4.67518187
REMARK minimizedRMSD -1
REMARK  0 active torsions:
REMARK  status: ('A' for Active; 'I' for Inactive)
ROOT
ATOM      1  N1  IND d   1       2.739  -5.984  -2.612  0.00  0.00    -0.196 N 
ATOM      2  C2  IND d   1       3.468  -5.982  -1.455  0.00  0.00     0.054 A 
ATOM      3  C3  IND d   1       4.791  -5.998  -1.733  0.00  0.00    -0.031 A 
ATOM      4  C4  IND d   1       5.984  -5.928  -4.014  0.00  0.00     0.051 A 
ATOM      5  C5  IND d   1       5.740  -5.959  -5.358  0.00  0.00    -0.031 A 
ATOM      6  C6  IND d   1       4.458  -5.999  -5.866  0.00  0.00     0.015 A 
ATOM      7  C7  IND d   1       3.366  -5.997  -5.045  0.00  0.00    -0.016 A 
ATOM      8  C8  IND d   1       3.610  -5.972  -3.679  0.00  0.00    -0.047 A 
ATOM      9  C9  IND d   1       4.910  -5.975  -3.157  0.00  0.00    -0.096 A 
ATOM     10  HN1 IND d   1       1.881  -5.992  -2.663  0.00  0.00     0.298 HD
ENDROOT
TORSDOF 0
ENDMDL
