MODEL 1
REMARK minimizedAffinity 2.24306774
REMARK minimizedRMSD -1
REMARK  0 active torsions:
REMARK  status: ('A' for Active; 'I' for Inactive)
ROOT
ATOM      1  N1  IND d   1       1.753  -0.090   3.518  0.00  0.00    -0.196 N 
ATOM      2  C2  IND d   1       2.440  -1.272   3.568  0.00  0.00     0.054 A 
ATOM      3  C3  IND d   1       3.278  -1.374   2.512  0.00  0.00    -0.031 A 
ATOM      4  C4  IND d   1       3.760   0.322   0.636  0.00  0.00     0.051 A 
ATOM      5  C5  IND d   1       3.351   1.530   0.145  0.00  0.00    -0.031 A 
ATOM      6  C6  IND d   1       2.370   2.276   0.766  0.00  0.00     0.015 A 
ATOM      7  C7  IND d   1       1.768   1.845   1.914  0.00  0.00    -0.016 A 
ATOM      8  C8  IND d   1       2.176   0.615   2.412  0.00  0.00    -0.047 A 
ATOM      9  C9  IND d   1       3.140  -0.166   1.762  0.00  0.00    -0.096 A 
ATOM     10  HN1 IND d   1       1.158   0.168   4.081  0.00  0.00     0.298 HD
ENDROOT
TORSDOF 0
ENDMDL
