MODEL 1
REMARK minimizedAffinity 5.82429743
REMARK minimizedRMSD -1
REMARK  0 active torsions:
REMARK  status: ('A' for Active; 'I' for Inactive)
ROOT
ATOM      1  N1  IND d   1       0.837  -4.134   4.850  0.00  0.00    -0.196 N 
ATOM      2  C2  IND d   1       0.609  -5.280   5.560  0.00  0.00     0.054 A 
ATOM      3  C3  IND d   1       1.776  -5.801   6.000  0.00  0.00    -0.031 A 
ATOM      4  C4  IND d   1       4.170  -4.886   5.757  0.00  0.00     0.051 A 
ATOM      5  C5  IND d   1       4.886  -3.887   5.159  0.00  0.00    -0.031 A 
ATOM      6  C6  IND d   1       4.276  -2.898   4.415  0.00  0.00     0.015 A 
ATOM      7  C7  IND d   1       2.920  -2.864   4.250  0.00  0.00    -0.016 A 
ATOM      8  C8  IND d   1       2.191  -3.881   4.850  0.00  0.00    -0.047 A 
ATOM      9  C9  IND d   1       2.808  -4.911   5.571  0.00  0.00    -0.096 A 
ATOM     10  HN1 IND d   1       0.235  -3.652   4.469  0.00  0.00     0.298 HD
ENDROOT
TORSDOF 0
ENDMDL
