MODEL 1
REMARK minimizedAffinity 14.1663342
REMARK minimizedRMSD -1
REMARK  0 active torsions:
REMARK  status: ('A' for Active; 'I' for Inactive)
ROOT
ATOM      1  N1  IND d   1       0.266   4.086   2.471  0.00  0.00    -0.196 N 
ATOM      2  C2  IND d   1       1.364   3.891   3.261  0.00  0.00     0.054 A 
ATOM      3  C3  IND d   1       2.491   3.918   2.514  0.00  0.00    -0.031 A 
ATOM      4  C4  IND d   1       2.773   4.368  -0.005  0.00  0.00     0.051 A 
ATOM      5  C5  IND d   1       2.055   4.565  -1.151  0.00  0.00    -0.031 A 
ATOM      6  C6  IND d   1       0.676   4.616  -1.148  0.00  0.00     0.015 A 
ATOM      7  C7  IND d   1      -0.039   4.483   0.009  0.00  0.00    -0.016 A 
ATOM      8  C8  IND d   1       0.687   4.276   1.173  0.00  0.00    -0.047 A 
ATOM      9  C9  IND d   1       2.084   4.181   1.170  0.00  0.00    -0.096 A 
ATOM     10  HN1 IND d   1      -0.551   4.089   2.740  0.00  0.00     0.298 HD
ENDROOT
TORSDOF 0
ENDMDL
