MODEL 1
REMARK minimizedAffinity 11.1389256
REMARK minimizedRMSD -1
REMARK  0 active torsions:
REMARK  status: ('A' for Active; 'I' for Inactive)
ROOT
ATOM      1  N1  IND d   1      -2.643   1.821   1.922  0.00  0.00    -0.196 N 
ATOM      2  C2  IND d   1      -1.943   1.939   0.754  0.00  0.00     0.054 A 
ATOM      3  C3  IND d   1      -2.658   2.641  -0.154  0.00  0.00    -0.031 A 
ATOM      4  C4  IND d   1      -4.955   3.776   0.097  0.00  0.00     0.051 A 
ATOM      5  C5  IND d   1      -5.999   3.914   0.969  0.00  0.00    -0.031 A 
ATOM      6  C6  IND d   1      -5.976   3.352   2.229  0.00  0.00     0.015 A 
ATOM      7  C7  IND d   1      -4.898   2.638   2.671  0.00  0.00    -0.016 A 
ATOM      8  C8  IND d   1      -3.839   2.490   1.786  0.00  0.00    -0.047 A 
ATOM      9  C9  IND d   1      -3.875   3.021   0.490  0.00  0.00    -0.096 A 
ATOM     10  HN1 IND d   1      -2.380   1.399   2.624  0.00  0.00     0.298 HD
ENDROOT
TORSDOF 0
ENDMDL
