MODEL 1
REMARK minimizedAffinity 11.8377972
REMARK minimizedRMSD -1
REMARK  0 active torsions:
REMARK  status: ('A' for Active; 'I' for Inactive)
ROOT
ATOM      1  N1  IND d   1       2.555   0.741   5.876  0.00  0.00    -0.196 N 
ATOM      2  C2  IND d   1       2.268   1.945   5.296  0.00  0.00     0.054 A 
ATOM      3  C3  IND d   1       2.160   1.807   3.955  0.00  0.00    -0.031 A 
ATOM      4  C4  IND d   1       2.314  -0.318   2.512  0.00  0.00     0.051 A 
ATOM      5  C5  IND d   1       2.598  -1.653   2.587  0.00  0.00    -0.031 A 
ATOM      6  C6  IND d   1       2.884  -2.271   3.787  0.00  0.00     0.015 A 
ATOM      7  C7  IND d   1       2.887  -1.577   4.963  0.00  0.00    -0.016 A 
ATOM      8  C8  IND d   1       2.607  -0.220   4.890  0.00  0.00    -0.047 A 
ATOM      9  C9  IND d   1       2.357   0.422   3.670  0.00  0.00    -0.096 A 
ATOM     10  HN1 IND d   1       2.682   0.606   6.716  0.00  0.00     0.298 HD
ENDROOT
TORSDOF 0
ENDMDL
