MODEL 1
REMARK minimizedAffinity -2.05417967
REMARK minimizedRMSD -1
REMARK  3 active torsions:
REMARK  status: ('A' for Active; 'I' for Inactive)
REMARK    1  A    between atoms: C3'_2  and  C2'_3 
REMARK    2  A    between atoms: C2'_3  and  C1'_4 
REMARK    3  A    between atoms: C1'_4  and  C1_5 
ROOT
ATOM      1  C1  N4B d   1       0.783  -0.820   2.741  0.00  0.00    -0.075 A 
ATOM      2  C2  N4B d   1      -0.078  -0.850   3.860  0.00  0.00     0.002 A 
ATOM      3  C3  N4B d   1       0.388  -1.293   5.073  0.00  0.00     0.002 A 
ATOM      4  C4  N4B d   1       1.700  -1.728   5.187  0.00  0.00    -0.004 A 
ATOM      5  C5  N4B d   1       2.532  -1.672   4.108  0.00  0.00     0.002 A 
ATOM      6  C6  N4B d   1       2.079  -1.225   2.883  0.00  0.00     0.002 A 
ENDROOT
BRANCH   1   7
ATOM      7  C1' N4B d   1       0.296  -0.425   1.374  0.00  0.00     0.057 C 
BRANCH   7   8
ATOM      8  C2' N4B d   1      -1.171  -0.017   1.464  0.00  0.00     0.009 C 
BRANCH   8   9
ATOM      9  C3' N4B d   1      -1.851  -0.036   0.105  0.00  0.00     0.004 C 
ATOM     10  C4' N4B d   1      -1.887  -1.405  -0.507  0.00  0.00     0.003 C 
ENDBRANCH   8   9
ENDBRANCH   7   8
ENDBRANCH   1   7
TORSDOF 3
ENDMDL
