MODEL 1
REMARK minimizedAffinity -2.21809721
REMARK minimizedRMSD -1
REMARK  3 active torsions:
REMARK  status: ('A' for Active; 'I' for Inactive)
REMARK    1  A    between atoms: C3'_2  and  C2'_3 
REMARK    2  A    between atoms: C2'_3  and  C1'_4 
REMARK    3  A    between atoms: C1'_4  and  C1_5 
ROOT
ATOM      1  C1  N4B d   1      -0.128  -0.678   1.389  0.00  0.00    -0.075 A 
ATOM      2  C2  N4B d   1      -0.174  -1.121   0.048  0.00  0.00     0.002 A 
ATOM      3  C3  N4B d   1      -1.352  -1.057  -0.655  0.00  0.00     0.002 A 
ATOM      4  C4  N4B d   1      -2.495  -0.574  -0.036  0.00  0.00    -0.004 A 
ATOM      5  C5  N4B d   1      -2.436  -0.124   1.250  0.00  0.00     0.002 A 
ATOM      6  C6  N4B d   1      -1.258  -0.179   1.968  0.00  0.00     0.002 A 
ENDROOT
BRANCH   1   7
ATOM      7  C1' N4B d   1       1.116  -0.808   2.225  0.00  0.00     0.057 C 
BRANCH   7   8
ATOM      8  C2' N4B d   1       0.724  -1.184   3.651  0.00  0.00     0.009 C 
BRANCH   8   9
ATOM      9  C3' N4B d   1       1.933  -1.291   4.563  0.00  0.00     0.004 C 
ATOM     10  C4' N4B d   1       1.648  -0.830   5.962  0.00  0.00     0.003 C 
ENDBRANCH   8   9
ENDBRANCH   7   8
ENDBRANCH   1   7
TORSDOF 3
ENDMDL
