MODEL 1
REMARK minimizedAffinity 5.31137848
REMARK minimizedRMSD -1
REMARK  3 active torsions:
REMARK  status: ('A' for Active; 'I' for Inactive)
REMARK    1  A    between atoms: C3'_2  and  C2'_3 
REMARK    2  A    between atoms: C2'_3  and  C1'_4 
REMARK    3  A    between atoms: C1'_4  and  C1_5 
ROOT
ATOM      1  C1  N4B d   1      -0.282  -0.326   0.793  0.00  0.00    -0.075 A 
ATOM      2  C2  N4B d   1      -0.800  -1.071  -0.289  0.00  0.00     0.002 A 
ATOM      3  C3  N4B d   1      -2.146  -1.039  -0.563  0.00  0.00     0.002 A 
ATOM      4  C4  N4B d   1      -2.991  -0.286   0.239  0.00  0.00    -0.004 A 
ATOM      5  C5  N4B d   1      -2.479   0.451   1.266  0.00  0.00     0.002 A 
ATOM      6  C6  N4B d   1      -1.128   0.431   1.550  0.00  0.00     0.002 A 
ENDROOT
BRANCH   1   7
ATOM      7  C1' N4B d   1       1.169  -0.397   1.184  0.00  0.00     0.057 C 
BRANCH   7   8
ATOM      8  C2' N4B d   1       2.002   0.364   0.157  0.00  0.00     0.009 C 
BRANCH   8   9
ATOM      9  C3' N4B d   1       2.820   1.472   0.798  0.00  0.00     0.004 C 
ATOM     10  C4' N4B d   1       4.054   1.810   0.016  0.00  0.00     0.003 C 
ENDBRANCH   8   9
ENDBRANCH   7   8
ENDBRANCH   1   7
TORSDOF 3
ENDMDL
