MODEL 1
REMARK minimizedAffinity -1.79475272
REMARK minimizedRMSD -1
REMARK  0 active torsions:
REMARK  status: ('A' for Active; 'I' for Inactive)
ROOT
ATOM      1  C2' OXE d   1       5.997   0.733   3.179  0.00  0.00     0.078 C 
ATOM      2  C1' OXE d   1       5.999   0.732   5.986  0.00  0.00     0.078 C 
ATOM      3  C1  OXE d   1       5.969  -0.601   5.283  0.00  0.00    -0.078 A 
ATOM      4  C2  OXE d   1       5.921  -0.591   3.910  0.00  0.00    -0.078 A 
ATOM      5  C3  OXE d   1       5.947  -1.794   3.210  0.00  0.00     0.003 A 
ATOM      6  C4  OXE d   1       5.867  -3.013   3.893  0.00  0.00    -0.002 A 
ATOM      7  C5  OXE d   1       5.874  -3.045   5.291  0.00  0.00    -0.002 A 
ATOM      8  C6  OXE d   1       5.968  -1.853   6.000  0.00  0.00     0.003 A 
ENDROOT
TORSDOF 0
ENDMDL
