MODEL 1
REMARK minimizedAffinity -1.16637278
REMARK minimizedRMSD -1
REMARK  0 active torsions:
REMARK  status: ('A' for Active; 'I' for Inactive)
ROOT
ATOM      1  C2' OXE d   1       5.974   4.148   2.207  0.00  0.00     0.078 C 
ATOM      2  C1' OXE d   1       5.955   4.889   4.914  0.00  0.00     0.078 C 
ATOM      3  C1  OXE d   1       5.969   3.417   4.588  0.00  0.00    -0.078 A 
ATOM      4  C2  OXE d   1       5.932   3.063   3.261  0.00  0.00    -0.078 A 
ATOM      5  C3  OXE d   1       5.998   1.719   2.903  0.00  0.00     0.003 A 
ATOM      6  C4  OXE d   1       5.948   0.721   3.884  0.00  0.00    -0.002 A 
ATOM      7  C5  OXE d   1       5.946   1.060   5.242  0.00  0.00    -0.002 A 
ATOM      8  C6  OXE d   1       6.000   2.400   5.610  0.00  0.00     0.003 A 
ENDROOT
TORSDOF 0
ENDMDL
