MODEL 1
REMARK minimizedAffinity -1.5707469
REMARK minimizedRMSD -1
REMARK  0 active torsions:
REMARK  status: ('A' for Active; 'I' for Inactive)
ROOT
ATOM      1  C2' OXE d   1       4.457   2.282   2.549  0.00  0.00     0.078 C 
ATOM      2  C1' OXE d   1       5.165   3.689   4.873  0.00  0.00     0.078 C 
ATOM      3  C1  OXE d   1       5.357   2.193   4.870  0.00  0.00    -0.078 A 
ATOM      4  C2  OXE d   1       4.964   1.507   3.746  0.00  0.00    -0.078 A 
ATOM      5  C3  OXE d   1       5.171   0.132   3.670  0.00  0.00     0.003 A 
ATOM      6  C4  OXE d   1       5.632  -0.578   4.785  0.00  0.00    -0.002 A 
ATOM      7  C5  OXE d   1       6.000   0.096   5.954  0.00  0.00    -0.002 A 
ATOM      8  C6  OXE d   1       5.909   1.483   5.998  0.00  0.00     0.003 A 
ENDROOT
TORSDOF 0
ENDMDL
