MODEL 1
REMARK minimizedAffinity 2.66890359
REMARK minimizedRMSD -1
REMARK  0 active torsions:
REMARK  status: ('A' for Active; 'I' for Inactive)
ROOT
ATOM      1  C2' OXE d   1       4.147   1.506   1.763  0.00  0.00     0.078 C 
ATOM      2  C1' OXE d   1       5.197   3.787   3.018  0.00  0.00     0.078 C 
ATOM      3  C1  OXE d   1       5.322   2.468   3.738  0.00  0.00    -0.078 A 
ATOM      4  C2  OXE d   1       4.764   1.365   3.138  0.00  0.00    -0.078 A 
ATOM      5  C3  OXE d   1       4.899   0.114   3.734  0.00  0.00     0.003 A 
ATOM      6  C4  OXE d   1       5.461  -0.006   5.011  0.00  0.00    -0.002 A 
ATOM      7  C5  OXE d   1       6.000   1.111   5.657  0.00  0.00    -0.002 A 
ATOM      8  C6  OXE d   1       5.976   2.346   5.017  0.00  0.00     0.003 A 
ENDROOT
TORSDOF 0
ENDMDL
