MODEL 1
REMARK minimizedAffinity -1.96059525
REMARK minimizedRMSD -1
REMARK  0 active torsions:
REMARK  status: ('A' for Active; 'I' for Inactive)
ROOT
ATOM      1  C2' OXE d   1       5.879   1.046   5.939  0.00  0.00     0.078 C 
ATOM      2  C1' OXE d   1       5.858   0.014   3.328  0.00  0.00     0.078 C 
ATOM      3  C1  OXE d   1       5.923   1.512   3.492  0.00  0.00    -0.078 A 
ATOM      4  C2  OXE d   1       5.886   2.010   4.772  0.00  0.00    -0.078 A 
ATOM      5  C3  OXE d   1       5.998   3.382   4.982  0.00  0.00     0.003 A 
ATOM      6  C4  OXE d   1       5.994   4.267   3.897  0.00  0.00    -0.002 A 
ATOM      7  C5  OXE d   1       5.992   3.783   2.585  0.00  0.00    -0.002 A 
ATOM      8  C6  OXE d   1       5.999   2.410   2.366  0.00  0.00     0.003 A 
ENDROOT
TORSDOF 0
ENDMDL
