MODEL 1
REMARK minimizedAffinity 0.692169189
REMARK minimizedRMSD -1
REMARK  0 active torsions:
REMARK  status: ('A' for Active; 'I' for Inactive)
ROOT
ATOM      1  C2' OXE d   1       6.000   3.654   5.003  0.00  0.00     0.078 C 
ATOM      2  C1' OXE d   1       4.915   2.605   2.636  0.00  0.00     0.078 C 
ATOM      3  C1  OXE d   1       5.196   1.646   3.767  0.00  0.00    -0.078 A 
ATOM      4  C2  OXE d   1       5.770   2.161   4.904  0.00  0.00    -0.078 A 
ATOM      5  C3  OXE d   1       6.000   1.331   5.997  0.00  0.00     0.003 A 
ATOM      6  C4  OXE d   1       5.794  -0.050   5.893  0.00  0.00    -0.002 A 
ATOM      7  C5  OXE d   1       5.247  -0.601   4.730  0.00  0.00    -0.002 A 
ATOM      8  C6  OXE d   1       4.903   0.237   3.675  0.00  0.00     0.003 A 
ENDROOT
TORSDOF 0
ENDMDL
