MODEL 1
REMARK minimizedAffinity -0.893307626
REMARK minimizedRMSD -1
REMARK  0 active torsions:
REMARK  status: ('A' for Active; 'I' for Inactive)
ROOT
ATOM      1  C2' OXE d   1       5.224   3.732   2.662  0.00  0.00     0.078 C 
ATOM      2  C1' OXE d   1       5.999   4.489   5.252  0.00  0.00     0.078 C 
ATOM      3  C1  OXE d   1       5.788   3.020   4.982  0.00  0.00    -0.078 A 
ATOM      4  C2  OXE d   1       5.364   2.663   3.724  0.00  0.00    -0.078 A 
ATOM      5  C3  OXE d   1       5.206   1.317   3.406  0.00  0.00     0.003 A 
ATOM      6  C4  OXE d   1       5.328   0.336   4.397  0.00  0.00    -0.002 A 
ATOM      7  C5  OXE d   1       5.721   0.681   5.694  0.00  0.00    -0.002 A 
ATOM      8  C6  OXE d   1       5.996   2.011   5.991  0.00  0.00     0.003 A 
ENDROOT
TORSDOF 0
ENDMDL
