MODEL 1
REMARK minimizedAffinity 0.350331545
REMARK minimizedRMSD -1
REMARK  0 active torsions:
REMARK  status: ('A' for Active; 'I' for Inactive)
ROOT
ATOM      1  C2' OXE d   1       5.942  -1.182   3.203  0.00  0.00     0.078 C 
ATOM      2  C1' OXE d   1       6.000  -0.941   6.000  0.00  0.00     0.078 C 
ATOM      3  C1  OXE d   1       5.971   0.328   5.185  0.00  0.00    -0.078 A 
ATOM      4  C2  OXE d   1       5.990   0.201   3.817  0.00  0.00    -0.078 A 
ATOM      5  C3  OXE d   1       5.910   1.338   3.018  0.00  0.00     0.003 A 
ATOM      6  C4  OXE d   1       5.965   2.614   3.593  0.00  0.00    -0.002 A 
ATOM      7  C5  OXE d   1       5.986   2.765   4.984  0.00  0.00    -0.002 A 
ATOM      8  C6  OXE d   1       5.946   1.635   5.793  0.00  0.00     0.003 A 
ENDROOT
TORSDOF 0
ENDMDL
