MODEL 1
REMARK minimizedAffinity -0.204666659
REMARK minimizedRMSD -1
REMARK  0 active torsions:
REMARK  status: ('A' for Active; 'I' for Inactive)
ROOT
ATOM      1  C2' OXE d   1       5.974   1.042   1.978  0.00  0.00     0.078 C 
ATOM      2  C1' OXE d   1       5.954   2.807   4.162  0.00  0.00     0.078 C 
ATOM      3  C1  OXE d   1       5.968   1.327   4.453  0.00  0.00    -0.078 A 
ATOM      4  C2  OXE d   1       5.931   0.471   3.379  0.00  0.00    -0.078 A 
ATOM      5  C3  OXE d   1       5.998  -0.904   3.590  0.00  0.00     0.003 A 
ATOM      6  C4  OXE d   1       5.948  -1.425   4.889  0.00  0.00    -0.002 A 
ATOM      7  C5  OXE d   1       5.946  -0.570   5.997  0.00  0.00    -0.002 A 
ATOM      8  C6  OXE d   1       5.999   0.805   5.797  0.00  0.00     0.003 A 
ENDROOT
TORSDOF 0
ENDMDL
