MODEL 1
REMARK minimizedAffinity 3.60289288
REMARK minimizedRMSD -1
REMARK  0 active torsions:
REMARK  status: ('A' for Active; 'I' for Inactive)
ROOT
ATOM      1  C2' OXE d   1       5.831   2.178   4.552  0.00  0.00     0.078 C 
ATOM      2  C1' OXE d   1       5.282   0.645   2.265  0.00  0.00     0.078 C 
ATOM      3  C1  OXE d   1       5.512  -0.086   3.564  0.00  0.00    -0.078 A 
ATOM      4  C2  OXE d   1       5.826   0.669   4.668  0.00  0.00    -0.078 A 
ATOM      5  C3  OXE d   1       5.995   0.049   5.903  0.00  0.00     0.003 A 
ATOM      6  C4  OXE d   1       5.999  -1.348   6.000  0.00  0.00    -0.002 A 
ATOM      7  C5  OXE d   1       5.720  -2.138   4.880  0.00  0.00    -0.002 A 
ATOM      8  C6  OXE d   1       5.433  -1.523   3.666  0.00  0.00     0.003 A 
ENDROOT
TORSDOF 0
ENDMDL
