MODEL 1
REMARK minimizedAffinity -3.30274892
REMARK minimizedRMSD -1
REMARK  0 active torsions:
REMARK  status: ('A' for Active; 'I' for Inactive)
ROOT
ATOM      1  C2' OXE d   1       5.959  -3.596   5.724  0.00  0.00     0.078 C 
ATOM      2  C1' OXE d   1       5.939  -3.267   2.937  0.00  0.00     0.078 C 
ATOM      3  C1  OXE d   1       5.962  -2.025   3.791  0.00  0.00    -0.078 A 
ATOM      4  C2  OXE d   1       5.924  -2.194   5.155  0.00  0.00    -0.078 A 
ATOM      5  C3  OXE d   1       5.999  -1.083   5.990  0.00  0.00     0.003 A 
ATOM      6  C4  OXE d   1       5.957   0.210   5.455  0.00  0.00    -0.002 A 
ATOM      7  C5  OXE d   1       5.955   0.405   4.070  0.00  0.00    -0.002 A 
ATOM      8  C6  OXE d   1       6.000  -0.699   3.226  0.00  0.00     0.003 A 
ENDROOT
TORSDOF 0
ENDMDL
