MODEL 1
REMARK minimizedAffinity -0.189033449
REMARK minimizedRMSD -1
REMARK  0 active torsions:
REMARK  status: ('A' for Active; 'I' for Inactive)
ROOT
ATOM      1  C2' OXE d   1       5.997   2.028   5.457  0.00  0.00     0.078 C 
ATOM      2  C1' OXE d   1       5.978   1.569   2.687  0.00  0.00     0.078 C 
ATOM      3  C1  OXE d   1       5.981   3.000   3.163  0.00  0.00    -0.078 A 
ATOM      4  C2  OXE d   1       5.943   3.215   4.520  0.00  0.00    -0.078 A 
ATOM      5  C3  OXE d   1       5.999   4.515   5.013  0.00  0.00     0.003 A 
ATOM      6  C4  OXE d   1       5.938   5.608   4.140  0.00  0.00    -0.002 A 
ATOM      7  C5  OXE d   1       5.936   5.411   2.755  0.00  0.00    -0.002 A 
ATOM      8  C6  OXE d   1       6.000   4.117   2.251  0.00  0.00     0.003 A 
ENDROOT
TORSDOF 0
ENDMDL
