MODEL 1
REMARK minimizedAffinity -0.76107204
REMARK minimizedRMSD -1
REMARK  0 active torsions:
REMARK  status: ('A' for Active; 'I' for Inactive)
ROOT
ATOM      1  C2' OXE d   1       5.826  -0.645   5.840  0.00  0.00     0.078 C 
ATOM      2  C1' OXE d   1       5.831  -0.569   3.033  0.00  0.00     0.078 C 
ATOM      3  C1  OXE d   1       5.903   0.744   3.773  0.00  0.00    -0.078 A 
ATOM      4  C2  OXE d   1       5.853   0.700   5.145  0.00  0.00    -0.078 A 
ATOM      5  C3  OXE d   1       5.972   1.877   5.878  0.00  0.00     0.003 A 
ATOM      6  C4  OXE d   1       5.987   3.118   5.228  0.00  0.00    -0.002 A 
ATOM      7  C5  OXE d   1       5.998   3.187   3.831  0.00  0.00    -0.002 A 
ATOM      8  C6  OXE d   1       6.000   2.010   3.090  0.00  0.00     0.003 A 
ENDROOT
TORSDOF 0
ENDMDL
