MODEL 1
REMARK minimizedAffinity 0.638823032
REMARK minimizedRMSD -1
REMARK  0 active torsions:
REMARK  status: ('A' for Active; 'I' for Inactive)
ROOT
ATOM      1  C2' OXE d   1       5.932  -1.107   5.951  0.00  0.00     0.078 C 
ATOM      2  C1' OXE d   1       5.916  -1.658   3.198  0.00  0.00     0.078 C 
ATOM      3  C1  OXE d   1       5.948  -0.212   3.626  0.00  0.00    -0.078 A 
ATOM      4  C2  OXE d   1       5.908   0.049   4.975  0.00  0.00    -0.078 A 
ATOM      5  C3  OXE d   1       5.990   1.364   5.425  0.00  0.00     0.003 A 
ATOM      6  C4  OXE d   1       5.958   2.428   4.516  0.00  0.00    -0.002 A 
ATOM      7  C5  OXE d   1       5.958   2.185   3.138  0.00  0.00    -0.002 A 
ATOM      8  C6  OXE d   1       5.995   0.874   2.678  0.00  0.00     0.003 A 
ENDROOT
TORSDOF 0
ENDMDL
