MODEL 1
REMARK minimizedAffinity -0.38557601
REMARK minimizedRMSD -1
REMARK  0 active torsions:
REMARK  status: ('A' for Active; 'I' for Inactive)
ROOT
ATOM      1  C2' OXE d   1       5.928   2.968   4.370  0.00  0.00     0.078 C 
ATOM      2  C1' OXE d   1       5.988   1.319   2.100  0.00  0.00     0.078 C 
ATOM      3  C1  OXE d   1       5.954   0.653   3.452  0.00  0.00    -0.078 A 
ATOM      4  C2  OXE d   1       5.972   1.467   4.559  0.00  0.00    -0.078 A 
ATOM      5  C3  OXE d   1       5.886   0.906   5.830  0.00  0.00     0.003 A 
ATOM      6  C4  OXE d   1       5.937  -0.484   5.996  0.00  0.00    -0.002 A 
ATOM      7  C5  OXE d   1       5.959  -1.331   4.883  0.00  0.00    -0.002 A 
ATOM      8  C6  OXE d   1       5.925  -0.781   3.606  0.00  0.00     0.003 A 
ENDROOT
TORSDOF 0
ENDMDL
