MODEL 1
REMARK minimizedAffinity 5.66322517
REMARK minimizedRMSD -1
REMARK  0 active torsions:
REMARK  status: ('A' for Active; 'I' for Inactive)
ROOT
ATOM      1  C2' OXE d   1       5.995   5.999   4.010  0.00  0.00     0.078 C 
ATOM      2  C1' OXE d   1       5.755   5.360   1.287  0.00  0.00     0.078 C 
ATOM      3  C1  OXE d   1       5.822   4.221   2.274  0.00  0.00    -0.078 A 
ATOM      4  C2  OXE d   1       5.986   4.542   3.600  0.00  0.00    -0.078 A 
ATOM      5  C3  OXE d   1       5.999   3.531   4.557  0.00  0.00     0.003 A 
ATOM      6  C4  OXE d   1       6.000   2.186   4.168  0.00  0.00    -0.002 A 
ATOM      7  C5  OXE d   1       5.873   1.837   2.820  0.00  0.00    -0.002 A 
ATOM      8  C6  OXE d   1       5.740   2.840   1.866  0.00  0.00     0.003 A 
ENDROOT
TORSDOF 0
ENDMDL
