MODEL 1
REMARK minimizedAffinity -0.809027433
REMARK minimizedRMSD -1
REMARK  0 active torsions:
REMARK  status: ('A' for Active; 'I' for Inactive)
ROOT
ATOM      1  C2' OXE d   1       5.937  -2.085   5.999  0.00  0.00     0.078 C 
ATOM      2  C1' OXE d   1       5.934  -2.126   3.193  0.00  0.00     0.078 C 
ATOM      3  C1  OXE d   1       5.946  -0.782   3.877  0.00  0.00    -0.078 A 
ATOM      4  C2  OXE d   1       5.900  -0.771   5.250  0.00  0.00    -0.078 A 
ATOM      5  C3  OXE d   1       5.964   0.441   5.932  0.00  0.00     0.003 A 
ATOM      6  C4  OXE d   1       5.919   1.652   5.232  0.00  0.00    -0.002 A 
ATOM      7  C5  OXE d   1       5.926   1.664   3.833  0.00  0.00    -0.002 A 
ATOM      8  C6  OXE d   1       5.982   0.459   3.142  0.00  0.00     0.003 A 
ENDROOT
TORSDOF 0
ENDMDL
