MODEL 1
REMARK minimizedAffinity 3.81721258
REMARK minimizedRMSD -1
REMARK  0 active torsions:
REMARK  status: ('A' for Active; 'I' for Inactive)
ROOT
ATOM      1  C2' OXE d   1       5.949   1.652   2.630  0.00  0.00     0.078 C 
ATOM      2  C1' OXE d   1       5.972   3.068   5.054  0.00  0.00     0.078 C 
ATOM      3  C1  OXE d   1       5.961   3.865   3.773  0.00  0.00    -0.078 A 
ATOM      4  C2  OXE d   1       5.997   3.164   2.592  0.00  0.00    -0.078 A 
ATOM      5  C3  OXE d   1       5.934   3.849   1.382  0.00  0.00     0.003 A 
ATOM      6  C4  OXE d   1       5.989   5.248   1.355  0.00  0.00    -0.002 A 
ATOM      7  C5  OXE d   1       5.993   5.981   2.547  0.00  0.00    -0.002 A 
ATOM      8  C6  OXE d   1       5.936   5.307   3.762  0.00  0.00     0.003 A 
ENDROOT
TORSDOF 0
ENDMDL
