MODEL 1
REMARK minimizedAffinity 4.21458817
REMARK minimizedRMSD -1
REMARK  0 active torsions:
REMARK  status: ('A' for Active; 'I' for Inactive)
ROOT
ATOM      1  C2' OXE d   1       5.998   5.817   2.579  0.00  0.00     0.078 C 
ATOM      2  C1' OXE d   1       5.980   5.914   5.384  0.00  0.00     0.078 C 
ATOM      3  C1  OXE d   1       5.981   4.556   4.727  0.00  0.00    -0.078 A 
ATOM      4  C2  OXE d   1       5.943   4.518   3.354  0.00  0.00    -0.078 A 
ATOM      5  C3  OXE d   1       5.999   3.293   2.696  0.00  0.00     0.003 A 
ATOM      6  C4  OXE d   1       5.937   2.096   3.421  0.00  0.00    -0.002 A 
ATOM      7  C5  OXE d   1       5.935   2.112   4.820  0.00  0.00    -0.002 A 
ATOM      8  C6  OXE d   1       6.000   3.331   5.487  0.00  0.00     0.003 A 
ENDROOT
TORSDOF 0
ENDMDL
