MODEL 1
REMARK minimizedAffinity -0.361429811
REMARK minimizedRMSD -1
REMARK  0 active torsions:
REMARK  status: ('A' for Active; 'I' for Inactive)
ROOT
ATOM      1  C2' OXE d   1       5.998  -1.427   4.104  0.00  0.00     0.078 C 
ATOM      2  C1' OXE d   1       5.982  -0.251   1.555  0.00  0.00     0.078 C 
ATOM      3  C1  OXE d   1       5.981   0.666   2.753  0.00  0.00    -0.078 A 
ATOM      4  C2  OXE d   1       5.942   0.081   3.996  0.00  0.00    -0.078 A 
ATOM      5  C3  OXE d   1       5.995   0.880   5.135  0.00  0.00     0.003 A 
ATOM      6  C4  OXE d   1       5.932   2.274   5.027  0.00  0.00    -0.002 A 
ATOM      7  C5  OXE d   1       5.931   2.889   3.770  0.00  0.00    -0.002 A 
ATOM      8  C6  OXE d   1       5.998   2.102   2.626  0.00  0.00     0.003 A 
ENDROOT
TORSDOF 0
ENDMDL
