MODEL 1
REMARK minimizedAffinity 17.7890797
REMARK minimizedRMSD -1
REMARK  0 active torsions:
REMARK  status: ('A' for Active; 'I' for Inactive)
ROOT
ATOM      1  C1  DEN d   1       3.518  -2.918   1.448  0.00  0.00     0.130 A 
ATOM      2  C2  DEN d   1       3.240  -4.100   0.636  0.00  0.00    -0.031 A 
ATOM      3  C3  DEN d   1       1.810  -4.075   0.269  0.00  0.00     0.027 A 
ATOM      4  C4  DEN d   1       0.010  -2.328   0.871  0.00  0.00     0.027 A 
ATOM      5  C5  DEN d   1      -0.233  -1.156   1.551  0.00  0.00    -0.003 A 
ATOM      6  C6  DEN d   1       0.741  -0.511   2.267  0.00  0.00     0.001 A 
ATOM      7  C7  DEN d   1       2.016  -1.012   2.281  0.00  0.00     0.017 A 
ATOM      8  C8  DEN d   1       2.267  -2.198   1.604  0.00  0.00    -0.094 A 
ATOM      9  C9  DEN d   1       1.272  -2.828   0.876  0.00  0.00    -0.072 A 
ENDROOT
TORSDOF 0
ENDMDL
