MODEL 1
REMARK minimizedAffinity 14.1007242
REMARK minimizedRMSD -1
REMARK  0 active torsions:
REMARK  status: ('A' for Active; 'I' for Inactive)
ROOT
ATOM      1  C1  DEN d   1       3.616  -5.192   5.841  0.00  0.00     0.130 A 
ATOM      2  C2  DEN d   1       4.834  -5.983   5.989  0.00  0.00    -0.031 A 
ATOM      3  C3  DEN d   1       5.985  -5.057   5.967  0.00  0.00     0.027 A 
ATOM      4  C4  DEN d   1       5.997  -2.489   5.726  0.00  0.00     0.027 A 
ATOM      5  C5  DEN d   1       5.206  -1.374   5.561  0.00  0.00    -0.003 A 
ATOM      6  C6  DEN d   1       3.844  -1.455   5.445  0.00  0.00     0.001 A 
ATOM      7  C7  DEN d   1       3.226  -2.674   5.537  0.00  0.00     0.017 A 
ATOM      8  C8  DEN d   1       4.017  -3.805   5.696  0.00  0.00    -0.094 A 
ATOM      9  C9  DEN d   1       5.392  -3.700   5.824  0.00  0.00    -0.072 A 
ENDROOT
TORSDOF 0
ENDMDL
