MODEL 1
REMARK minimizedAffinity 6.26132488
REMARK minimizedRMSD -1
REMARK  0 active torsions:
REMARK  status: ('A' for Active; 'I' for Inactive)
ROOT
ATOM      1  C1  DEN d   1      -1.055  -1.551   2.280  0.00  0.00     0.130 A 
ATOM      2  C2  DEN d   1      -2.028  -2.577   1.914  0.00  0.00    -0.031 A 
ATOM      3  C3  DEN d   1      -1.321  -3.627   1.154  0.00  0.00     0.027 A 
ATOM      4  C4  DEN d   1       1.174  -3.766   0.516  0.00  0.00     0.027 A 
ATOM      5  C5  DEN d   1       2.390  -3.125   0.595  0.00  0.00    -0.003 A 
ATOM      6  C6  DEN d   1       2.536  -1.907   1.206  0.00  0.00     0.001 A 
ATOM      7  C7  DEN d   1       1.455  -1.314   1.803  0.00  0.00     0.017 A 
ATOM      8  C8  DEN d   1       0.223  -1.951   1.721  0.00  0.00    -0.094 A 
ATOM      9  C9  DEN d   1       0.100  -3.187   1.109  0.00  0.00    -0.072 A 
ENDROOT
TORSDOF 0
ENDMDL
