MODEL 1
REMARK minimizedAffinity 10.1901484
REMARK minimizedRMSD -1
REMARK  0 active torsions:
REMARK  status: ('A' for Active; 'I' for Inactive)
ROOT
ATOM      1  C1  DEN d   1       1.488  -0.655   1.683  0.00  0.00     0.130 A 
ATOM      2  C2  DEN d   1       0.669  -0.647   0.475  0.00  0.00    -0.031 A 
ATOM      3  C3  DEN d   1       0.985  -1.865  -0.299  0.00  0.00     0.027 A 
ATOM      4  C4  DEN d   1       2.652  -3.753   0.257  0.00  0.00     0.027 A 
ATOM      5  C5  DEN d   1       3.585  -4.194   1.169  0.00  0.00    -0.003 A 
ATOM      6  C6  DEN d   1       3.907  -3.476   2.290  0.00  0.00     0.001 A 
ATOM      7  C7  DEN d   1       3.257  -2.299   2.551  0.00  0.00     0.017 A 
ATOM      8  C8  DEN d   1       2.320  -1.844   1.632  0.00  0.00    -0.094 A 
ATOM      9  C9  DEN d   1       2.000  -2.590   0.511  0.00  0.00    -0.072 A 
ENDROOT
TORSDOF 0
ENDMDL
