MODEL 1
REMARK minimizedAffinity 15.8074722
REMARK minimizedRMSD -1
REMARK  0 active torsions:
REMARK  status: ('A' for Active; 'I' for Inactive)
ROOT
ATOM      1  C1  DEN d   1       4.288  -2.681   3.463  0.00  0.00     0.130 A 
ATOM      2  C2  DEN d   1       3.967  -2.084   4.756  0.00  0.00    -0.031 A 
ATOM      3  C3  DEN d   1       2.682  -1.369   4.623  0.00  0.00     0.027 A 
ATOM      4  C4  DEN d   1       1.164  -1.132   2.552  0.00  0.00     0.027 A 
ATOM      5  C5  DEN d   1       1.024  -1.456   1.220  0.00  0.00    -0.003 A 
ATOM      6  C6  DEN d   1       1.970  -2.175   0.540  0.00  0.00     0.001 A 
ATOM      7  C7  DEN d   1       3.079  -2.634   1.200  0.00  0.00     0.017 A 
ATOM      8  C8  DEN d   1       3.231  -2.306   2.541  0.00  0.00    -0.094 A 
ATOM      9  C9  DEN d   1       2.257  -1.588   3.214  0.00  0.00    -0.072 A 
ENDROOT
TORSDOF 0
ENDMDL
