MODEL 1
REMARK minimizedAffinity 19.0193024
REMARK minimizedRMSD -1
REMARK  0 active torsions:
REMARK  status: ('A' for Active; 'I' for Inactive)
ROOT
ATOM      1  C1  DEN d   1       3.621  -2.179   0.484  0.00  0.00     0.130 A 
ATOM      2  C2  DEN d   1       4.843  -1.389   0.610  0.00  0.00    -0.031 A 
ATOM      3  C3  DEN d   1       5.992  -2.315   0.571  0.00  0.00     0.027 A 
ATOM      4  C4  DEN d   1       5.999  -4.882   0.323  0.00  0.00     0.027 A 
ATOM      5  C5  DEN d   1       5.205  -6.000   0.195  0.00  0.00    -0.003 A 
ATOM      6  C6  DEN d   1       3.837  -5.926   0.188  0.00  0.00     0.001 A 
ATOM      7  C7  DEN d   1       3.222  -4.705   0.267  0.00  0.00     0.017 A 
ATOM      8  C8  DEN d   1       4.017  -3.574   0.404  0.00  0.00    -0.094 A 
ATOM      9  C9  DEN d   1       5.398  -3.668   0.396  0.00  0.00    -0.072 A 
ENDROOT
TORSDOF 0
ENDMDL
