MODEL 1
REMARK minimizedAffinity 10.1959333
REMARK minimizedRMSD -1
REMARK  0 active torsions:
REMARK  status: ('A' for Active; 'I' for Inactive)
ROOT
ATOM      1  C1  DEN d   1       4.657   2.606  -4.422  0.00  0.00     0.130 A 
ATOM      2  C2  DEN d   1       5.999   2.872  -4.933  0.00  0.00    -0.031 A 
ATOM      3  C3  DEN d   1       5.973   4.173  -5.629  0.00  0.00     0.027 A 
ATOM      4  C4  DEN d   1       3.996   5.797  -5.960  0.00  0.00     0.027 A 
ATOM      5  C5  DEN d   1       2.656   5.998  -5.715  0.00  0.00    -0.003 A 
ATOM      6  C6  DEN d   1       1.887   5.075  -5.057  0.00  0.00     0.001 A 
ATOM      7  C7  DEN d   1       2.464   3.927  -4.581  0.00  0.00     0.017 A 
ATOM      8  C8  DEN d   1       3.813   3.714  -4.831  0.00  0.00    -0.094 A 
ATOM      9  C9  DEN d   1       4.576   4.665  -5.487  0.00  0.00    -0.072 A 
ENDROOT
TORSDOF 0
ENDMDL
