MODEL 1
REMARK minimizedAffinity 19.6415138
REMARK minimizedRMSD -1
REMARK  0 active torsions:
REMARK  status: ('A' for Active; 'I' for Inactive)
ROOT
ATOM      1  C1  DEN d   1      -2.683   3.522  -3.270  0.00  0.00     0.130 A 
ATOM      2  C2  DEN d   1      -2.140   2.247  -2.810  0.00  0.00    -0.031 A 
ATOM      3  C3  DEN d   1      -2.960   1.165  -3.391  0.00  0.00     0.027 A 
ATOM      4  C4  DEN d   1      -5.004   1.339  -4.954  0.00  0.00     0.027 A 
ATOM      5  C5  DEN d   1      -5.844   2.211  -5.611  0.00  0.00    -0.003 A 
ATOM      6  C6  DEN d   1      -5.712   3.570  -5.507  0.00  0.00     0.001 A 
ATOM      7  C7  DEN d   1      -4.688   4.097  -4.765  0.00  0.00     0.017 A 
ATOM      8  C8  DEN d   1      -3.842   3.225  -4.094  0.00  0.00    -0.094 A 
ATOM      9  C9  DEN d   1      -3.984   1.854  -4.221  0.00  0.00    -0.072 A 
ENDROOT
TORSDOF 0
ENDMDL
