MODEL 1
REMARK minimizedAffinity 9.78199387
REMARK minimizedRMSD -1
REMARK  0 active torsions:
REMARK  status: ('A' for Active; 'I' for Inactive)
ROOT
ATOM      1  C1  DEN d   1       5.998   0.431   1.499  0.00  0.00     0.130 A 
ATOM      2  C2  DEN d   1       5.967  -0.314   0.243  0.00  0.00    -0.031 A 
ATOM      3  C3  DEN d   1       5.952   0.661  -0.866  0.00  0.00     0.027 A 
ATOM      4  C4  DEN d   1       5.982   3.238  -0.761  0.00  0.00     0.027 A 
ATOM      5  C5  DEN d   1       5.997   4.327   0.083  0.00  0.00    -0.003 A 
ATOM      6  C6  DEN d   1       5.980   4.195   1.446  0.00  0.00     0.001 A 
ATOM      7  C7  DEN d   1       5.992   2.946   2.007  0.00  0.00     0.017 A 
ATOM      8  C8  DEN d   1       5.969   1.843   1.164  0.00  0.00    -0.094 A 
ATOM      9  C9  DEN d   1       5.999   1.997  -0.212  0.00  0.00    -0.072 A 
ENDROOT
TORSDOF 0
ENDMDL
