MODEL 1
REMARK minimizedAffinity 10.2602406
REMARK minimizedRMSD -1
REMARK  2 active torsions:
REMARK  status: ('A' for Active; 'I' for Inactive)
REMARK    1  A    between atoms: C1_2  and  C2_3 
REMARK    2  A    between atoms: C2_3  and  C3_4 
ROOT
ATOM      1  C3  UNL d   1       2.451   2.703   1.303  0.00  0.00    -0.075 A 
ATOM      2  C4  UNL d   1       1.250   3.426   1.300  0.00  0.00     0.002 A 
ATOM      3  C5  UNL d   1       0.071   2.839   0.837  0.00  0.00     0.002 A 
ATOM      4  C6  UNL d   1       0.081   1.529   0.363  0.00  0.00    -0.004 A 
ATOM      5  C7  UNL d   1       1.273   0.807   0.346  0.00  0.00     0.002 A 
ATOM      6  C8  UNL d   1       2.452   1.390   0.813  0.00  0.00     0.002 A 
ENDROOT
BRANCH   1   7
ATOM      7  C2  UNL d   1       3.724   3.322   1.830  0.00  0.00     0.056 C 
BRANCH   7   8
ATOM      8  C1  UNL d   1       3.854   3.277   3.356  0.00  0.00     0.007 C 
ATOM      9  C   UNL d   1       5.249   2.888   3.829  0.00  0.00     0.009 C 
ENDBRANCH   7   8
ENDBRANCH   1   7
TORSDOF 2
ENDMDL
