MODEL 1
REMARK minimizedAffinity 3.75332856
REMARK minimizedRMSD -1
REMARK  2 active torsions:
REMARK  status: ('A' for Active; 'I' for Inactive)
REMARK    1  A    between atoms: C1_2  and  C2_3 
REMARK    2  A    between atoms: C2_3  and  C3_4 
ROOT
ATOM      1  C3  UNL d   1       0.312  -2.555  -0.720  0.00  0.00    -0.075 A 
ATOM      2  C4  UNL d   1       0.461  -1.161  -0.734  0.00  0.00     0.002 A 
ATOM      3  C5  UNL d   1       1.668  -0.573  -0.354  0.00  0.00     0.002 A 
ATOM      4  C6  UNL d   1       2.736  -1.370   0.054  0.00  0.00    -0.004 A 
ATOM      5  C7  UNL d   1       2.594  -2.755   0.087  0.00  0.00     0.002 A 
ATOM      6  C8  UNL d   1       1.388  -3.346  -0.297  0.00  0.00     0.002 A 
ENDROOT
BRANCH   1   7
ATOM      7  C2  UNL d   1      -0.982  -3.198  -1.158  0.00  0.00     0.056 C 
BRANCH   7   8
ATOM      8  C1  UNL d   1      -0.898  -4.719  -1.324  0.00  0.00     0.007 C 
ATOM      9  C   UNL d   1      -1.574  -5.223  -2.592  0.00  0.00     0.009 C 
ENDBRANCH   7   8
ENDBRANCH   1   7
TORSDOF 2
ENDMDL
