MODEL 1
REMARK minimizedAffinity 4.47349977
REMARK minimizedRMSD -1
REMARK  2 active torsions:
REMARK  status: ('A' for Active; 'I' for Inactive)
REMARK    1  A    between atoms: C1_2  and  C2_3 
REMARK    2  A    between atoms: C2_3  and  C3_4 
ROOT
ATOM      1  C3  UNL d   1       3.397  -1.121   0.715  0.00  0.00    -0.075 A 
ATOM      2  C4  UNL d   1       2.991  -2.218   1.489  0.00  0.00     0.002 A 
ATOM      3  C5  UNL d   1       2.236  -3.245   0.921  0.00  0.00     0.002 A 
ATOM      4  C6  UNL d   1       1.870  -3.184  -0.422  0.00  0.00    -0.004 A 
ATOM      5  C7  UNL d   1       2.253  -2.090  -1.196  0.00  0.00     0.002 A 
ATOM      6  C8  UNL d   1       3.012  -1.064  -0.631  0.00  0.00     0.002 A 
ENDROOT
BRANCH   1   7
ATOM      7  C2  UNL d   1       4.239  -0.021   1.316  0.00  0.00     0.056 C 
BRANCH   7   8
ATOM      8  C1  UNL d   1       5.703  -0.411   1.547  0.00  0.00     0.007 C 
ATOM      9  C   UNL d   1       5.999  -0.805   2.988  0.00  0.00     0.009 C 
ENDBRANCH   7   8
ENDBRANCH   1   7
TORSDOF 2
ENDMDL
