MODEL 1
REMARK minimizedAffinity 2.26690817
REMARK minimizedRMSD -1
REMARK  2 active torsions:
REMARK  status: ('A' for Active; 'I' for Inactive)
REMARK    1  A    between atoms: C1_2  and  C2_3 
REMARK    2  A    between atoms: C2_3  and  C3_4 
ROOT
ATOM      1  C3  UNL d   1       1.949   0.040   0.241  0.00  0.00    -0.075 A 
ATOM      2  C4  UNL d   1       2.670  -0.300  -0.913  0.00  0.00     0.002 A 
ATOM      3  C5  UNL d   1       2.981  -1.632  -1.187  0.00  0.00     0.002 A 
ATOM      4  C6  UNL d   1       2.585  -2.638  -0.309  0.00  0.00    -0.004 A 
ATOM      5  C7  UNL d   1       1.882  -2.311   0.849  0.00  0.00     0.002 A 
ATOM      6  C8  UNL d   1       1.566  -0.979   1.124  0.00  0.00     0.002 A 
ENDROOT
BRANCH   1   7
ATOM      7  C2  UNL d   1       1.584   1.477   0.529  0.00  0.00     0.056 C 
BRANCH   7   8
ATOM      8  C1  UNL d   1       0.278   1.932  -0.131  0.00  0.00     0.007 C 
ATOM      9  C   UNL d   1      -0.272   3.225   0.457  0.00  0.00     0.009 C 
ENDBRANCH   7   8
ENDBRANCH   1   7
TORSDOF 2
ENDMDL
