MODEL 1
REMARK minimizedAffinity 4.88768673
REMARK minimizedRMSD -1
REMARK  2 active torsions:
REMARK  status: ('A' for Active; 'I' for Inactive)
REMARK    1  A    between atoms: C1_2  and  C2_3 
REMARK    2  A    between atoms: C2_3  and  C3_4 
ROOT
ATOM      1  C3  UNL d   1       2.282   0.432   0.011  0.00  0.00    -0.075 A 
ATOM      2  C4  UNL d   1       2.234  -0.515  -1.022  0.00  0.00     0.002 A 
ATOM      3  C5  UNL d   1       2.375  -1.874  -0.744  0.00  0.00     0.002 A 
ATOM      4  C6  UNL d   1       2.578  -2.303   0.566  0.00  0.00    -0.004 A 
ATOM      5  C7  UNL d   1       2.644  -1.369   1.598  0.00  0.00     0.002 A 
ATOM      6  C8  UNL d   1       2.498  -0.009   1.323  0.00  0.00     0.002 A 
ENDROOT
BRANCH   1   7
ATOM      7  C2  UNL d   1       2.100   1.903  -0.280  0.00  0.00     0.056 C 
BRANCH   7   8
ATOM      8  C1  UNL d   1       1.236   2.640   0.749  0.00  0.00     0.007 C 
ATOM      9  C   UNL d   1       0.688   3.964   0.235  0.00  0.00     0.009 C 
ENDBRANCH   7   8
ENDBRANCH   1   7
TORSDOF 2
ENDMDL
