MODEL 1
REMARK minimizedAffinity -4.34086084
REMARK minimizedRMSD -1
REMARK  2 active torsions:
REMARK  status: ('A' for Active; 'I' for Inactive)
REMARK    1  A    between atoms: C1_2  and  C2_3 
REMARK    2  A    between atoms: C2_3  and  C3_4 
ROOT
ATOM      1  C3  UNL d   1      -1.067   0.636   0.371  0.00  0.00    -0.075 A 
ATOM      2  C4  UNL d   1      -1.047   1.411   1.539  0.00  0.00     0.002 A 
ATOM      3  C5  UNL d   1      -2.238   1.773   2.170  0.00  0.00     0.002 A 
ATOM      4  C6  UNL d   1      -3.462   1.374   1.637  0.00  0.00    -0.004 A 
ATOM      5  C7  UNL d   1      -3.494   0.618   0.467  0.00  0.00     0.002 A 
ATOM      6  C8  UNL d   1      -2.304   0.250  -0.164  0.00  0.00     0.002 A 
ENDROOT
BRANCH   1   7
ATOM      7  C2  UNL d   1       0.219   0.216  -0.300  0.00  0.00     0.056 C 
BRANCH   7   8
ATOM      8  C1  UNL d   1       0.342  -1.295  -0.523  0.00  0.00     0.007 C 
ATOM      9  C   UNL d   1       1.770  -1.806  -0.395  0.00  0.00     0.009 C 
ENDBRANCH   7   8
ENDBRANCH   1   7
TORSDOF 2
ENDMDL
