MODEL 1
REMARK minimizedAffinity 6.37903786
REMARK minimizedRMSD -1
REMARK  2 active torsions:
REMARK  status: ('A' for Active; 'I' for Inactive)
REMARK    1  A    between atoms: C1_2  and  C2_3 
REMARK    2  A    between atoms: C2_3  and  C3_4 
ROOT
ATOM      1  C3  UNL d   1       0.811  -1.335  -0.443  0.00  0.00    -0.075 A 
ATOM      2  C4  UNL d   1       0.194  -0.099  -0.686  0.00  0.00     0.002 A 
ATOM      3  C5  UNL d   1      -0.779   0.024  -1.678  0.00  0.00     0.002 A 
ATOM      4  C6  UNL d   1      -1.141  -1.081  -2.445  0.00  0.00    -0.004 A 
ATOM      5  C7  UNL d   1      -0.522  -2.310  -2.223  0.00  0.00     0.002 A 
ATOM      6  C8  UNL d   1       0.449  -2.437  -1.228  0.00  0.00     0.002 A 
ENDROOT
BRANCH   1   7
ATOM      7  C2  UNL d   1       1.844  -1.481   0.648  0.00  0.00     0.056 C 
BRANCH   7   8
ATOM      8  C1  UNL d   1       1.302  -1.224   2.058  0.00  0.00     0.007 C 
ATOM      9  C   UNL d   1       1.590   0.183   2.565  0.00  0.00     0.009 C 
ENDBRANCH   7   8
ENDBRANCH   1   7
TORSDOF 2
ENDMDL
