MODEL 1
REMARK minimizedAffinity 2.80618811
REMARK minimizedRMSD -1
REMARK  2 active torsions:
REMARK  status: ('A' for Active; 'I' for Inactive)
REMARK    1  A    between atoms: C1_2  and  C2_3 
REMARK    2  A    between atoms: C2_3  and  C3_4 
ROOT
ATOM      1  C3  UNL d   1      -2.594   2.201   2.592  0.00  0.00    -0.075 A 
ATOM      2  C4  UNL d   1      -2.306   2.810   3.822  0.00  0.00     0.002 A 
ATOM      3  C5  UNL d   1      -1.039   3.339   4.071  0.00  0.00     0.002 A 
ATOM      4  C6  UNL d   1      -0.043   3.256   3.099  0.00  0.00    -0.004 A 
ATOM      5  C7  UNL d   1      -0.314   2.639   1.880  0.00  0.00     0.002 A 
ATOM      6  C8  UNL d   1      -1.582   2.113   1.627  0.00  0.00     0.002 A 
ENDROOT
BRANCH   1   7
ATOM      7  C2  UNL d   1      -3.972   1.653   2.306  0.00  0.00     0.056 C 
BRANCH   7   8
ATOM      8  C1  UNL d   1      -4.166   1.177   0.862  0.00  0.00     0.007 C 
ATOM      9  C   UNL d   1      -5.191   0.059   0.731  0.00  0.00     0.009 C 
ENDBRANCH   7   8
ENDBRANCH   1   7
TORSDOF 2
ENDMDL
