MODEL 1
REMARK minimizedAffinity 1.62301219
REMARK minimizedRMSD -1
REMARK  2 active torsions:
REMARK  status: ('A' for Active; 'I' for Inactive)
REMARK    1  A    between atoms: C1_2  and  C2_3 
REMARK    2  A    between atoms: C2_3  and  C3_4 
ROOT
ATOM      1  C3  UNL d   1      -0.121  -3.384   5.480  0.00  0.00    -0.075 A 
ATOM      2  C4  UNL d   1      -1.475  -3.645   5.736  0.00  0.00     0.002 A 
ATOM      3  C5  UNL d   1      -1.908  -4.945   6.000  0.00  0.00     0.002 A 
ATOM      4  C6  UNL d   1      -0.998  -6.000   6.000  0.00  0.00    -0.004 A 
ATOM      5  C7  UNL d   1       0.347  -5.754   5.730  0.00  0.00     0.002 A 
ATOM      6  C8  UNL d   1       0.784  -4.454   5.470  0.00  0.00     0.002 A 
ENDROOT
BRANCH   1   7
ATOM      7  C2  UNL d   1       0.359  -1.976   5.223  0.00  0.00     0.056 C 
BRANCH   7   8
ATOM      8  C1  UNL d   1       1.114  -1.806   3.900  0.00  0.00     0.007 C 
ATOM      9  C   UNL d   1       1.331  -0.348   3.516  0.00  0.00     0.009 C 
ENDBRANCH   7   8
ENDBRANCH   1   7
TORSDOF 2
ENDMDL
