MODEL 1
REMARK minimizedAffinity 2.43352675
REMARK minimizedRMSD -1
REMARK  1 active torsions:
REMARK  status: ('A' for Active; 'I' for Inactive)
REMARK    1  A    between atoms: C3_4  and  O_7 
ROOT
ATOM      1  C   UNL d   1      -0.164  -0.854   2.116  0.00  0.00    -0.033 A 
ATOM      2  C1  UNL d   1      -0.394  -0.030   3.219  0.00  0.00     0.039 A 
ATOM      3  C2  UNL d   1      -1.632   0.594   3.381  0.00  0.00    -0.080 A 
ATOM      4  C3  UNL d   1      -2.632   0.384   2.435  0.00  0.00     0.150 A 
ATOM      5  C4  UNL d   1      -2.411  -0.439   1.336  0.00  0.00    -0.007 A 
ATOM      6  C5  UNL d   1      -1.173  -1.060   1.175  0.00  0.00     0.039 A 
ENDROOT
BRANCH   4   7
ATOM      7  O   UNL d   1      -3.855   0.975   2.548  0.00  0.00    -0.526 OA
ATOM      8  H5  UNL d   1      -3.853   1.537   3.341  0.00  0.00     0.418 HD
ENDBRANCH   4   7
TORSDOF 1
ENDMDL
