MODEL 1
REMARK minimizedAffinity -4.24565935
REMARK minimizedRMSD -1
REMARK  1 active torsions:
REMARK  status: ('A' for Active; 'I' for Inactive)
REMARK    1  A    between atoms: C3_4  and  O_7 
ROOT
ATOM      1  C   UNL d   1      -0.281  -2.575  -3.255  0.00  0.00    -0.033 A 
ATOM      2  C1  UNL d   1      -0.388  -2.409  -4.637  0.00  0.00     0.039 A 
ATOM      3  C2  UNL d   1      -0.811  -1.187  -5.165  0.00  0.00    -0.080 A 
ATOM      4  C3  UNL d   1      -1.123  -0.141  -4.301  0.00  0.00     0.150 A 
ATOM      5  C4  UNL d   1      -1.015  -0.298  -2.923  0.00  0.00    -0.007 A 
ATOM      6  C5  UNL d   1      -0.594  -1.519  -2.398  0.00  0.00     0.039 A 
ENDROOT
BRANCH   4   7
ATOM      7  O   UNL d   1      -1.544   1.068  -4.768  0.00  0.00    -0.526 OA
ATOM      8  H5  UNL d   1      -1.598   1.021  -5.738  0.00  0.00     0.418 HD
ENDBRANCH   4   7
TORSDOF 1
ENDMDL
