MODEL 1
REMARK minimizedAffinity -1.34368849
REMARK minimizedRMSD -1
REMARK  1 active torsions:
REMARK  status: ('A' for Active; 'I' for Inactive)
REMARK    1  A    between atoms: C3_4  and  O_7 
ROOT
ATOM      1  C   UNL d   1      -1.430  -0.422   2.469  0.00  0.00    -0.033 A 
ATOM      2  C1  UNL d   1      -1.582  -0.957   1.189  0.00  0.00     0.039 A 
ATOM      3  C2  UNL d   1      -2.718  -0.657   0.435  0.00  0.00    -0.080 A 
ATOM      4  C3  UNL d   1      -3.693   0.179   0.972  0.00  0.00     0.150 A 
ATOM      5  C4  UNL d   1      -3.547   0.719   2.245  0.00  0.00    -0.007 A 
ATOM      6  C5  UNL d   1      -2.412   0.418   2.997  0.00  0.00     0.039 A 
ENDROOT
BRANCH   4   7
ATOM      7  O   UNL d   1      -4.822   0.496   0.276  0.00  0.00    -0.526 OA
ATOM      8  H5  UNL d   1      -4.800   0.028  -0.576  0.00  0.00     0.418 HD
ENDBRANCH   4   7
TORSDOF 1
ENDMDL
