MODEL 1
REMARK minimizedAffinity -1.9228338
REMARK minimizedRMSD -1
REMARK  1 active torsions:
REMARK  status: ('A' for Active; 'I' for Inactive)
REMARK    1  A    between atoms: C3_4  and  O_7 
ROOT
ATOM      1  C   UNL d   1      -2.124   0.034   1.635  0.00  0.00    -0.033 A 
ATOM      2  C1  UNL d   1      -2.422  -0.662   0.462  0.00  0.00     0.039 A 
ATOM      3  C2  UNL d   1      -3.641  -0.451  -0.187  0.00  0.00    -0.080 A 
ATOM      4  C3  UNL d   1      -4.550   0.458   0.346  0.00  0.00     0.150 A 
ATOM      5  C4  UNL d   1      -4.258   1.159   1.512  0.00  0.00    -0.007 A 
ATOM      6  C5  UNL d   1      -3.041   0.946   2.159  0.00  0.00     0.039 A 
ENDROOT
BRANCH   4   7
ATOM      7  O   UNL d   1      -5.753   0.694  -0.249  0.00  0.00    -0.526 OA
ATOM      8  H5  UNL d   1      -5.829   0.119  -1.028  0.00  0.00     0.418 HD
ENDBRANCH   4   7
TORSDOF 1
ENDMDL
