MODEL 1
REMARK minimizedAffinity -3.63471651
REMARK minimizedRMSD -1
REMARK  1 active torsions:
REMARK  status: ('A' for Active; 'I' for Inactive)
REMARK    1  A    between atoms: C3_4  and  O_7 
ROOT
ATOM      1  C   UNL d   1      -0.754  -0.358  -4.511  0.00  0.00    -0.033 A 
ATOM      2  C1  UNL d   1      -0.141  -1.136  -5.494  0.00  0.00     0.039 A 
ATOM      3  C2  UNL d   1       1.110  -0.771  -5.996  0.00  0.00    -0.080 A 
ATOM      4  C3  UNL d   1       1.737   0.371  -5.505  0.00  0.00     0.150 A 
ATOM      5  C4  UNL d   1       1.133   1.149  -4.523  0.00  0.00    -0.007 A 
ATOM      6  C5  UNL d   1      -0.117   0.784  -4.024  0.00  0.00     0.039 A 
ENDROOT
BRANCH   4   7
ATOM      7  O   UNL d   1       2.956   0.770  -5.968  0.00  0.00    -0.526 OA
ATOM      8  H5  UNL d   1       3.237   0.153  -6.664  0.00  0.00     0.418 HD
ENDBRANCH   4   7
TORSDOF 1
ENDMDL
