MODEL 1
REMARK minimizedAffinity 0.0721530989
REMARK minimizedRMSD -1
REMARK  1 active torsions:
REMARK  status: ('A' for Active; 'I' for Inactive)
REMARK    1  A    between atoms: C3_4  and  O_7 
ROOT
ATOM      1  C   UNL d   1       0.233  -2.529  -3.216  0.00  0.00    -0.033 A 
ATOM      2  C1  UNL d   1      -0.291  -1.540  -2.381  0.00  0.00     0.039 A 
ATOM      3  C2  UNL d   1      -0.773  -0.348  -2.926  0.00  0.00    -0.080 A 
ATOM      4  C3  UNL d   1      -0.727  -0.159  -4.304  0.00  0.00     0.150 A 
ATOM      5  C4  UNL d   1      -0.210  -1.142  -5.142  0.00  0.00    -0.007 A 
ATOM      6  C5  UNL d   1       0.272  -2.331  -4.596  0.00  0.00     0.039 A 
ENDROOT
BRANCH   4   7
ATOM      7  O   UNL d   1      -1.182   0.989  -4.882  0.00  0.00    -0.526 OA
ATOM      8  H5  UNL d   1      -1.483   1.589  -4.179  0.00  0.00     0.418 HD
ENDBRANCH   4   7
TORSDOF 1
ENDMDL
