MODEL 1
REMARK minimizedAffinity -1.91837764
REMARK minimizedRMSD -1
REMARK  1 active torsions:
REMARK  status: ('A' for Active; 'I' for Inactive)
REMARK    1  A    between atoms: C3_4  and  O_7 
ROOT
ATOM      1  C   UNL d   1      -1.542  -0.304   1.774  0.00  0.00    -0.033 A 
ATOM      2  C1  UNL d   1      -2.356   0.653   2.382  0.00  0.00     0.039 A 
ATOM      3  C2  UNL d   1      -3.579   1.000   1.805  0.00  0.00    -0.080 A 
ATOM      4  C3  UNL d   1      -3.976   0.383   0.622  0.00  0.00     0.150 A 
ATOM      5  C4  UNL d   1      -3.172  -0.574   0.013  0.00  0.00    -0.007 A 
ATOM      6  C5  UNL d   1      -1.950  -0.919   0.590  0.00  0.00     0.039 A 
ENDROOT
BRANCH   4   7
ATOM      7  O   UNL d   1      -5.159   0.692   0.019  0.00  0.00    -0.526 OA
ATOM      8  H5  UNL d   1      -5.595   1.389   0.537  0.00  0.00     0.418 HD
ENDBRANCH   4   7
TORSDOF 1
ENDMDL
