MODEL 1
REMARK minimizedAffinity 2.16877246
REMARK minimizedRMSD -1
REMARK  1 active torsions:
REMARK  status: ('A' for Active; 'I' for Inactive)
REMARK    1  A    between atoms: C3_4  and  O_7 
ROOT
ATOM      1  C   UNL d   1      -1.458  -0.600   2.052  0.00  0.00    -0.033 A 
ATOM      2  C1  UNL d   1      -2.209  -1.069   0.972  0.00  0.00     0.039 A 
ATOM      3  C2  UNL d   1      -3.444  -0.490   0.676  0.00  0.00    -0.080 A 
ATOM      4  C3  UNL d   1      -3.916   0.555   1.464  0.00  0.00     0.150 A 
ATOM      5  C4  UNL d   1      -3.172   1.030   2.539  0.00  0.00    -0.007 A 
ATOM      6  C5  UNL d   1      -1.938   0.450   2.834  0.00  0.00     0.039 A 
ENDROOT
BRANCH   4   7
ATOM      7  O   UNL d   1      -5.119   1.148   1.216  0.00  0.00    -0.526 OA
ATOM      8  H5  UNL d   1      -5.534   0.698   0.462  0.00  0.00     0.418 HD
ENDBRANCH   4   7
TORSDOF 1
ENDMDL
