MODEL 1
REMARK minimizedAffinity 10.371624
REMARK minimizedRMSD -1
REMARK  2 active torsions:
REMARK  status: ('A' for Active; 'I' for Inactive)
REMARK    1  A    between atoms: C2'_3  and  C1'_4 
REMARK    2  A    between atoms: C1'_4  and  C1_5 
ROOT
ATOM      1  C1  I4B d   1       2.630  -5.684   2.030  0.00  0.00    -0.075 A 
ATOM      2  C2  I4B d   1       1.789  -5.176   1.072  0.00  0.00     0.003 A 
ATOM      3  C3  I4B d   1       0.417  -4.978   1.361  0.00  0.00     0.002 A 
ATOM      4  C4  I4B d   1      -0.078  -5.348   2.595  0.00  0.00    -0.004 A 
ATOM      5  C5  I4B d   1       0.781  -5.842   3.573  0.00  0.00     0.002 A 
ATOM      6  C6  I4B d   1       2.146  -6.000   3.293  0.00  0.00     0.003 A 
ENDROOT
BRANCH   1   7
ATOM      7  C1' I4B d   1       4.067  -5.910   1.681  0.00  0.00     0.060 C 
BRANCH   7   8
ATOM      8  C2' I4B d   1       4.915  -5.121   2.658  0.00  0.00    -0.013 C 
ATOM      9  C4' I4B d   1       5.993  -5.981   3.263  0.00  0.00     0.013 C 
ATOM     10  C3' I4B d   1       5.502  -3.953   1.922  0.00  0.00     0.013 C 
ENDBRANCH   7   8
ENDBRANCH   1   7
TORSDOF 2
ENDMDL
