MODEL 1
REMARK minimizedAffinity 12.9867039
REMARK minimizedRMSD -1
REMARK  2 active torsions:
REMARK  status: ('A' for Active; 'I' for Inactive)
REMARK    1  A    between atoms: C2'_3  and  C1'_4 
REMARK    2  A    between atoms: C1'_4  and  C1_5 
ROOT
ATOM      1  C1  I4B d   1      -2.296   0.601   1.898  0.00  0.00    -0.075 A 
ATOM      2  C2  I4B d   1      -3.120   0.600   0.800  0.00  0.00     0.003 A 
ATOM      3  C3  I4B d   1      -4.516   0.773   0.956  0.00  0.00     0.002 A 
ATOM      4  C4  I4B d   1      -5.049   0.892   2.224  0.00  0.00    -0.004 A 
ATOM      5  C5  I4B d   1      -4.210   0.916   3.334  0.00  0.00     0.002 A 
ATOM      6  C6  I4B d   1      -2.823   0.782   3.170  0.00  0.00     0.003 A 
ENDROOT
BRANCH   1   7
ATOM      7  C1' I4B d   1      -0.830   0.383   1.699  0.00  0.00     0.060 C 
BRANCH   7   8
ATOM      8  C2' I4B d   1      -0.175   0.339   3.065  0.00  0.00    -0.013 C 
ATOM      9  C4' I4B d   1       0.130  -1.077   3.478  0.00  0.00     0.013 C 
ATOM     10  C3' I4B d   1       1.074   1.167   3.006  0.00  0.00     0.013 C 
ENDBRANCH   7   8
ENDBRANCH   1   7
TORSDOF 2
ENDMDL
