MODEL 1
REMARK minimizedAffinity 6.08907318
REMARK minimizedRMSD -1
REMARK  2 active torsions:
REMARK  status: ('A' for Active; 'I' for Inactive)
REMARK    1  A    between atoms: C2'_3  and  C1'_4 
REMARK    2  A    between atoms: C1'_4  and  C1_5 
ROOT
ATOM      1  C1  I4B d   1       3.568  -5.629   1.877  0.00  0.00    -0.075 A 
ATOM      2  C2  I4B d   1       3.028  -6.000   3.084  0.00  0.00     0.003 A 
ATOM      3  C3  I4B d   1       1.698  -5.639   3.410  0.00  0.00     0.002 A 
ATOM      4  C4  I4B d   1       0.967  -4.869   2.529  0.00  0.00    -0.004 A 
ATOM      5  C5  I4B d   1       1.508  -4.514   1.297  0.00  0.00     0.002 A 
ATOM      6  C6  I4B d   1       2.812  -4.907   0.963  0.00  0.00     0.003 A 
ENDROOT
BRANCH   1   7
ATOM      7  C1' I4B d   1       4.986  -5.999   1.578  0.00  0.00     0.060 C 
BRANCH   7   8
ATOM      8  C2' I4B d   1       5.881  -5.209   2.510  0.00  0.00    -0.013 C 
ATOM      9  C4' I4B d   1       5.339  -3.823   2.742  0.00  0.00     0.013 C 
ATOM     10  C3' I4B d   1       5.994  -5.968   3.798  0.00  0.00     0.013 C 
ENDBRANCH   7   8
ENDBRANCH   1   7
TORSDOF 2
ENDMDL
