MODEL 1
REMARK minimizedAffinity 18.347086
REMARK minimizedRMSD -1
REMARK  2 active torsions:
REMARK  status: ('A' for Active; 'I' for Inactive)
REMARK    1  A    between atoms: C2'_3  and  C1'_4 
REMARK    2  A    between atoms: C1'_4  and  C1_5 
ROOT
ATOM      1  C1  I4B d   1      -5.346   3.530   3.935  0.00  0.00    -0.075 A 
ATOM      2  C2  I4B d   1      -5.999   3.719   5.127  0.00  0.00     0.003 A 
ATOM      3  C3  I4B d   1      -5.834   4.927   5.846  0.00  0.00     0.002 A 
ATOM      4  C4  I4B d   1      -4.972   5.892   5.366  0.00  0.00    -0.004 A 
ATOM      5  C5  I4B d   1      -4.328   5.708   4.146  0.00  0.00     0.002 A 
ATOM      6  C6  I4B d   1      -4.525   4.525   3.419  0.00  0.00     0.003 A 
ENDROOT
BRANCH   1   7
ATOM      7  C1' I4B d   1      -5.517   2.229   3.217  0.00  0.00     0.060 C 
BRANCH   7   8
ATOM      8  C2' I4B d   1      -4.897   2.369   1.841  0.00  0.00    -0.013 C 
ATOM      9  C4' I4B d   1      -3.848   1.314   1.606  0.00  0.00     0.013 C 
ATOM     10  C3' I4B d   1      -5.997   2.275   0.826  0.00  0.00     0.013 C 
ENDBRANCH   7   8
ENDBRANCH   1   7
TORSDOF 2
ENDMDL
