MODEL 1
REMARK minimizedAffinity 12.8765965
REMARK minimizedRMSD -1
REMARK  2 active torsions:
REMARK  status: ('A' for Active; 'I' for Inactive)
REMARK    1  A    between atoms: C2'_3  and  C1'_4 
REMARK    2  A    between atoms: C1'_4  and  C1_5 
ROOT
ATOM      1  C1  I4B d   1      -1.810   0.743   1.847  0.00  0.00    -0.075 A 
ATOM      2  C2  I4B d   1      -0.831   1.705   1.823  0.00  0.00     0.003 A 
ATOM      3  C3  I4B d   1       0.489   1.389   2.225  0.00  0.00     0.002 A 
ATOM      4  C4  I4B d   1       0.773   0.121   2.690  0.00  0.00    -0.004 A 
ATOM      5  C5  I4B d   1      -0.215  -0.860   2.692  0.00  0.00     0.002 A 
ATOM      6  C6  I4B d   1      -1.512  -0.551   2.256  0.00  0.00     0.003 A 
ENDROOT
BRANCH   1   7
ATOM      7  C1' I4B d   1      -3.201   1.119   1.446  0.00  0.00     0.060 C 
BRANCH   7   8
ATOM      8  C2' I4B d   1      -4.165   0.304   2.284  0.00  0.00    -0.013 C 
ATOM      9  C4' I4B d   1      -5.180   1.188   2.962  0.00  0.00     0.013 C 
ATOM     10  C3' I4B d   1      -4.831  -0.694   1.385  0.00  0.00     0.013 C 
ENDBRANCH   7   8
ENDBRANCH   1   7
TORSDOF 2
ENDMDL
