MODEL 1
REMARK minimizedAffinity 6.39406824
REMARK minimizedRMSD -1
REMARK  2 active torsions:
REMARK  status: ('A' for Active; 'I' for Inactive)
REMARK    1  A    between atoms: C2'_3  and  C1'_4 
REMARK    2  A    between atoms: C1'_4  and  C1_5 
ROOT
ATOM      1  C1  I4B d   1      -1.436   1.685   2.893  0.00  0.00    -0.075 A 
ATOM      2  C2  I4B d   1      -0.543   2.512   3.528  0.00  0.00     0.003 A 
ATOM      3  C3  I4B d   1       0.702   2.007   3.975  0.00  0.00     0.002 A 
ATOM      4  C4  I4B d   1       0.989   0.667   3.814  0.00  0.00    -0.004 A 
ATOM      5  C5  I4B d   1       0.092  -0.165   3.150  0.00  0.00     0.002 A 
ATOM      6  C6  I4B d   1      -1.123   0.350   2.675  0.00  0.00     0.003 A 
ENDROOT
BRANCH   1   7
ATOM      7  C1' I4B d   1      -2.756   2.244   2.463  0.00  0.00     0.060 C 
BRANCH   7   8
ATOM      8  C2' I4B d   1      -3.755   1.106   2.425  0.00  0.00    -0.013 C 
ATOM      9  C4' I4B d   1      -4.836   1.295   3.456  0.00  0.00     0.013 C 
ATOM     10  C3' I4B d   1      -4.330   1.041   1.042  0.00  0.00     0.013 C 
ENDBRANCH   7   8
ENDBRANCH   1   7
TORSDOF 2
ENDMDL
