MODEL 1
REMARK minimizedAffinity 7.30172539
REMARK minimizedRMSD -1
REMARK  2 active torsions:
REMARK  status: ('A' for Active; 'I' for Inactive)
REMARK    1  A    between atoms: C2'_3  and  C1'_4 
REMARK    2  A    between atoms: C1'_4  and  C1_5 
ROOT
ATOM      1  C1  I4B d   1      -4.708  -0.540   2.894  0.00  0.00    -0.075 A 
ATOM      2  C2  I4B d   1      -3.554  -0.374   3.619  0.00  0.00     0.003 A 
ATOM      3  C3  I4B d   1      -2.489   0.397   3.096  0.00  0.00     0.002 A 
ATOM      4  C4  I4B d   1      -2.598   0.939   1.831  0.00  0.00    -0.004 A 
ATOM      5  C5  I4B d   1      -3.777   0.789   1.107  0.00  0.00     0.002 A 
ATOM      6  C6  I4B d   1      -4.844   0.055   1.646  0.00  0.00     0.003 A 
ENDROOT
BRANCH   1   7
ATOM      7  C1' I4B d   1      -5.801  -1.388   3.463  0.00  0.00     0.060 C 
BRANCH   7   8
ATOM      8  C2' I4B d   1      -5.216  -2.748   3.787  0.00  0.00    -0.013 C 
ATOM      9  C4' I4B d   1      -5.248  -3.015   5.269  0.00  0.00     0.013 C 
ATOM     10  C3' I4B d   1      -5.999  -3.781   3.034  0.00  0.00     0.013 C 
ENDBRANCH   7   8
ENDBRANCH   1   7
TORSDOF 2
ENDMDL
