MODEL 1
REMARK minimizedAffinity 9.96459293
REMARK minimizedRMSD -1
REMARK  2 active torsions:
REMARK  status: ('A' for Active; 'I' for Inactive)
REMARK    1  A    between atoms: C2'_3  and  C1'_4 
REMARK    2  A    between atoms: C1'_4  and  C1_5 
ROOT
ATOM      1  C1  I4B d   1      -3.314  -0.811   1.191  0.00  0.00    -0.075 A 
ATOM      2  C2  I4B d   1      -2.149  -0.115   0.982  0.00  0.00     0.003 A 
ATOM      3  C3  I4B d   1      -2.016   1.212   1.458  0.00  0.00     0.002 A 
ATOM      4  C4  I4B d   1      -3.083   1.818   2.089  0.00  0.00    -0.004 A 
ATOM      5  C5  I4B d   1      -4.255   1.103   2.320  0.00  0.00     0.002 A 
ATOM      6  C6  I4B d   1      -4.368  -0.223   1.879  0.00  0.00     0.003 A 
ENDROOT
BRANCH   1   7
ATOM      7  C1' I4B d   1      -3.432  -2.199   0.646  0.00  0.00     0.060 C 
BRANCH   7   8
ATOM      8  C2' I4B d   1      -2.544  -3.103   1.475  0.00  0.00    -0.013 C 
ATOM      9  C4' I4B d   1      -3.174  -4.457   1.670  0.00  0.00     0.013 C 
ATOM     10  C3' I4B d   1      -1.220  -3.217   0.779  0.00  0.00     0.013 C 
ENDBRANCH   7   8
ENDBRANCH   1   7
TORSDOF 2
ENDMDL
