MODEL 1
REMARK minimizedAffinity 7.54107237
REMARK minimizedRMSD -1
REMARK  2 active torsions:
REMARK  status: ('A' for Active; 'I' for Inactive)
REMARK    1  A    between atoms: C2'_3  and  C1'_4 
REMARK    2  A    between atoms: C1'_4  and  C1_5 
ROOT
ATOM      1  C1  I4B d   1      -2.505   0.733   1.903  0.00  0.00    -0.075 A 
ATOM      2  C2  I4B d   1      -3.411   0.193   1.024  0.00  0.00     0.003 A 
ATOM      3  C3  I4B d   1      -4.790   0.485   1.154  0.00  0.00     0.002 A 
ATOM      4  C4  I4B d   1      -5.223   1.274   2.200  0.00  0.00    -0.004 A 
ATOM      5  C5  I4B d   1      -4.301   1.838   3.076  0.00  0.00     0.002 A 
ATOM      6  C6  I4B d   1      -2.932   1.577   2.920  0.00  0.00     0.003 A 
ENDROOT
BRANCH   1   7
ATOM      7  C1' I4B d   1      -1.059   0.378   1.756  0.00  0.00     0.060 C 
BRANCH   7   8
ATOM      8  C2' I4B d   1      -0.443   0.351   3.140  0.00  0.00    -0.013 C 
ATOM      9  C4' I4B d   1       0.068  -1.024   3.483  0.00  0.00     0.013 C 
ATOM     10  C3' I4B d   1       0.663   1.363   3.174  0.00  0.00     0.013 C 
ENDBRANCH   7   8
ENDBRANCH   1   7
TORSDOF 2
ENDMDL
