MODEL 1
REMARK minimizedAffinity 3.07713985
REMARK minimizedRMSD -1
REMARK  2 active torsions:
REMARK  status: ('A' for Active; 'I' for Inactive)
REMARK    1  A    between atoms: C2'_3  and  C1'_4 
REMARK    2  A    between atoms: C1'_4  and  C1_5 
ROOT
ATOM      1  C1  I4B d   1      -1.788   0.580   3.117  0.00  0.00    -0.075 A 
ATOM      2  C2  I4B d   1      -1.905   0.371   1.765  0.00  0.00     0.003 A 
ATOM      3  C3  I4B d   1      -3.151  -0.004   1.207  0.00  0.00     0.002 A 
ATOM      4  C4  I4B d   1      -4.234  -0.208   2.038  0.00  0.00    -0.004 A 
ATOM      5  C5  I4B d   1      -4.119   0.027   3.405  0.00  0.00     0.002 A 
ATOM      6  C6  I4B d   1      -2.892   0.435   3.947  0.00  0.00     0.003 A 
ENDROOT
BRANCH   1   7
ATOM      7  C1' I4B d   1      -0.449   0.943   3.677  0.00  0.00     0.060 C 
BRANCH   7   8
ATOM      8  C2' I4B d   1       0.509  -0.189   3.369  0.00  0.00    -0.013 C 
ATOM      9  C4' I4B d   1       1.921   0.173   3.747  0.00  0.00     0.013 C 
ATOM     10  C3' I4B d   1       0.044  -1.405   4.113  0.00  0.00     0.013 C 
ENDBRANCH   7   8
ENDBRANCH   1   7
TORSDOF 2
ENDMDL
