MODEL 1
REMARK minimizedAffinity -1.26422811
REMARK minimizedRMSD -1
REMARK  2 active torsions:
REMARK  status: ('A' for Active; 'I' for Inactive)
REMARK    1  A    between atoms: C2'_3  and  C1'_4 
REMARK    2  A    between atoms: C1'_4  and  C1_5 
ROOT
ATOM      1  C1  I4B d   1      -0.333  -5.003   0.515  0.00  0.00    -0.075 A 
ATOM      2  C2  I4B d   1      -1.236  -6.000   0.787  0.00  0.00     0.003 A 
ATOM      3  C3  I4B d   1      -2.605  -5.691   0.973  0.00  0.00     0.002 A 
ATOM      4  C4  I4B d   1      -3.017  -4.374   0.928  0.00  0.00    -0.004 A 
ATOM      5  C5  I4B d   1      -2.104  -3.367   0.630  0.00  0.00     0.002 A 
ATOM      6  C6  I4B d   1      -0.756  -3.684   0.409  0.00  0.00     0.003 A 
ENDROOT
BRANCH   1   7
ATOM      7  C1' I4B d   1       1.110  -5.361   0.356  0.00  0.00     0.060 C 
BRANCH   7   8
ATOM      8  C2' I4B d   1       1.613  -5.873   1.691  0.00  0.00    -0.013 C 
ATOM      9  C4' I4B d   1       3.114  -6.000   1.696  0.00  0.00     0.013 C 
ATOM     10  C3' I4B d   1       1.146  -4.927   2.756  0.00  0.00     0.013 C 
ENDBRANCH   7   8
ENDBRANCH   1   7
TORSDOF 2
ENDMDL
