MODEL 1
REMARK minimizedAffinity 5.41774511
REMARK minimizedRMSD -1
REMARK  2 active torsions:
REMARK  status: ('A' for Active; 'I' for Inactive)
REMARK    1  A    between atoms: C2'_3  and  C1'_4 
REMARK    2  A    between atoms: C1'_4  and  C1_5 
ROOT
ATOM      1  C1  I4B d   1       2.297   0.070   2.195  0.00  0.00    -0.075 A 
ATOM      2  C2  I4B d   1       3.620  -0.223   2.415  0.00  0.00     0.003 A 
ATOM      3  C3  I4B d   1       4.508  -0.376   1.323  0.00  0.00     0.002 A 
ATOM      4  C4  I4B d   1       4.023  -0.280   0.034  0.00  0.00    -0.004 A 
ATOM      5  C5  I4B d   1       2.686   0.040  -0.186  0.00  0.00     0.002 A 
ATOM      6  C6  I4B d   1       1.820   0.228   0.901  0.00  0.00     0.003 A 
ENDROOT
BRANCH   1   7
ATOM      7  C1' I4B d   1       1.381   0.193   3.371  0.00  0.00     0.060 C 
BRANCH   7   8
ATOM      8  C2' I4B d   1       0.467   1.377   3.129  0.00  0.00    -0.013 C 
ATOM      9  C4' I4B d   1      -0.978   1.000   3.323  0.00  0.00     0.013 C 
ATOM     10  C3' I4B d   1       0.871   2.473   4.070  0.00  0.00     0.013 C 
ENDBRANCH   7   8
ENDBRANCH   1   7
TORSDOF 2
ENDMDL
