MODEL 1
REMARK minimizedAffinity 13.7929659
REMARK minimizedRMSD -1
REMARK  2 active torsions:
REMARK  status: ('A' for Active; 'I' for Inactive)
REMARK    1  A    between atoms: C2'_3  and  C1'_4 
REMARK    2  A    between atoms: C1'_4  and  C1_5 
ROOT
ATOM      1  C1  I4B d   1      -4.360   1.923   2.048  0.00  0.00    -0.075 A 
ATOM      2  C2  I4B d   1      -5.194   1.863   0.960  0.00  0.00     0.003 A 
ATOM      3  C3  I4B d   1      -5.122   0.766   0.067  0.00  0.00     0.002 A 
ATOM      4  C4  I4B d   1      -4.175  -0.217   0.271  0.00  0.00    -0.004 A 
ATOM      5  C5  I4B d   1      -3.346  -0.166   1.388  0.00  0.00     0.002 A 
ATOM      6  C6  I4B d   1      -3.447   0.904   2.289  0.00  0.00     0.003 A 
ENDROOT
BRANCH   1   7
ATOM      7  C1' I4B d   1      -4.439   3.112   2.952  0.00  0.00     0.060 C 
BRANCH   7   8
ATOM      8  C2' I4B d   1      -5.799   3.101   3.620  0.00  0.00    -0.013 C 
ATOM      9  C4' I4B d   1      -5.911   1.972   4.610  0.00  0.00     0.013 C 
ATOM     10  C3' I4B d   1      -5.998   4.429   4.287  0.00  0.00     0.013 C 
ENDBRANCH   7   8
ENDBRANCH   1   7
TORSDOF 2
ENDMDL
