MODEL 1
REMARK minimizedAffinity 9.43676376
REMARK minimizedRMSD -1
REMARK  2 active torsions:
REMARK  status: ('A' for Active; 'I' for Inactive)
REMARK    1  A    between atoms: C2'_3  and  C1'_4 
REMARK    2  A    between atoms: C1'_4  and  C1_5 
ROOT
ATOM      1  C1  I4B d   1       1.714  -0.241   5.609  0.00  0.00    -0.075 A 
ATOM      2  C2  I4B d   1       0.356  -0.044   5.634  0.00  0.00     0.003 A 
ATOM      3  C3  I4B d   1      -0.518  -1.134   5.858  0.00  0.00     0.002 A 
ATOM      4  C4  I4B d   1       0.002  -2.405   5.999  0.00  0.00    -0.004 A 
ATOM      5  C5  I4B d   1       1.380  -2.600   5.996  0.00  0.00     0.002 A 
ATOM      6  C6  I4B d   1       2.243  -1.509   5.812  0.00  0.00     0.003 A 
ENDROOT
BRANCH   1   7
ATOM      7  C1' I4B d   1       2.608   0.928   5.337  0.00  0.00     0.060 C 
BRANCH   7   8
ATOM      8  C2' I4B d   1       2.222   1.507   3.992  0.00  0.00    -0.013 C 
ATOM      9  C4' I4B d   1       1.943   2.984   4.094  0.00  0.00     0.013 C 
ATOM     10  C3' I4B d   1       3.341   1.233   3.032  0.00  0.00     0.013 C 
ENDBRANCH   7   8
ENDBRANCH   1   7
TORSDOF 2
ENDMDL
