MODEL 1
REMARK minimizedAffinity 0.0790417418
REMARK minimizedRMSD -1
REMARK  2 active torsions:
REMARK  status: ('A' for Active; 'I' for Inactive)
REMARK    1  A    between atoms: C2'_3  and  C1'_4 
REMARK    2  A    between atoms: C1'_4  and  C1_5 
ROOT
ATOM      1  C1  I4B d   1      -3.678  -0.838   1.924  0.00  0.00    -0.075 A 
ATOM      2  C2  I4B d   1      -4.859  -0.816   1.225  0.00  0.00     0.003 A 
ATOM      3  C3  I4B d   1      -4.863  -1.022  -0.175  0.00  0.00     0.002 A 
ATOM      4  C4  I4B d   1      -3.666  -1.196  -0.840  0.00  0.00    -0.004 A 
ATOM      5  C5  I4B d   1      -2.472  -1.240  -0.127  0.00  0.00     0.002 A 
ATOM      6  C6  I4B d   1      -2.478  -1.072   1.265  0.00  0.00     0.003 A 
ENDROOT
BRANCH   1   7
ATOM      7  C1' I4B d   1      -3.707  -0.583   3.397  0.00  0.00     0.060 C 
BRANCH   7   8
ATOM      8  C2' I4B d   1      -2.291  -0.284   3.848  0.00  0.00    -0.013 C 
ATOM      9  C4' I4B d   1      -1.760   0.960   3.186  0.00  0.00     0.013 C 
ATOM     10  C3' I4B d   1      -2.300  -0.143   5.340  0.00  0.00     0.013 C 
ENDBRANCH   7   8
ENDBRANCH   1   7
TORSDOF 2
ENDMDL
