MODEL 1
REMARK minimizedAffinity 0.78806901
REMARK minimizedRMSD -1
REMARK  2 active torsions:
REMARK  status: ('A' for Active; 'I' for Inactive)
REMARK    1  A    between atoms: C2'_3  and  C1'_4 
REMARK    2  A    between atoms: C1'_4  and  C1_5 
ROOT
ATOM      1  C1  I4B d   1      -2.467  -0.229   1.222  0.00  0.00    -0.075 A 
ATOM      2  C2  I4B d   1      -1.373  -0.269   0.393  0.00  0.00     0.003 A 
ATOM      3  C3  I4B d   1      -0.156   0.336   0.791  0.00  0.00     0.002 A 
ATOM      4  C4  I4B d   1      -0.092   1.007   1.995  0.00  0.00    -0.004 A 
ATOM      5  C5  I4B d   1      -1.195   1.026   2.843  0.00  0.00     0.002 A 
ATOM      6  C6  I4B d   1      -2.387   0.394   2.460  0.00  0.00     0.003 A 
ENDROOT
BRANCH   1   7
ATOM      7  C1' I4B d   1      -3.747  -0.849   0.756  0.00  0.00     0.060 C 
BRANCH   7   8
ATOM      8  C2' I4B d   1      -4.677   0.267   0.327  0.00  0.00    -0.013 C 
ATOM      9  C4' I4B d   1      -5.634  -0.200  -0.737  0.00  0.00     0.013 C 
ATOM     10  C3' I4B d   1      -5.411   0.751   1.542  0.00  0.00     0.013 C 
ENDBRANCH   7   8
ENDBRANCH   1   7
TORSDOF 2
ENDMDL
