MODEL 1
REMARK minimizedAffinity -2.86308932
REMARK minimizedRMSD -1
REMARK  2 active torsions:
REMARK  status: ('A' for Active; 'I' for Inactive)
REMARK    1  A    between atoms: C2'_3  and  C1'_4 
REMARK    2  A    between atoms: C1'_4  and  C1_5 
ROOT
ATOM      1  C1  I4B d   1      -4.677   5.908   3.080  0.00  0.00    -0.075 A 
ATOM      2  C2  I4B d   1      -4.940   5.951   1.733  0.00  0.00     0.003 A 
ATOM      3  C3  I4B d   1      -3.877   5.973   0.799  0.00  0.00     0.002 A 
ATOM      4  C4  I4B d   1      -2.574   6.000   1.253  0.00  0.00    -0.004 A 
ATOM      5  C5  I4B d   1      -2.308   5.932   2.617  0.00  0.00     0.002 A 
ATOM      6  C6  I4B d   1      -3.365   5.873   3.537  0.00  0.00     0.003 A 
ENDROOT
BRANCH   1   7
ATOM      7  C1' I4B d   1      -5.824   5.919   4.040  0.00  0.00     0.060 C 
BRANCH   7   8
ATOM      8  C2' I4B d   1      -5.957   4.528   4.625  0.00  0.00    -0.013 C 
ATOM      9  C4' I4B d   1      -5.284   3.502   3.751  0.00  0.00     0.013 C 
ATOM     10  C3' I4B d   1      -5.359   4.545   6.000  0.00  0.00     0.013 C 
ENDBRANCH   7   8
ENDBRANCH   1   7
TORSDOF 2
ENDMDL
