MODEL 1
REMARK minimizedAffinity 7.89728165
REMARK minimizedRMSD -1
REMARK  2 active torsions:
REMARK  status: ('A' for Active; 'I' for Inactive)
REMARK    1  A    between atoms: C2'_3  and  C1'_4 
REMARK    2  A    between atoms: C1'_4  and  C1_5 
ROOT
ATOM      1  C1  I4B d   1       1.355   1.799   0.835  0.00  0.00    -0.075 A 
ATOM      2  C2  I4B d   1       1.433   0.446   0.621  0.00  0.00     0.003 A 
ATOM      3  C3  I4B d   1       2.599  -0.120   0.052  0.00  0.00     0.002 A 
ATOM      4  C4  I4B d   1       3.636   0.705  -0.334  0.00  0.00    -0.004 A 
ATOM      5  C5  I4B d   1       3.565   2.075  -0.095  0.00  0.00     0.002 A 
ATOM      6  C6  I4B d   1       2.422   2.624   0.504  0.00  0.00     0.003 A 
ENDROOT
BRANCH   1   7
ATOM      7  C1' I4B d   1       0.095   2.367   1.408  0.00  0.00     0.060 C 
BRANCH   7   8
ATOM      8  C2' I4B d   1       0.240   2.395   2.916  0.00  0.00    -0.013 C 
ATOM      9  C4' I4B d   1       0.048   1.024   3.508  0.00  0.00     0.013 C 
ATOM     10  C3' I4B d   1       1.599   2.940   3.241  0.00  0.00     0.013 C 
ENDBRANCH   7   8
ENDBRANCH   1   7
TORSDOF 2
ENDMDL
