MODEL 1
REMARK minimizedAffinity -3.56849408
REMARK minimizedRMSD -1
REMARK  1 active torsions:
REMARK  status: ('A' for Active; 'I' for Inactive)
REMARK    1  A    between atoms: C1_2  and  C2_3 
ROOT
ATOM      1  C2  UNL d   1       0.027  -1.076   0.330  0.00  0.00    -0.081 A 
ATOM      2  C3  UNL d   1       0.200  -1.443  -1.010  0.00  0.00     0.006 A 
ATOM      3  C4  UNL d   1       0.224  -2.791  -1.377  0.00  0.00     0.002 A 
ATOM      4  C5  UNL d   1       0.067  -3.792  -0.413  0.00  0.00    -0.080 A 
ATOM      5  C6  UNL d   1       0.060  -5.242  -0.799  0.00  0.00     0.076 C 
ATOM      6  C7  UNL d   1      -0.089  -3.426   0.928  0.00  0.00     0.002 A 
ATOM      7  C8  UNL d   1      -0.112  -2.079   1.296  0.00  0.00     0.006 A 
ENDROOT
BRANCH   1   8
ATOM      8  C1  UNL d   1      -0.063   0.377   0.721  0.00  0.00     0.054 C 
ATOM      9  C   UNL d   1      -1.446   0.721   1.256  0.00  0.00     0.018 C 
ENDBRANCH   1   8
TORSDOF 1
ENDMDL
