MODEL 1
REMARK minimizedAffinity -0.16686818
REMARK minimizedRMSD -1
REMARK  1 active torsions:
REMARK  status: ('A' for Active; 'I' for Inactive)
REMARK    1  A    between atoms: C1_2  and  C2_3 
ROOT
ATOM      1  C2  UNL d   1      -1.240  -0.107   1.399  0.00  0.00    -0.081 A 
ATOM      2  C3  UNL d   1      -0.943   1.061   0.684  0.00  0.00     0.006 A 
ATOM      3  C4  UNL d   1      -0.264   0.992  -0.534  0.00  0.00     0.002 A 
ATOM      4  C5  UNL d   1       0.123  -0.244  -1.062  0.00  0.00    -0.080 A 
ATOM      5  C6  UNL d   1       0.827  -0.334  -2.384  0.00  0.00     0.076 C 
ATOM      6  C7  UNL d   1      -0.157  -1.409  -0.341  0.00  0.00     0.002 A 
ATOM      7  C8  UNL d   1      -0.836  -1.341   0.878  0.00  0.00     0.006 A 
ENDROOT
BRANCH   1   8
ATOM      8  C1  UNL d   1      -2.029  -0.041   2.681  0.00  0.00     0.054 C 
ATOM      9  C   UNL d   1      -3.311   0.759   2.501  0.00  0.00     0.018 C 
ENDBRANCH   1   8
TORSDOF 1
ENDMDL
