MODEL 1
REMARK minimizedAffinity -4.48569727
REMARK minimizedRMSD -1
REMARK  1 active torsions:
REMARK  status: ('A' for Active; 'I' for Inactive)
REMARK    1  A    between atoms: C1_2  and  C2_3 
ROOT
ATOM      1  C2  UNL d   1       0.217   1.178   0.021  0.00  0.00    -0.081 A 
ATOM      2  C3  UNL d   1      -0.607   0.676   1.036  0.00  0.00     0.006 A 
ATOM      3  C4  UNL d   1      -0.777  -0.702   1.194  0.00  0.00     0.002 A 
ATOM      4  C5  UNL d   1      -0.120  -1.600   0.345  0.00  0.00    -0.080 A 
ATOM      5  C6  UNL d   1      -0.270  -3.081   0.523  0.00  0.00     0.076 C 
ATOM      6  C7  UNL d   1       0.689  -1.098  -0.679  0.00  0.00     0.002 A 
ATOM      7  C8  UNL d   1       0.859   0.279  -0.838  0.00  0.00     0.006 A 
ENDROOT
BRANCH   1   8
ATOM      8  C1  UNL d   1       0.454   2.660  -0.111  0.00  0.00     0.054 C 
ATOM      9  C   UNL d   1       1.790   3.064   0.497  0.00  0.00     0.018 C 
ENDBRANCH   1   8
TORSDOF 1
ENDMDL
