MODEL 1
REMARK minimizedAffinity -1.36872375
REMARK minimizedRMSD -1
REMARK  1 active torsions:
REMARK  status: ('A' for Active; 'I' for Inactive)
REMARK    1  A    between atoms: C1_2  and  C2_3 
ROOT
ATOM      1  C2  UNL d   1      -0.122  -1.467  -0.727  0.00  0.00    -0.081 A 
ATOM      2  C3  UNL d   1      -0.599  -0.236  -0.261  0.00  0.00     0.006 A 
ATOM      3  C4  UNL d   1      -1.226  -0.145   0.984  0.00  0.00     0.002 A 
ATOM      4  C5  UNL d   1      -1.379  -1.281   1.787  0.00  0.00    -0.080 A 
ATOM      5  C6  UNL d   1      -2.022  -1.191   3.138  0.00  0.00     0.076 C 
ATOM      6  C7  UNL d   1      -0.918  -2.514   1.313  0.00  0.00     0.002 A 
ATOM      7  C8  UNL d   1      -0.292  -2.606   0.068  0.00  0.00     0.006 A 
ENDROOT
BRANCH   1   8
ATOM      8  C1  UNL d   1       0.611  -1.557  -2.041  0.00  0.00     0.054 C 
ATOM      9  C   UNL d   1       0.392  -0.309  -2.884  0.00  0.00     0.018 C 
ENDBRANCH   1   8
TORSDOF 1
ENDMDL
