MODEL 1
REMARK minimizedAffinity -2.02479339
REMARK minimizedRMSD -1
REMARK  1 active torsions:
REMARK  status: ('A' for Active; 'I' for Inactive)
REMARK    1  A    between atoms: C1_2  and  C2_3 
ROOT
ATOM      1  C2  UNL d   1       1.277   0.719  -0.296  0.00  0.00    -0.081 A 
ATOM      2  C3  UNL d   1       0.143   0.807   0.521  0.00  0.00     0.006 A 
ATOM      3  C4  UNL d   1      -0.634  -0.325   0.777  0.00  0.00     0.002 A 
ATOM      4  C5  UNL d   1      -0.287  -1.564   0.227  0.00  0.00    -0.080 A 
ATOM      5  C6  UNL d   1      -1.095  -2.793   0.519  0.00  0.00     0.076 C 
ATOM      6  C7  UNL d   1       0.836  -1.648  -0.603  0.00  0.00     0.002 A 
ATOM      7  C8  UNL d   1       1.613  -0.517  -0.860  0.00  0.00     0.006 A 
ENDROOT
BRANCH   1   8
ATOM      8  C1  UNL d   1       2.154   1.924  -0.522  0.00  0.00     0.054 C 
ATOM      9  C   UNL d   1       2.314   2.739   0.753  0.00  0.00     0.018 C 
ENDBRANCH   1   8
TORSDOF 1
ENDMDL
