MODEL 1
REMARK minimizedAffinity -5.09141254
REMARK minimizedRMSD -1
REMARK  1 active torsions:
REMARK  status: ('A' for Active; 'I' for Inactive)
REMARK    1  A    between atoms: C1_2  and  C2_3 
ROOT
ATOM      1  C2  UNL d   1      -0.023   0.909   0.258  0.00  0.00    -0.081 A 
ATOM      2  C3  UNL d   1      -0.488   0.095   1.298  0.00  0.00     0.006 A 
ATOM      3  C4  UNL d   1      -0.507  -1.294   1.156  0.00  0.00     0.002 A 
ATOM      4  C5  UNL d   1      -0.054  -1.894  -0.024  0.00  0.00    -0.080 A 
ATOM      5  C6  UNL d   1      -0.040  -3.385  -0.177  0.00  0.00     0.076 C 
ATOM      6  C7  UNL d   1       0.395  -1.080  -1.070  0.00  0.00     0.002 A 
ATOM      7  C8  UNL d   1       0.414   0.309  -0.929  0.00  0.00     0.006 A 
ENDROOT
BRANCH   1   8
ATOM      8  C1  UNL d   1       0.059   2.404   0.432  0.00  0.00     0.054 C 
ATOM      9  C   UNL d   1       1.502   2.866   0.575  0.00  0.00     0.018 C 
ENDBRANCH   1   8
TORSDOF 1
ENDMDL
