MODEL 1
REMARK minimizedAffinity -3.769171
REMARK minimizedRMSD -1
REMARK  1 active torsions:
REMARK  status: ('A' for Active; 'I' for Inactive)
REMARK    1  A    between atoms: C1_2  and  C2_3 
ROOT
ATOM      1  C2  UNL d   1      -0.010   1.576   0.387  0.00  0.00    -0.081 A 
ATOM      2  C3  UNL d   1       0.185   0.758  -0.733  0.00  0.00     0.006 A 
ATOM      3  C4  UNL d   1      -0.287  -0.557  -0.739  0.00  0.00     0.002 A 
ATOM      4  C5  UNL d   1      -0.968  -1.072   0.369  0.00  0.00    -0.080 A 
ATOM      5  C6  UNL d   1      -1.507  -2.472   0.363  0.00  0.00     0.076 C 
ATOM      6  C7  UNL d   1      -1.148  -0.260   1.494  0.00  0.00     0.002 A 
ATOM      7  C8  UNL d   1      -0.675   1.054   1.501  0.00  0.00     0.006 A 
ENDROOT
BRANCH   1   8
ATOM      8  C1  UNL d   1       0.441   3.014   0.372  0.00  0.00     0.054 C 
ATOM      9  C   UNL d   1       1.879   3.148   0.853  0.00  0.00     0.018 C 
ENDBRANCH   1   8
TORSDOF 1
ENDMDL
