MODEL 1
REMARK minimizedAffinity -4.15776014
REMARK minimizedRMSD -1
REMARK  1 active torsions:
REMARK  status: ('A' for Active; 'I' for Inactive)
REMARK    1  A    between atoms: C1_2  and  C2_3 
ROOT
ATOM      1  C2  UNL d   1       0.945   1.041  -0.046  0.00  0.00    -0.081 A 
ATOM      2  C3  UNL d   1       0.514   0.738   1.252  0.00  0.00     0.006 A 
ATOM      3  C4  UNL d   1      -0.264  -0.396   1.493  0.00  0.00     0.002 A 
ATOM      4  C5  UNL d   1      -0.618  -1.250   0.443  0.00  0.00    -0.080 A 
ATOM      5  C6  UNL d   1      -1.428  -2.488   0.693  0.00  0.00     0.076 C 
ATOM      6  C7  UNL d   1      -0.203  -0.939  -0.856  0.00  0.00     0.002 A 
ATOM      7  C8  UNL d   1       0.575   0.196  -1.098  0.00  0.00     0.006 A 
ENDROOT
BRANCH   1   8
ATOM      8  C1  UNL d   1       1.838   2.229  -0.299  0.00  0.00     0.054 C 
ATOM      9  C   UNL d   1       1.505   3.382   0.637  0.00  0.00     0.018 C 
ENDBRANCH   1   8
TORSDOF 1
ENDMDL
