MODEL 1
REMARK minimizedAffinity -3.95584083
REMARK minimizedRMSD -1
REMARK  1 active torsions:
REMARK  status: ('A' for Active; 'I' for Inactive)
REMARK    1  A    between atoms: C1_2  and  C2_3 
ROOT
ATOM      1  C2  UNL d   1       0.131   1.619   0.220  0.00  0.00    -0.081 A 
ATOM      2  C3  UNL d   1      -0.250   0.960   1.395  0.00  0.00     0.006 A 
ATOM      3  C4  UNL d   1      -0.739  -0.347   1.347  0.00  0.00     0.002 A 
ATOM      4  C5  UNL d   1      -0.848  -1.020   0.126  0.00  0.00    -0.080 A 
ATOM      5  C6  UNL d   1      -1.342  -2.435   0.063  0.00  0.00     0.076 C 
ATOM      6  C7  UNL d   1      -0.483  -0.356  -1.050  0.00  0.00     0.002 A 
ATOM      7  C8  UNL d   1       0.005   0.952  -1.003  0.00  0.00     0.006 A 
ENDROOT
BRANCH   1   8
ATOM      8  C1  UNL d   1       0.719   3.006   0.275  0.00  0.00     0.054 C 
ATOM      9  C   UNL d   1       2.223   2.979   0.043  0.00  0.00     0.018 C 
ENDBRANCH   1   8
TORSDOF 1
ENDMDL
