MODEL 1
REMARK minimizedAffinity -5.49479294
REMARK minimizedRMSD -1
REMARK  1 active torsions:
REMARK  status: ('A' for Active; 'I' for Inactive)
REMARK    1  A    between atoms: C1_2  and  C2_3 
ROOT
ATOM      1  C2  UNL d   1       0.341  -1.741  -1.416  0.00  0.00    -0.081 A 
ATOM      2  C3  UNL d   1       0.177  -1.656  -0.028  0.00  0.00     0.006 A 
ATOM      3  C4  UNL d   1       0.084  -0.411   0.599  0.00  0.00     0.002 A 
ATOM      4  C5  UNL d   1       0.145   0.768  -0.151  0.00  0.00    -0.080 A 
ATOM      5  C6  UNL d   1       0.016   2.110   0.506  0.00  0.00     0.076 C 
ATOM      6  C7  UNL d   1       0.326   0.683  -1.536  0.00  0.00     0.002 A 
ATOM      7  C8  UNL d   1       0.420  -0.561  -2.163  0.00  0.00     0.006 A 
ENDROOT
BRANCH   1   8
ATOM      8  C1  UNL d   1       0.376  -3.083  -2.103  0.00  0.00     0.054 C 
ATOM      9  C   UNL d   1      -0.001  -4.204  -1.146  0.00  0.00     0.018 C 
ENDBRANCH   1   8
TORSDOF 1
ENDMDL
