MODEL 1
REMARK minimizedAffinity -0.487941146
REMARK minimizedRMSD -1
REMARK  1 active torsions:
REMARK  status: ('A' for Active; 'I' for Inactive)
REMARK    1  A    between atoms: C1_2  and  C2_3 
ROOT
ATOM      1  C2  UNL d   1       0.474   1.410   0.147  0.00  0.00    -0.081 A 
ATOM      2  C3  UNL d   1      -0.360   0.890  -0.850  0.00  0.00     0.006 A 
ATOM      3  C4  UNL d   1      -0.899  -0.392  -0.725  0.00  0.00     0.002 A 
ATOM      4  C5  UNL d   1      -0.620  -1.173   0.402  0.00  0.00    -0.080 A 
ATOM      5  C6  UNL d   1      -1.217  -2.539   0.563  0.00  0.00     0.076 C 
ATOM      6  C7  UNL d   1       0.228  -0.660   1.390  0.00  0.00     0.002 A 
ATOM      7  C8  UNL d   1       0.768   0.622   1.265  0.00  0.00     0.006 A 
ENDROOT
BRANCH   1   8
ATOM      8  C1  UNL d   1       1.005   2.817   0.046  0.00  0.00     0.054 C 
ATOM      9  C   UNL d   1       2.309   2.974   0.816  0.00  0.00     0.018 C 
ENDBRANCH   1   8
TORSDOF 1
ENDMDL
