MODEL 1
REMARK minimizedAffinity -5.56870317
REMARK minimizedRMSD -1
REMARK  1 active torsions:
REMARK  status: ('A' for Active; 'I' for Inactive)
REMARK    1  A    between atoms: C1_2  and  C2_3 
ROOT
ATOM      1  C2  UNL d   1      -0.064  -2.075  -1.001  0.00  0.00    -0.081 A 
ATOM      2  C3  UNL d   1      -0.335  -2.981   0.031  0.00  0.00     0.006 A 
ATOM      3  C4  UNL d   1      -0.756  -2.524   1.283  0.00  0.00     0.002 A 
ATOM      4  C5  UNL d   1      -0.921  -1.155   1.520  0.00  0.00    -0.080 A 
ATOM      5  C6  UNL d   1      -1.401  -0.654   2.849  0.00  0.00     0.076 C 
ATOM      6  C7  UNL d   1      -0.633  -0.249   0.494  0.00  0.00     0.002 A 
ATOM      7  C8  UNL d   1      -0.211  -0.705  -0.757  0.00  0.00     0.006 A 
ENDROOT
BRANCH   1   8
ATOM      8  C1  UNL d   1       0.328  -2.567  -2.370  0.00  0.00     0.054 C 
ATOM      9  C   UNL d   1       0.311  -1.438  -3.391  0.00  0.00     0.018 C 
ENDBRANCH   1   8
TORSDOF 1
ENDMDL
