MODEL 1
REMARK minimizedAffinity 4.25412321
REMARK minimizedRMSD -1
REMARK  0 active torsions:
REMARK  status: ('A' for Active; 'I' for Inactive)
ROOT
ATOM      1  C   UNL d   1      -2.799   3.563   1.358  0.00  0.00     0.078 C 
ATOM      2  C1  UNL d   1      -1.856   3.363   0.210  0.00  0.00    -0.077 A 
ATOM      3  C2  UNL d   1      -2.039   2.315  -0.700  0.00  0.00    -0.001 A 
ATOM      4  C3  UNL d   1      -1.147   2.134  -1.758  0.00  0.00     0.003 A 
ATOM      5  C4  UNL d   1      -0.065   2.998  -1.916  0.00  0.00    -0.005 A 
ATOM      6  C5  UNL d   1       0.127   4.042  -1.014  0.00  0.00     0.003 A 
ATOM      7  C6  UNL d   1      -0.764   4.224   0.045  0.00  0.00    -0.001 A 
ENDROOT
TORSDOF 0
ENDMDL
