MODEL 1
REMARK minimizedAffinity 3.20242262
REMARK minimizedRMSD -1
REMARK  0 active torsions:
REMARK  status: ('A' for Active; 'I' for Inactive)
ROOT
ATOM      1  C   UNL d   1      -3.332   1.649  -3.172  0.00  0.00     0.078 C 
ATOM      2  C1  UNL d   1      -2.234   1.971  -2.202  0.00  0.00    -0.077 A 
ATOM      3  C2  UNL d   1      -2.186   1.365  -0.941  0.00  0.00    -0.001 A 
ATOM      4  C3  UNL d   1      -1.163   1.680  -0.045  0.00  0.00     0.003 A 
ATOM      5  C4  UNL d   1      -0.182   2.604  -0.400  0.00  0.00    -0.005 A 
ATOM      6  C5  UNL d   1      -0.223   3.214  -1.652  0.00  0.00     0.003 A 
ATOM      7  C6  UNL d   1      -1.245   2.899  -2.550  0.00  0.00    -0.001 A 
ENDROOT
TORSDOF 0
ENDMDL
