MODEL 1
REMARK minimizedAffinity -1.82626498
REMARK minimizedRMSD -1
REMARK  0 active torsions:
REMARK  status: ('A' for Active; 'I' for Inactive)
ROOT
ATOM      1  C   UNL d   1      -2.720   3.121  -2.244  0.00  0.00     0.078 C 
ATOM      2  C1  UNL d   1      -1.655   3.089  -1.189  0.00  0.00    -0.077 A 
ATOM      3  C2  UNL d   1      -0.298   3.134  -1.532  0.00  0.00    -0.001 A 
ATOM      4  C3  UNL d   1       0.682   3.094  -0.540  0.00  0.00     0.003 A 
ATOM      5  C4  UNL d   1       0.317   3.008   0.802  0.00  0.00    -0.005 A 
ATOM      6  C5  UNL d   1      -1.031   2.961   1.153  0.00  0.00     0.003 A 
ATOM      7  C6  UNL d   1      -2.013   3.001   0.162  0.00  0.00    -0.001 A 
ENDROOT
TORSDOF 0
ENDMDL
