MODEL 1
REMARK minimizedAffinity 12.2798643
REMARK minimizedRMSD -1
REMARK  0 active torsions:
REMARK  status: ('A' for Active; 'I' for Inactive)
ROOT
ATOM      1  C   UNL d   1       4.965  -4.955  -1.457  0.00  0.00     0.078 C 
ATOM      2  C1  UNL d   1       4.696  -5.253  -2.902  0.00  0.00    -0.077 A 
ATOM      3  C2  UNL d   1       3.443  -5.717  -3.322  0.00  0.00    -0.001 A 
ATOM      4  C3  UNL d   1       3.210  -5.999  -4.669  0.00  0.00     0.003 A 
ATOM      5  C4  UNL d   1       4.225  -5.820  -5.607  0.00  0.00    -0.005 A 
ATOM      6  C5  UNL d   1       5.475  -5.361  -5.198  0.00  0.00     0.003 A 
ATOM      7  C6  UNL d   1       5.710  -5.079  -3.851  0.00  0.00    -0.001 A 
ENDROOT
TORSDOF 0
ENDMDL
