MODEL 1
REMARK minimizedAffinity 8.40513325
REMARK minimizedRMSD -1
REMARK  0 active torsions:
REMARK  status: ('A' for Active; 'I' for Inactive)
ROOT
ATOM      1  C   UNL d   1      -3.238   1.913  -2.662  0.00  0.00     0.078 C 
ATOM      2  C1  UNL d   1      -2.356   2.973  -3.250  0.00  0.00    -0.077 A 
ATOM      3  C2  UNL d   1      -0.961   2.879  -3.166  0.00  0.00    -0.001 A 
ATOM      4  C3  UNL d   1      -0.152   3.878  -3.709  0.00  0.00     0.003 A 
ATOM      5  C4  UNL d   1      -0.728   4.980  -4.338  0.00  0.00    -0.005 A 
ATOM      6  C5  UNL d   1      -2.115   5.084  -4.424  0.00  0.00     0.003 A 
ATOM      7  C6  UNL d   1      -2.926   4.086  -3.881  0.00  0.00    -0.001 A 
ENDROOT
TORSDOF 0
ENDMDL
