MODEL 1
REMARK minimizedAffinity 5.05216408
REMARK minimizedRMSD -1
REMARK  0 active torsions:
REMARK  status: ('A' for Active; 'I' for Inactive)
ROOT
ATOM      1  C   UNL d   1      -0.393   2.251   2.183  0.00  0.00     0.078 C 
ATOM      2  C1  UNL d   1      -0.360   2.756   0.771  0.00  0.00    -0.077 A 
ATOM      3  C2  UNL d   1       0.253   3.975   0.456  0.00  0.00    -0.001 A 
ATOM      4  C3  UNL d   1       0.268   4.437  -0.861  0.00  0.00     0.003 A 
ATOM      5  C4  UNL d   1      -0.329   3.687  -1.873  0.00  0.00    -0.005 A 
ATOM      6  C5  UNL d   1      -0.942   2.474  -1.568  0.00  0.00     0.003 A 
ATOM      7  C6  UNL d   1      -0.958   2.010  -0.251  0.00  0.00    -0.001 A 
ENDROOT
TORSDOF 0
ENDMDL
