MODEL 1
REMARK minimizedAffinity -4.00535822
REMARK minimizedRMSD -1
REMARK  2 active torsions:
REMARK  status: ('A' for Active; 'I' for Inactive)
REMARK    1  A    between atoms: C1_2  and  C2_3 
REMARK    2  A    between atoms: C2_3  and  C3_4 
ROOT
ATOM      1  C3  UNL d   1      -0.199   0.204   0.557  0.00  0.00    -0.075 A 
ATOM      2  C4  UNL d   1      -1.279   0.535   1.387  0.00  0.00     0.002 A 
ATOM      3  C5  UNL d   1      -1.848  -0.423   2.227  0.00  0.00     0.002 A 
ATOM      4  C6  UNL d   1      -1.351  -1.724   2.241  0.00  0.00    -0.004 A 
ATOM      5  C7  UNL d   1      -0.288  -2.069   1.409  0.00  0.00     0.002 A 
ATOM      6  C8  UNL d   1       0.285  -1.111   0.571  0.00  0.00     0.002 A 
ENDROOT
BRANCH   1   7
ATOM      7  C2  UNL d   1       0.440   1.243  -0.333  0.00  0.00     0.056 C 
BRANCH   7   8
ATOM      8  C1  UNL d   1      -0.057   1.214  -1.782  0.00  0.00     0.007 C 
ATOM      9  C   UNL d   1       0.796   2.050  -2.726  0.00  0.00     0.009 C 
ENDBRANCH   7   8
ENDBRANCH   1   7
TORSDOF 2
ENDMDL
