MODEL 1
REMARK minimizedAffinity -4.59811926
REMARK minimizedRMSD -1
REMARK  2 active torsions:
REMARK  status: ('A' for Active; 'I' for Inactive)
REMARK    1  A    between atoms: C1_2  and  C2_3 
REMARK    2  A    between atoms: C2_3  and  C3_4 
ROOT
ATOM      1  C3  UNL d   1       0.600   0.965  -1.134  0.00  0.00    -0.075 A 
ATOM      2  C4  UNL d   1       1.962   1.202  -1.367  0.00  0.00     0.002 A 
ATOM      3  C5  UNL d   1       2.376   1.887  -2.510  0.00  0.00     0.002 A 
ATOM      4  C6  UNL d   1       1.437   2.333  -3.437  0.00  0.00    -0.004 A 
ATOM      5  C7  UNL d   1       0.082   2.088  -3.224  0.00  0.00     0.002 A 
ATOM      6  C8  UNL d   1      -0.336   1.407  -2.079  0.00  0.00     0.002 A 
ENDROOT
BRANCH   1   7
ATOM      7  C2  UNL d   1       0.143   0.251   0.116  0.00  0.00     0.056 C 
BRANCH   7   8
ATOM      8  C1  UNL d   1       0.093  -1.275  -0.021  0.00  0.00     0.007 C 
ATOM      9  C   UNL d   1      -0.336  -1.979   1.260  0.00  0.00     0.009 C 
ENDBRANCH   7   8
ENDBRANCH   1   7
TORSDOF 2
ENDMDL
