MODEL 1
REMARK minimizedAffinity -3.32902884
REMARK minimizedRMSD -1
REMARK  2 active torsions:
REMARK  status: ('A' for Active; 'I' for Inactive)
REMARK    1  A    between atoms: C1_2  and  C2_3 
REMARK    2  A    between atoms: C2_3  and  C3_4 
ROOT
ATOM      1  C3  UNL d   1       0.674   0.206  -0.242  0.00  0.00    -0.075 A 
ATOM      2  C4  UNL d   1       1.494  -0.876   0.110  0.00  0.00     0.002 A 
ATOM      3  C5  UNL d   1       0.971  -1.964   0.809  0.00  0.00     0.002 A 
ATOM      4  C6  UNL d   1      -0.374  -1.979   1.173  0.00  0.00    -0.004 A 
ATOM      5  C7  UNL d   1      -1.194  -0.903   0.843  0.00  0.00     0.002 A 
ATOM      6  C8  UNL d   1      -0.674   0.185   0.140  0.00  0.00     0.002 A 
ENDROOT
BRANCH   1   7
ATOM      7  C2  UNL d   1       1.228   1.373  -1.024  0.00  0.00     0.056 C 
BRANCH   7   8
ATOM      8  C1  UNL d   1       0.461   1.679  -2.315  0.00  0.00     0.007 C 
ATOM      9  C   UNL d   1       1.357   1.740  -3.546  0.00  0.00     0.009 C 
ENDBRANCH   7   8
ENDBRANCH   1   7
TORSDOF 2
ENDMDL
