MODEL 1
REMARK minimizedAffinity -2.17487621
REMARK minimizedRMSD -1
REMARK  2 active torsions:
REMARK  status: ('A' for Active; 'I' for Inactive)
REMARK    1  A    between atoms: C1_2  and  C2_3 
REMARK    2  A    between atoms: C2_3  and  C3_4 
ROOT
ATOM      1  C3  UNL d   1       0.479   0.140   0.083  0.00  0.00    -0.075 A 
ATOM      2  C4  UNL d   1      -0.609   0.049   0.963  0.00  0.00     0.002 A 
ATOM      3  C5  UNL d   1      -0.944  -1.172   1.550  0.00  0.00     0.002 A 
ATOM      4  C6  UNL d   1      -0.204  -2.315   1.258  0.00  0.00    -0.004 A 
ATOM      5  C7  UNL d   1       0.869  -2.239   0.372  0.00  0.00     0.002 A 
ATOM      6  C8  UNL d   1       1.209  -1.018  -0.213  0.00  0.00     0.002 A 
ENDROOT
BRANCH   1   7
ATOM      7  C2  UNL d   1       0.866   1.464  -0.533  0.00  0.00     0.056 C 
BRANCH   7   8
ATOM      8  C1  UNL d   1       0.701   1.515  -2.055  0.00  0.00     0.007 C 
ATOM      9  C   UNL d   1       1.878   2.172  -2.764  0.00  0.00     0.009 C 
ENDBRANCH   7   8
ENDBRANCH   1   7
TORSDOF 2
ENDMDL
