MODEL 1
REMARK minimizedAffinity -5.84840202
REMARK minimizedRMSD -1
REMARK  2 active torsions:
REMARK  status: ('A' for Active; 'I' for Inactive)
REMARK    1  A    between atoms: C1_2  and  C2_3 
REMARK    2  A    between atoms: C2_3  and  C3_4 
ROOT
ATOM      1  C3  UNL d   1      -0.538  -0.701   0.806  0.00  0.00    -0.075 A 
ATOM      2  C4  UNL d   1      -1.362   0.390   1.117  0.00  0.00     0.002 A 
ATOM      3  C5  UNL d   1      -2.441   0.236   1.989  0.00  0.00     0.002 A 
ATOM      4  C6  UNL d   1      -2.715  -1.009   2.550  0.00  0.00    -0.004 A 
ATOM      5  C7  UNL d   1      -1.912  -2.103   2.235  0.00  0.00     0.002 A 
ATOM      6  C8  UNL d   1      -0.830  -1.951   1.366  0.00  0.00     0.002 A 
ENDROOT
BRANCH   1   7
ATOM      7  C2  UNL d   1       0.649  -0.534  -0.114  0.00  0.00     0.056 C 
BRANCH   7   8
ATOM      8  C1  UNL d   1       1.031   0.925  -0.380  0.00  0.00     0.007 C 
ATOM      9  C   UNL d   1       0.840   1.340  -1.833  0.00  0.00     0.009 C 
ENDBRANCH   7   8
ENDBRANCH   1   7
TORSDOF 2
ENDMDL
