MODEL 1
REMARK minimizedAffinity 11.9558125
REMARK minimizedRMSD -1
REMARK  2 active torsions:
REMARK  status: ('A' for Active; 'I' for Inactive)
REMARK    1  A    between atoms: C1_2  and  C2_3 
REMARK    2  A    between atoms: C2_3  and  C3_4 
ROOT
ATOM      1  C3  UNL d   1      -0.206  -2.739   2.592  0.00  0.00    -0.075 A 
ATOM      2  C4  UNL d   1       0.942  -3.391   3.064  0.00  0.00     0.002 A 
ATOM      3  C5  UNL d   1       1.094  -3.661   4.425  0.00  0.00     0.002 A 
ATOM      4  C6  UNL d   1       0.107  -3.275   5.329  0.00  0.00    -0.004 A 
ATOM      5  C7  UNL d   1      -1.030  -2.612   4.873  0.00  0.00     0.002 A 
ATOM      6  C8  UNL d   1      -1.186  -2.344   3.511  0.00  0.00     0.002 A 
ENDROOT
BRANCH   1   7
ATOM      7  C2  UNL d   1      -0.390  -2.470   1.117  0.00  0.00     0.056 C 
BRANCH   7   8
ATOM      8  C1  UNL d   1      -0.135  -1.014   0.712  0.00  0.00     0.007 C 
ATOM      9  C   UNL d   1       1.125  -0.835  -0.124  0.00  0.00     0.009 C 
ENDBRANCH   7   8
ENDBRANCH   1   7
TORSDOF 2
ENDMDL
