MODEL 1
REMARK minimizedAffinity -3.58836246
REMARK minimizedRMSD -1
REMARK  2 active torsions:
REMARK  status: ('A' for Active; 'I' for Inactive)
REMARK    1  A    between atoms: C1_2  and  C2_3 
REMARK    2  A    between atoms: C2_3  and  C3_4 
ROOT
ATOM      1  C3  UNL d   1       0.907   1.425  -0.860  0.00  0.00    -0.075 A 
ATOM      2  C4  UNL d   1      -0.099   1.778  -1.772  0.00  0.00     0.002 A 
ATOM      3  C5  UNL d   1       0.229   2.337  -3.007  0.00  0.00     0.002 A 
ATOM      4  C6  UNL d   1       1.563   2.558  -3.343  0.00  0.00    -0.004 A 
ATOM      5  C7  UNL d   1       2.570   2.226  -2.438  0.00  0.00     0.002 A 
ATOM      6  C8  UNL d   1       2.244   1.663  -1.203  0.00  0.00     0.002 A 
ENDROOT
BRANCH   1   7
ATOM      7  C2  UNL d   1       0.560   0.792   0.467  0.00  0.00     0.056 C 
BRANCH   7   8
ATOM      8  C1  UNL d   1       1.228  -0.566   0.704  0.00  0.00     0.007 C 
ATOM      9  C   UNL d   1       0.287  -1.744   0.491  0.00  0.00     0.009 C 
ENDBRANCH   7   8
ENDBRANCH   1   7
TORSDOF 2
ENDMDL
