MODEL 1
REMARK minimizedAffinity -4.93209839
REMARK minimizedRMSD -1
REMARK  2 active torsions:
REMARK  status: ('A' for Active; 'I' for Inactive)
REMARK    1  A    between atoms: C1_2  and  C2_3 
REMARK    2  A    between atoms: C2_3  and  C3_4 
ROOT
ATOM      1  C3  UNL d   1      -0.502  -0.635   0.561  0.00  0.00    -0.075 A 
ATOM      2  C4  UNL d   1      -1.438   0.230   1.145  0.00  0.00     0.002 A 
ATOM      3  C5  UNL d   1      -2.355  -0.246   2.083  0.00  0.00     0.002 A 
ATOM      4  C6  UNL d   1      -2.354  -1.592   2.440  0.00  0.00    -0.004 A 
ATOM      5  C7  UNL d   1      -1.440  -2.465   1.854  0.00  0.00     0.002 A 
ATOM      6  C8  UNL d   1      -0.519  -1.990   0.919  0.00  0.00     0.002 A 
ENDROOT
BRANCH   1   7
ATOM      7  C2  UNL d   1       0.512  -0.120  -0.432  0.00  0.00     0.056 C 
BRANCH   7   8
ATOM      8  C1  UNL d   1       0.918   1.340  -0.208  0.00  0.00     0.007 C 
ATOM      9  C   UNL d   1       1.183   2.095  -1.504  0.00  0.00     0.009 C 
ENDBRANCH   7   8
ENDBRANCH   1   7
TORSDOF 2
ENDMDL
