MODEL 1
REMARK minimizedAffinity -4.67239904
REMARK minimizedRMSD -1
REMARK  2 active torsions:
REMARK  status: ('A' for Active; 'I' for Inactive)
REMARK    1  A    between atoms: C1_2  and  C2_3 
REMARK    2  A    between atoms: C2_3  and  C3_4 
ROOT
ATOM      1  C3  UNL d   1       0.774   1.024  -1.091  0.00  0.00    -0.075 A 
ATOM      2  C4  UNL d   1       0.536   2.368  -0.768  0.00  0.00     0.002 A 
ATOM      3  C5  UNL d   1       0.212   3.289  -1.765  0.00  0.00     0.002 A 
ATOM      4  C6  UNL d   1       0.131   2.882  -3.095  0.00  0.00    -0.004 A 
ATOM      5  C7  UNL d   1       0.381   1.552  -3.429  0.00  0.00     0.002 A 
ATOM      6  C8  UNL d   1       0.702   0.628  -2.433  0.00  0.00     0.002 A 
ENDROOT
BRANCH   1   7
ATOM      7  C2  UNL d   1       1.096   0.017  -0.014  0.00  0.00     0.056 C 
BRANCH   7   8
ATOM      8  C1  UNL d   1      -0.109  -0.809   0.449  0.00  0.00     0.007 C 
ATOM      9  C   UNL d   1       0.161  -2.308   0.466  0.00  0.00     0.009 C 
ENDBRANCH   7   8
ENDBRANCH   1   7
TORSDOF 2
ENDMDL
