MODEL 1
REMARK minimizedAffinity -3.54494739
REMARK minimizedRMSD -1
REMARK  2 active torsions:
REMARK  status: ('A' for Active; 'I' for Inactive)
REMARK    1  A    between atoms: C1_2  and  C2_3 
REMARK    2  A    between atoms: C2_3  and  C3_4 
ROOT
ATOM      1  C3  UNL d   1       1.313   1.330  -1.529  0.00  0.00    -0.075 A 
ATOM      2  C4  UNL d   1       0.280   1.550  -2.452  0.00  0.00     0.002 A 
ATOM      3  C5  UNL d   1       0.572   1.876  -3.777  0.00  0.00     0.002 A 
ATOM      4  C6  UNL d   1       1.896   1.995  -4.192  0.00  0.00    -0.004 A 
ATOM      5  C7  UNL d   1       2.930   1.795  -3.280  0.00  0.00     0.002 A 
ATOM      6  C8  UNL d   1       2.641   1.465  -1.955  0.00  0.00     0.002 A 
ENDROOT
BRANCH   1   7
ATOM      7  C2  UNL d   1       1.004   0.949  -0.100  0.00  0.00     0.056 C 
BRANCH   7   8
ATOM      8  C1  UNL d   1      -0.002  -0.199   0.035  0.00  0.00     0.007 C 
ATOM      9  C   UNL d   1       0.660  -1.557   0.233  0.00  0.00     0.009 C 
ENDBRANCH   7   8
ENDBRANCH   1   7
TORSDOF 2
ENDMDL
