MODEL 1
REMARK minimizedAffinity -2.56939745
REMARK minimizedRMSD -1
REMARK  2 active torsions:
REMARK  status: ('A' for Active; 'I' for Inactive)
REMARK    1  A    between atoms: C1_2  and  C2_3 
REMARK    2  A    between atoms: C2_3  and  C3_4 
ROOT
ATOM      1  C3  UNL d   1       0.654   1.218  -1.266  0.00  0.00    -0.075 A 
ATOM      2  C4  UNL d   1      -0.322   1.526  -2.225  0.00  0.00     0.002 A 
ATOM      3  C5  UNL d   1       0.048   1.948  -3.502  0.00  0.00     0.002 A 
ATOM      4  C6  UNL d   1       1.395   2.078  -3.833  0.00  0.00    -0.004 A 
ATOM      5  C7  UNL d   1       2.373   1.791  -2.883  0.00  0.00     0.002 A 
ATOM      6  C8  UNL d   1       2.006   1.364  -1.606  0.00  0.00     0.002 A 
ENDROOT
BRANCH   1   7
ATOM      7  C2  UNL d   1       0.261   0.733   0.109  0.00  0.00     0.056 C 
BRANCH   7   8
ATOM      8  C1  UNL d   1       1.171  -0.366   0.666  0.00  0.00     0.007 C 
ATOM      9  C   UNL d   1       0.890  -1.739   0.070  0.00  0.00     0.009 C 
ENDBRANCH   7   8
ENDBRANCH   1   7
TORSDOF 2
ENDMDL
