MODEL 1
REMARK minimizedAffinity 13.9147425
REMARK minimizedRMSD -1
REMARK  0 active torsions:
REMARK  status: ('A' for Active; 'I' for Inactive)
ROOT
ATOM      1  C2' OXE d   1       4.965  -5.729  -4.358  0.00  0.00     0.078 C 
ATOM      2  C1' OXE d   1       4.129  -6.000  -1.692  0.00  0.00     0.078 C 
ATOM      3  C1  OXE d   1       3.998  -4.642  -2.336  0.00  0.00    -0.078 A 
ATOM      4  C2  OXE d   1       4.452  -4.507  -3.626  0.00  0.00    -0.078 A 
ATOM      5  C3  OXE d   1       4.305  -3.290  -4.285  0.00  0.00     0.003 A 
ATOM      6  C4  OXE d   1       3.839  -2.163  -3.597  0.00  0.00    -0.002 A 
ATOM      7  C5  OXE d   1       3.408  -2.269  -2.270  0.00  0.00    -0.002 A 
ATOM      8  C6  OXE d   1       3.441  -3.508  -1.640  0.00  0.00     0.003 A 
ENDROOT
TORSDOF 0
ENDMDL
