MODEL 1
REMARK minimizedAffinity 3.57972407
REMARK minimizedRMSD -1
REMARK  0 active torsions:
REMARK  status: ('A' for Active; 'I' for Inactive)
ROOT
ATOM      1  C2' OXE d   1      -0.614   4.092  -1.483  0.00  0.00     0.078 C 
ATOM      2  C1' OXE d   1      -2.963   4.103  -3.019  0.00  0.00     0.078 C 
ATOM      3  C1  OXE d   1      -2.575   2.815  -2.338  0.00  0.00    -0.078 A 
ATOM      4  C2  OXE d   1      -1.399   2.806  -1.626  0.00  0.00    -0.078 A 
ATOM      5  C3  OXE d   1      -1.022   1.659  -0.933  0.00  0.00     0.003 A 
ATOM      6  C4  OXE d   1      -1.748   0.471  -1.079  0.00  0.00    -0.002 A 
ATOM      7  C5  OXE d   1      -2.927   0.448  -1.832  0.00  0.00    -0.002 A 
ATOM      8  C6  OXE d   1      -3.376   1.619  -2.431  0.00  0.00     0.003 A 
ENDROOT
TORSDOF 0
ENDMDL
