MODEL 1
REMARK minimizedAffinity 5.98558712
REMARK minimizedRMSD -1
REMARK  0 active torsions:
REMARK  status: ('A' for Active; 'I' for Inactive)
ROOT
ATOM      1  C2' OXE d   1       1.999  -5.843  -2.308  0.00  0.00     0.078 C 
ATOM      2  C1' OXE d   1       1.472  -4.582   0.144  0.00  0.00     0.078 C 
ATOM      3  C1  OXE d   1       2.607  -4.047  -0.693  0.00  0.00    -0.078 A 
ATOM      4  C2  OXE d   1       2.888  -4.699  -1.869  0.00  0.00    -0.078 A 
ATOM      5  C3  OXE d   1       3.889  -4.213  -2.705  0.00  0.00     0.003 A 
ATOM      6  C4  OXE d   1       4.713  -3.161  -2.287  0.00  0.00    -0.002 A 
ATOM      7  C5  OXE d   1       4.469  -2.508  -1.074  0.00  0.00    -0.002 A 
ATOM      8  C6  OXE d   1       3.396  -2.910  -0.287  0.00  0.00     0.003 A 
ENDROOT
TORSDOF 0
ENDMDL
