MODEL 1
REMARK minimizedAffinity 0.527611732
REMARK minimizedRMSD -1
REMARK  0 active torsions:
REMARK  status: ('A' for Active; 'I' for Inactive)
ROOT
ATOM      1  C2' OXE d   1       3.780  -2.421  -3.779  0.00  0.00     0.078 C 
ATOM      2  C1' OXE d   1       4.589  -2.032  -1.119  0.00  0.00     0.078 C 
ATOM      3  C1  OXE d   1       4.630  -3.436  -1.668  0.00  0.00    -0.078 A 
ATOM      4  C2  OXE d   1       4.188  -3.624  -2.956  0.00  0.00    -0.078 A 
ATOM      5  C3  OXE d   1       4.256  -4.891  -3.529  0.00  0.00     0.003 A 
ATOM      6  C4  OXE d   1       4.625  -5.999  -2.758  0.00  0.00    -0.002 A 
ATOM      7  C5  OXE d   1       5.041  -5.835  -1.433  0.00  0.00    -0.002 A 
ATOM      8  C6  OXE d   1       5.090  -4.557  -0.887  0.00  0.00     0.003 A 
ENDROOT
TORSDOF 0
ENDMDL
