MODEL 1
REMARK minimizedAffinity -0.717074931
REMARK minimizedRMSD -1
REMARK  0 active torsions:
REMARK  status: ('A' for Active; 'I' for Inactive)
ROOT
ATOM      1  C2' OXE d   1       4.420  -2.187  -0.802  0.00  0.00     0.078 C 
ATOM      2  C1' OXE d   1       5.737  -4.654  -0.556  0.00  0.00     0.078 C 
ATOM      3  C1  OXE d   1       4.891  -4.428  -1.784  0.00  0.00    -0.078 A 
ATOM      4  C2  OXE d   1       4.213  -3.236  -1.873  0.00  0.00    -0.078 A 
ATOM      5  C3  OXE d   1       3.462  -2.954  -3.011  0.00  0.00     0.003 A 
ATOM      6  C4  OXE d   1       3.268  -3.933  -3.992  0.00  0.00    -0.002 A 
ATOM      7  C5  OXE d   1       3.917  -5.169  -3.901  0.00  0.00    -0.002 A 
ATOM      8  C6  OXE d   1       4.764  -5.415  -2.827  0.00  0.00     0.003 A 
ENDROOT
TORSDOF 0
ENDMDL
