MODEL 1
REMARK minimizedAffinity -0.803898811
REMARK minimizedRMSD -1
REMARK  0 active torsions:
REMARK  status: ('A' for Active; 'I' for Inactive)
ROOT
ATOM      1  C2' OXE d   1       3.160  -5.706  -2.212  0.00  0.00     0.078 C 
ATOM      2  C1' OXE d   1       1.479  -4.518  -0.303  0.00  0.00     0.078 C 
ATOM      3  C1  OXE d   1       2.793  -3.841  -0.602  0.00  0.00    -0.078 A 
ATOM      4  C2  OXE d   1       3.630  -4.454  -1.503  0.00  0.00    -0.078 A 
ATOM      5  C3  OXE d   1       4.829  -3.843  -1.857  0.00  0.00     0.003 A 
ATOM      6  C4  OXE d   1       5.261  -2.690  -1.189  0.00  0.00    -0.002 A 
ATOM      7  C5  OXE d   1       4.442  -2.071  -0.239  0.00  0.00    -0.002 A 
ATOM      8  C6  OXE d   1       3.189  -2.609   0.034  0.00  0.00     0.003 A 
ENDROOT
TORSDOF 0
ENDMDL
