MODEL 1
REMARK minimizedAffinity 4.15036201
REMARK minimizedRMSD -1
REMARK  0 active torsions:
REMARK  status: ('A' for Active; 'I' for Inactive)
ROOT
ATOM      1  C2' OXE d   1       3.728  -1.959  -3.456  0.00  0.00     0.078 C 
ATOM      2  C1' OXE d   1       4.231  -1.898  -0.695  0.00  0.00     0.078 C 
ATOM      3  C1  OXE d   1       4.406  -3.212  -1.413  0.00  0.00    -0.078 A 
ATOM      4  C2  OXE d   1       4.113  -3.244  -2.755  0.00  0.00    -0.078 A 
ATOM      5  C3  OXE d   1       4.310  -4.417  -3.477  0.00  0.00     0.003 A 
ATOM      6  C4  OXE d   1       4.657  -5.604  -2.819  0.00  0.00    -0.002 A 
ATOM      7  C5  OXE d   1       4.922  -5.603  -1.446  0.00  0.00    -0.002 A 
ATOM      8  C6  OXE d   1       4.843  -4.409  -0.737  0.00  0.00     0.003 A 
ENDROOT
TORSDOF 0
ENDMDL
