MODEL 1
REMARK minimizedAffinity -5.13616467
REMARK minimizedRMSD -1
REMARK  1 active torsions:
REMARK  status: ('A' for Active; 'I' for Inactive)
REMARK    1  A    between atoms: C1_2  and  C2_3 
ROOT
ATOM      1  C2  UNL d   1       0.117   0.075  -0.174  0.00  0.00    -0.076 A 
ATOM      2  C3  UNL d   1      -0.798  -0.486   0.735  0.00  0.00     0.004 A 
ATOM      3  C4  UNL d   1      -0.460  -1.604   1.496  0.00  0.00    -0.003 A 
ATOM      4  C5  UNL d   1       0.799  -2.179   1.361  0.00  0.00     0.000 A 
ATOM      5  C6  UNL d   1       1.725  -1.625   0.478  0.00  0.00     0.000 A 
ATOM      6  C7  UNL d   1       1.406  -0.488  -0.285  0.00  0.00    -0.073 A 
ATOM      7  C8  UNL d   1       2.441   0.064  -1.226  0.00  0.00     0.078 C 
ENDROOT
BRANCH   1   8
ATOM      8  C1  UNL d   1      -0.315   1.271  -0.992  0.00  0.00     0.053 C 
ATOM      9  C   UNL d   1      -1.775   1.192  -1.412  0.00  0.00     0.018 C 
ENDBRANCH   1   8
TORSDOF 1
ENDMDL
