MODEL 1
REMARK minimizedAffinity -3.91008806
REMARK minimizedRMSD -1
REMARK  1 active torsions:
REMARK  status: ('A' for Active; 'I' for Inactive)
REMARK    1  A    between atoms: C1_2  and  C2_3 
ROOT
ATOM      1  C2  UNL d   1       0.120   0.422   0.076  0.00  0.00    -0.076 A 
ATOM      2  C3  UNL d   1      -0.668  -0.485   0.805  0.00  0.00     0.004 A 
ATOM      3  C4  UNL d   1      -0.108  -1.632   1.367  0.00  0.00    -0.003 A 
ATOM      4  C5  UNL d   1       1.249  -1.889   1.208  0.00  0.00     0.000 A 
ATOM      5  C6  UNL d   1       2.049  -0.992   0.503  0.00  0.00     0.000 A 
ATOM      6  C7  UNL d   1       1.504   0.177  -0.056  0.00  0.00    -0.073 A 
ATOM      7  C8  UNL d   1       2.412   1.108  -0.812  0.00  0.00     0.078 C 
ENDROOT
BRANCH   1   8
ATOM      8  C1  UNL d   1      -0.547   1.635  -0.533  0.00  0.00     0.053 C 
ATOM      9  C   UNL d   1      -1.623   1.263  -1.541  0.00  0.00     0.018 C 
ENDBRANCH   1   8
TORSDOF 1
ENDMDL
