MODEL 1
REMARK minimizedAffinity -2.49329591
REMARK minimizedRMSD -1
REMARK  1 active torsions:
REMARK  status: ('A' for Active; 'I' for Inactive)
REMARK    1  A    between atoms: C1_2  and  C2_3 
ROOT
ATOM      1  C2  UNL d   1      -0.189  -0.247   0.133  0.00  0.00    -0.076 A 
ATOM      2  C3  UNL d   1      -0.977  -1.211   0.784  0.00  0.00     0.004 A 
ATOM      3  C4  UNL d   1      -0.474  -2.481   1.062  0.00  0.00    -0.003 A 
ATOM      4  C5  UNL d   1       0.827  -2.807   0.694  0.00  0.00     0.000 A 
ATOM      5  C6  UNL d   1       1.629  -1.857   0.063  0.00  0.00     0.000 A 
ATOM      6  C7  UNL d   1       1.142  -0.567  -0.210  0.00  0.00    -0.073 A 
ATOM      7  C8  UNL d   1       2.049   0.416  -0.898  0.00  0.00     0.078 C 
ENDROOT
BRANCH   1   8
ATOM      8  C1  UNL d   1      -0.797   1.104  -0.167  0.00  0.00     0.053 C 
ATOM      9  C   UNL d   1      -1.431   1.164  -1.548  0.00  0.00     0.018 C 
ENDBRANCH   1   8
TORSDOF 1
ENDMDL
