MODEL 1
REMARK minimizedAffinity -1.37097752
REMARK minimizedRMSD -1
REMARK  1 active torsions:
REMARK  status: ('A' for Active; 'I' for Inactive)
REMARK    1  A    between atoms: C1_2  and  C2_3 
ROOT
ATOM      1  C2  UNL d   1      -0.134   0.552  -0.108  0.00  0.00    -0.076 A 
ATOM      2  C3  UNL d   1       1.046   0.346  -0.842  0.00  0.00     0.004 A 
ATOM      3  C4  UNL d   1       1.911  -0.702  -0.533  0.00  0.00    -0.003 A 
ATOM      4  C5  UNL d   1       1.609  -1.562   0.517  0.00  0.00     0.000 A 
ATOM      5  C6  UNL d   1       0.433  -1.384   1.245  0.00  0.00     0.000 A 
ATOM      6  C7  UNL d   1      -0.458  -0.342   0.935  0.00  0.00    -0.073 A 
ATOM      7  C8  UNL d   1      -1.708  -0.193   1.758  0.00  0.00     0.078 C 
ENDROOT
BRANCH   1   8
ATOM      8  C1  UNL d   1      -1.020   1.722  -0.472  0.00  0.00     0.053 C 
ATOM      9  C   UNL d   1      -1.734   1.521  -1.800  0.00  0.00     0.018 C 
ENDBRANCH   1   8
TORSDOF 1
ENDMDL
