MODEL 1
REMARK minimizedAffinity -5.96433163
REMARK minimizedRMSD -1
REMARK  1 active torsions:
REMARK  status: ('A' for Active; 'I' for Inactive)
REMARK    1  A    between atoms: C1_2  and  C2_3 
ROOT
ATOM      1  C2  UNL d   1       0.138   0.029  -0.081  0.00  0.00    -0.076 A 
ATOM      2  C3  UNL d   1      -0.672  -0.870   0.635  0.00  0.00     0.004 A 
ATOM      3  C4  UNL d   1      -0.147  -2.052   1.153  0.00  0.00    -0.003 A 
ATOM      4  C5  UNL d   1       1.197  -2.356   0.963  0.00  0.00     0.000 A 
ATOM      5  C6  UNL d   1       2.019  -1.468   0.271  0.00  0.00     0.000 A 
ATOM      6  C7  UNL d   1       1.509  -0.263  -0.244  0.00  0.00    -0.073 A 
ATOM      7  C8  UNL d   1       2.439   0.655  -0.988  0.00  0.00     0.078 C 
ENDROOT
BRANCH   1   8
ATOM      8  C1  UNL d   1      -0.493   1.283  -0.643  0.00  0.00     0.053 C 
ATOM      9  C   UNL d   1      -1.678   0.984  -1.548  0.00  0.00     0.018 C 
ENDBRANCH   1   8
TORSDOF 1
ENDMDL
