MODEL 1
REMARK minimizedAffinity -5.56795883
REMARK minimizedRMSD -1
REMARK  1 active torsions:
REMARK  status: ('A' for Active; 'I' for Inactive)
REMARK    1  A    between atoms: C1_2  and  C2_3 
ROOT
ATOM      1  C2  UNL d   1       0.407   0.177  -0.048  0.00  0.00    -0.076 A 
ATOM      2  C3  UNL d   1       1.434   0.398  -0.983  0.00  0.00     0.004 A 
ATOM      3  C4  UNL d   1       2.477  -0.515  -1.131  0.00  0.00    -0.003 A 
ATOM      4  C5  UNL d   1       2.509  -1.663  -0.348  0.00  0.00     0.000 A 
ATOM      5  C6  UNL d   1       1.490  -1.907   0.571  0.00  0.00     0.000 A 
ATOM      6  C7  UNL d   1       0.422  -1.005   0.722  0.00  0.00    -0.073 A 
ATOM      7  C8  UNL d   1      -0.647  -1.315   1.734  0.00  0.00     0.078 C 
ENDROOT
BRANCH   1   8
ATOM      8  C1  UNL d   1      -0.684   1.216   0.088  0.00  0.00     0.053 C 
ATOM      9  C   UNL d   1      -1.178   1.722  -1.258  0.00  0.00     0.018 C 
ENDBRANCH   1   8
TORSDOF 1
ENDMDL
