MODEL 1
REMARK minimizedAffinity -4.36490107
REMARK minimizedRMSD -1
REMARK  1 active torsions:
REMARK  status: ('A' for Active; 'I' for Inactive)
REMARK    1  A    between atoms: C1_2  and  C2_3 
ROOT
ATOM      1  C2  UNL d   1       0.241   0.089  -0.056  0.00  0.00    -0.076 A 
ATOM      2  C3  UNL d   1       1.457   0.071  -0.760  0.00  0.00     0.004 A 
ATOM      3  C4  UNL d   1       2.417  -0.908  -0.510  0.00  0.00    -0.003 A 
ATOM      4  C5  UNL d   1       2.175  -1.887   0.448  0.00  0.00     0.000 A 
ATOM      5  C6  UNL d   1       0.966  -1.896   1.143  0.00  0.00     0.000 A 
ATOM      6  C7  UNL d   1      -0.019  -0.925   0.891  0.00  0.00    -0.073 A 
ATOM      7  C8  UNL d   1      -1.302  -0.978   1.674  0.00  0.00     0.078 C 
ENDROOT
BRANCH   1   8
ATOM      8  C1  UNL d   1      -0.751   1.191  -0.351  0.00  0.00     0.053 C 
ATOM      9  C   UNL d   1      -1.685   0.844  -1.500  0.00  0.00     0.018 C 
ENDBRANCH   1   8
TORSDOF 1
ENDMDL
