MODEL 1
REMARK minimizedAffinity -3.70474362
REMARK minimizedRMSD -1
REMARK  1 active torsions:
REMARK  status: ('A' for Active; 'I' for Inactive)
REMARK    1  A    between atoms: C1_2  and  C2_3 
ROOT
ATOM      1  C2  UNL d   1      -0.345   0.049   0.175  0.00  0.00    -0.076 A 
ATOM      2  C3  UNL d   1       0.824   0.115  -0.604  0.00  0.00     0.004 A 
ATOM      3  C4  UNL d   1       1.831  -0.838  -0.468  0.00  0.00    -0.003 A 
ATOM      4  C5  UNL d   1       1.687  -1.873   0.449  0.00  0.00     0.000 A 
ATOM      5  C6  UNL d   1       0.527  -1.964   1.218  0.00  0.00     0.000 A 
ATOM      6  C7  UNL d   1      -0.506  -1.020   1.081  0.00  0.00    -0.073 A 
ATOM      7  C8  UNL d   1      -1.732  -1.163   1.940  0.00  0.00     0.078 C 
ENDROOT
BRANCH   1   8
ATOM      8  C1  UNL d   1      -1.392   1.127   0.003  0.00  0.00     0.053 C 
ATOM      9  C   UNL d   1      -1.618   1.491  -1.456  0.00  0.00     0.018 C 
ENDBRANCH   1   8
TORSDOF 1
ENDMDL
