MODEL 1
REMARK minimizedAffinity -4.10119629
REMARK minimizedRMSD -1
REMARK  1 active torsions:
REMARK  status: ('A' for Active; 'I' for Inactive)
REMARK    1  A    between atoms: C1_2  and  C2_3 
ROOT
ATOM      1  C2  UNL d   1      -0.867   0.479  -0.270  0.00  0.00    -0.076 A 
ATOM      2  C3  UNL d   1      -0.504  -0.627   0.517  0.00  0.00     0.004 A 
ATOM      3  C4  UNL d   1       0.804  -1.109   0.518  0.00  0.00    -0.003 A 
ATOM      4  C5  UNL d   1       1.770  -0.492  -0.268  0.00  0.00     0.000 A 
ATOM      5  C6  UNL d   1       1.432   0.618  -1.042  0.00  0.00     0.000 A 
ATOM      6  C7  UNL d   1       0.122   1.127  -1.041  0.00  0.00    -0.073 A 
ATOM      7  C8  UNL d   1      -0.188   2.323  -1.899  0.00  0.00     0.078 C 
ENDROOT
BRANCH   1   8
ATOM      8  C1  UNL d   1      -2.307   0.941  -0.251  0.00  0.00     0.053 C 
ATOM      9  C   UNL d   1      -2.993   0.763  -1.596  0.00  0.00     0.018 C 
ENDBRANCH   1   8
TORSDOF 1
ENDMDL
