MODEL 1
REMARK minimizedAffinity -6.3445878
REMARK minimizedRMSD -1
REMARK  1 active torsions:
REMARK  status: ('A' for Active; 'I' for Inactive)
REMARK    1  A    between atoms: C1_2  and  C2_3 
ROOT
ATOM      1  C2  UNL d   1       0.131  -1.329   1.255  0.00  0.00    -0.076 A 
ATOM      2  C3  UNL d   1       1.059  -2.349   0.982  0.00  0.00     0.004 A 
ATOM      3  C4  UNL d   1       1.158  -3.468   1.806  0.00  0.00    -0.003 A 
ATOM      4  C5  UNL d   1       0.330  -3.587   2.917  0.00  0.00     0.000 A 
ATOM      5  C6  UNL d   1      -0.609  -2.593   3.193  0.00  0.00     0.000 A 
ATOM      6  C7  UNL d   1      -0.732  -1.466   2.363  0.00  0.00    -0.073 A 
ATOM      7  C8  UNL d   1      -1.758  -0.422   2.712  0.00  0.00     0.078 C 
ENDROOT
BRANCH   1   8
ATOM      8  C1  UNL d   1       0.088  -0.125   0.341  0.00  0.00     0.053 C 
ATOM      9  C   UNL d   1       0.870  -0.341  -0.945  0.00  0.00     0.018 C 
ENDBRANCH   1   8
TORSDOF 1
ENDMDL
