MODEL 1
REMARK minimizedAffinity -4.47640085
REMARK minimizedRMSD -1
REMARK  1 active torsions:
REMARK  status: ('A' for Active; 'I' for Inactive)
REMARK    1  A    between atoms: C1_2  and  C2_3 
ROOT
ATOM      1  C2  UNL d   1      -0.180   0.003   0.129  0.00  0.00    -0.076 A 
ATOM      2  C3  UNL d   1       0.993  -0.047  -0.644  0.00  0.00     0.004 A 
ATOM      3  C4  UNL d   1       1.881  -1.115  -0.533  0.00  0.00    -0.003 A 
ATOM      4  C5  UNL d   1       1.609  -2.153   0.353  0.00  0.00     0.000 A 
ATOM      5  C6  UNL d   1       0.441  -2.129   1.114  0.00  0.00     0.000 A 
ATOM      6  C7  UNL d   1      -0.472  -1.066   1.002  0.00  0.00    -0.073 A 
ATOM      7  C8  UNL d   1      -1.713  -1.089   1.852  0.00  0.00     0.078 C 
ENDROOT
BRANCH   1   8
ATOM      8  C1  UNL d   1      -1.092   1.201  -0.014  0.00  0.00     0.053 C 
ATOM      9  C   UNL d   1      -1.721   1.292  -1.396  0.00  0.00     0.018 C 
ENDBRANCH   1   8
TORSDOF 1
ENDMDL
