MODEL 1
REMARK minimizedAffinity 14.2118692
REMARK minimizedRMSD -1
REMARK  0 active torsions:
REMARK  status: ('A' for Active; 'I' for Inactive)
ROOT
ATOM      1  C1  DEN d   1       1.459  -1.669   0.405  0.00  0.00     0.130 A 
ATOM      2  C2  DEN d   1       2.827  -1.933   0.843  0.00  0.00    -0.031 A 
ATOM      3  C3  DEN d   1       3.291  -3.164   0.173  0.00  0.00     0.027 A 
ATOM      4  C4  DEN d   1       2.034  -4.677  -1.495  0.00  0.00     0.027 A 
ATOM      5  C5  DEN d   1       0.843  -4.866  -2.162  0.00  0.00    -0.003 A 
ATOM      6  C6  DEN d   1      -0.228  -4.028  -1.995  0.00  0.00     0.001 A 
ATOM      7  C7  DEN d   1      -0.115  -2.937  -1.175  0.00  0.00     0.017 A 
ATOM      8  C8  DEN d   1       1.079  -2.744  -0.494  0.00  0.00    -0.094 A 
ATOM      9  C9  DEN d   1       2.155  -3.595  -0.685  0.00  0.00    -0.072 A 
ENDROOT
TORSDOF 0
ENDMDL
