MODEL 1
REMARK minimizedAffinity 11.6543264
REMARK minimizedRMSD -1
REMARK  0 active torsions:
REMARK  status: ('A' for Active; 'I' for Inactive)
ROOT
ATOM      1  C1  DEN d   1      -1.286   2.064   1.630  0.00  0.00     0.130 A 
ATOM      2  C2  DEN d   1      -0.224   1.184   2.112  0.00  0.00    -0.031 A 
ATOM      3  C3  DEN d   1      -0.801  -0.160   2.313  0.00  0.00     0.027 A 
ATOM      4  C4  DEN d   1      -3.222  -0.961   1.922  0.00  0.00     0.027 A 
ATOM      5  C5  DEN d   1      -4.483  -0.573   1.528  0.00  0.00    -0.003 A 
ATOM      6  C6  DEN d   1      -4.773   0.719   1.176  0.00  0.00     0.001 A 
ATOM      7  C7  DEN d   1      -3.777   1.659   1.168  0.00  0.00     0.017 A 
ATOM      8  C8  DEN d   1      -2.504   1.277   1.571  0.00  0.00    -0.094 A 
ATOM      9  C9  DEN d   1      -2.229  -0.037   1.911  0.00  0.00    -0.072 A 
ENDROOT
TORSDOF 0
ENDMDL
