MODEL 1
REMARK minimizedAffinity 9.89015007
REMARK minimizedRMSD -1
REMARK  0 active torsions:
REMARK  status: ('A' for Active; 'I' for Inactive)
ROOT
ATOM      1  C1  DEN d   1      -0.367   5.634  -6.000  0.00  0.00     0.130 A 
ATOM      2  C2  DEN d   1      -1.763   5.204  -6.000  0.00  0.00    -0.031 A 
ATOM      3  C3  DEN d   1      -1.919   4.160  -4.967  0.00  0.00     0.027 A 
ATOM      4  C4  DEN d   1      -0.146   3.176  -3.374  0.00  0.00     0.027 A 
ATOM      5  C5  DEN d   1       1.182   3.218  -3.009  0.00  0.00    -0.003 A 
ATOM      6  C6  DEN d   1       2.086   4.036  -3.633  0.00  0.00     0.001 A 
ATOM      7  C7  DEN d   1       1.664   4.880  -4.626  0.00  0.00     0.017 A 
ATOM      8  C8  DEN d   1       0.329   4.839  -5.005  0.00  0.00    -0.094 A 
ATOM      9  C9  DEN d   1      -0.572   4.013  -4.353  0.00  0.00    -0.072 A 
ENDROOT
TORSDOF 0
ENDMDL
