MODEL 1
REMARK minimizedAffinity 4.53022718
REMARK minimizedRMSD -1
REMARK  0 active torsions:
REMARK  status: ('A' for Active; 'I' for Inactive)
ROOT
ATOM      1  C1  DEN d   1      -2.079   1.608   1.503  0.00  0.00     0.130 A 
ATOM      2  C2  DEN d   1      -0.749   1.158   1.102  0.00  0.00    -0.031 A 
ATOM      3  C3  DEN d   1      -0.565  -0.221   1.598  0.00  0.00     0.027 A 
ATOM      4  C4  DEN d   1      -2.204  -1.696   2.937  0.00  0.00     0.027 A 
ATOM      5  C5  DEN d   1      -3.450  -1.744   3.522  0.00  0.00    -0.003 A 
ATOM      6  C6  DEN d   1      -4.306  -0.675   3.505  0.00  0.00     0.001 A 
ATOM      7  C7  DEN d   1      -3.945   0.473   2.850  0.00  0.00     0.017 A 
ATOM      8  C8  DEN d   1      -2.687   0.532   2.265  0.00  0.00    -0.094 A 
ATOM      9  C9  DEN d   1      -1.841  -0.564   2.282  0.00  0.00    -0.072 A 
ENDROOT
TORSDOF 0
ENDMDL
