MODEL 1
REMARK minimizedAffinity 0.498993993
REMARK minimizedRMSD -1
REMARK  0 active torsions:
REMARK  status: ('A' for Active; 'I' for Inactive)
ROOT
ATOM      1  C1  DEN d   1      -3.746   0.647   2.129  0.00  0.00     0.130 A 
ATOM      2  C2  DEN d   1      -4.579  -0.405   2.704  0.00  0.00    -0.031 A 
ATOM      3  C3  DEN d   1      -3.734  -1.599   2.903  0.00  0.00     0.027 A 
ATOM      4  C4  DEN d   1      -1.227  -1.917   2.384  0.00  0.00     0.027 A 
ATOM      5  C5  DEN d   1      -0.100  -1.309   1.877  0.00  0.00    -0.003 A 
ATOM      6  C6  DEN d   1      -0.117  -0.028   1.391  0.00  0.00     0.001 A 
ATOM      7  C7  DEN d   1      -1.275   0.702   1.443  0.00  0.00     0.017 A 
ATOM      8  C8  DEN d   1      -2.417   0.094   1.946  0.00  0.00    -0.094 A 
ATOM      9  C9  DEN d   1      -2.376  -1.198   2.444  0.00  0.00    -0.072 A 
ENDROOT
TORSDOF 0
ENDMDL
