MODEL 1
REMARK minimizedAffinity 7.70498705
REMARK minimizedRMSD -1
REMARK  0 active torsions:
REMARK  status: ('A' for Active; 'I' for Inactive)
ROOT
ATOM      1  C1  DEN d   1       3.377   2.151  -5.834  0.00  0.00     0.130 A 
ATOM      2  C2  DEN d   1       4.569   1.311  -5.918  0.00  0.00    -0.031 A 
ATOM      3  C3  DEN d   1       5.747   2.198  -6.000  0.00  0.00     0.027 A 
ATOM      4  C4  DEN d   1       5.841   4.775  -6.000  0.00  0.00     0.027 A 
ATOM      5  C5  DEN d   1       5.085   5.926  -5.957  0.00  0.00    -0.003 A 
ATOM      6  C6  DEN d   1       3.716   5.900  -5.905  0.00  0.00     0.001 A 
ATOM      7  C7  DEN d   1       3.063   4.697  -5.849  0.00  0.00     0.017 A 
ATOM      8  C8  DEN d   1       3.817   3.532  -5.899  0.00  0.00    -0.094 A 
ATOM      9  C9  DEN d   1       5.200   3.580  -5.939  0.00  0.00    -0.072 A 
ENDROOT
TORSDOF 0
ENDMDL
