MODEL 1
REMARK minimizedAffinity 6.98897648
REMARK minimizedRMSD -1
REMARK  0 active torsions:
REMARK  status: ('A' for Active; 'I' for Inactive)
ROOT
ATOM      1  C1  DEN d   1      -1.310   0.237   1.325  0.00  0.00     0.130 A 
ATOM      2  C2  DEN d   1      -0.069  -0.523   1.198  0.00  0.00    -0.031 A 
ATOM      3  C3  DEN d   1      -0.262  -1.827   1.864  0.00  0.00     0.027 A 
ATOM      4  C4  DEN d   1      -2.351  -2.740   3.070  0.00  0.00     0.027 A 
ATOM      5  C5  DEN d   1      -3.644  -2.454   3.446  0.00  0.00    -0.003 A 
ATOM      6  C6  DEN d   1      -4.234  -1.248   3.173  0.00  0.00     0.001 A 
ATOM      7  C7  DEN d   1      -3.545  -0.300   2.466  0.00  0.00     0.017 A 
ATOM      8  C8  DEN d   1      -2.237  -0.578   2.090  0.00  0.00    -0.094 A 
ATOM      9  C9  DEN d   1      -1.663  -1.807   2.364  0.00  0.00    -0.072 A 
ENDROOT
TORSDOF 0
ENDMDL
