MODEL 1
REMARK minimizedAffinity 1.95334172
REMARK minimizedRMSD -1
REMARK  0 active torsions:
REMARK  status: ('A' for Active; 'I' for Inactive)
ROOT
ATOM      1  C1  DEN d   1      -0.107  -1.432  -0.005  0.00  0.00     0.130 A 
ATOM      2  C2  DEN d   1      -0.773  -1.344   1.292  0.00  0.00    -0.031 A 
ATOM      3  C3  DEN d   1      -1.915  -2.279   1.282  0.00  0.00     0.027 A 
ATOM      4  C4  DEN d   1      -2.710  -3.851  -0.602  0.00  0.00     0.027 A 
ATOM      5  C5  DEN d   1      -2.469  -4.268  -1.892  0.00  0.00    -0.003 A 
ATOM      6  C6  DEN d   1      -1.453  -3.749  -2.650  0.00  0.00     0.001 A 
ATOM      7  C7  DEN d   1      -0.611  -2.814  -2.107  0.00  0.00     0.017 A 
ATOM      8  C8  DEN d   1      -0.853  -2.383  -0.809  0.00  0.00    -0.094 A 
ATOM      9  C9  DEN d   1      -1.877  -2.929  -0.055  0.00  0.00    -0.072 A 
ENDROOT
TORSDOF 0
ENDMDL
