MODEL 1
REMARK minimizedAffinity 4.32436085
REMARK minimizedRMSD -1
REMARK  0 active torsions:
REMARK  status: ('A' for Active; 'I' for Inactive)
ROOT
ATOM      1  C1  DEN d   1      -2.212   0.021   1.397  0.00  0.00     0.130 A 
ATOM      2  C2  DEN d   1      -2.964   1.194   0.961  0.00  0.00    -0.031 A 
ATOM      3  C3  DEN d   1      -4.303   1.134   1.582  0.00  0.00     0.027 A 
ATOM      4  C4  DEN d   1      -5.276  -0.648   3.173  0.00  0.00     0.027 A 
ATOM      5  C5  DEN d   1      -5.017  -1.836   3.820  0.00  0.00    -0.003 A 
ATOM      6  C6  DEN d   1      -3.828  -2.500   3.680  0.00  0.00     0.001 A 
ATOM      7  C7  DEN d   1      -2.834  -1.957   2.908  0.00  0.00     0.017 A 
ATOM      8  C8  DEN d   1      -3.090  -0.764   2.246  0.00  0.00    -0.094 A 
ATOM      9  C9  DEN d   1      -4.295  -0.101   2.411  0.00  0.00    -0.072 A 
ENDROOT
TORSDOF 0
ENDMDL
