MODEL 1
REMARK minimizedAffinity 5.8544755
REMARK minimizedRMSD -1
REMARK  0 active torsions:
REMARK  status: ('A' for Active; 'I' for Inactive)
ROOT
ATOM      1  C1  DEN d   1       3.674  -3.323  -0.777  0.00  0.00     0.130 A 
ATOM      2  C2  DEN d   1       3.463  -2.128   0.036  0.00  0.00    -0.031 A 
ATOM      3  C3  DEN d   1       2.290  -1.411  -0.501  0.00  0.00     0.027 A 
ATOM      4  C4  DEN d   1       0.784  -2.033  -2.501  0.00  0.00     0.027 A 
ATOM      5  C5  DEN d   1       0.575  -2.951  -3.506  0.00  0.00    -0.003 A 
ATOM      6  C6  DEN d   1       1.398  -4.030  -3.692  0.00  0.00     0.001 A 
ATOM      7  C7  DEN d   1       2.443  -4.243  -2.832  0.00  0.00     0.017 A 
ATOM      8  C8  DEN d   1       2.664  -3.318  -1.820  0.00  0.00    -0.094 A 
ATOM      9  C9  DEN d   1       1.813  -2.240  -1.641  0.00  0.00    -0.072 A 
ENDROOT
TORSDOF 0
ENDMDL
