MODEL 1
REMARK minimizedAffinity 13.9492359
REMARK minimizedRMSD -1
REMARK  0 active torsions:
REMARK  status: ('A' for Active; 'I' for Inactive)
ROOT
ATOM      1  C1  DEN d   1       0.165   2.987  -0.840  0.00  0.00     0.130 A 
ATOM      2  C2  DEN d   1       1.517   2.677  -0.384  0.00  0.00    -0.031 A 
ATOM      3  C3  DEN d   1       1.421   1.630   0.652  0.00  0.00     0.027 A 
ATOM      4  C4  DEN d   1      -0.679   0.459   1.586  0.00  0.00     0.027 A 
ATOM      5  C5  DEN d   1      -2.053   0.395   1.516  0.00  0.00    -0.003 A 
ATOM      6  C6  DEN d   1      -2.781   1.207   0.687  0.00  0.00     0.001 A 
ATOM      7  C7  DEN d   1      -2.134   2.088  -0.139  0.00  0.00     0.017 A 
ATOM      8  C8  DEN d   1      -0.749   2.164  -0.068  0.00  0.00    -0.094 A 
ATOM      9  C9  DEN d   1      -0.031   1.326   0.767  0.00  0.00    -0.072 A 
ENDROOT
TORSDOF 0
ENDMDL
