MODEL 1
REMARK minimizedAffinity 8.64591122
REMARK minimizedRMSD -1
REMARK  0 active torsions:
REMARK  status: ('A' for Active; 'I' for Inactive)
ROOT
ATOM      1  C1  DEN d   1      -3.635  -1.258   3.797  0.00  0.00     0.130 A 
ATOM      2  C2  DEN d   1      -5.031  -1.172   4.217  0.00  0.00    -0.031 A 
ATOM      3  C3  DEN d   1      -5.712  -0.198   3.342  0.00  0.00     0.027 A 
ATOM      4  C4  DEN d   1      -4.748   1.175   1.383  0.00  0.00     0.027 A 
ATOM      5  C5  DEN d   1      -3.609   1.449   0.657  0.00  0.00    -0.003 A 
ATOM      6  C6  DEN d   1      -2.402   0.871   0.947  0.00  0.00     0.001 A 
ATOM      7  C7  DEN d   1      -2.315  -0.046   1.961  0.00  0.00     0.017 A 
ATOM      8  C8  DEN d   1      -3.457  -0.323   2.701  0.00  0.00    -0.094 A 
ATOM      9  C9  DEN d   1      -4.670   0.263   2.385  0.00  0.00    -0.072 A 
ENDROOT
TORSDOF 0
ENDMDL
