MODEL 1
REMARK minimizedAffinity 2.15685105
REMARK minimizedRMSD -1
REMARK  0 active torsions:
REMARK  status: ('A' for Active; 'I' for Inactive)
ROOT
ATOM      1  C1  DEN d   1       2.268   4.155  -4.231  0.00  0.00     0.130 A 
ATOM      2  C2  DEN d   1       2.110   2.731  -4.513  0.00  0.00    -0.031 A 
ATOM      3  C3  DEN d   1       3.300   2.279  -5.261  0.00  0.00     0.027 A 
ATOM      4  C4  DEN d   1       5.365   3.636  -5.999  0.00  0.00     0.027 A 
ATOM      5  C5  DEN d   1       5.946   4.885  -5.999  0.00  0.00    -0.003 A 
ATOM      6  C6  DEN d   1       5.332   5.976  -5.443  0.00  0.00     0.001 A 
ATOM      7  C7  DEN d   1       4.118   5.830  -4.824  0.00  0.00     0.017 A 
ATOM      8  C8  DEN d   1       3.523   4.576  -4.828  0.00  0.00    -0.094 A 
ATOM      9  C9  DEN d   1       4.165   3.483  -5.384  0.00  0.00    -0.072 A 
ENDROOT
TORSDOF 0
ENDMDL
