MODEL 1
REMARK minimizedAffinity 9.42346478
REMARK minimizedRMSD -1
REMARK  0 active torsions:
REMARK  status: ('A' for Active; 'I' for Inactive)
ROOT
ATOM      1  C1  DEN d   1      -4.154   0.294   3.282  0.00  0.00     0.130 A 
ATOM      2  C2  DEN d   1      -5.156  -0.609   3.842  0.00  0.00    -0.031 A 
ATOM      3  C3  DEN d   1      -4.600  -1.977   3.820  0.00  0.00     0.027 A 
ATOM      4  C4  DEN d   1      -2.297  -2.779   2.982  0.00  0.00     0.027 A 
ATOM      5  C5  DEN d   1      -1.109  -2.380   2.409  0.00  0.00    -0.003 A 
ATOM      6  C6  DEN d   1      -0.868  -1.078   2.060  0.00  0.00     0.001 A 
ATOM      7  C7  DEN d   1      -1.812  -0.119   2.321  0.00  0.00     0.017 A 
ATOM      8  C8  DEN d   1      -3.015  -0.515   2.890  0.00  0.00    -0.094 A 
ATOM      9  C9  DEN d   1      -3.234  -1.835   3.248  0.00  0.00    -0.072 A 
ENDROOT
TORSDOF 0
ENDMDL
