MODEL 1
REMARK minimizedAffinity 5.00886631
REMARK minimizedRMSD -1
REMARK  0 active torsions:
REMARK  status: ('A' for Active; 'I' for Inactive)
ROOT
ATOM      1  C1  DEN d   1      -2.839   1.109   2.010  0.00  0.00     0.130 A 
ATOM      2  C2  DEN d   1      -3.610   1.697   0.918  0.00  0.00    -0.031 A 
ATOM      3  C3  DEN d   1      -2.803   2.779   0.320  0.00  0.00     0.027 A 
ATOM      4  C4  DEN d   1      -0.443   3.593   0.971  0.00  0.00     0.027 A 
ATOM      5  C5  DEN d   1       0.607   3.408   1.842  0.00  0.00    -0.003 A 
ATOM      6  C6  DEN d   1       0.569   2.475   2.844  0.00  0.00     0.001 A 
ATOM      7  C7  DEN d   1      -0.524   1.659   2.971  0.00  0.00     0.017 A 
ATOM      8  C8  DEN d   1      -1.590   1.844   2.100  0.00  0.00    -0.094 A 
ATOM      9  C9  DEN d   1      -1.528   2.785   1.086  0.00  0.00    -0.072 A 
ENDROOT
TORSDOF 0
ENDMDL
