MODEL 1
REMARK minimizedAffinity -2.9254005
REMARK minimizedRMSD -1
REMARK  1 active torsions:
REMARK  status: ('A' for Active; 'I' for Inactive)
REMARK    1  A    between atoms: C1_2  and  C2_3 
ROOT
ATOM      1  C2  UNL d   1       0.858   0.792   0.497  0.00  0.00    -0.077 A 
ATOM      2  C3  UNL d   1       0.154   1.693  -0.315  0.00  0.00     0.002 A 
ATOM      3  C4  UNL d   1       0.639   2.986  -0.521  0.00  0.00     0.002 A 
ATOM      4  C5  UNL d   1       1.831   3.388   0.079  0.00  0.00    -0.004 A 
ATOM      5  C6  UNL d   1       2.536   2.501   0.890  0.00  0.00     0.002 A 
ATOM      6  C7  UNL d   1       2.053   1.208   1.098  0.00  0.00     0.002 A 
ENDROOT
BRANCH   1   7
ATOM      7  C1  UNL d   1       0.362  -0.619   0.680  0.00  0.00     0.055 C 
ATOM      8  C   UNL d   1      -1.109  -0.642   1.071  0.00  0.00     0.019 C 
ENDBRANCH   1   7
TORSDOF 1
ENDMDL
