MODEL 1
REMARK minimizedAffinity -2.66669321
REMARK minimizedRMSD -1
REMARK  1 active torsions:
REMARK  status: ('A' for Active; 'I' for Inactive)
REMARK    1  A    between atoms: C1_2  and  C2_3 
ROOT
ATOM      1  C2  UNL d   1       0.101   0.180   0.061  0.00  0.00    -0.077 A 
ATOM      2  C3  UNL d   1      -0.739  -0.729   0.718  0.00  0.00     0.002 A 
ATOM      3  C4  UNL d   1      -1.949  -1.118   0.139  0.00  0.00     0.002 A 
ATOM      4  C5  UNL d   1      -2.327  -0.606  -1.100  0.00  0.00    -0.004 A 
ATOM      5  C6  UNL d   1      -1.499   0.301  -1.761  0.00  0.00     0.002 A 
ATOM      6  C7  UNL d   1      -0.290   0.691  -1.183  0.00  0.00     0.002 A 
ENDROOT
BRANCH   1   7
ATOM      7  C1  UNL d   1       1.429   0.563   0.660  0.00  0.00     0.055 C 
ATOM      8  C   UNL d   1       1.732   2.038   0.438  0.00  0.00     0.019 C 
ENDBRANCH   1   7
TORSDOF 1
ENDMDL
