MODEL 1
REMARK minimizedAffinity -2.81729555
REMARK minimizedRMSD -1
REMARK  1 active torsions:
REMARK  status: ('A' for Active; 'I' for Inactive)
REMARK    1  A    between atoms: C1_2  and  C2_3 
ROOT
ATOM      1  C2  UNL d   1      -0.053  -0.519  -0.410  0.00  0.00    -0.077 A 
ATOM      2  C3  UNL d   1       0.360  -1.285   0.689  0.00  0.00     0.002 A 
ATOM      3  C4  UNL d   1      -0.574  -1.994   1.447  0.00  0.00     0.002 A 
ATOM      4  C5  UNL d   1      -1.925  -1.947   1.112  0.00  0.00    -0.004 A 
ATOM      5  C6  UNL d   1      -2.346  -1.187   0.022  0.00  0.00     0.002 A 
ATOM      6  C7  UNL d   1      -1.415  -0.477  -0.737  0.00  0.00     0.002 A 
ENDROOT
BRANCH   1   7
ATOM      7  C1  UNL d   1       0.958   0.206  -1.259  0.00  0.00     0.055 C 
ATOM      8  C   UNL d   1       0.374   0.588  -2.611  0.00  0.00     0.019 C 
ENDBRANCH   1   7
TORSDOF 1
ENDMDL
