MODEL 1
REMARK minimizedAffinity -5.02340937
REMARK minimizedRMSD -1
REMARK  1 active torsions:
REMARK  status: ('A' for Active; 'I' for Inactive)
REMARK    1  A    between atoms: C1_2  and  C2_3 
ROOT
ATOM      1  C2  UNL d   1       0.293   0.473   0.169  0.00  0.00    -0.077 A 
ATOM      2  C3  UNL d   1      -0.586  -0.616   0.255  0.00  0.00     0.002 A 
ATOM      3  C4  UNL d   1      -1.902  -0.499  -0.199  0.00  0.00     0.002 A 
ATOM      4  C5  UNL d   1      -2.347   0.703  -0.745  0.00  0.00    -0.004 A 
ATOM      5  C6  UNL d   1      -1.481   1.792  -0.833  0.00  0.00     0.002 A 
ATOM      6  C7  UNL d   1      -0.166   1.677  -0.379  0.00  0.00     0.002 A 
ENDROOT
BRANCH   1   7
ATOM      7  C1  UNL d   1       1.726   0.333   0.612  0.00  0.00     0.055 C 
ATOM      8  C   UNL d   1       2.517   1.603   0.335  0.00  0.00     0.019 C 
ENDBRANCH   1   7
TORSDOF 1
ENDMDL
