MODEL 1
REMARK minimizedAffinity -5.56704807
REMARK minimizedRMSD -1
REMARK  1 active torsions:
REMARK  status: ('A' for Active; 'I' for Inactive)
REMARK    1  A    between atoms: C1_2  and  C2_3 
ROOT
ATOM      1  C2  UNL d   1      -0.837   0.183  -0.190  0.00  0.00    -0.077 A 
ATOM      2  C3  UNL d   1      -1.186   0.479  -1.515  0.00  0.00     0.002 A 
ATOM      3  C4  UNL d   1      -2.408   0.048  -2.036  0.00  0.00     0.002 A 
ATOM      4  C5  UNL d   1      -3.291  -0.677  -1.239  0.00  0.00    -0.004 A 
ATOM      5  C6  UNL d   1      -2.952  -0.978   0.079  0.00  0.00     0.002 A 
ATOM      6  C7  UNL d   1      -1.731  -0.549   0.602  0.00  0.00     0.002 A 
ENDROOT
BRANCH   1   7
ATOM      7  C1  UNL d   1       0.458   0.689   0.390  0.00  0.00     0.055 C 
ATOM      8  C   UNL d   1       0.254   1.992   1.149  0.00  0.00     0.019 C 
ENDBRANCH   1   7
TORSDOF 1
ENDMDL
