MODEL 1
REMARK minimizedAffinity -5.64257526
REMARK minimizedRMSD -1
REMARK  1 active torsions:
REMARK  status: ('A' for Active; 'I' for Inactive)
REMARK    1  A    between atoms: C1_2  and  C2_3 
ROOT
ATOM      1  C2  UNL d   1       0.015   0.329   0.187  0.00  0.00    -0.077 A 
ATOM      2  C3  UNL d   1       0.085   0.605  -1.186  0.00  0.00     0.002 A 
ATOM      3  C4  UNL d   1      -0.957   0.229  -2.035  0.00  0.00     0.002 A 
ATOM      4  C5  UNL d   1      -2.078  -0.421  -1.521  0.00  0.00    -0.004 A 
ATOM      5  C6  UNL d   1      -2.155  -0.702  -0.158  0.00  0.00     0.002 A 
ATOM      6  C7  UNL d   1      -1.114  -0.328   0.693  0.00  0.00     0.002 A 
ENDROOT
BRANCH   1   7
ATOM      7  C1  UNL d   1       1.116   0.777   1.113  0.00  0.00     0.055 C 
ATOM      8  C   UNL d   1       0.708   2.014   1.899  0.00  0.00     0.019 C 
ENDBRANCH   1   7
TORSDOF 1
ENDMDL
