MODEL 1
REMARK minimizedAffinity -2.90380502
REMARK minimizedRMSD -1
REMARK  1 active torsions:
REMARK  status: ('A' for Active; 'I' for Inactive)
REMARK    1  A    between atoms: C1_2  and  C2_3 
ROOT
ATOM      1  C2  UNL d   1      -0.682  -0.077  -0.098  0.00  0.00    -0.077 A 
ATOM      2  C3  UNL d   1      -1.330  -1.242   0.335  0.00  0.00     0.002 A 
ATOM      3  C4  UNL d   1      -2.303  -1.848  -0.464  0.00  0.00     0.002 A 
ATOM      4  C5  UNL d   1      -2.632  -1.297  -1.701  0.00  0.00    -0.004 A 
ATOM      5  C6  UNL d   1      -1.995  -0.137  -2.139  0.00  0.00     0.002 A 
ATOM      6  C7  UNL d   1      -1.024   0.470  -1.341  0.00  0.00     0.002 A 
ENDROOT
BRANCH   1   7
ATOM      7  C1  UNL d   1       0.402   0.550   0.740  0.00  0.00     0.055 C 
ATOM      8  C   UNL d   1       1.784   0.155   0.242  0.00  0.00     0.019 C 
ENDBRANCH   1   7
TORSDOF 1
ENDMDL
