MODEL 1
REMARK minimizedAffinity -4.64517117
REMARK minimizedRMSD -1
REMARK  1 active torsions:
REMARK  status: ('A' for Active; 'I' for Inactive)
REMARK    1  A    between atoms: C1_2  and  C2_3 
ROOT
ATOM      1  C2  UNL d   1       1.327   0.834   0.941  0.00  0.00    -0.077 A 
ATOM      2  C3  UNL d   1       2.371   1.437   0.225  0.00  0.00     0.002 A 
ATOM      3  C4  UNL d   1       2.832   2.706   0.582  0.00  0.00     0.002 A 
ATOM      4  C5  UNL d   1       2.258   3.380   1.658  0.00  0.00    -0.004 A 
ATOM      5  C6  UNL d   1       1.218   2.790   2.375  0.00  0.00     0.002 A 
ATOM      6  C7  UNL d   1       0.756   1.522   2.019  0.00  0.00     0.002 A 
ENDROOT
BRANCH   1   7
ATOM      7  C1  UNL d   1       0.862  -0.554   0.589  0.00  0.00     0.055 C 
ATOM      8  C   UNL d   1       0.769  -1.437   1.825  0.00  0.00     0.019 C 
ENDBRANCH   1   7
TORSDOF 1
ENDMDL
