MODEL 1
REMARK minimizedAffinity -3.68110347
REMARK minimizedRMSD -1
REMARK  1 active torsions:
REMARK  status: ('A' for Active; 'I' for Inactive)
REMARK    1  A    between atoms: C1_2  and  C2_3 
ROOT
ATOM      1  C2  UNL d   1      -0.836   0.114   0.533  0.00  0.00    -0.077 A 
ATOM      2  C3  UNL d   1      -0.597   0.651  -0.739  0.00  0.00     0.002 A 
ATOM      3  C4  UNL d   1       0.702   0.974  -1.137  0.00  0.00     0.002 A 
ATOM      4  C5  UNL d   1       1.772   0.760  -0.270  0.00  0.00    -0.004 A 
ATOM      5  C6  UNL d   1       1.544   0.229   0.999  0.00  0.00     0.002 A 
ATOM      6  C7  UNL d   1       0.246  -0.094   1.398  0.00  0.00     0.002 A 
ENDROOT
BRANCH   1   7
ATOM      7  C1  UNL d   1      -2.230  -0.281   0.946  0.00  0.00     0.055 C 
ATOM      8  C   UNL d   1      -2.966  -0.979  -0.189  0.00  0.00     0.019 C 
ENDBRANCH   1   7
TORSDOF 1
ENDMDL
