MODEL 1
REMARK minimizedAffinity -2.37899113
REMARK minimizedRMSD -1
REMARK  1 active torsions:
REMARK  status: ('A' for Active; 'I' for Inactive)
REMARK    1  A    between atoms: C1_2  and  C2_3 
ROOT
ATOM      1  C2  UNL d   1      -1.596  -0.180  -1.295  0.00  0.00    -0.077 A 
ATOM      2  C3  UNL d   1      -2.583   0.207  -2.212  0.00  0.00     0.002 A 
ATOM      3  C4  UNL d   1      -3.101  -0.716  -3.123  0.00  0.00     0.002 A 
ATOM      4  C5  UNL d   1      -2.641  -2.031  -3.123  0.00  0.00    -0.004 A 
ATOM      5  C6  UNL d   1      -1.658  -2.425  -2.216  0.00  0.00     0.002 A 
ATOM      6  C7  UNL d   1      -1.139  -1.504  -1.305  0.00  0.00     0.002 A 
ENDROOT
BRANCH   1   7
ATOM      7  C1  UNL d   1      -1.071   0.801  -0.279  0.00  0.00     0.055 C 
ATOM      8  C   UNL d   1       0.136   0.241   0.459  0.00  0.00     0.019 C 
ENDBRANCH   1   7
TORSDOF 1
ENDMDL
