MODEL 1
REMARK minimizedAffinity 9.89000416
REMARK minimizedRMSD -1
REMARK  3 active torsions:
REMARK  status: ('A' for Active; 'I' for Inactive)
REMARK    1  A    between atoms: C3'_2  and  C2'_3 
REMARK    2  A    between atoms: C2'_3  and  C1'_4 
REMARK    3  A    between atoms: C1'_4  and  C1_5 
ROOT
ATOM      1  C1  N4B d   1      -1.574  -2.782  -3.562  0.00  0.00    -0.075 A 
ATOM      2  C2  N4B d   1      -1.212  -2.137  -4.765  0.00  0.00     0.002 A 
ATOM      3  C3  N4B d   1      -1.596  -2.670  -5.971  0.00  0.00     0.002 A 
ATOM      4  C4  N4B d   1      -2.323  -3.851  -6.000  0.00  0.00    -0.004 A 
ATOM      5  C5  N4B d   1      -2.690  -4.453  -4.832  0.00  0.00     0.002 A 
ATOM      6  C6  N4B d   1      -2.314  -3.928  -3.613  0.00  0.00     0.002 A 
ENDROOT
BRANCH   1   7
ATOM      7  C1' N4B d   1      -1.104  -2.285  -2.222  0.00  0.00     0.057 C 
BRANCH   7   8
ATOM      8  C2' N4B d   1      -0.335  -3.397  -1.516  0.00  0.00     0.009 C 
BRANCH   8   9
ATOM      9  C3' N4B d   1       0.098  -2.990  -0.118  0.00  0.00     0.004 C 
ATOM     10  C4' N4B d   1      -1.008  -2.355   0.670  0.00  0.00     0.003 C 
ENDBRANCH   8   9
ENDBRANCH   7   8
ENDBRANCH   1   7
TORSDOF 3
ENDMDL
