MODEL 1
REMARK minimizedAffinity 11.8566761
REMARK minimizedRMSD -1
REMARK  3 active torsions:
REMARK  status: ('A' for Active; 'I' for Inactive)
REMARK    1  A    between atoms: C3'_2  and  C2'_3 
REMARK    2  A    between atoms: C2'_3  and  C1'_4 
REMARK    3  A    between atoms: C1'_4  and  C1_5 
ROOT
ATOM      1  C1  N4B d   1      -2.205  -2.529  -3.355  0.00  0.00    -0.075 A 
ATOM      2  C2  N4B d   1      -1.639  -1.740  -4.381  0.00  0.00     0.002 A 
ATOM      3  C3  N4B d   1      -1.758  -2.130  -5.692  0.00  0.00     0.002 A 
ATOM      4  C4  N4B d   1      -2.420  -3.309  -5.999  0.00  0.00    -0.004 A 
ATOM      5  C5  N4B d   1      -2.986  -4.052  -5.005  0.00  0.00     0.002 A 
ATOM      6  C6  N4B d   1      -2.877  -3.671  -3.683  0.00  0.00     0.002 A 
ENDROOT
BRANCH   1   7
ATOM      7  C1' N4B d   1      -2.026  -2.188  -1.901  0.00  0.00     0.057 C 
BRANCH   7   8
ATOM      8  C2' N4B d   1      -1.060  -3.186  -1.268  0.00  0.00     0.009 C 
BRANCH   8   9
ATOM      9  C3' N4B d   1      -0.340  -2.595  -0.068  0.00  0.00     0.004 C 
ATOM     10  C4' N4B d   1      -1.041  -2.878   1.227  0.00  0.00     0.003 C 
ENDBRANCH   8   9
ENDBRANCH   7   8
ENDBRANCH   1   7
TORSDOF 3
ENDMDL
