MODEL 1
REMARK minimizedAffinity 6.70380831
REMARK minimizedRMSD -1
REMARK  3 active torsions:
REMARK  status: ('A' for Active; 'I' for Inactive)
REMARK    1  A    between atoms: C3'_2  and  C2'_3 
REMARK    2  A    between atoms: C2'_3  and  C1'_4 
REMARK    3  A    between atoms: C1'_4  and  C1_5 
ROOT
ATOM      1  C1  N4B d   1      -1.421  -2.082  -1.220  0.00  0.00    -0.075 A 
ATOM      2  C2  N4B d   1      -0.290  -2.613  -0.562  0.00  0.00     0.002 A 
ATOM      3  C3  N4B d   1      -0.231  -2.613   0.810  0.00  0.00     0.002 A 
ATOM      4  C4  N4B d   1      -1.277  -2.073   1.542  0.00  0.00    -0.004 A 
ATOM      5  C5  N4B d   1      -2.377  -1.585   0.900  0.00  0.00     0.002 A 
ATOM      6  C6  N4B d   1      -2.453  -1.582  -0.478  0.00  0.00     0.002 A 
ENDROOT
BRANCH   1   7
ATOM      7  C1' N4B d   1      -1.494  -1.982  -2.719  0.00  0.00     0.057 C 
BRANCH   7   8
ATOM      8  C2' N4B d   1      -1.582  -3.385  -3.311  0.00  0.00     0.009 C 
BRANCH   8   9
ATOM      9  C3' N4B d   1      -2.410  -3.414  -4.584  0.00  0.00     0.004 C 
ATOM     10  C4' N4B d   1      -1.644  -2.948  -5.786  0.00  0.00     0.003 C 
ENDBRANCH   8   9
ENDBRANCH   7   8
ENDBRANCH   1   7
TORSDOF 3
ENDMDL
