MODEL 1
REMARK minimizedAffinity 5.29857445
REMARK minimizedRMSD -1
REMARK  3 active torsions:
REMARK  status: ('A' for Active; 'I' for Inactive)
REMARK    1  A    between atoms: C3'_2  and  C2'_3 
REMARK    2  A    between atoms: C2'_3  and  C1'_4 
REMARK    3  A    between atoms: C1'_4  and  C1_5 
ROOT
ATOM      1  C1  N4B d   1       3.081   3.190  -5.964  0.00  0.00    -0.075 A 
ATOM      2  C2  N4B d   1       1.829   3.842  -5.977  0.00  0.00     0.002 A 
ATOM      3  C3  N4B d   1       1.769   5.214  -5.997  0.00  0.00     0.002 A 
ATOM      4  C4  N4B d   1       2.944   5.952  -5.986  0.00  0.00    -0.004 A 
ATOM      5  C5  N4B d   1       4.150   5.314  -5.999  0.00  0.00     0.002 A 
ATOM      6  C6  N4B d   1       4.224   3.936  -5.983  0.00  0.00     0.002 A 
ENDROOT
BRANCH   1   7
ATOM      7  C1' N4B d   1       3.197   1.694  -5.856  0.00  0.00     0.057 C 
BRANCH   7   8
ATOM      8  C2' N4B d   1       4.085   1.345  -4.665  0.00  0.00     0.009 C 
BRANCH   8   9
ATOM      9  C3' N4B d   1       3.831   2.261  -3.479  0.00  0.00     0.004 C 
ATOM     10  C4' N4B d   1       4.464   1.762  -2.215  0.00  0.00     0.003 C 
ENDBRANCH   8   9
ENDBRANCH   7   8
ENDBRANCH   1   7
TORSDOF 3
ENDMDL
