MODEL 1
REMARK minimizedAffinity 3.51985407
REMARK minimizedRMSD -1
REMARK  3 active torsions:
REMARK  status: ('A' for Active; 'I' for Inactive)
REMARK    1  A    between atoms: C3'_2  and  C2'_3 
REMARK    2  A    between atoms: C2'_3  and  C1'_4 
REMARK    3  A    between atoms: C1'_4  and  C1_5 
ROOT
ATOM      1  C1  N4B d   1      -1.410  -1.848  -0.854  0.00  0.00    -0.075 A 
ATOM      2  C2  N4B d   1      -2.138  -1.675   0.344  0.00  0.00     0.002 A 
ATOM      3  C3  N4B d   1      -1.611  -2.108   1.536  0.00  0.00     0.002 A 
ATOM      4  C4  N4B d   1      -0.373  -2.731   1.552  0.00  0.00    -0.004 A 
ATOM      5  C5  N4B d   1       0.335  -2.871   0.394  0.00  0.00     0.002 A 
ATOM      6  C6  N4B d   1      -0.180  -2.437  -0.811  0.00  0.00     0.002 A 
ENDROOT
BRANCH   1   7
ATOM      7  C1' N4B d   1      -1.982  -1.468  -2.193  0.00  0.00     0.057 C 
BRANCH   7   8
ATOM      8  C2' N4B d   1      -1.442  -2.419  -3.256  0.00  0.00     0.009 C 
BRANCH   8   9
ATOM      9  C3' N4B d   1      -2.558  -3.115  -4.016  0.00  0.00     0.004 C 
ATOM     10  C4' N4B d   1      -2.316  -3.156  -5.496  0.00  0.00     0.003 C 
ENDBRANCH   8   9
ENDBRANCH   7   8
ENDBRANCH   1   7
TORSDOF 3
ENDMDL
