MODEL 1
REMARK minimizedAffinity 8.0243988
REMARK minimizedRMSD -1
REMARK  3 active torsions:
REMARK  status: ('A' for Active; 'I' for Inactive)
REMARK    1  A    between atoms: C3'_2  and  C2'_3 
REMARK    2  A    between atoms: C2'_3  and  C1'_4 
REMARK    3  A    between atoms: C1'_4  and  C1_5 
ROOT
ATOM      1  C1  N4B d   1      -1.809  -2.398  -3.621  0.00  0.00    -0.075 A 
ATOM      2  C2  N4B d   1      -2.682  -3.508  -3.627  0.00  0.00     0.002 A 
ATOM      3  C3  N4B d   1      -2.998  -4.126  -4.812  0.00  0.00     0.002 A 
ATOM      4  C4  N4B d   1      -2.472  -3.642  -6.000  0.00  0.00    -0.004 A 
ATOM      5  C5  N4B d   1      -1.610  -2.584  -5.983  0.00  0.00     0.002 A 
ATOM      6  C6  N4B d   1      -1.280  -1.956  -4.799  0.00  0.00     0.002 A 
ENDROOT
BRANCH   1   7
ATOM      7  C1' N4B d   1      -1.502  -1.636  -2.360  0.00  0.00     0.057 C 
BRANCH   7   8
ATOM      8  C2' N4B d   1      -1.496  -2.603  -1.180  0.00  0.00     0.009 C 
BRANCH   8   9
ATOM      9  C3' N4B d   1      -0.427  -2.249  -0.160  0.00  0.00     0.004 C 
ATOM     10  C4' N4B d   1       0.605  -3.325  -0.003  0.00  0.00     0.003 C 
ENDBRANCH   8   9
ENDBRANCH   7   8
ENDBRANCH   1   7
TORSDOF 3
ENDMDL
