MODEL 1
REMARK minimizedAffinity 0.907240331
REMARK minimizedRMSD -1
REMARK  3 active torsions:
REMARK  status: ('A' for Active; 'I' for Inactive)
REMARK    1  A    between atoms: C3'_2  and  C2'_3 
REMARK    2  A    between atoms: C2'_3  and  C1'_4 
REMARK    3  A    between atoms: C1'_4  and  C1_5 
ROOT
ATOM      1  C1  N4B d   1       3.251   4.576  -5.955  0.00  0.00    -0.075 A 
ATOM      2  C2  N4B d   1       4.133   3.474  -5.999  0.00  0.00     0.002 A 
ATOM      3  C3  N4B d   1       3.641   2.197  -5.884  0.00  0.00     0.002 A 
ATOM      4  C4  N4B d   1       2.280   1.999  -5.705  0.00  0.00    -0.004 A 
ATOM      5  C5  N4B d   1       1.432   3.068  -5.689  0.00  0.00     0.002 A 
ATOM      6  C6  N4B d   1       1.912   4.357  -5.808  0.00  0.00     0.002 A 
ENDROOT
BRANCH   1   7
ATOM      7  C1' N4B d   1       3.751   5.994  -5.991  0.00  0.00     0.057 C 
BRANCH   7   8
ATOM      8  C2' N4B d   1       5.276   5.990  -5.921  0.00  0.00     0.009 C 
BRANCH   8   9
ATOM      9  C3' N4B d   1       5.779   5.790  -4.502  0.00  0.00     0.004 C 
ATOM     10  C4' N4B d   1       4.710   5.999  -3.471  0.00  0.00     0.003 C 
ENDBRANCH   8   9
ENDBRANCH   7   8
ENDBRANCH   1   7
TORSDOF 3
ENDMDL
