MODEL 1
REMARK minimizedAffinity 9.75533104
REMARK minimizedRMSD -1
REMARK  3 active torsions:
REMARK  status: ('A' for Active; 'I' for Inactive)
REMARK    1  A    between atoms: C3'_2  and  C2'_3 
REMARK    2  A    between atoms: C2'_3  and  C1'_4 
REMARK    3  A    between atoms: C1'_4  and  C1_5 
ROOT
ATOM      1  C1  N4B d   1      -2.003  -2.957  -3.464  0.00  0.00    -0.075 A 
ATOM      2  C2  N4B d   1      -1.435  -2.347  -4.604  0.00  0.00     0.002 A 
ATOM      3  C3  N4B d   1      -1.842  -2.727  -5.860  0.00  0.00     0.002 A 
ATOM      4  C4  N4B d   1      -2.797  -3.723  -6.000  0.00  0.00    -0.004 A 
ATOM      5  C5  N4B d   1      -3.359  -4.288  -4.893  0.00  0.00     0.002 A 
ATOM      6  C6  N4B d   1      -2.963  -3.914  -3.625  0.00  0.00     0.002 A 
ENDROOT
BRANCH   1   7
ATOM      7  C1' N4B d   1      -1.529  -2.636  -2.073  0.00  0.00     0.057 C 
BRANCH   7   8
ATOM      8  C2' N4B d   1      -2.307  -1.434  -1.543  0.00  0.00     0.009 C 
BRANCH   8   9
ATOM      9  C3' N4B d   1      -2.373  -1.424  -0.026  0.00  0.00     0.004 C 
ATOM     10  C4' N4B d   1      -1.216  -2.135   0.611  0.00  0.00     0.003 C 
ENDBRANCH   8   9
ENDBRANCH   7   8
ENDBRANCH   1   7
TORSDOF 3
ENDMDL
