MODEL 1
REMARK minimizedAffinity 1.24614799
REMARK minimizedRMSD -1
REMARK  3 active torsions:
REMARK  status: ('A' for Active; 'I' for Inactive)
REMARK    1  A    between atoms: C3'_2  and  C2'_3 
REMARK    2  A    between atoms: C2'_3  and  C1'_4 
REMARK    3  A    between atoms: C1'_4  and  C1_5 
ROOT
ATOM      1  C1  N4B d   1       5.182   1.828  -3.660  0.00  0.00    -0.075 A 
ATOM      2  C2  N4B d   1       5.870   0.594  -3.662  0.00  0.00     0.002 A 
ATOM      3  C3  N4B d   1       6.000  -0.118  -4.829  0.00  0.00     0.002 A 
ATOM      4  C4  N4B d   1       5.437   0.373  -5.998  0.00  0.00    -0.004 A 
ATOM      5  C5  N4B d   1       4.797   1.577  -5.993  0.00  0.00     0.002 A 
ATOM      6  C6  N4B d   1       4.662   2.305  -4.828  0.00  0.00     0.002 A 
ENDROOT
BRANCH   1   7
ATOM      7  C1' N4B d   1       4.940   2.600  -2.392  0.00  0.00     0.057 C 
BRANCH   7   8
ATOM      8  C2' N4B d   1       3.941   3.720  -2.671  0.00  0.00     0.009 C 
BRANCH   8   9
ATOM      9  C3' N4B d   1       3.042   3.989  -1.477  0.00  0.00     0.004 C 
ATOM     10  C4' N4B d   1       1.597   4.122  -1.856  0.00  0.00     0.003 C 
ENDBRANCH   8   9
ENDBRANCH   7   8
ENDBRANCH   1   7
TORSDOF 3
ENDMDL
