MODEL 1
REMARK minimizedAffinity 4.44684315
REMARK minimizedRMSD -1
REMARK  3 active torsions:
REMARK  status: ('A' for Active; 'I' for Inactive)
REMARK    1  A    between atoms: C3'_2  and  C2'_3 
REMARK    2  A    between atoms: C2'_3  and  C1'_4 
REMARK    3  A    between atoms: C1'_4  and  C1_5 
ROOT
ATOM      1  C1  N4B d   1      -1.896  -1.882  -1.038  0.00  0.00    -0.075 A 
ATOM      2  C2  N4B d   1      -0.731  -2.515  -0.554  0.00  0.00     0.002 A 
ATOM      3  C3  N4B d   1      -0.583  -2.746   0.792  0.00  0.00     0.002 A 
ATOM      4  C4  N4B d   1      -1.575  -2.336   1.670  0.00  0.00    -0.004 A 
ATOM      5  C5  N4B d   1      -2.709  -1.748   1.192  0.00  0.00     0.002 A 
ATOM      6  C6  N4B d   1      -2.873  -1.513  -0.159  0.00  0.00     0.002 A 
ENDROOT
BRANCH   1   7
ATOM      7  C1' N4B d   1      -2.064  -1.531  -2.492  0.00  0.00     0.057 C 
BRANCH   7   8
ATOM      8  C2' N4B d   1      -2.011  -2.809  -3.324  0.00  0.00     0.009 C 
BRANCH   8   9
ATOM      9  C3' N4B d   1      -1.808  -2.517  -4.801  0.00  0.00     0.004 C 
ATOM     10  C4' N4B d   1      -2.731  -3.304  -5.681  0.00  0.00     0.003 C 
ENDBRANCH   8   9
ENDBRANCH   7   8
ENDBRANCH   1   7
TORSDOF 3
ENDMDL
