MODEL 1
REMARK minimizedAffinity 3.13570404
REMARK minimizedRMSD -1
REMARK  3 active torsions:
REMARK  status: ('A' for Active; 'I' for Inactive)
REMARK    1  A    between atoms: C3'_2  and  C2'_3 
REMARK    2  A    between atoms: C2'_3  and  C1'_4 
REMARK    3  A    between atoms: C1'_4  and  C1_5 
ROOT
ATOM      1  C1  N4B d   1       3.080   1.040   1.747  0.00  0.00    -0.075 A 
ATOM      2  C2  N4B d   1       3.277   2.293   1.127  0.00  0.00     0.002 A 
ATOM      3  C3  N4B d   1       4.544   2.811   1.016  0.00  0.00     0.002 A 
ATOM      4  C4  N4B d   1       5.622   2.106   1.530  0.00  0.00    -0.004 A 
ATOM      5  C5  N4B d   1       5.425   0.884   2.104  0.00  0.00     0.002 A 
ATOM      6  C6  N4B d   1       4.158   0.349   2.220  0.00  0.00     0.002 A 
ENDROOT
BRANCH   1   7
ATOM      7  C1' N4B d   1       1.704   0.472   1.969  0.00  0.00     0.057 C 
BRANCH   7   8
ATOM      8  C2' N4B d   1       0.996   1.283   3.050  0.00  0.00     0.009 C 
BRANCH   8   9
ATOM      9  C3' N4B d   1       0.993   0.565   4.389  0.00  0.00     0.004 C 
ATOM     10  C4' N4B d   1       0.983   1.510   5.554  0.00  0.00     0.003 C 
ENDBRANCH   8   9
ENDBRANCH   7   8
ENDBRANCH   1   7
TORSDOF 3
ENDMDL
