MODEL 1
REMARK minimizedAffinity -5.53676462
REMARK minimizedRMSD -1
REMARK  2 active torsions:
REMARK  status: ('A' for Active; 'I' for Inactive)
REMARK    1  A    between atoms: C1_2  and  C2_3 
REMARK    2  A    between atoms: C2_3  and  C3_4 
ROOT
ATOM      1  C3  UNL d   1       0.398   0.245   0.793  0.00  0.00    -0.075 A 
ATOM      2  C4  UNL d   1      -0.763   0.876   0.325  0.00  0.00     0.002 A 
ATOM      3  C5  UNL d   1      -2.015   0.294   0.523  0.00  0.00     0.002 A 
ATOM      4  C6  UNL d   1      -2.122  -0.928   1.183  0.00  0.00    -0.004 A 
ATOM      5  C7  UNL d   1      -0.973  -1.572   1.638  0.00  0.00     0.002 A 
ATOM      6  C8  UNL d   1       0.281  -0.990   1.445  0.00  0.00     0.002 A 
ENDROOT
BRANCH   1   7
ATOM      7  C2  UNL d   1       1.754   0.884   0.607  0.00  0.00     0.056 C 
BRANCH   7   8
ATOM      8  C1  UNL d   1       2.117   1.903   1.693  0.00  0.00     0.007 C 
ATOM      9  C   UNL d   1       3.167   2.910   1.244  0.00  0.00     0.009 C 
ENDBRANCH   7   8
ENDBRANCH   1   7
TORSDOF 2
ENDMDL
