MODEL 1
REMARK minimizedAffinity -4.30032349
REMARK minimizedRMSD -1
REMARK  2 active torsions:
REMARK  status: ('A' for Active; 'I' for Inactive)
REMARK    1  A    between atoms: C1_2  and  C2_3 
REMARK    2  A    between atoms: C2_3  and  C3_4 
ROOT
ATOM      1  C3  UNL d   1      -0.154   0.238   0.056  0.00  0.00    -0.075 A 
ATOM      2  C4  UNL d   1      -0.679   0.158  -1.242  0.00  0.00     0.002 A 
ATOM      3  C5  UNL d   1      -1.966  -0.338  -1.456  0.00  0.00     0.002 A 
ATOM      4  C6  UNL d   1      -2.738  -0.768  -0.380  0.00  0.00    -0.004 A 
ATOM      5  C7  UNL d   1      -2.220  -0.709   0.912  0.00  0.00     0.002 A 
ATOM      6  C8  UNL d   1      -0.935  -0.209   1.130  0.00  0.00     0.002 A 
ENDROOT
BRANCH   1   7
ATOM      7  C2  UNL d   1       1.226   0.800   0.297  0.00  0.00     0.056 C 
BRANCH   7   8
ATOM      8  C1  UNL d   1       1.397   2.252  -0.164  0.00  0.00     0.007 C 
ATOM      9  C   UNL d   1       2.180   3.107   0.823  0.00  0.00     0.009 C 
ENDBRANCH   7   8
ENDBRANCH   1   7
TORSDOF 2
ENDMDL
