MODEL 1
REMARK minimizedAffinity -4.88259602
REMARK minimizedRMSD -1
REMARK  2 active torsions:
REMARK  status: ('A' for Active; 'I' for Inactive)
REMARK    1  A    between atoms: C1_2  and  C2_3 
REMARK    2  A    between atoms: C2_3  and  C3_4 
ROOT
ATOM      1  C3  UNL d   1       0.255   0.027  -0.147  0.00  0.00    -0.075 A 
ATOM      2  C4  UNL d   1      -0.849  -0.513   0.528  0.00  0.00     0.002 A 
ATOM      3  C5  UNL d   1      -2.064  -0.694  -0.132  0.00  0.00     0.002 A 
ATOM      4  C6  UNL d   1      -2.195  -0.329  -1.470  0.00  0.00    -0.004 A 
ATOM      5  C7  UNL d   1      -1.110   0.225  -2.146  0.00  0.00     0.002 A 
ATOM      6  C8  UNL d   1       0.109   0.403  -1.489  0.00  0.00     0.002 A 
ENDROOT
BRANCH   1   7
ATOM      7  C2  UNL d   1       1.582   0.198   0.553  0.00  0.00     0.056 C 
BRANCH   7   8
ATOM      8  C1  UNL d   1       2.265   1.542   0.276  0.00  0.00     0.007 C 
ATOM      9  C   UNL d   1       2.682   2.276   1.543  0.00  0.00     0.009 C 
ENDBRANCH   7   8
ENDBRANCH   1   7
TORSDOF 2
ENDMDL
