MODEL 1
REMARK minimizedAffinity -6.12433815
REMARK minimizedRMSD -1
REMARK  2 active torsions:
REMARK  status: ('A' for Active; 'I' for Inactive)
REMARK    1  A    between atoms: C1_2  and  C2_3 
REMARK    2  A    between atoms: C2_3  and  C3_4 
ROOT
ATOM      1  C3  UNL d   1      -0.701   0.168  -0.826  0.00  0.00    -0.075 A 
ATOM      2  C4  UNL d   1      -1.118  -0.410   0.382  0.00  0.00     0.002 A 
ATOM      3  C5  UNL d   1      -2.359  -1.039   0.475  0.00  0.00     0.002 A 
ATOM      4  C6  UNL d   1      -3.202  -1.090  -0.633  0.00  0.00    -0.004 A 
ATOM      5  C7  UNL d   1      -2.805  -0.505  -1.834  0.00  0.00     0.002 A 
ATOM      6  C8  UNL d   1      -1.562   0.122  -1.930  0.00  0.00     0.002 A 
ENDROOT
BRANCH   1   7
ATOM      7  C2  UNL d   1       0.654   0.826  -0.941  0.00  0.00     0.056 C 
BRANCH   7   8
ATOM      8  C1  UNL d   1       1.601   0.510   0.222  0.00  0.00     0.007 C 
ATOM      9  C   UNL d   1       2.833   1.404   0.252  0.00  0.00     0.009 C 
ENDBRANCH   7   8
ENDBRANCH   1   7
TORSDOF 2
ENDMDL
