MODEL 1
REMARK minimizedAffinity -0.0877361745
REMARK minimizedRMSD -1
REMARK  2 active torsions:
REMARK  status: ('A' for Active; 'I' for Inactive)
REMARK    1  A    between atoms: C1_2  and  C2_3 
REMARK    2  A    between atoms: C2_3  and  C3_4 
ROOT
ATOM      1  C3  UNL d   1      -1.207  -0.638   0.275  0.00  0.00    -0.075 A 
ATOM      2  C4  UNL d   1      -0.606  -1.474   1.227  0.00  0.00     0.002 A 
ATOM      3  C5  UNL d   1       0.773  -1.438   1.432  0.00  0.00     0.002 A 
ATOM      4  C6  UNL d   1       1.569  -0.575   0.682  0.00  0.00    -0.004 A 
ATOM      5  C7  UNL d   1       0.985   0.248  -0.278  0.00  0.00     0.002 A 
ATOM      6  C8  UNL d   1      -0.395   0.217  -0.482  0.00  0.00     0.002 A 
ENDROOT
BRANCH   1   7
ATOM      7  C2  UNL d   1      -2.703  -0.652   0.069  0.00  0.00     0.056 C 
BRANCH   7   8
ATOM      8  C1  UNL d   1      -3.216  -1.875  -0.697  0.00  0.00     0.007 C 
ATOM      9  C   UNL d   1      -2.498  -2.100  -2.021  0.00  0.00     0.009 C 
ENDBRANCH   7   8
ENDBRANCH   1   7
TORSDOF 2
ENDMDL
