MODEL 1
REMARK minimizedAffinity 5.16888285
REMARK minimizedRMSD -1
REMARK  2 active torsions:
REMARK  status: ('A' for Active; 'I' for Inactive)
REMARK    1  A    between atoms: C1_2  and  C2_3 
REMARK    2  A    between atoms: C2_3  and  C3_4 
ROOT
ATOM      1  C3  UNL d   1      -1.918  -1.192  -0.757  0.00  0.00    -0.075 A 
ATOM      2  C4  UNL d   1      -1.364  -0.734   0.447  0.00  0.00     0.002 A 
ATOM      3  C5  UNL d   1      -0.220   0.065   0.442  0.00  0.00     0.002 A 
ATOM      4  C6  UNL d   1       0.389   0.407  -0.763  0.00  0.00    -0.004 A 
ATOM      5  C7  UNL d   1      -0.143  -0.056  -1.964  0.00  0.00     0.002 A 
ATOM      6  C8  UNL d   1      -1.290  -0.852  -1.963  0.00  0.00     0.002 A 
ENDROOT
BRANCH   1   7
ATOM      7  C2  UNL d   1      -3.172  -2.033  -0.761  0.00  0.00     0.056 C 
BRANCH   7   8
ATOM      8  C1  UNL d   1      -4.311  -1.457   0.088  0.00  0.00     0.007 C 
ATOM      9  C   UNL d   1      -5.479  -2.419   0.257  0.00  0.00     0.009 C 
ENDBRANCH   7   8
ENDBRANCH   1   7
TORSDOF 2
ENDMDL
