MODEL 1
REMARK minimizedAffinity -5.17561483
REMARK minimizedRMSD -1
REMARK  2 active torsions:
REMARK  status: ('A' for Active; 'I' for Inactive)
REMARK    1  A    between atoms: C1_2  and  C2_3 
REMARK    2  A    between atoms: C2_3  and  C3_4 
ROOT
ATOM      1  C3  UNL d   1       0.848   1.055   0.312  0.00  0.00    -0.075 A 
ATOM      2  C4  UNL d   1       0.599   2.434   0.357  0.00  0.00     0.002 A 
ATOM      3  C5  UNL d   1       1.649   3.347   0.257  0.00  0.00     0.002 A 
ATOM      4  C6  UNL d   1       2.959   2.894   0.121  0.00  0.00    -0.004 A 
ATOM      5  C7  UNL d   1       3.220   1.526   0.091  0.00  0.00     0.002 A 
ATOM      6  C8  UNL d   1       2.171   0.610   0.187  0.00  0.00     0.002 A 
ENDROOT
BRANCH   1   7
ATOM      7  C2  UNL d   1      -0.287   0.062   0.391  0.00  0.00     0.056 C 
BRANCH   7   8
ATOM      8  C1  UNL d   1      -1.340   0.230  -0.710  0.00  0.00     0.007 C 
ATOM      9  C   UNL d   1      -2.732  -0.217  -0.283  0.00  0.00     0.009 C 
ENDBRANCH   7   8
ENDBRANCH   1   7
TORSDOF 2
ENDMDL
