MODEL 1
REMARK minimizedAffinity -3.27151775
REMARK minimizedRMSD -1
REMARK  2 active torsions:
REMARK  status: ('A' for Active; 'I' for Inactive)
REMARK    1  A    between atoms: C1_2  and  C2_3 
REMARK    2  A    between atoms: C2_3  and  C3_4 
ROOT
ATOM      1  C3  UNL d   1       1.948   1.475   0.908  0.00  0.00    -0.075 A 
ATOM      2  C4  UNL d   1       2.360   2.550   0.107  0.00  0.00     0.002 A 
ATOM      3  C5  UNL d   1       2.650   3.789   0.679  0.00  0.00     0.002 A 
ATOM      4  C6  UNL d   1       2.523   3.971   2.055  0.00  0.00    -0.004 A 
ATOM      5  C7  UNL d   1       2.098   2.915   2.858  0.00  0.00     0.002 A 
ATOM      6  C8  UNL d   1       1.811   1.673   2.288  0.00  0.00     0.002 A 
ENDROOT
BRANCH   1   7
ATOM      7  C2  UNL d   1       1.661   0.123   0.299  0.00  0.00     0.056 C 
BRANCH   7   8
ATOM      8  C1  UNL d   1       0.185  -0.284   0.351  0.00  0.00     0.007 C 
ATOM      9  C   UNL d   1      -0.068  -1.520   1.204  0.00  0.00     0.009 C 
ENDBRANCH   7   8
ENDBRANCH   1   7
TORSDOF 2
ENDMDL
