MODEL 1
REMARK minimizedAffinity -4.71226263
REMARK minimizedRMSD -1
REMARK  2 active torsions:
REMARK  status: ('A' for Active; 'I' for Inactive)
REMARK    1  A    between atoms: C1_2  and  C2_3 
REMARK    2  A    between atoms: C2_3  and  C3_4 
ROOT
ATOM      1  C3  UNL d   1      -0.733   0.421  -0.287  0.00  0.00    -0.075 A 
ATOM      2  C4  UNL d   1      -1.941  -0.042   0.254  0.00  0.00     0.002 A 
ATOM      3  C5  UNL d   1      -2.878  -0.688  -0.553  0.00  0.00     0.002 A 
ATOM      4  C6  UNL d   1      -2.624  -0.870  -1.911  0.00  0.00    -0.004 A 
ATOM      5  C7  UNL d   1      -1.434  -0.400  -2.462  0.00  0.00     0.002 A 
ATOM      6  C8  UNL d   1      -0.493   0.243  -1.656  0.00  0.00     0.002 A 
ENDROOT
BRANCH   1   7
ATOM      7  C2  UNL d   1       0.297   1.095   0.587  0.00  0.00     0.056 C 
BRANCH   7   8
ATOM      8  C1  UNL d   1       1.729   0.596   0.362  0.00  0.00     0.007 C 
ATOM      9  C   UNL d   1       2.788   1.631   0.716  0.00  0.00     0.009 C 
ENDBRANCH   7   8
ENDBRANCH   1   7
TORSDOF 2
ENDMDL
