MODEL 1
REMARK minimizedAffinity -3.57397628
REMARK minimizedRMSD -1
REMARK  2 active torsions:
REMARK  status: ('A' for Active; 'I' for Inactive)
REMARK    1  A    between atoms: C1_2  and  C2_3 
REMARK    2  A    between atoms: C2_3  and  C3_4 
ROOT
ATOM      1  C3  UNL d   1       0.797   0.792   0.552  0.00  0.00    -0.075 A 
ATOM      2  C4  UNL d   1       0.614   2.026   1.193  0.00  0.00     0.002 A 
ATOM      3  C5  UNL d   1       1.690   2.894   1.380  0.00  0.00     0.002 A 
ATOM      4  C6  UNL d   1       2.962   2.535   0.939  0.00  0.00    -0.004 A 
ATOM      5  C7  UNL d   1       3.159   1.305   0.317  0.00  0.00     0.002 A 
ATOM      6  C8  UNL d   1       2.083   0.436   0.124  0.00  0.00     0.002 A 
ENDROOT
BRANCH   1   7
ATOM      7  C2  UNL d   1      -0.369  -0.139   0.320  0.00  0.00     0.056 C 
BRANCH   7   8
ATOM      8  C1  UNL d   1      -1.131   0.129  -0.982  0.00  0.00     0.007 C 
ATOM      9  C   UNL d   1      -2.252  -0.871  -1.238  0.00  0.00     0.009 C 
ENDBRANCH   7   8
ENDBRANCH   1   7
TORSDOF 2
ENDMDL
