MODEL 1
REMARK minimizedAffinity 9.57879639
REMARK minimizedRMSD -1
REMARK  2 active torsions:
REMARK  status: ('A' for Active; 'I' for Inactive)
REMARK    1  A    between atoms: C1_2  and  C2_3 
REMARK    2  A    between atoms: C2_3  and  C3_4 
ROOT
ATOM      1  C3  UNL d   1       0.915  -1.666   2.991  0.00  0.00    -0.075 A 
ATOM      2  C4  UNL d   1       0.392  -1.574   4.289  0.00  0.00     0.002 A 
ATOM      3  C5  UNL d   1       0.886  -2.384   5.312  0.00  0.00     0.002 A 
ATOM      4  C6  UNL d   1       1.901  -3.302   5.048  0.00  0.00    -0.004 A 
ATOM      5  C7  UNL d   1       2.416  -3.414   3.758  0.00  0.00     0.002 A 
ATOM      6  C8  UNL d   1       1.926  -2.601   2.735  0.00  0.00     0.002 A 
ENDROOT
BRANCH   1   7
ATOM      7  C2  UNL d   1       0.404  -0.771   1.887  0.00  0.00     0.056 C 
BRANCH   7   8
ATOM      8  C1  UNL d   1       1.414   0.283   1.421  0.00  0.00     0.007 C 
ATOM      9  C   UNL d   1       1.295   1.602   2.173  0.00  0.00     0.009 C 
ENDBRANCH   7   8
ENDBRANCH   1   7
TORSDOF 2
ENDMDL
