MODEL 1
REMARK minimizedAffinity 7.07256985
REMARK minimizedRMSD -1
REMARK  2 active torsions:
REMARK  status: ('A' for Active; 'I' for Inactive)
REMARK    1  A    between atoms: C1_2  and  C2_3 
REMARK    2  A    between atoms: C2_3  and  C3_4 
ROOT
ATOM      1  C3  UNL d   1      -4.861  -2.421  -3.947  0.00  0.00    -0.075 A 
ATOM      2  C4  UNL d   1      -4.116  -3.609  -3.973  0.00  0.00     0.002 A 
ATOM      3  C5  UNL d   1      -4.300  -4.539  -4.997  0.00  0.00     0.002 A 
ATOM      4  C6  UNL d   1      -5.237  -4.299  -5.999  0.00  0.00    -0.004 A 
ATOM      5  C7  UNL d   1      -5.995  -3.130  -5.974  0.00  0.00     0.002 A 
ATOM      6  C8  UNL d   1      -5.810  -2.196  -4.953  0.00  0.00     0.002 A 
ENDROOT
BRANCH   1   7
ATOM      7  C2  UNL d   1      -4.645  -1.398  -2.858  0.00  0.00     0.056 C 
BRANCH   7   8
ATOM      8  C1  UNL d   1      -4.155  -0.038  -3.368  0.00  0.00     0.007 C 
ATOM      9  C   UNL d   1      -4.032   1.007  -2.267  0.00  0.00     0.009 C 
ENDBRANCH   7   8
ENDBRANCH   1   7
TORSDOF 2
ENDMDL
