MODEL 1
REMARK minimizedAffinity 12.2430458
REMARK minimizedRMSD -1
REMARK  2 active torsions:
REMARK  status: ('A' for Active; 'I' for Inactive)
REMARK    1  A    between atoms: C1_2  and  C2_3 
REMARK    2  A    between atoms: C2_3  and  C3_4 
ROOT
ATOM      1  C3  UNL d   1      -4.151   2.939   0.242  0.00  0.00    -0.075 A 
ATOM      2  C4  UNL d   1      -4.127   2.941   1.644  0.00  0.00     0.002 A 
ATOM      3  C5  UNL d   1      -5.039   3.711   2.367  0.00  0.00     0.002 A 
ATOM      4  C6  UNL d   1      -5.978   4.494   1.699  0.00  0.00    -0.004 A 
ATOM      5  C7  UNL d   1      -6.000   4.513   0.306  0.00  0.00     0.002 A 
ATOM      6  C8  UNL d   1      -5.092   3.740  -0.420  0.00  0.00     0.002 A 
ENDROOT
BRANCH   1   7
ATOM      7  C2  UNL d   1      -3.187   2.085  -0.546  0.00  0.00     0.056 C 
BRANCH   7   8
ATOM      8  C1  UNL d   1      -3.845   1.267  -1.662  0.00  0.00     0.007 C 
ATOM      9  C   UNL d   1      -3.730   1.921  -3.033  0.00  0.00     0.009 C 
ENDBRANCH   7   8
ENDBRANCH   1   7
TORSDOF 2
ENDMDL
