MODEL 1
REMARK minimizedAffinity 13.8612175
REMARK minimizedRMSD -1
REMARK  2 active torsions:
REMARK  status: ('A' for Active; 'I' for Inactive)
REMARK    1  A    between atoms: C1_2  and  C2_3 
REMARK    2  A    between atoms: C2_3  and  C3_4 
ROOT
ATOM      1  C3  UNL d   1      -4.008   2.440  -1.966  0.00  0.00    -0.075 A 
ATOM      2  C4  UNL d   1      -5.049   3.265  -1.515  0.00  0.00     0.002 A 
ATOM      3  C5  UNL d   1      -5.998   3.761  -2.410  0.00  0.00     0.002 A 
ATOM      4  C6  UNL d   1      -5.914   3.448  -3.764  0.00  0.00    -0.004 A 
ATOM      5  C7  UNL d   1      -4.875   2.643  -4.226  0.00  0.00     0.002 A 
ATOM      6  C8  UNL d   1      -3.926   2.141  -3.333  0.00  0.00     0.002 A 
ENDROOT
BRANCH   1   7
ATOM      7  C2  UNL d   1      -2.995   1.876  -0.999  0.00  0.00     0.056 C 
BRANCH   7   8
ATOM      8  C1  UNL d   1      -2.522   2.876   0.062  0.00  0.00     0.007 C 
ATOM      9  C   UNL d   1      -1.743   2.223   1.196  0.00  0.00     0.009 C 
ENDBRANCH   7   8
ENDBRANCH   1   7
TORSDOF 2
ENDMDL
