MODEL 1
REMARK minimizedAffinity 12.8644085
REMARK minimizedRMSD -1
REMARK  2 active torsions:
REMARK  status: ('A' for Active; 'I' for Inactive)
REMARK    1  A    between atoms: C1_2  and  C2_3 
REMARK    2  A    between atoms: C2_3  and  C3_4 
ROOT
ATOM      1  C3  UNL d   1       1.460   0.935   2.038  0.00  0.00    -0.075 A 
ATOM      2  C4  UNL d   1       2.369   1.453   1.105  0.00  0.00     0.002 A 
ATOM      3  C5  UNL d   1       3.100   2.606   1.392  0.00  0.00     0.002 A 
ATOM      4  C6  UNL d   1       2.925   3.260   2.610  0.00  0.00    -0.004 A 
ATOM      5  C7  UNL d   1       2.013   2.763   3.538  0.00  0.00     0.002 A 
ATOM      6  C8  UNL d   1       1.283   1.607   3.255  0.00  0.00     0.002 A 
ENDROOT
BRANCH   1   7
ATOM      7  C2  UNL d   1       0.688  -0.329   1.745  0.00  0.00     0.056 C 
BRANCH   7   8
ATOM      8  C1  UNL d   1       1.380  -1.609   2.227  0.00  0.00     0.007 C 
ATOM      9  C   UNL d   1       1.167  -1.885   3.709  0.00  0.00     0.009 C 
ENDBRANCH   7   8
ENDBRANCH   1   7
TORSDOF 2
ENDMDL
