MODEL 1
REMARK minimizedAffinity 6.39876175
REMARK minimizedRMSD -1
REMARK  2 active torsions:
REMARK  status: ('A' for Active; 'I' for Inactive)
REMARK    1  A    between atoms: C1_2  and  C2_3 
REMARK    2  A    between atoms: C2_3  and  C3_4 
ROOT
ATOM      1  C3  UNL d   1      -5.192  -1.134  -3.179  0.00  0.00    -0.075 A 
ATOM      2  C4  UNL d   1      -3.831  -1.233  -2.857  0.00  0.00     0.002 A 
ATOM      3  C5  UNL d   1      -3.096  -0.093  -2.528  0.00  0.00     0.002 A 
ATOM      4  C6  UNL d   1      -3.709   1.158  -2.526  0.00  0.00    -0.004 A 
ATOM      5  C7  UNL d   1      -5.057   1.269  -2.860  0.00  0.00     0.002 A 
ATOM      6  C8  UNL d   1      -5.796   0.130  -3.185  0.00  0.00     0.002 A 
ENDROOT
BRANCH   1   7
ATOM      7  C2  UNL d   1      -6.000  -2.367  -3.507  0.00  0.00     0.056 C 
BRANCH   7   8
ATOM      8  C1  UNL d   1      -5.327  -3.302  -4.518  0.00  0.00     0.007 C 
ATOM      9  C   UNL d   1      -5.673  -2.972  -5.963  0.00  0.00     0.009 C 
ENDBRANCH   7   8
ENDBRANCH   1   7
TORSDOF 2
ENDMDL
