MODEL 1
REMARK minimizedAffinity 14.0929785
REMARK minimizedRMSD -1
REMARK  2 active torsions:
REMARK  status: ('A' for Active; 'I' for Inactive)
REMARK    1  A    between atoms: C1_2  and  C2_3 
REMARK    2  A    between atoms: C2_3  and  C3_4 
ROOT
ATOM      1  C3  UNL d   1      -5.046  -3.678  -3.870  0.00  0.00    -0.075 A 
ATOM      2  C4  UNL d   1      -4.528  -4.944  -3.561  0.00  0.00     0.002 A 
ATOM      3  C5  UNL d   1      -4.645  -5.998  -4.467  0.00  0.00     0.002 A 
ATOM      4  C6  UNL d   1      -5.288  -5.803  -5.687  0.00  0.00    -0.004 A 
ATOM      5  C7  UNL d   1      -5.822  -4.554  -5.998  0.00  0.00     0.002 A 
ATOM      6  C8  UNL d   1      -5.702  -3.497  -5.094  0.00  0.00     0.002 A 
ENDROOT
BRANCH   1   7
ATOM      7  C2  UNL d   1      -4.897  -2.526  -2.905  0.00  0.00     0.056 C 
BRANCH   7   8
ATOM      8  C1  UNL d   1      -3.859  -1.484  -3.334  0.00  0.00     0.007 C 
ATOM      9  C   UNL d   1      -3.807  -0.273  -2.412  0.00  0.00     0.009 C 
ENDBRANCH   7   8
ENDBRANCH   1   7
TORSDOF 2
ENDMDL
