MODEL 1
REMARK minimizedAffinity 10.4397955
REMARK minimizedRMSD -1
REMARK  2 active torsions:
REMARK  status: ('A' for Active; 'I' for Inactive)
REMARK    1  A    between atoms: C1_2  and  C2_3 
REMARK    2  A    between atoms: C2_3  and  C3_4 
ROOT
ATOM      1  C3  UNL d   1      -4.161  -3.248  -4.660  0.00  0.00    -0.075 A 
ATOM      2  C4  UNL d   1      -5.389  -3.074  -5.314  0.00  0.00     0.002 A 
ATOM      3  C5  UNL d   1      -5.998  -4.141  -5.974  0.00  0.00     0.002 A 
ATOM      4  C6  UNL d   1      -5.383  -5.391  -5.999  0.00  0.00    -0.004 A 
ATOM      5  C7  UNL d   1      -4.155  -5.572  -5.367  0.00  0.00     0.002 A 
ATOM      6  C8  UNL d   1      -3.546  -4.507  -4.701  0.00  0.00     0.002 A 
ENDROOT
BRANCH   1   7
ATOM      7  C2  UNL d   1      -3.511  -2.105  -3.918  0.00  0.00     0.056 C 
BRANCH   7   8
ATOM      8  C1  UNL d   1      -4.466  -1.332  -3.003  0.00  0.00     0.007 C 
ATOM      9  C   UNL d   1      -3.827  -0.105  -2.366  0.00  0.00     0.009 C 
ENDBRANCH   7   8
ENDBRANCH   1   7
TORSDOF 2
ENDMDL
