MODEL 1
REMARK minimizedAffinity 1.59215844
REMARK minimizedRMSD -1
REMARK  0 active torsions:
REMARK  status: ('A' for Active; 'I' for Inactive)
ROOT
ATOM      1  C   UNL d   1       1.399  -1.531  -0.736  0.00  0.00     0.124 A 
ATOM      2  C1  UNL d   1       0.243  -1.039  -1.326  0.00  0.00     0.062 A 
ATOM      3  C2  UNL d   1      -0.540  -0.102  -0.657  0.00  0.00     0.162 A 
ATOM      4  C3  UNL d   1      -0.169   0.350   0.609  0.00  0.00    -0.034 A 
ATOM      5  C4  UNL d   1       0.995  -0.150   1.196  0.00  0.00     0.162 A 
ATOM      6  C5  UNL d   1       1.774  -1.086   0.524  0.00  0.00     0.062 A 
ATOM      7  F   UNL d   1       2.890  -1.560   1.096  0.00  0.00    -0.097 F 
ATOM      8  F1  UNL d   1       1.381   0.264   2.412  0.00  0.00    -0.096 F 
ATOM      9  I   UNL d   1      -1.337   1.751   1.611  0.00  0.00    -0.060 I 
ATOM     10  F2  UNL d   1      -1.652   0.356  -1.252  0.00  0.00    -0.096 F 
ATOM     11  F3  UNL d   1      -0.122  -1.468  -2.542  0.00  0.00    -0.097 F 
ATOM     12  F4  UNL d   1       2.150  -2.433  -1.380  0.00  0.00    -0.092 F 
ENDROOT
TORSDOF 0
ENDMDL
