MODEL 1
REMARK minimizedAffinity -1.89451528
REMARK minimizedRMSD -1
REMARK  0 active torsions:
REMARK  status: ('A' for Active; 'I' for Inactive)
ROOT
ATOM      1  C   UNL d   1       1.279  -1.888  -0.111  0.00  0.00     0.124 A 
ATOM      2  C1  UNL d   1       1.920  -0.819   0.500  0.00  0.00     0.062 A 
ATOM      3  C2  UNL d   1       1.248   0.386   0.685  0.00  0.00     0.162 A 
ATOM      4  C3  UNL d   1      -0.073   0.529   0.260  0.00  0.00    -0.034 A 
ATOM      5  C4  UNL d   1      -0.710  -0.551  -0.355  0.00  0.00     0.162 A 
ATOM      6  C5  UNL d   1      -0.034  -1.753  -0.538  0.00  0.00     0.062 A 
ATOM      7  F   UNL d   1      -0.655  -2.785  -1.128  0.00  0.00    -0.097 F 
ATOM      8  F1  UNL d   1      -1.979  -0.449  -0.776  0.00  0.00    -0.096 F 
ATOM      9  I   UNL d   1      -1.080   2.329   0.535  0.00  0.00    -0.060 I 
ATOM     10  F2  UNL d   1       1.892   1.403   1.278  0.00  0.00    -0.096 F 
ATOM     11  F3  UNL d   1       3.189  -0.946   0.912  0.00  0.00    -0.097 F 
ATOM     12  F4  UNL d   1       1.928  -3.046  -0.289  0.00  0.00    -0.092 F 
ENDROOT
TORSDOF 0
ENDMDL
