MODEL 1
REMARK minimizedAffinity -1.02172959
REMARK minimizedRMSD -1
REMARK  0 active torsions:
REMARK  status: ('A' for Active; 'I' for Inactive)
ROOT
ATOM      1  C   UNL d   1       2.234   0.057   0.940  0.00  0.00     0.124 A 
ATOM      2  C1  UNL d   1       1.320  -0.935   1.266  0.00  0.00     0.062 A 
ATOM      3  C2  UNL d   1      -0.023  -0.786   0.931  0.00  0.00     0.162 A 
ATOM      4  C3  UNL d   1      -0.459   0.360   0.265  0.00  0.00    -0.034 A 
ATOM      5  C4  UNL d   1       0.466   1.354  -0.058  0.00  0.00     0.162 A 
ATOM      6  C5  UNL d   1       1.807   1.200   0.279  0.00  0.00     0.062 A 
ATOM      7  F   UNL d   1       2.690   2.159  -0.036  0.00  0.00    -0.097 F 
ATOM      8  F1  UNL d   1       0.081   2.468  -0.698  0.00  0.00    -0.096 F 
ATOM      9  I   UNL d   1      -2.466   0.587  -0.237  0.00  0.00    -0.060 I 
ATOM     10  F2  UNL d   1      -0.885  -1.760   1.258  0.00  0.00    -0.096 F 
ATOM     11  F3  UNL d   1       1.730  -2.039   1.906  0.00  0.00    -0.097 F 
ATOM     12  F4  UNL d   1       3.526  -0.088   1.265  0.00  0.00    -0.092 F 
ENDROOT
TORSDOF 0
ENDMDL
