MODEL 1
REMARK minimizedAffinity -2.93167019
REMARK minimizedRMSD -1
REMARK  0 active torsions:
REMARK  status: ('A' for Active; 'I' for Inactive)
ROOT
ATOM      1  C   UNL d   1      -0.696   0.315  -0.726  0.00  0.00     0.124 A 
ATOM      2  C1  UNL d   1      -0.100  -0.924  -0.916  0.00  0.00     0.062 A 
ATOM      3  C2  UNL d   1       1.210  -1.142  -0.499  0.00  0.00     0.162 A 
ATOM      4  C3  UNL d   1       1.934  -0.119   0.113  0.00  0.00    -0.034 A 
ATOM      5  C4  UNL d   1       1.328   1.125   0.300  0.00  0.00     0.162 A 
ATOM      6  C5  UNL d   1       0.018   1.338  -0.119  0.00  0.00     0.062 A 
ATOM      7  F   UNL d   1      -0.556   2.536   0.065  0.00  0.00    -0.097 F 
ATOM      8  F1  UNL d   1       1.994   2.131   0.885  0.00  0.00    -0.096 F 
ATOM      9  I   UNL d   1       3.892  -0.440   0.738  0.00  0.00    -0.060 I 
ATOM     10  F2  UNL d   1       1.761  -2.350  -0.695  0.00  0.00    -0.096 F 
ATOM     11  F3  UNL d   1      -0.787  -1.914  -1.504  0.00  0.00    -0.097 F 
ATOM     12  F4  UNL d   1      -1.956   0.522  -1.130  0.00  0.00    -0.092 F 
ENDROOT
TORSDOF 0
ENDMDL
