MODEL 1
REMARK minimizedAffinity -2.51217628
REMARK minimizedRMSD -1
REMARK  0 active torsions:
REMARK  status: ('A' for Active; 'I' for Inactive)
ROOT
ATOM      1  C   UNL d   1       2.493  -0.626   0.579  0.00  0.00     0.124 A 
ATOM      2  C1  UNL d   1       1.991   0.666   0.660  0.00  0.00     0.062 A 
ATOM      3  C2  UNL d   1       0.655   0.917   0.359  0.00  0.00     0.162 A 
ATOM      4  C3  UNL d   1      -0.188  -0.125  -0.024  0.00  0.00    -0.034 A 
ATOM      5  C4  UNL d   1       0.324  -1.421  -0.104  0.00  0.00     0.162 A 
ATOM      6  C5  UNL d   1       1.660  -1.668   0.197  0.00  0.00     0.062 A 
ATOM      7  F   UNL d   1       2.143  -2.916   0.119  0.00  0.00    -0.097 F 
ATOM      8  F1  UNL d   1      -0.459  -2.447  -0.469  0.00  0.00    -0.096 F 
ATOM      9  I   UNL d   1      -2.186   0.247  -0.474  0.00  0.00    -0.060 I 
ATOM     10  F2  UNL d   1       0.197   2.175   0.446  0.00  0.00    -0.096 F 
ATOM     11  F3  UNL d   1       2.794   1.674   1.027  0.00  0.00    -0.097 F 
ATOM     12  F4  UNL d   1       3.779  -0.865   0.868  0.00  0.00    -0.092 F 
ENDROOT
TORSDOF 0
ENDMDL
