MODEL 1
REMARK minimizedAffinity -2.7999537
REMARK minimizedRMSD -1
REMARK  0 active torsions:
REMARK  status: ('A' for Active; 'I' for Inactive)
ROOT
ATOM      1  C   UNL d   1       1.176  -2.127  -0.204  0.00  0.00     0.124 A 
ATOM      2  C1  UNL d   1       1.940  -1.186   0.472  0.00  0.00     0.062 A 
ATOM      3  C2  UNL d   1       1.597   0.162   0.421  0.00  0.00     0.162 A 
ATOM      4  C3  UNL d   1       0.483   0.577  -0.309  0.00  0.00    -0.034 A 
ATOM      5  C4  UNL d   1      -0.280  -0.375  -0.987  0.00  0.00     0.162 A 
ATOM      6  C5  UNL d   1       0.067  -1.721  -0.932  0.00  0.00     0.062 A 
ATOM      7  F   UNL d   1      -0.673  -2.628  -1.586  0.00  0.00    -0.097 F 
ATOM      8  F1  UNL d   1      -1.357  -0.010  -1.698  0.00  0.00    -0.096 F 
ATOM      9  I   UNL d   1      -0.033   2.592  -0.389  0.00  0.00    -0.060 I 
ATOM     10  F2  UNL d   1       2.354   1.049   1.083  0.00  0.00    -0.096 F 
ATOM     11  F3  UNL d   1       3.012  -1.576   1.176  0.00  0.00    -0.097 F 
ATOM     12  F4  UNL d   1       1.508  -3.423  -0.153  0.00  0.00    -0.092 F 
ENDROOT
TORSDOF 0
ENDMDL
