MODEL 1
REMARK minimizedAffinity 2.00651312
REMARK minimizedRMSD -1
REMARK  0 active torsions:
REMARK  status: ('A' for Active; 'I' for Inactive)
ROOT
ATOM      1  C   UNL d   1      -2.772   1.008   0.325  0.00  0.00     0.124 A 
ATOM      2  C1  UNL d   1      -2.354   0.272  -0.775  0.00  0.00     0.062 A 
ATOM      3  C2  UNL d   1      -1.068  -0.257  -0.816  0.00  0.00     0.162 A 
ATOM      4  C3  UNL d   1      -0.189  -0.053   0.248  0.00  0.00    -0.034 A 
ATOM      5  C4  UNL d   1      -0.616   0.689   1.350  0.00  0.00     0.162 A 
ATOM      6  C5  UNL d   1      -1.903   1.216   1.386  0.00  0.00     0.062 A 
ATOM      7  F   UNL d   1      -2.304   1.927   2.450  0.00  0.00    -0.097 F 
ATOM      8  F1  UNL d   1       0.204   0.904   2.390  0.00  0.00    -0.096 F 
ATOM      9  I   UNL d   1       1.736  -0.843   0.191  0.00  0.00    -0.060 I 
ATOM     10  F2  UNL d   1      -0.691  -0.965  -1.892  0.00  0.00    -0.096 F 
ATOM     11  F3  UNL d   1      -3.192   0.071  -1.803  0.00  0.00    -0.097 F 
ATOM     12  F4  UNL d   1      -4.010   1.517   0.361  0.00  0.00    -0.092 F 
ENDROOT
TORSDOF 0
ENDMDL
