MODEL 1
REMARK minimizedAffinity 4.89687872
REMARK minimizedRMSD -1
REMARK  0 active torsions:
REMARK  status: ('A' for Active; 'I' for Inactive)
ROOT
ATOM      1  O1  BZF d   1       1.453  -5.958  -5.929  0.00  0.00    -0.204 OA
ATOM      2  C2  BZF d   1       2.561  -5.952  -5.104  0.00  0.00     0.174 A 
ATOM      3  C3  BZF d   1       2.193  -5.910  -3.807  0.00  0.00    -0.012 A 
ATOM      4  C3A BZF d   1       0.764  -5.982  -3.820  0.00  0.00    -0.107 A 
ATOM      5  C4  BZF d   1      -0.184  -5.998  -2.837  0.00  0.00     0.055 A 
ATOM      6  C5  BZF d   1      -1.498  -5.999  -3.186  0.00  0.00    -0.016 A 
ATOM      7  C6  BZF d   1      -1.898  -5.979  -4.506  0.00  0.00     0.022 A 
ATOM      8  C7  BZF d   1      -0.995  -5.968  -5.516  0.00  0.00     0.029 A 
ATOM      9  C7A BZF d   1       0.333  -6.000  -5.167  0.00  0.00     0.058 A 
ENDROOT
TORSDOF 0
ENDMDL
