MODEL 1
REMARK minimizedAffinity 5.76202536
REMARK minimizedRMSD -1
REMARK  0 active torsions:
REMARK  status: ('A' for Active; 'I' for Inactive)
ROOT
ATOM      1  O1  BZF d   1       1.663  -5.521  -5.957  0.00  0.00    -0.204 OA
ATOM      2  C2  BZF d   1       2.770  -5.088  -5.253  0.00  0.00     0.174 A 
ATOM      3  C3  BZF d   1       2.455  -4.855  -3.962  0.00  0.00    -0.012 A 
ATOM      4  C3A BZF d   1       1.086  -5.250  -3.832  0.00  0.00    -0.107 A 
ATOM      5  C4  BZF d   1       0.210  -5.270  -2.784  0.00  0.00     0.055 A 
ATOM      6  C5  BZF d   1      -1.077  -5.645  -3.006  0.00  0.00    -0.016 A 
ATOM      7  C6  BZF d   1      -1.523  -5.999  -4.262  0.00  0.00     0.022 A 
ATOM      8  C7  BZF d   1      -0.691  -5.999  -5.332  0.00  0.00     0.029 A 
ATOM      9  C7A BZF d   1       0.619  -5.653  -5.104  0.00  0.00     0.058 A 
ENDROOT
TORSDOF 0
ENDMDL
