MODEL 1
REMARK minimizedAffinity 6.76230097
REMARK minimizedRMSD -1
REMARK  0 active torsions:
REMARK  status: ('A' for Active; 'I' for Inactive)
ROOT
ATOM      1  O1  BZF d   1       1.705   1.022   0.918  0.00  0.00    -0.204 OA
ATOM      2  C2  BZF d   1       0.449   1.581   0.789  0.00  0.00     0.174 A 
ATOM      3  C3  BZF d   1      -0.487   0.624   0.628  0.00  0.00    -0.012 A 
ATOM      4  C3A BZF d   1       0.218  -0.615   0.750  0.00  0.00    -0.107 A 
ATOM      5  C4  BZF d   1      -0.169  -1.924   0.699  0.00  0.00     0.055 A 
ATOM      6  C5  BZF d   1       0.777  -2.896   0.782  0.00  0.00    -0.016 A 
ATOM      7  C6  BZF d   1       2.117  -2.595   0.911  0.00  0.00     0.022 A 
ATOM      8  C7  BZF d   1       2.549  -1.312   0.972  0.00  0.00     0.029 A 
ATOM      9  C7A BZF d   1       1.591  -0.328   0.921  0.00  0.00     0.058 A 
ENDROOT
TORSDOF 0
ENDMDL
