MODEL 1
REMARK minimizedAffinity 5.71986246
REMARK minimizedRMSD -1
REMARK  0 active torsions:
REMARK  status: ('A' for Active; 'I' for Inactive)
ROOT
ATOM      1  O1  BZF d   1      -0.788  -5.898  -2.113  0.00  0.00    -0.204 OA
ATOM      2  C2  BZF d   1      -2.163  -5.911  -2.247  0.00  0.00     0.174 A 
ATOM      3  C3  BZF d   1      -2.517  -5.895  -3.549  0.00  0.00    -0.012 A 
ATOM      4  C3A BZF d   1      -1.285  -5.963  -4.274  0.00  0.00    -0.107 A 
ATOM      5  C4  BZF d   1      -0.980  -5.998  -5.605  0.00  0.00     0.055 A 
ATOM      6  C5  BZF d   1       0.325  -5.989  -5.984  0.00  0.00    -0.016 A 
ATOM      7  C6  BZF d   1       1.348  -5.942  -5.061  0.00  0.00     0.022 A 
ATOM      8  C7  BZF d   1       1.095  -5.912  -3.729  0.00  0.00     0.029 A 
ATOM      9  C7A BZF d   1      -0.222  -5.954  -3.342  0.00  0.00     0.058 A 
ENDROOT
TORSDOF 0
ENDMDL
