MODEL 1
REMARK minimizedAffinity 12.7739201
REMARK minimizedRMSD -1
REMARK  0 active torsions:
REMARK  status: ('A' for Active; 'I' for Inactive)
ROOT
ATOM      1  O1  BZF d   1       2.204  -5.828  -3.699  0.00  0.00    -0.204 OA
ATOM      2  C2  BZF d   1       2.939  -5.854  -4.869  0.00  0.00     0.174 A 
ATOM      3  C3  BZF d   1       2.127  -5.956  -5.941  0.00  0.00    -0.012 A 
ATOM      4  C3A BZF d   1       0.798  -5.902  -5.413  0.00  0.00    -0.107 A 
ATOM      5  C4  BZF d   1      -0.441  -5.940  -5.986  0.00  0.00     0.055 A 
ATOM      6  C5  BZF d   1      -1.539  -5.940  -5.184  0.00  0.00    -0.016 A 
ATOM      7  C6  BZF d   1      -1.434  -5.909  -3.809  0.00  0.00     0.022 A 
ATOM      8  C7  BZF d   1      -0.226  -5.866  -3.196  0.00  0.00     0.029 A 
ATOM      9  C7A BZF d   1       0.884  -5.832  -4.004  0.00  0.00     0.058 A 
ENDROOT
TORSDOF 0
ENDMDL
