MODEL 1
REMARK minimizedAffinity -1.54195297
REMARK minimizedRMSD -1
REMARK  0 active torsions:
REMARK  status: ('A' for Active; 'I' for Inactive)
ROOT
ATOM      1  O1  BZF d   1       1.278  -5.968  -2.932  0.00  0.00    -0.204 OA
ATOM      2  C2  BZF d   1       2.151  -5.954  -4.003  0.00  0.00     0.174 A 
ATOM      3  C3  BZF d   1       1.477  -5.999  -5.170  0.00  0.00    -0.012 A 
ATOM      4  C3A BZF d   1       0.094  -5.952  -4.808  0.00  0.00    -0.107 A 
ATOM      5  C4  BZF d   1      -1.066  -5.949  -5.529  0.00  0.00     0.055 A 
ATOM      6  C5  BZF d   1      -2.254  -5.970  -4.869  0.00  0.00    -0.016 A 
ATOM      7  C6  BZF d   1      -2.319  -6.000  -3.492  0.00  0.00     0.022 A 
ATOM      8  C7  BZF d   1      -1.196  -5.998  -2.734  0.00  0.00     0.029 A 
ATOM      9  C7A BZF d   1       0.006  -5.943  -3.397  0.00  0.00     0.058 A 
ENDROOT
TORSDOF 0
ENDMDL
