MODEL 1
REMARK minimizedAffinity 0.83233577
REMARK minimizedRMSD -1
REMARK  0 active torsions:
REMARK  status: ('A' for Active; 'I' for Inactive)
ROOT
ATOM      1  O1  BZF d   1      -2.325  -5.973  -2.026  0.00  0.00    -0.204 OA
ATOM      2  C2  BZF d   1      -3.569  -6.000  -2.626  0.00  0.00     0.174 A 
ATOM      3  C3  BZF d   1      -3.452  -5.959  -3.969  0.00  0.00    -0.012 A 
ATOM      4  C3A BZF d   1      -2.045  -5.998  -4.227  0.00  0.00    -0.107 A 
ATOM      5  C4  BZF d   1      -1.300  -5.999  -5.371  0.00  0.00     0.055 A 
ATOM      6  C5  BZF d   1       0.055  -5.968  -5.276  0.00  0.00    -0.016 A 
ATOM      7  C6  BZF d   1       0.697  -5.929  -4.056  0.00  0.00     0.022 A 
ATOM      8  C7  BZF d   1       0.000  -5.931  -2.893  0.00  0.00     0.029 A 
ATOM      9  C7A BZF d   1      -1.368  -5.996  -2.985  0.00  0.00     0.058 A 
ENDROOT
TORSDOF 0
ENDMDL
