MODEL 1
REMARK minimizedAffinity 7.29827118
REMARK minimizedRMSD -1
REMARK  0 active torsions:
REMARK  status: ('A' for Active; 'I' for Inactive)
ROOT
ATOM      1  O1  BZF d   1       3.125   0.684  -0.013  0.00  0.00    -0.204 OA
ATOM      2  C2  BZF d   1       3.895   0.361   1.088  0.00  0.00     0.174 A 
ATOM      3  C3  BZF d   1       3.287  -0.582   1.836  0.00  0.00    -0.012 A 
ATOM      4  C3A BZF d   1       2.104  -0.933   1.112  0.00  0.00    -0.107 A 
ATOM      5  C4  BZF d   1       1.095  -1.826   1.336  0.00  0.00     0.055 A 
ATOM      6  C5  BZF d   1       0.049  -1.872   0.470  0.00  0.00    -0.016 A 
ATOM      7  C6  BZF d   1      -0.024  -1.037  -0.626  0.00  0.00     0.022 A 
ATOM      8  C7  BZF d   1       0.955  -0.138  -0.893  0.00  0.00     0.029 A 
ATOM      9  C7A BZF d   1       2.030  -0.112  -0.038  0.00  0.00     0.058 A 
ENDROOT
TORSDOF 0
ENDMDL
