MODEL 1
REMARK minimizedAffinity -2.21654058
REMARK minimizedRMSD -1
REMARK  0 active torsions:
REMARK  status: ('A' for Active; 'I' for Inactive)
ROOT
ATOM      1  O1  BZF d   1      -2.265  -5.929  -4.547  0.00  0.00    -0.204 OA
ATOM      2  C2  BZF d   1      -2.999  -5.927  -3.377  0.00  0.00     0.174 A 
ATOM      3  C3  BZF d   1      -2.187  -5.999  -2.303  0.00  0.00    -0.012 A 
ATOM      4  C3A BZF d   1      -0.858  -5.956  -2.832  0.00  0.00    -0.107 A 
ATOM      5  C4  BZF d   1       0.381  -5.977  -2.260  0.00  0.00     0.055 A 
ATOM      6  C5  BZF d   1       1.479  -5.996  -3.061  0.00  0.00    -0.016 A 
ATOM      7  C6  BZF d   1       1.373  -6.000  -4.436  0.00  0.00     0.022 A 
ATOM      8  C7  BZF d   1       0.165  -5.975  -5.050  0.00  0.00     0.029 A 
ATOM      9  C7A BZF d   1      -0.945  -5.923  -4.243  0.00  0.00     0.058 A 
ENDROOT
TORSDOF 0
ENDMDL
