MODEL 1
REMARK minimizedAffinity -2.9950242
REMARK minimizedRMSD -1
REMARK  0 active torsions:
REMARK  status: ('A' for Active; 'I' for Inactive)
ROOT
ATOM      1  O1  BZF d   1      -2.304  -6.000  -2.241  0.00  0.00    -0.204 OA
ATOM      2  C2  BZF d   1      -3.567  -6.000  -2.800  0.00  0.00     0.174 A 
ATOM      3  C3  BZF d   1      -3.511  -5.674  -4.108  0.00  0.00    -0.012 A 
ATOM      4  C3A BZF d   1      -2.117  -5.547  -4.404  0.00  0.00    -0.107 A 
ATOM      5  C4  BZF d   1      -1.423  -5.253  -5.543  0.00  0.00     0.055 A 
ATOM      6  C5  BZF d   1      -0.070  -5.135  -5.480  0.00  0.00    -0.016 A 
ATOM      7  C6  BZF d   1       0.618  -5.298  -4.296  0.00  0.00     0.022 A 
ATOM      8  C7  BZF d   1      -0.027  -5.595  -3.141  0.00  0.00     0.029 A 
ATOM      9  C7A BZF d   1      -1.390  -5.748  -3.208  0.00  0.00     0.058 A 
ENDROOT
TORSDOF 0
ENDMDL
