MODEL 1
REMARK minimizedAffinity 8.82188225
REMARK minimizedRMSD -1
REMARK  0 active torsions:
REMARK  status: ('A' for Active; 'I' for Inactive)
ROOT
ATOM      1  O1  BZF d   1      -0.223  -5.942  -5.486  0.00  0.00    -0.204 OA
ATOM      2  C2  BZF d   1       1.059  -5.996  -5.998  0.00  0.00     0.174 A 
ATOM      3  C3  BZF d   1       1.972  -5.973  -5.005  0.00  0.00    -0.012 A 
ATOM      4  C3A BZF d   1       1.210  -5.992  -3.794  0.00  0.00    -0.107 A 
ATOM      5  C4  BZF d   1       1.550  -5.998  -2.471  0.00  0.00     0.055 A 
ATOM      6  C5  BZF d   1       0.566  -5.943  -1.536  0.00  0.00    -0.016 A 
ATOM      7  C6  BZF d   1      -0.767  -5.877  -1.887  0.00  0.00     0.022 A 
ATOM      8  C7  BZF d   1      -1.153  -5.874  -3.186  0.00  0.00     0.029 A 
ATOM      9  C7A BZF d   1      -0.162  -5.962  -4.133  0.00  0.00     0.058 A 
ENDROOT
TORSDOF 0
ENDMDL
