MODEL 1
REMARK minimizedAffinity 6.38908863
REMARK minimizedRMSD -1
REMARK  0 active torsions:
REMARK  status: ('A' for Active; 'I' for Inactive)
ROOT
ATOM      1  O1  BZF d   1       3.474   0.168   3.384  0.00  0.00    -0.204 OA
ATOM      2  C2  BZF d   1       4.853   0.206   3.464  0.00  0.00     0.174 A 
ATOM      3  C3  BZF d   1       5.405   0.156   2.235  0.00  0.00    -0.012 A 
ATOM      4  C3A BZF d   1       4.301   0.176   1.325  0.00  0.00    -0.107 A 
ATOM      5  C4  BZF d   1       4.206   0.162  -0.037  0.00  0.00     0.055 A 
ATOM      6  C5  BZF d   1       2.976   0.114  -0.613  0.00  0.00    -0.016 A 
ATOM      7  C6  BZF d   1       1.822   0.074   0.141  0.00  0.00     0.022 A 
ATOM      8  C7  BZF d   1       1.865   0.092   1.496  0.00  0.00     0.029 A 
ATOM      9  C7A BZF d   1       3.105   0.173   2.081  0.00  0.00     0.058 A 
ENDROOT
TORSDOF 0
ENDMDL
