MODEL 1
REMARK minimizedAffinity 8.9728241
REMARK minimizedRMSD -1
REMARK  0 active torsions:
REMARK  status: ('A' for Active; 'I' for Inactive)
ROOT
ATOM      1  O1  BZF d   1      -0.518  -5.750  -2.578  0.00  0.00    -0.204 OA
ATOM      2  C2  BZF d   1      -1.804  -5.750  -3.082  0.00  0.00     0.174 A 
ATOM      3  C3  BZF d   1      -1.790  -5.778  -4.430  0.00  0.00    -0.012 A 
ATOM      4  C3A BZF d   1      -0.409  -5.889  -4.790  0.00  0.00    -0.107 A 
ATOM      5  C4  BZF d   1       0.245  -5.977  -5.985  0.00  0.00     0.055 A 
ATOM      6  C5  BZF d   1       1.604  -6.000  -5.994  0.00  0.00    -0.016 A 
ATOM      7  C6  BZF d   1       2.339  -5.932  -4.828  0.00  0.00     0.022 A 
ATOM      8  C7  BZF d   1       1.734  -5.849  -3.619  0.00  0.00     0.029 A 
ATOM      9  C7A BZF d   1       0.360  -5.859  -3.604  0.00  0.00     0.058 A 
ENDROOT
TORSDOF 0
ENDMDL
