MODEL 1
REMARK minimizedAffinity 13.0538073
REMARK minimizedRMSD -1
REMARK  0 active torsions:
REMARK  status: ('A' for Active; 'I' for Inactive)
ROOT
ATOM      1  O1  BZF d   1      -3.162  -5.927  -1.413  0.00  0.00    -0.204 OA
ATOM      2  C2  BZF d   1      -4.514  -5.905  -1.696  0.00  0.00     0.174 A 
ATOM      3  C3  BZF d   1      -4.724  -5.861  -3.027  0.00  0.00    -0.012 A 
ATOM      4  C3A BZF d   1      -3.423  -5.949  -3.616  0.00  0.00    -0.107 A 
ATOM      5  C4  BZF d   1      -2.976  -5.972  -4.906  0.00  0.00     0.055 A 
ATOM      6  C5  BZF d   1      -1.638  -5.990  -5.142  0.00  0.00    -0.016 A 
ATOM      7  C6  BZF d   1      -0.720  -5.981  -4.112  0.00  0.00     0.022 A 
ATOM      8  C7  BZF d   1      -1.115  -5.964  -2.816  0.00  0.00     0.029 A 
ATOM      9  C7A BZF d   1      -2.467  -5.979  -2.575  0.00  0.00     0.058 A 
ENDROOT
TORSDOF 0
ENDMDL
