MODEL 1
REMARK minimizedAffinity 2.73105454
REMARK minimizedRMSD -1
REMARK  0 active torsions:
REMARK  status: ('A' for Active; 'I' for Inactive)
ROOT
ATOM      1  O1  BZF d   1       0.495   0.936   0.411  0.00  0.00    -0.204 OA
ATOM      2  C2  BZF d   1       0.293   1.050  -0.951  0.00  0.00     0.174 A 
ATOM      3  C3  BZF d   1       0.208  -0.168  -1.525  0.00  0.00    -0.012 A 
ATOM      4  C3A BZF d   1       0.274  -1.100  -0.441  0.00  0.00    -0.107 A 
ATOM      5  C4  BZF d   1       0.225  -2.463  -0.371  0.00  0.00     0.055 A 
ATOM      6  C5  BZF d   1       0.391  -3.068   0.834  0.00  0.00    -0.016 A 
ATOM      7  C6  BZF d   1       0.613  -2.343   1.987  0.00  0.00     0.022 A 
ATOM      8  C7  BZF d   1       0.664  -0.989   1.968  0.00  0.00     0.029 A 
ATOM      9  C7A BZF d   1       0.464  -0.373   0.756  0.00  0.00     0.058 A 
ENDROOT
TORSDOF 0
ENDMDL
