MODEL 1
REMARK minimizedAffinity -0.676329076
REMARK minimizedRMSD -1
REMARK  1 active torsions:
REMARK  status: ('A' for Active; 'I' for Inactive)
REMARK    1  A    between atoms: C1_2  and  C2_3 
ROOT
ATOM      1  C2  UNL d   1       2.614  -3.853  -0.883  0.00  0.00    -0.081 A 
ATOM      2  C3  UNL d   1       3.715  -4.574  -1.361  0.00  0.00     0.006 A 
ATOM      3  C4  UNL d   1       4.714  -3.934  -2.099  0.00  0.00     0.002 A 
ATOM      4  C5  UNL d   1       4.632  -2.563  -2.364  0.00  0.00    -0.080 A 
ATOM      5  C6  UNL d   1       5.713  -1.857  -3.129  0.00  0.00     0.076 C 
ATOM      6  C7  UNL d   1       3.523  -1.846  -1.901  0.00  0.00     0.002 A 
ATOM      7  C8  UNL d   1       2.524  -2.486  -1.164  0.00  0.00     0.006 A 
ENDROOT
BRANCH   1   8
ATOM      8  C1  UNL d   1       1.568  -4.527  -0.032  0.00  0.00     0.054 C 
ATOM      9  C   UNL d   1       0.335  -4.882  -0.849  0.00  0.00     0.018 C 
ENDBRANCH   1   8
TORSDOF 1
ENDMDL
