MODEL 1
REMARK minimizedAffinity 3.60073614
REMARK minimizedRMSD -1
REMARK  1 active torsions:
REMARK  status: ('A' for Active; 'I' for Inactive)
REMARK    1  A    between atoms: C1_2  and  C2_3 
ROOT
ATOM      1  C2  UNL d   1       0.413   3.475   0.257  0.00  0.00    -0.081 A 
ATOM      2  C3  UNL d   1       0.140   2.249  -0.361  0.00  0.00     0.006 A 
ATOM      3  C4  UNL d   1       0.069   1.076   0.393  0.00  0.00     0.002 A 
ATOM      4  C5  UNL d   1       0.261   1.110   1.778  0.00  0.00    -0.080 A 
ATOM      5  C6  UNL d   1       0.157  -0.138   2.604  0.00  0.00     0.076 C 
ATOM      6  C7  UNL d   1       0.551   2.332   2.394  0.00  0.00     0.002 A 
ATOM      7  C8  UNL d   1       0.623   3.506   1.640  0.00  0.00     0.006 A 
ENDROOT
BRANCH   1   8
ATOM      8  C1  UNL d   1       0.427   4.752  -0.545  0.00  0.00     0.054 C 
ATOM      9  C   UNL d   1      -0.479   5.805   0.076  0.00  0.00     0.018 C 
ENDBRANCH   1   8
TORSDOF 1
ENDMDL
