MODEL 1
REMARK minimizedAffinity -5.73581266
REMARK minimizedRMSD -1
REMARK  0 active torsions:
REMARK  status: ('A' for Active; 'I' for Inactive)
ROOT
ATOM      1  C   UNL d   1       0.765  -0.598  -0.961  0.00  0.00     0.078 C 
ATOM      2  C1  UNL d   1       0.184   0.106   0.229  0.00  0.00    -0.077 A 
ATOM      3  C2  UNL d   1       1.006   0.574   1.262  0.00  0.00    -0.001 A 
ATOM      4  C3  UNL d   1       0.452   1.219   2.368  0.00  0.00     0.003 A 
ATOM      5  C4  UNL d   1      -0.927   1.401   2.454  0.00  0.00    -0.005 A 
ATOM      6  C5  UNL d   1      -1.753   0.936   1.432  0.00  0.00     0.003 A 
ATOM      7  C6  UNL d   1      -1.201   0.291   0.325  0.00  0.00    -0.001 A 
ENDROOT
TORSDOF 0
ENDMDL
