MODEL 1
REMARK minimizedAffinity -3.48121548
REMARK minimizedRMSD -1
REMARK  0 active torsions:
REMARK  status: ('A' for Active; 'I' for Inactive)
ROOT
ATOM      1  C   UNL d   1      -0.803   1.273   3.045  0.00  0.00     0.078 C 
ATOM      2  C1  UNL d   1      -0.344   0.480   1.858  0.00  0.00    -0.077 A 
ATOM      3  C2  UNL d   1       0.990   0.075   1.732  0.00  0.00    -0.001 A 
ATOM      4  C3  UNL d   1       1.405  -0.654   0.617  0.00  0.00     0.003 A 
ATOM      5  C4  UNL d   1       0.491  -0.984  -0.382  0.00  0.00    -0.005 A 
ATOM      6  C5  UNL d   1      -0.838  -0.584  -0.267  0.00  0.00     0.003 A 
ATOM      7  C6  UNL d   1      -1.255   0.146   0.847  0.00  0.00    -0.001 A 
ENDROOT
TORSDOF 0
ENDMDL
