MODEL 1
REMARK minimizedAffinity -4.25878048
REMARK minimizedRMSD -1
REMARK  0 active torsions:
REMARK  status: ('A' for Active; 'I' for Inactive)
ROOT
ATOM      1  C   UNL d   1      -0.751   1.881   2.625  0.00  0.00     0.078 C 
ATOM      2  C1  UNL d   1      -0.444   0.890   1.542  0.00  0.00    -0.077 A 
ATOM      3  C2  UNL d   1       0.865   0.443   1.322  0.00  0.00    -0.001 A 
ATOM      4  C3  UNL d   1       1.138  -0.472   0.305  0.00  0.00     0.003 A 
ATOM      5  C4  UNL d   1       0.106  -0.948  -0.503  0.00  0.00    -0.005 A 
ATOM      6  C5  UNL d   1      -1.199  -0.508  -0.293  0.00  0.00     0.003 A 
ATOM      7  C6  UNL d   1      -1.473   0.407   0.724  0.00  0.00    -0.001 A 
ENDROOT
TORSDOF 0
ENDMDL
