MODEL 1
REMARK minimizedAffinity -3.01225352
REMARK minimizedRMSD -1
REMARK  0 active torsions:
REMARK  status: ('A' for Active; 'I' for Inactive)
ROOT
ATOM      1  C   UNL d   1      -0.905   1.343   2.592  0.00  0.00     0.078 C 
ATOM      2  C1  UNL d   1      -0.543   0.673   1.300  0.00  0.00    -0.077 A 
ATOM      3  C2  UNL d   1      -1.526   0.339   0.361  0.00  0.00    -0.001 A 
ATOM      4  C3  UNL d   1      -1.176  -0.293  -0.834  0.00  0.00     0.003 A 
ATOM      5  C4  UNL d   1       0.158  -0.597  -1.099  0.00  0.00    -0.005 A 
ATOM      6  C5  UNL d   1       1.143  -0.271  -0.169  0.00  0.00     0.003 A 
ATOM      7  C6  UNL d   1       0.794   0.361   1.026  0.00  0.00    -0.001 A 
ENDROOT
TORSDOF 0
ENDMDL
