MODEL 1
REMARK minimizedAffinity -2.67283082
REMARK minimizedRMSD -1
REMARK  0 active torsions:
REMARK  status: ('A' for Active; 'I' for Inactive)
ROOT
ATOM      1  C   UNL d   1       0.272   0.057   0.424  0.00  0.00     0.078 C 
ATOM      2  C1  UNL d   1       0.655   0.031  -1.025  0.00  0.00    -0.077 A 
ATOM      3  C2  UNL d   1       0.297  -1.045  -1.847  0.00  0.00    -0.001 A 
ATOM      4  C3  UNL d   1       0.668  -1.060  -3.192  0.00  0.00     0.003 A 
ATOM      5  C4  UNL d   1       1.402  -0.003  -3.728  0.00  0.00    -0.005 A 
ATOM      6  C5  UNL d   1       1.766   1.071  -2.917  0.00  0.00     0.003 A 
ATOM      7  C6  UNL d   1       1.395   1.088  -1.572  0.00  0.00    -0.001 A 
ENDROOT
TORSDOF 0
ENDMDL
