MODEL 1
REMARK minimizedAffinity -4.65013361
REMARK minimizedRMSD -1
REMARK  0 active torsions:
REMARK  status: ('A' for Active; 'I' for Inactive)
ROOT
ATOM      1  C   UNL d   1      -1.443   1.038   2.582  0.00  0.00     0.078 C 
ATOM      2  C1  UNL d   1      -1.054   0.250   1.366  0.00  0.00    -0.077 A 
ATOM      3  C2  UNL d   1      -2.012  -0.138   0.421  0.00  0.00    -0.001 A 
ATOM      4  C3  UNL d   1      -1.637  -0.879  -0.700  0.00  0.00     0.003 A 
ATOM      5  C4  UNL d   1      -0.304  -1.240  -0.887  0.00  0.00    -0.005 A 
ATOM      6  C5  UNL d   1       0.656  -0.860   0.049  0.00  0.00     0.003 A 
ATOM      7  C6  UNL d   1       0.283  -0.119   1.171  0.00  0.00    -0.001 A 
ENDROOT
TORSDOF 0
ENDMDL
