MODEL 1
REMARK minimizedAffinity -4.48056841
REMARK minimizedRMSD -1
REMARK  0 active torsions:
REMARK  status: ('A' for Active; 'I' for Inactive)
ROOT
ATOM      1  C   UNL d   1      -0.775   1.620   2.912  0.00  0.00     0.078 C 
ATOM      2  C1  UNL d   1      -0.440   0.852   1.669  0.00  0.00    -0.077 A 
ATOM      3  C2  UNL d   1       0.884   0.505   1.371  0.00  0.00    -0.001 A 
ATOM      4  C3  UNL d   1       1.182  -0.202   0.204  0.00  0.00     0.003 A 
ATOM      5  C4  UNL d   1       0.163  -0.566  -0.674  0.00  0.00    -0.005 A 
ATOM      6  C5  UNL d   1      -1.156  -0.223  -0.386  0.00  0.00     0.003 A 
ATOM      7  C6  UNL d   1      -1.457   0.484   0.779  0.00  0.00    -0.001 A 
ENDROOT
TORSDOF 0
ENDMDL
