MODEL 1
REMARK minimizedAffinity 0.344484538
REMARK minimizedRMSD -1
REMARK  0 active torsions:
REMARK  status: ('A' for Active; 'I' for Inactive)
ROOT
ATOM      1  C4' PXY d   1      -0.188  -3.098  -0.136  0.00  0.00     0.077 C 
ATOM      2  C1' PXY d   1       2.223   2.138   0.297  0.00  0.00     0.077 C 
ATOM      3  C1  PXY d   1       1.603   0.760   0.180  0.00  0.00    -0.082 A 
ATOM      4  C2  PXY d   1       0.301   0.645  -0.031  0.00  0.00     0.003 A 
ATOM      5  C3  PXY d   1      -0.282  -0.594  -0.108  0.00  0.00     0.003 A 
ATOM      6  C4  PXY d   1       0.483  -1.726  -0.021  0.00  0.00    -0.082 A 
ATOM      7  C5  PXY d   1       1.813  -1.617   0.184  0.00  0.00     0.003 A 
ATOM      8  C6  PXY d   1       2.379  -0.351   0.300  0.00  0.00     0.003 A 
ENDROOT
TORSDOF 0
ENDMDL
