MODEL 1
REMARK minimizedAffinity 0.920816064
REMARK minimizedRMSD -1
REMARK  0 active torsions:
REMARK  status: ('A' for Active; 'I' for Inactive)
ROOT
ATOM      1  C4' PXY d   1      -6.000  -1.125  -1.494  0.00  0.00     0.077 C 
ATOM      2  C1' PXY d   1      -2.963   1.933   2.358  0.00  0.00     0.077 C 
ATOM      3  C1  PXY d   1      -3.752   1.136   1.338  0.00  0.00    -0.082 A 
ATOM      4  C2  PXY d   1      -4.985   0.748   1.623  0.00  0.00     0.003 A 
ATOM      5  C3  PXY d   1      -5.701  -0.001   0.725  0.00  0.00     0.003 A 
ATOM      6  C4  PXY d   1      -5.170  -0.310  -0.499  0.00  0.00    -0.082 A 
ATOM      7  C5  PXY d   1      -3.917   0.091  -0.801  0.00  0.00     0.003 A 
ATOM      8  C6  PXY d   1      -3.191   0.815   0.141  0.00  0.00     0.003 A 
ENDROOT
TORSDOF 0
ENDMDL
