MODEL 1
REMARK minimizedAffinity -2.20865059
REMARK minimizedRMSD -1
REMARK  0 active torsions:
REMARK  status: ('A' for Active; 'I' for Inactive)
ROOT
ATOM      1  C4' PXY d   1       2.347   2.459   0.968  0.00  0.00     0.077 C 
ATOM      2  C1' PXY d   1       0.386  -2.673  -0.832  0.00  0.00     0.077 C 
ATOM      3  C1  PXY d   1       0.908  -1.333  -0.351  0.00  0.00    -0.082 A 
ATOM      4  C2  PXY d   1       0.194  -0.239  -0.563  0.00  0.00     0.003 A 
ATOM      5  C3  PXY d   1       0.666   0.985  -0.163  0.00  0.00     0.003 A 
ATOM      6  C4  PXY d   1       1.855   1.084   0.508  0.00  0.00    -0.082 A 
ATOM      7  C5  PXY d   1       2.584  -0.029   0.738  0.00  0.00     0.003 A 
ATOM      8  C6  PXY d   1       2.107  -1.257   0.287  0.00  0.00     0.003 A 
ENDROOT
TORSDOF 0
ENDMDL
