MODEL 1
REMARK minimizedAffinity -2.29410005
REMARK minimizedRMSD -1
REMARK  0 active torsions:
REMARK  status: ('A' for Active; 'I' for Inactive)
ROOT
ATOM      1  C4' PXY d   1      -1.883   0.522  -2.280  0.00  0.00     0.077 C 
ATOM      2  C1' PXY d   1       2.468  -0.516   1.382  0.00  0.00     0.077 C 
ATOM      3  C1  PXY d   1       1.323  -0.234   0.429  0.00  0.00    -0.082 A 
ATOM      4  C2  PXY d   1       0.872  -1.199  -0.356  0.00  0.00     0.003 A 
ATOM      5  C3  PXY d   1      -0.141  -0.953  -1.246  0.00  0.00     0.003 A 
ATOM      6  C4  PXY d   1      -0.735   0.280  -1.296  0.00  0.00    -0.082 A 
ATOM      7  C5  PXY d   1      -0.288   1.267  -0.491  0.00  0.00     0.003 A 
ATOM      8  C6  PXY d   1       0.770   1.008   0.377  0.00  0.00     0.003 A 
ENDROOT
TORSDOF 0
ENDMDL
