MODEL 1
REMARK minimizedAffinity 1.6586684
REMARK minimizedRMSD -1
REMARK  0 active torsions:
REMARK  status: ('A' for Active; 'I' for Inactive)
ROOT
ATOM      1  C4' PXY d   1      -1.465  -2.570  -5.051  0.00  0.00     0.077 C 
ATOM      2  C1' PXY d   1      -0.108   0.510  -0.351  0.00  0.00     0.077 C 
ATOM      3  C1  PXY d   1      -0.471  -0.288  -1.588  0.00  0.00    -0.082 A 
ATOM      4  C2  PXY d   1      -0.422  -1.610  -1.552  0.00  0.00     0.003 A 
ATOM      5  C3  PXY d   1      -0.716  -2.346  -2.670  0.00  0.00     0.003 A 
ATOM      6  C4  PXY d   1      -1.116  -1.724  -3.823  0.00  0.00    -0.082 A 
ATOM      7  C5  PXY d   1      -1.180  -0.376  -3.865  0.00  0.00     0.003 A 
ATOM      8  C6  PXY d   1      -0.837   0.354  -2.730  0.00  0.00     0.003 A 
ENDROOT
TORSDOF 0
ENDMDL
