MODEL 1
REMARK minimizedAffinity -0.797368348
REMARK minimizedRMSD -1
REMARK  0 active torsions:
REMARK  status: ('A' for Active; 'I' for Inactive)
ROOT
ATOM      1  C4' PXY d   1      -5.676  -1.172  -1.051  0.00  0.00     0.077 C 
ATOM      2  C1' PXY d   1      -3.381   1.761   3.370  0.00  0.00     0.077 C 
ATOM      3  C1  PXY d   1      -3.994   0.993   2.216  0.00  0.00    -0.082 A 
ATOM      4  C2  PXY d   1      -3.248   0.150   1.521  0.00  0.00     0.003 A 
ATOM      5  C3  PXY d   1      -3.779  -0.529   0.454  0.00  0.00     0.003 A 
ATOM      6  C4  PXY d   1      -5.101  -0.383   0.128  0.00  0.00    -0.082 A 
ATOM      7  C5  PXY d   1      -5.871   0.468   0.839  0.00  0.00     0.003 A 
ATOM      8  C6  PXY d   1      -5.303   1.178   1.892  0.00  0.00     0.003 A 
ENDROOT
TORSDOF 0
ENDMDL
