MODEL 1
REMARK minimizedAffinity -2.10912967
REMARK minimizedRMSD -1
REMARK  0 active torsions:
REMARK  status: ('A' for Active; 'I' for Inactive)
ROOT
ATOM      1  C4' PXY d   1      -0.295   0.798  -0.468  0.00  0.00     0.077 C 
ATOM      2  C1' PXY d   1      -6.000  -0.004   0.002  0.00  0.00     0.077 C 
ATOM      3  C1  PXY d   1      -4.503   0.197  -0.130  0.00  0.00    -0.082 A 
ATOM      4  C2  PXY d   1      -3.826   0.744   0.866  0.00  0.00     0.003 A 
ATOM      5  C3  PXY d   1      -2.477   0.963   0.751  0.00  0.00     0.003 A 
ATOM      6  C4  PXY d   1      -1.805   0.568  -0.375  0.00  0.00    -0.082 A 
ATOM      7  C5  PXY d   1      -2.487  -0.002  -1.392  0.00  0.00     0.003 A 
ATOM      8  C6  PXY d   1      -3.863  -0.177  -1.272  0.00  0.00     0.003 A 
ENDROOT
TORSDOF 0
ENDMDL
