MODEL 1
REMARK minimizedAffinity -1.35103345
REMARK minimizedRMSD -1
REMARK  0 active torsions:
REMARK  status: ('A' for Active; 'I' for Inactive)
ROOT
ATOM      1  C4' PXY d   1      -1.947  -0.058  -1.924  0.00  0.00     0.077 C 
ATOM      2  C1' PXY d   1       2.601  -1.374   1.393  0.00  0.00     0.077 C 
ATOM      3  C1  PXY d   1       1.414  -1.035   0.513  0.00  0.00    -0.082 A 
ATOM      4  C2  PXY d   1       0.628  -0.021   0.837  0.00  0.00     0.003 A 
ATOM      5  C3  PXY d   1      -0.468   0.280   0.069  0.00  0.00     0.003 A 
ATOM      6  C4  PXY d   1      -0.732  -0.431  -1.070  0.00  0.00    -0.082 A 
ATOM      7  C5  PXY d   1       0.071  -1.460  -1.414  0.00  0.00     0.003 A 
ATOM      8  C6  PXY d   1       1.155  -1.775  -0.599  0.00  0.00     0.003 A 
ENDROOT
TORSDOF 0
ENDMDL
