MODEL 1
REMARK minimizedAffinity 4.39308643
REMARK minimizedRMSD -1
REMARK  0 active torsions:
REMARK  status: ('A' for Active; 'I' for Inactive)
ROOT
ATOM      1  C4' PXY d   1      -1.755  -1.860  -4.493  0.00  0.00     0.077 C 
ATOM      2  C1' PXY d   1      -0.014   0.998   0.221  0.00  0.00     0.077 C 
ATOM      3  C1  PXY d   1      -0.480   0.257  -1.017  0.00  0.00    -0.082 A 
ATOM      4  C2  PXY d   1      -0.182  -1.024  -1.164  0.00  0.00     0.003 A 
ATOM      5  C3  PXY d   1      -0.568  -1.701  -2.292  0.00  0.00     0.003 A 
ATOM      6  C4  PXY d   1      -1.313  -1.074  -3.255  0.00  0.00    -0.082 A 
ATOM      7  C5  PXY d   1      -1.630   0.230  -3.107  0.00  0.00     0.003 A 
ATOM      8  C6  PXY d   1      -1.194   0.910  -1.974  0.00  0.00     0.003 A 
ENDROOT
TORSDOF 0
ENDMDL
