MODEL 1
REMARK minimizedAffinity -1.53952014
REMARK minimizedRMSD -1
REMARK  0 active torsions:
REMARK  status: ('A' for Active; 'I' for Inactive)
ROOT
ATOM      1  C4' PXY d   1       3.575  -1.672   1.171  0.00  0.00     0.077 C 
ATOM      2  C1' PXY d   1      -1.155   1.057  -0.725  0.00  0.00     0.077 C 
ATOM      3  C1  PXY d   1       0.080   0.330  -0.231  0.00  0.00    -0.082 A 
ATOM      4  C2  PXY d   1       0.889   0.926   0.630  0.00  0.00     0.003 A 
ATOM      5  C3  PXY d   1       2.027   0.295   1.063  0.00  0.00     0.003 A 
ATOM      6  C4  PXY d   1       2.312  -0.979   0.652  0.00  0.00    -0.082 A 
ATOM      7  C5  PXY d   1       1.485  -1.598  -0.218  0.00  0.00     0.003 A 
ATOM      8  C6  PXY d   1       0.357  -0.925  -0.677  0.00  0.00     0.003 A 
ENDROOT
TORSDOF 0
ENDMDL
