MODEL 1
REMARK minimizedAffinity 5.31498528
REMARK minimizedRMSD -1
REMARK  0 active torsions:
REMARK  status: ('A' for Active; 'I' for Inactive)
ROOT
ATOM      1  C4' PXY d   1       3.165  -2.217  -1.926  0.00  0.00     0.077 C 
ATOM      2  C1' PXY d   1      -0.556   0.805   1.304  0.00  0.00     0.077 C 
ATOM      3  C1  PXY d   1       0.429   0.021   0.461  0.00  0.00    -0.082 A 
ATOM      4  C2  PXY d   1      -0.009  -0.693  -0.564  0.00  0.00     0.003 A 
ATOM      5  C3  PXY d   1       0.864  -1.434  -1.317  0.00  0.00     0.003 A 
ATOM      6  C4  PXY d   1       2.207  -1.402  -1.053  0.00  0.00    -0.082 A 
ATOM      7  C5  PXY d   1       2.664  -0.668  -0.016  0.00  0.00     0.003 A 
ATOM      8  C6  PXY d   1       1.756   0.045   0.762  0.00  0.00     0.003 A 
ENDROOT
TORSDOF 0
ENDMDL
