MODEL 1
REMARK minimizedAffinity -1.09897029
REMARK minimizedRMSD -1
REMARK  1 active torsions:
REMARK  status: ('A' for Active; 'I' for Inactive)
REMARK    1  A    between atoms: N_2  and  C1_3 
ROOT
ATOM      1  C1  UNL d   1      -5.507  -3.433  -4.250  0.00  0.00     0.143 A 
ATOM      2  C2  UNL d   1      -4.473  -3.200  -5.163  0.00  0.00    -0.057 A 
ATOM      3  C3  UNL d   1      -3.981  -4.225  -5.980  0.00  0.00     0.033 A 
ATOM      4  C4  UNL d   1      -4.497  -5.512  -5.878  0.00  0.00    -0.042 A 
ATOM      5  C5  UNL d   1      -5.509  -5.772  -4.960  0.00  0.00     0.033 A 
ATOM      6  C6  UNL d   1      -6.000  -4.743  -4.151  0.00  0.00    -0.057 A 
ENDROOT
BRANCH   1   7
ATOM      7  N   UNL d   1      -5.971  -2.479  -3.341  0.00  0.00    -0.732 N 
ATOM      8  C   UNL d   1      -5.920  -2.732  -1.917  0.00  0.00     0.284 C 
ATOM      9  H3  UNL d   1      -5.710  -1.532  -3.604  0.00  0.00     0.395 HD
ENDBRANCH   1   7
TORSDOF 1
ENDMDL
