MODEL 1
REMARK minimizedAffinity 1.22799993
REMARK minimizedRMSD -1
REMARK  1 active torsions:
REMARK  status: ('A' for Active; 'I' for Inactive)
REMARK    1  A    between atoms: N_2  and  C1_3 
ROOT
ATOM      1  C1  UNL d   1      -3.510  -5.265  -5.999  0.00  0.00     0.143 A 
ATOM      2  C2  UNL d   1      -4.749  -5.915  -5.980  0.00  0.00    -0.057 A 
ATOM      3  C3  UNL d   1      -5.945  -5.194  -5.886  0.00  0.00     0.033 A 
ATOM      4  C4  UNL d   1      -5.923  -3.808  -5.781  0.00  0.00    -0.042 A 
ATOM      5  C5  UNL d   1      -4.702  -3.142  -5.773  0.00  0.00     0.033 A 
ATOM      6  C6  UNL d   1      -3.511  -3.867  -5.874  0.00  0.00    -0.057 A 
ENDROOT
BRANCH   1   7
ATOM      7  N   UNL d   1      -2.282  -5.931  -5.992  0.00  0.00    -0.732 N 
ATOM      8  C   UNL d   1      -1.040  -5.188  -5.997  0.00  0.00     0.284 C 
ATOM      9  H3  UNL d   1      -2.281  -6.737  -5.371  0.00  0.00     0.395 HD
ENDBRANCH   1   7
TORSDOF 1
ENDMDL
