MODEL 1
REMARK minimizedAffinity 0.482127011
REMARK minimizedRMSD -1
REMARK  1 active torsions:
REMARK  status: ('A' for Active; 'I' for Inactive)
REMARK    1  A    between atoms: N_2  and  C1_3 
ROOT
ATOM      1  C1  UNL d   1      -4.912  -4.215   0.330  0.00  0.00     0.143 A 
ATOM      2  C2  UNL d   1      -5.372  -3.290  -0.614  0.00  0.00    -0.057 A 
ATOM      3  C3  UNL d   1      -5.897  -2.052  -0.222  0.00  0.00     0.033 A 
ATOM      4  C4  UNL d   1      -5.998  -1.729   1.127  0.00  0.00    -0.042 A 
ATOM      5  C5  UNL d   1      -5.571  -2.643   2.083  0.00  0.00     0.033 A 
ATOM      6  C6  UNL d   1      -5.042  -3.875   1.685  0.00  0.00    -0.057 A 
ENDROOT
BRANCH   1   7
ATOM      7  N   UNL d   1      -4.471  -5.501   0.008  0.00  0.00    -0.732 N 
ATOM      8  C   UNL d   1      -3.215  -6.000   0.524  0.00  0.00     0.284 C 
ATOM      9  H3  UNL d   1      -5.226  -6.184   0.018  0.00  0.00     0.395 HD
ENDBRANCH   1   7
TORSDOF 1
ENDMDL
