MODEL 1
REMARK minimizedAffinity 10.815239
REMARK minimizedRMSD -1
REMARK  1 active torsions:
REMARK  status: ('A' for Active; 'I' for Inactive)
REMARK    1  A    between atoms: N_2  and  C1_3 
ROOT
ATOM      1  C1  UNL d   1       1.766   3.755  -3.021  0.00  0.00     0.143 A 
ATOM      2  C2  UNL d   1       1.663   5.090  -3.427  0.00  0.00    -0.057 A 
ATOM      3  C3  UNL d   1       2.398   5.577  -4.515  0.00  0.00     0.033 A 
ATOM      4  C4  UNL d   1       3.275   4.742  -5.199  0.00  0.00    -0.042 A 
ATOM      5  C5  UNL d   1       3.413   3.418  -4.797  0.00  0.00     0.033 A 
ATOM      6  C6  UNL d   1       2.671   2.936  -3.715  0.00  0.00    -0.057 A 
ENDROOT
BRANCH   1   7
ATOM      7  N   UNL d   1       1.136   3.236  -1.887  0.00  0.00    -0.732 N 
ATOM      8  C   UNL d   1       1.421   1.891  -1.437  0.00  0.00     0.284 C 
ATOM      9  H3  UNL d   1       1.063   3.919  -1.137  0.00  0.00     0.395 HD
ENDBRANCH   1   7
TORSDOF 1
ENDMDL
