MODEL 1
REMARK minimizedAffinity 12.6218128
REMARK minimizedRMSD -1
REMARK  1 active torsions:
REMARK  status: ('A' for Active; 'I' for Inactive)
REMARK    1  A    between atoms: N_2  and  C1_3 
ROOT
ATOM      1  C1  UNL d   1       3.261   1.208  -5.710  0.00  0.00     0.143 A 
ATOM      2  C2  UNL d   1       4.251   0.262  -6.000  0.00  0.00    -0.057 A 
ATOM      3  C3  UNL d   1       4.120  -1.071  -5.595  0.00  0.00     0.033 A 
ATOM      4  C4  UNL d   1       3.008  -1.478  -4.865  0.00  0.00    -0.042 A 
ATOM      5  C5  UNL d   1       2.024  -0.549  -4.544  0.00  0.00     0.033 A 
ATOM      6  C6  UNL d   1       2.157   0.780  -4.958  0.00  0.00    -0.057 A 
ENDROOT
BRANCH   1   7
ATOM      7  N   UNL d   1       3.379   2.570  -6.000  0.00  0.00    -0.732 N 
ATOM      8  C   UNL d   1       4.411   3.370  -5.376  0.00  0.00     0.284 C 
ATOM      9  H3  UNL d   1       3.237   2.771  -6.987  0.00  0.00     0.395 HD
ENDBRANCH   1   7
TORSDOF 1
ENDMDL
