MODEL 1
REMARK minimizedAffinity 0.558667779
REMARK minimizedRMSD -1
REMARK  1 active torsions:
REMARK  status: ('A' for Active; 'I' for Inactive)
REMARK    1  A    between atoms: N_2  and  C1_3 
ROOT
ATOM      1  C1  UNL d   1      -4.952  -4.736   0.551  0.00  0.00     0.143 A 
ATOM      2  C2  UNL d   1      -5.397  -4.406   1.835  0.00  0.00    -0.057 A 
ATOM      3  C3  UNL d   1      -5.896  -3.131   2.126  0.00  0.00     0.033 A 
ATOM      4  C4  UNL d   1      -5.932  -2.150   1.140  0.00  0.00    -0.042 A 
ATOM      5  C5  UNL d   1      -5.472  -2.448  -0.137  0.00  0.00     0.033 A 
ATOM      6  C6  UNL d   1      -4.981  -3.725  -0.423  0.00  0.00    -0.057 A 
ENDROOT
BRANCH   1   7
ATOM      7  N   UNL d   1      -4.354  -5.955   0.224  0.00  0.00    -0.732 N 
ATOM      8  C   UNL d   1      -3.003  -5.999  -0.292  0.00  0.00     0.284 C 
ATOM      9  H3  UNL d   1      -4.565  -6.685   0.901  0.00  0.00     0.395 HD
ENDBRANCH   1   7
TORSDOF 1
ENDMDL
