MODEL 1
REMARK minimizedAffinity 11.1049585
REMARK minimizedRMSD -1
REMARK  1 active torsions:
REMARK  status: ('A' for Active; 'I' for Inactive)
REMARK    1  A    between atoms: N_2  and  C1_3 
ROOT
ATOM      1  C1  UNL d   1       3.663   4.737  -4.811  0.00  0.00     0.143 A 
ATOM      2  C2  UNL d   1       5.061   4.772  -4.800  0.00  0.00    -0.057 A 
ATOM      3  C3  UNL d   1       5.818   3.759  -5.401  0.00  0.00     0.033 A 
ATOM      4  C4  UNL d   1       5.187   2.673  -5.999  0.00  0.00    -0.042 A 
ATOM      5  C5  UNL d   1       3.798   2.605  -6.000  0.00  0.00     0.033 A 
ATOM      6  C6  UNL d   1       3.048   3.623  -5.405  0.00  0.00    -0.057 A 
ENDROOT
BRANCH   1   7
ATOM      7  N   UNL d   1       2.856   5.664  -4.146  0.00  0.00    -0.732 N 
ATOM      8  C   UNL d   1       1.526   5.301  -3.706  0.00  0.00     0.284 C 
ATOM      9  H3  UNL d   1       3.379   6.222  -3.475  0.00  0.00     0.395 HD
ENDBRANCH   1   7
TORSDOF 1
ENDMDL
