MODEL 1
REMARK minimizedAffinity 1.56044078
REMARK minimizedRMSD -1
REMARK  1 active torsions:
REMARK  status: ('A' for Active; 'I' for Inactive)
REMARK    1  A    between atoms: N_2  and  C1_3 
ROOT
ATOM      1  C1  UNL d   1      -5.337  -3.584  -4.871  0.00  0.00     0.143 A 
ATOM      2  C2  UNL d   1      -5.999  -4.816  -4.923  0.00  0.00    -0.057 A 
ATOM      3  C3  UNL d   1      -5.381  -5.949  -5.464  0.00  0.00     0.033 A 
ATOM      4  C4  UNL d   1      -4.096  -5.864  -5.990  0.00  0.00    -0.042 A 
ATOM      5  C5  UNL d   1      -3.429  -4.645  -5.971  0.00  0.00     0.033 A 
ATOM      6  C6  UNL d   1      -4.049  -3.518  -5.424  0.00  0.00    -0.057 A 
ENDROOT
BRANCH   1   7
ATOM      7  N   UNL d   1      -5.934  -2.398  -4.435  0.00  0.00    -0.732 N 
ATOM      8  C   UNL d   1      -5.163  -1.404  -3.721  0.00  0.00     0.284 C 
ATOM      9  H3  UNL d   1      -6.577  -2.012  -5.123  0.00  0.00     0.395 HD
ENDBRANCH   1   7
TORSDOF 1
ENDMDL
