MODEL 1
REMARK minimizedAffinity 4.55535507
REMARK minimizedRMSD -1
REMARK  1 active torsions:
REMARK  status: ('A' for Active; 'I' for Inactive)
REMARK    1  A    between atoms: N_2  and  C1_3 
ROOT
ATOM      1  C1  UNL d   1      -3.569  -1.178   0.660  0.00  0.00     0.143 A 
ATOM      2  C2  UNL d   1      -2.284  -0.838   1.098  0.00  0.00    -0.057 A 
ATOM      3  C3  UNL d   1      -1.956   0.481   1.433  0.00  0.00     0.033 A 
ATOM      4  C4  UNL d   1      -2.903   1.493   1.309  0.00  0.00    -0.042 A 
ATOM      5  C5  UNL d   1      -4.179   1.182   0.852  0.00  0.00     0.033 A 
ATOM      6  C6  UNL d   1      -4.502  -0.138   0.525  0.00  0.00    -0.057 A 
ENDROOT
BRANCH   1   7
ATOM      7  N   UNL d   1      -3.928  -2.453   0.218  0.00  0.00    -0.732 N 
ATOM      8  C   UNL d   1      -2.943  -3.511   0.141  0.00  0.00     0.284 C 
ATOM      9  H3  UNL d   1      -4.830  -2.751   0.582  0.00  0.00     0.395 HD
ENDBRANCH   1   7
TORSDOF 1
ENDMDL
