MODEL 1
REMARK minimizedAffinity 8.71981525
REMARK minimizedRMSD -1
REMARK  1 active torsions:
REMARK  status: ('A' for Active; 'I' for Inactive)
REMARK    1  A    between atoms: N_2  and  C1_3 
ROOT
ATOM      1  C1  UNL d   1      -3.862   4.499   4.055  0.00  0.00     0.143 A 
ATOM      2  C2  UNL d   1      -3.710   5.601   4.903  0.00  0.00    -0.057 A 
ATOM      3  C3  UNL d   1      -4.668   5.906   5.877  0.00  0.00     0.033 A 
ATOM      4  C4  UNL d   1      -5.815   5.128   6.000  0.00  0.00    -0.042 A 
ATOM      5  C5  UNL d   1      -6.000   4.043   5.151  0.00  0.00     0.033 A 
ATOM      6  C6  UNL d   1      -5.036   3.740   4.185  0.00  0.00    -0.057 A 
ENDROOT
BRANCH   1   7
ATOM      7  N   UNL d   1      -2.993   4.201   3.002  0.00  0.00    -0.732 N 
ATOM      8  C   UNL d   1      -3.393   3.291   1.951  0.00  0.00     0.284 C 
ATOM      9  H3  UNL d   1      -2.488   5.021   2.673  0.00  0.00     0.395 HD
ENDBRANCH   1   7
TORSDOF 1
ENDMDL
