MODEL 1
REMARK minimizedAffinity 12.2425137
REMARK minimizedRMSD -1
REMARK  1 active torsions:
REMARK  status: ('A' for Active; 'I' for Inactive)
REMARK    1  A    between atoms: N_2  and  C1_3 
ROOT
ATOM      1  C1  UNL d   1      -2.074   0.706   1.813  0.00  0.00     0.143 A 
ATOM      2  C2  UNL d   1      -0.771   1.076   2.164  0.00  0.00    -0.057 A 
ATOM      3  C3  UNL d   1      -0.478   2.371   2.609  0.00  0.00     0.033 A 
ATOM      4  C4  UNL d   1      -1.482   3.331   2.681  0.00  0.00    -0.042 A 
ATOM      5  C5  UNL d   1      -2.780   2.993   2.313  0.00  0.00     0.033 A 
ATOM      6  C6  UNL d   1      -3.067   1.696   1.877  0.00  0.00    -0.057 A 
ENDROOT
BRANCH   1   7
ATOM      7  N   UNL d   1      -2.410  -0.537   1.271  0.00  0.00    -0.732 N 
ATOM      8  C   UNL d   1      -3.700  -0.744   0.648  0.00  0.00     0.284 C 
ATOM      9  H3  UNL d   1      -1.634  -0.966   0.772  0.00  0.00     0.395 HD
ENDBRANCH   1   7
TORSDOF 1
ENDMDL
