MODEL 1
REMARK minimizedAffinity 11.6767998
REMARK minimizedRMSD -1
REMARK  1 active torsions:
REMARK  status: ('A' for Active; 'I' for Inactive)
REMARK    1  A    between atoms: N_2  and  C1_3 
ROOT
ATOM      1  C1  UNL d   1       2.374   3.902  -2.348  0.00  0.00     0.143 A 
ATOM      2  C2  UNL d   1       2.258   5.231  -2.770  0.00  0.00    -0.057 A 
ATOM      3  C3  UNL d   1       3.008   5.719  -3.846  0.00  0.00     0.033 A 
ATOM      4  C4  UNL d   1       3.912   4.892  -4.504  0.00  0.00    -0.042 A 
ATOM      5  C5  UNL d   1       4.062   3.574  -4.086  0.00  0.00     0.033 A 
ATOM      6  C6  UNL d   1       3.305   3.091  -3.014  0.00  0.00    -0.057 A 
ENDROOT
BRANCH   1   7
ATOM      7  N   UNL d   1       1.728   3.384  -1.222  0.00  0.00    -0.732 N 
ATOM      8  C   UNL d   1       1.498   1.962  -1.094  0.00  0.00     0.284 C 
ATOM      9  H3  UNL d   1       2.027   3.836  -0.361  0.00  0.00     0.395 HD
ENDBRANCH   1   7
TORSDOF 1
ENDMDL
