MODEL 1
REMARK minimizedAffinity 9.87628746
REMARK minimizedRMSD -1
REMARK  1 active torsions:
REMARK  status: ('A' for Active; 'I' for Inactive)
REMARK    1  A    between atoms: N_2  and  C1_3 
ROOT
ATOM      1  C1  UNL d   1       3.311  -0.528   2.672  0.00  0.00     0.143 A 
ATOM      2  C2  UNL d   1       3.669   0.346   1.640  0.00  0.00    -0.057 A 
ATOM      3  C3  UNL d   1       4.993   0.443   1.197  0.00  0.00     0.033 A 
ATOM      4  C4  UNL d   1       5.992  -0.314   1.800  0.00  0.00    -0.042 A 
ATOM      5  C5  UNL d   1       5.663  -1.171   2.845  0.00  0.00     0.033 A 
ATOM      6  C6  UNL d   1       4.338  -1.268   3.278  0.00  0.00    -0.057 A 
ENDROOT
BRANCH   1   7
ATOM      7  N   UNL d   1       2.029  -0.597   3.223  0.00  0.00    -0.732 N 
ATOM      8  C   UNL d   1       0.939   0.165   2.652  0.00  0.00     0.284 C 
ATOM      9  H3  UNL d   1       1.776  -1.543   3.499  0.00  0.00     0.395 HD
ENDBRANCH   1   7
TORSDOF 1
ENDMDL
