MODEL 1
REMARK minimizedAffinity 2.52519417
REMARK minimizedRMSD -1
REMARK  1 active torsions:
REMARK  status: ('A' for Active; 'I' for Inactive)
REMARK    1  A    between atoms: N_2  and  C1_3 
ROOT
ATOM      1  C1  UNL d   1      -1.413   0.690   2.233  0.00  0.00     0.143 A 
ATOM      2  C2  UNL d   1      -2.130   0.467   3.414  0.00  0.00    -0.057 A 
ATOM      3  C3  UNL d   1      -3.530   0.438   3.418  0.00  0.00     0.033 A 
ATOM      4  C4  UNL d   1      -4.240   0.661   2.244  0.00  0.00    -0.042 A 
ATOM      5  C5  UNL d   1      -3.549   0.910   1.063  0.00  0.00     0.033 A 
ATOM      6  C6  UNL d   1      -2.151   0.931   1.064  0.00  0.00    -0.057 A 
ENDROOT
BRANCH   1   7
ATOM      7  N   UNL d   1      -0.024   0.828   2.181  0.00  0.00    -0.732 N 
ATOM      8  C   UNL d   1       0.816   0.211   3.185  0.00  0.00     0.284 C 
ATOM      9  H3  UNL d   1       0.339   0.755   1.233  0.00  0.00     0.395 HD
ENDBRANCH   1   7
TORSDOF 1
ENDMDL
