MODEL 1
REMARK minimizedAffinity 8.40015793
REMARK minimizedRMSD -1
REMARK  0 active torsions:
REMARK  status: ('A' for Active; 'I' for Inactive)
ROOT
ATOM      1  C   UNL d   1      -1.542   1.916   3.178  0.00  0.00     0.023 A 
ATOM      2  C1  UNL d   1      -0.367   1.293   3.599  0.00  0.00     0.003 A 
ATOM      3  C2  UNL d   1       0.789   1.383   2.821  0.00  0.00     0.048 A 
ATOM      4  C3  UNL d   1       0.764   2.099   1.625  0.00  0.00     0.023 A 
ATOM      5  C4  UNL d   1      -0.409   2.726   1.201  0.00  0.00     0.048 A 
ATOM      6  C5  UNL d   1      -1.563   2.632   1.981  0.00  0.00     0.003 A 
ATOM      7  I   UNL d   1       2.484   2.236   0.466  0.00  0.00    -0.146 I 
ENDROOT
TORSDOF 0
ENDMDL
