MODEL 1
REMARK minimizedAffinity 4.68009329
REMARK minimizedRMSD -1
REMARK  0 active torsions:
REMARK  status: ('A' for Active; 'I' for Inactive)
ROOT
ATOM      1  C   UNL d   1       2.015  -1.661  -0.016  0.00  0.00     0.023 A 
ATOM      2  C1  UNL d   1       2.615  -2.660   0.751  0.00  0.00     0.003 A 
ATOM      3  C2  UNL d   1       3.758  -2.375   1.500  0.00  0.00     0.048 A 
ATOM      4  C3  UNL d   1       4.296  -1.089   1.479  0.00  0.00     0.023 A 
ATOM      5  C4  UNL d   1       3.699  -0.086   0.713  0.00  0.00     0.048 A 
ATOM      6  C5  UNL d   1       2.556  -0.376  -0.035  0.00  0.00     0.003 A 
ATOM      7  I   UNL d   1       5.997  -0.662   2.593  0.00  0.00    -0.146 I 
ENDROOT
TORSDOF 0
ENDMDL
