MODEL 1
REMARK minimizedAffinity 7.56075287
REMARK minimizedRMSD -1
REMARK  0 active torsions:
REMARK  status: ('A' for Active; 'I' for Inactive)
ROOT
ATOM      1  C   UNL d   1      -1.020  -1.219  -2.671  0.00  0.00     0.023 A 
ATOM      2  C1  UNL d   1      -0.904  -0.013  -1.980  0.00  0.00     0.003 A 
ATOM      3  C2  UNL d   1      -0.189   0.040  -0.781  0.00  0.00     0.048 A 
ATOM      4  C3  UNL d   1       0.407  -1.117  -0.280  0.00  0.00     0.023 A 
ATOM      5  C4  UNL d   1       0.294  -2.325  -0.969  0.00  0.00     0.048 A 
ATOM      6  C5  UNL d   1      -0.422  -2.373  -2.167  0.00  0.00     0.003 A 
ATOM      7  I   UNL d   1       1.471  -1.041   1.504  0.00  0.00    -0.146 I 
ENDROOT
TORSDOF 0
ENDMDL
