MODEL 1
REMARK minimizedAffinity -1.37630785
REMARK minimizedRMSD -1
REMARK  0 active torsions:
REMARK  status: ('A' for Active; 'I' for Inactive)
ROOT
ATOM      1  C   UNL d   1       1.288  -2.376  -1.226  0.00  0.00     0.023 A 
ATOM      2  C1  UNL d   1       2.279  -1.485  -0.816  0.00  0.00     0.003 A 
ATOM      3  C2  UNL d   1       1.959  -0.150  -0.564  0.00  0.00     0.048 A 
ATOM      4  C3  UNL d   1       0.645   0.288  -0.723  0.00  0.00     0.023 A 
ATOM      5  C4  UNL d   1      -0.351  -0.600  -1.133  0.00  0.00     0.048 A 
ATOM      6  C5  UNL d   1      -0.026  -1.934  -1.385  0.00  0.00     0.003 A 
ATOM      7  I   UNL d   1       0.165   2.275  -0.348  0.00  0.00    -0.146 I 
ENDROOT
TORSDOF 0
ENDMDL
