MODEL 1
REMARK minimizedAffinity 3.19954252
REMARK minimizedRMSD -1
REMARK  0 active torsions:
REMARK  status: ('A' for Active; 'I' for Inactive)
ROOT
ATOM      1  C   UNL d   1      -0.188   3.299   3.394  0.00  0.00     0.023 A 
ATOM      2  C1  UNL d   1      -1.368   3.260   4.138  0.00  0.00     0.003 A 
ATOM      3  C2  UNL d   1      -2.513   2.667   3.603  0.00  0.00     0.048 A 
ATOM      4  C3  UNL d   1      -2.471   2.113   2.324  0.00  0.00     0.023 A 
ATOM      5  C4  UNL d   1      -1.293   2.149   1.576  0.00  0.00     0.048 A 
ATOM      6  C5  UNL d   1      -0.151   2.744   2.115  0.00  0.00     0.003 A 
ATOM      7  I   UNL d   1      -4.174   1.229   1.525  0.00  0.00    -0.146 I 
ENDROOT
TORSDOF 0
ENDMDL
