MODEL 1
REMARK minimizedAffinity 2.99364686
REMARK minimizedRMSD -1
REMARK  0 active torsions:
REMARK  status: ('A' for Active; 'I' for Inactive)
ROOT
ATOM      1  C   UNL d   1      -1.024  -5.995   5.999  0.00  0.00     0.023 A 
ATOM      2  C1  UNL d   1      -1.829  -4.855   5.992  0.00  0.00     0.003 A 
ATOM      3  C2  UNL d   1      -1.296  -3.626   5.600  0.00  0.00     0.048 A 
ATOM      4  C3  UNL d   1       0.041  -3.543   5.215  0.00  0.00     0.023 A 
ATOM      5  C4  UNL d   1       0.850  -4.681   5.219  0.00  0.00     0.048 A 
ATOM      6  C5  UNL d   1       0.313  -5.908   5.612  0.00  0.00     0.003 A 
ATOM      7  I   UNL d   1       0.836  -1.713   4.631  0.00  0.00    -0.146 I 
ENDROOT
TORSDOF 0
ENDMDL
