MODEL 1
REMARK minimizedAffinity 5.32154417
REMARK minimizedRMSD -1
REMARK  0 active torsions:
REMARK  status: ('A' for Active; 'I' for Inactive)
ROOT
ATOM      1  C   UNL d   1       1.085  -0.163   0.812  0.00  0.00     0.172 C 
ATOM      2  N   UNL d   1      -0.283  -0.128   0.353  0.00  0.00    -0.070 N 
ATOM      3  C1  UNL d   1      -1.299   0.589   0.925  0.00  0.00    -0.004 A 
ATOM      4  C2  UNL d   1      -2.444   0.357   0.195  0.00  0.00    -0.047 A 
ATOM      5  C3  UNL d   1      -2.105  -0.533  -0.853  0.00  0.00    -0.047 A 
ATOM      6  C4  UNL d   1      -0.761  -0.816  -0.731  0.00  0.00    -0.004 A 
ENDROOT
TORSDOF 0
ENDMDL
