MODEL 1
REMARK minimizedAffinity 4.32658863
REMARK minimizedRMSD -1
REMARK  0 active torsions:
REMARK  status: ('A' for Active; 'I' for Inactive)
ROOT
ATOM      1  C   UNL d   1       0.845  -0.201   1.143  0.00  0.00     0.172 C 
ATOM      2  N   UNL d   1      -0.580  -0.036   0.977  0.00  0.00    -0.070 N 
ATOM      3  C1  UNL d   1      -1.277  -0.238  -0.185  0.00  0.00    -0.004 A 
ATOM      4  C2  UNL d   1      -2.606   0.022   0.070  0.00  0.00    -0.047 A 
ATOM      5  C3  UNL d   1      -2.711   0.393   1.432  0.00  0.00    -0.047 A 
ATOM      6  C4  UNL d   1      -1.442   0.349   1.969  0.00  0.00    -0.004 A 
ENDROOT
TORSDOF 0
ENDMDL
