MODEL 1
REMARK minimizedAffinity -0.839260399
REMARK minimizedRMSD -1
REMARK  0 active torsions:
REMARK  status: ('A' for Active; 'I' for Inactive)
ROOT
ATOM      1  C   UNL d   1       0.421   0.005  -4.046  0.00  0.00     0.172 C 
ATOM      2  N   UNL d   1       0.921  -0.260  -2.717  0.00  0.00    -0.070 N 
ATOM      3  C1  UNL d   1       0.333  -1.078  -1.791  0.00  0.00    -0.004 A 
ATOM      4  C2  UNL d   1       1.115  -1.064  -0.657  0.00  0.00    -0.047 A 
ATOM      5  C3  UNL d   1       2.212  -0.207  -0.910  0.00  0.00    -0.047 A 
ATOM      6  C4  UNL d   1       2.067   0.278  -2.193  0.00  0.00    -0.004 A 
ENDROOT
TORSDOF 0
ENDMDL
