MODEL 1
REMARK minimizedAffinity 9.3025465
REMARK minimizedRMSD -1
REMARK  0 active torsions:
REMARK  status: ('A' for Active; 'I' for Inactive)
ROOT
ATOM      1  C   UNL d   1      -1.778  -0.115   2.827  0.00  0.00     0.172 C 
ATOM      2  N   UNL d   1      -2.148   0.143   1.455  0.00  0.00    -0.070 N 
ATOM      3  C1  UNL d   1      -1.419  -0.212   0.351  0.00  0.00    -0.004 A 
ATOM      4  C2  UNL d   1      -2.109   0.211  -0.764  0.00  0.00    -0.047 A 
ATOM      5  C3  UNL d   1      -3.293   0.843  -0.315  0.00  0.00    -0.047 A 
ATOM      6  C4  UNL d   1      -3.292   0.787   1.063  0.00  0.00    -0.004 A 
ENDROOT
TORSDOF 0
ENDMDL
