MODEL 1
REMARK minimizedAffinity 0.180696115
REMARK minimizedRMSD -1
REMARK  0 active torsions:
REMARK  status: ('A' for Active; 'I' for Inactive)
ROOT
ATOM      1  C   UNL d   1      -1.956  -0.120   2.959  0.00  0.00     0.172 C 
ATOM      2  N   UNL d   1      -1.103  -0.216   1.797  0.00  0.00    -0.070 N 
ATOM      3  C1  UNL d   1       0.162  -0.738   1.777  0.00  0.00    -0.004 A 
ATOM      4  C2  UNL d   1       0.635  -0.648   0.486  0.00  0.00    -0.047 A 
ATOM      5  C3  UNL d   1      -0.381  -0.049  -0.297  0.00  0.00    -0.047 A 
ATOM      6  C4  UNL d   1      -1.446   0.208   0.541  0.00  0.00    -0.004 A 
ENDROOT
TORSDOF 0
ENDMDL
