MODEL 1
REMARK minimizedAffinity -0.146830395
REMARK minimizedRMSD -1
REMARK  0 active torsions:
REMARK  status: ('A' for Active; 'I' for Inactive)
ROOT
ATOM      1  C   UNL d   1       0.043   0.059   1.091  0.00  0.00     0.172 C 
ATOM      2  N   UNL d   1      -0.283  -0.393   2.424  0.00  0.00    -0.070 N 
ATOM      3  C1  UNL d   1      -1.490  -0.230   3.049  0.00  0.00    -0.004 A 
ATOM      4  C2  UNL d   1      -1.396  -0.797   4.302  0.00  0.00    -0.047 A 
ATOM      5  C3  UNL d   1      -0.087  -1.318   4.434  0.00  0.00    -0.047 A 
ATOM      6  C4  UNL d   1       0.581  -1.054   3.257  0.00  0.00    -0.004 A 
ENDROOT
TORSDOF 0
ENDMDL
