MODEL 1
REMARK minimizedAffinity -1.04498231
REMARK minimizedRMSD -1
REMARK  0 active torsions:
REMARK  status: ('A' for Active; 'I' for Inactive)
ROOT
ATOM      1  C   UNL d   1      -2.835  -0.229   2.599  0.00  0.00     0.172 C 
ATOM      2  N   UNL d   1      -2.014  -0.219   1.411  0.00  0.00    -0.070 N 
ATOM      3  C1  UNL d   1      -2.459  -0.412   0.131  0.00  0.00    -0.004 A 
ATOM      4  C2  UNL d   1      -1.372  -0.326  -0.712  0.00  0.00    -0.047 A 
ATOM      5  C3  UNL d   1      -0.234  -0.074   0.090  0.00  0.00    -0.047 A 
ATOM      6  C4  UNL d   1      -0.660  -0.012   1.400  0.00  0.00    -0.004 A 
ENDROOT
TORSDOF 0
ENDMDL
