MODEL 1
REMARK minimizedAffinity -0.967311144
REMARK minimizedRMSD -1
REMARK  0 active torsions:
REMARK  status: ('A' for Active; 'I' for Inactive)
ROOT
ATOM      1  C   UNL d   1      -0.734   1.121  -1.135  0.00  0.00     0.172 C 
ATOM      2  N   UNL d   1      -0.988   0.400   0.090  0.00  0.00    -0.070 N 
ATOM      3  C1  UNL d   1      -2.085   0.554   0.894  0.00  0.00    -0.004 A 
ATOM      4  C2  UNL d   1      -1.953  -0.311   1.959  0.00  0.00    -0.047 A 
ATOM      5  C3  UNL d   1      -0.734  -1.008   1.789  0.00  0.00    -0.047 A 
ATOM      6  C4  UNL d   1      -0.157  -0.549   0.624  0.00  0.00    -0.004 A 
ENDROOT
TORSDOF 0
ENDMDL
