MODEL 1
REMARK minimizedAffinity -1.4485271
REMARK minimizedRMSD -1
REMARK  0 active torsions:
REMARK  status: ('A' for Active; 'I' for Inactive)
ROOT
ATOM      1  C   UNL d   1       3.167   5.993   2.260  0.00  0.00     0.172 C 
ATOM      2  N   UNL d   1       4.123   5.514   3.231  0.00  0.00    -0.070 N 
ATOM      3  C1  UNL d   1       5.392   5.998   3.408  0.00  0.00    -0.004 A 
ATOM      4  C2  UNL d   1       5.980   5.280   4.426  0.00  0.00    -0.047 A 
ATOM      5  C3  UNL d   1       5.032   4.329   4.876  0.00  0.00    -0.047 A 
ATOM      6  C4  UNL d   1       3.892   4.496   4.118  0.00  0.00    -0.004 A 
ENDROOT
TORSDOF 0
ENDMDL
