MODEL 1
REMARK minimizedAffinity 14.8752117
REMARK minimizedRMSD -1
REMARK  0 active torsions:
REMARK  status: ('A' for Active; 'I' for Inactive)
ROOT
ATOM      1  O1  BZF d   1      -3.256  -2.692  -3.259  0.00  0.00    -0.204 OA
ATOM      2  C2  BZF d   1      -2.035  -2.946  -2.664  0.00  0.00     0.174 A 
ATOM      3  C3  BZF d   1      -2.075  -4.097  -1.963  0.00  0.00    -0.012 A 
ATOM      4  C3A BZF d   1      -3.376  -4.641  -2.206  0.00  0.00    -0.107 A 
ATOM      5  C4  BZF d   1      -4.009  -5.780  -1.797  0.00  0.00     0.055 A 
ATOM      6  C5  BZF d   1      -5.305  -5.979  -2.152  0.00  0.00    -0.016 A 
ATOM      7  C6  BZF d   1      -6.000  -5.059  -2.910  0.00  0.00     0.022 A 
ATOM      8  C7  BZF d   1      -5.413  -3.917  -3.343  0.00  0.00     0.029 A 
ATOM      9  C7A BZF d   1      -4.093  -3.728  -3.014  0.00  0.00     0.058 A 
ENDROOT
TORSDOF 0
ENDMDL
