MODEL 1
REMARK minimizedAffinity 10.5761204
REMARK minimizedRMSD -1
REMARK  0 active torsions:
REMARK  status: ('A' for Active; 'I' for Inactive)
ROOT
ATOM      1  O1  BZF d   1      -2.627  -1.306  -2.382  0.00  0.00    -0.204 OA
ATOM      2  C2  BZF d   1      -2.866  -2.112  -1.285  0.00  0.00     0.174 A 
ATOM      3  C3  BZF d   1      -2.360  -3.347  -1.479  0.00  0.00    -0.012 A 
ATOM      4  C3A BZF d   1      -1.687  -3.284  -2.740  0.00  0.00    -0.107 A 
ATOM      5  C4  BZF d   1      -0.974  -4.192  -3.470  0.00  0.00     0.055 A 
ATOM      6  C5  BZF d   1      -0.509  -3.835  -4.696  0.00  0.00    -0.016 A 
ATOM      7  C6  BZF d   1      -0.743  -2.582  -5.225  0.00  0.00     0.022 A 
ATOM      8  C7  BZF d   1      -1.441  -1.646  -4.536  0.00  0.00     0.029 A 
ATOM      9  C7A BZF d   1      -1.883  -1.993  -3.283  0.00  0.00     0.058 A 
ENDROOT
TORSDOF 0
ENDMDL
