MODEL 1
REMARK minimizedAffinity 16.5451889
REMARK minimizedRMSD -1
REMARK  0 active torsions:
REMARK  status: ('A' for Active; 'I' for Inactive)
ROOT
ATOM      1  O1  BZF d   1      -2.080  -4.776  -2.633  0.00  0.00    -0.204 OA
ATOM      2  C2  BZF d   1      -1.564  -3.526  -2.917  0.00  0.00     0.174 A 
ATOM      3  C3  BZF d   1      -2.550  -2.612  -3.014  0.00  0.00    -0.012 A 
ATOM      4  C3A BZF d   1      -3.751  -3.317  -2.684  0.00  0.00    -0.107 A 
ATOM      5  C4  BZF d   1      -5.062  -2.946  -2.590  0.00  0.00     0.055 A 
ATOM      6  C5  BZF d   1      -5.998  -3.892  -2.318  0.00  0.00    -0.016 A 
ATOM      7  C6  BZF d   1      -5.660  -5.218  -2.140  0.00  0.00     0.022 A 
ATOM      8  C7  BZF d   1      -4.372  -5.633  -2.219  0.00  0.00     0.029 A 
ATOM      9  C7A BZF d   1      -3.420  -4.673  -2.461  0.00  0.00     0.058 A 
ENDROOT
TORSDOF 0
ENDMDL
