MODEL 1
REMARK minimizedAffinity 4.99921751
REMARK minimizedRMSD -1
REMARK  0 active torsions:
REMARK  status: ('A' for Active; 'I' for Inactive)
ROOT
ATOM      1  O1  BZF d   1       2.751   5.985  -4.134  0.00  0.00    -0.204 OA
ATOM      2  C2  BZF d   1       2.262   5.999  -5.426  0.00  0.00     0.174 A 
ATOM      3  C3  BZF d   1       2.393   4.785  -6.000  0.00  0.00    -0.012 A 
ATOM      4  C3A BZF d   1       2.917   3.938  -4.973  0.00  0.00    -0.107 A 
ATOM      5  C4  BZF d   1       3.248   2.614  -4.926  0.00  0.00     0.055 A 
ATOM      6  C5  BZF d   1       3.803   2.111  -3.792  0.00  0.00    -0.016 A 
ATOM      7  C6  BZF d   1       4.046   2.904  -2.689  0.00  0.00     0.022 A 
ATOM      8  C7  BZF d   1       3.730   4.222  -2.687  0.00  0.00     0.029 A 
ATOM      9  C7A BZF d   1       3.138   4.726  -3.820  0.00  0.00     0.058 A 
ENDROOT
TORSDOF 0
ENDMDL
