MODEL 1
REMARK minimizedAffinity 8.26111317
REMARK minimizedRMSD -1
REMARK  0 active torsions:
REMARK  status: ('A' for Active; 'I' for Inactive)
ROOT
ATOM      1  O1  BZF d   1       2.982   5.088  -3.976  0.00  0.00    -0.204 OA
ATOM      2  C2  BZF d   1       2.608   5.244  -5.297  0.00  0.00     0.174 A 
ATOM      3  C3  BZF d   1       2.851   4.119  -6.000  0.00  0.00    -0.012 A 
ATOM      4  C3A BZF d   1       3.327   3.171  -5.040  0.00  0.00    -0.107 A 
ATOM      5  C4  BZF d   1       3.721   1.867  -5.124  0.00  0.00     0.055 A 
ATOM      6  C5  BZF d   1       4.201   1.248  -4.013  0.00  0.00    -0.016 A 
ATOM      7  C6  BZF d   1       4.305   1.905  -2.804  0.00  0.00     0.022 A 
ATOM      8  C7  BZF d   1       3.922   3.198  -2.670  0.00  0.00     0.029 A 
ATOM      9  C7A BZF d   1       3.406   3.816  -3.783  0.00  0.00     0.058 A 
ENDROOT
TORSDOF 0
ENDMDL
