MODEL 1
REMARK minimizedAffinity 12.1321154
REMARK minimizedRMSD -1
REMARK  0 active torsions:
REMARK  status: ('A' for Active; 'I' for Inactive)
ROOT
ATOM      1  O1  BZF d   1      -4.962  -2.983  -3.268  0.00  0.00    -0.204 OA
ATOM      2  C2  BZF d   1      -5.990  -3.871  -3.019  0.00  0.00     0.174 A 
ATOM      3  C3  BZF d   1      -5.505  -5.074  -2.650  0.00  0.00    -0.012 A 
ATOM      4  C3A BZF d   1      -4.086  -4.903  -2.580  0.00  0.00    -0.107 A 
ATOM      5  C4  BZF d   1      -3.055  -5.735  -2.252  0.00  0.00     0.055 A 
ATOM      6  C5  BZF d   1      -1.779  -5.278  -2.354  0.00  0.00    -0.016 A 
ATOM      7  C6  BZF d   1      -1.499  -3.998  -2.786  0.00  0.00     0.022 A 
ATOM      8  C7  BZF d   1      -2.489  -3.134  -3.118  0.00  0.00     0.029 A 
ATOM      9  C7A BZF d   1      -3.780  -3.582  -2.984  0.00  0.00     0.058 A 
ENDROOT
TORSDOF 0
ENDMDL
