MODEL 1
REMARK minimizedAffinity 11.0488272
REMARK minimizedRMSD -1
REMARK  0 active torsions:
REMARK  status: ('A' for Active; 'I' for Inactive)
ROOT
ATOM      1  O1  BZF d   1      -3.609  -3.733  -1.537  0.00  0.00    -0.204 OA
ATOM      2  C2  BZF d   1      -4.131  -4.902  -2.056  0.00  0.00     0.174 A 
ATOM      3  C3  BZF d   1      -3.669  -5.973  -1.380  0.00  0.00    -0.012 A 
ATOM      4  C3A BZF d   1      -2.877  -5.435  -0.317  0.00  0.00    -0.107 A 
ATOM      5  C4  BZF d   1      -2.167  -5.999   0.704  0.00  0.00     0.055 A 
ATOM      6  C5  BZF d   1      -1.444  -5.197   1.528  0.00  0.00    -0.016 A 
ATOM      7  C6  BZF d   1      -1.403  -3.828   1.357  0.00  0.00     0.022 A 
ATOM      8  C7  BZF d   1      -2.095  -3.222   0.362  0.00  0.00     0.029 A 
ATOM      9  C7A BZF d   1      -2.853  -4.027  -0.452  0.00  0.00     0.058 A 
ENDROOT
TORSDOF 0
ENDMDL
