MODEL 1
REMARK minimizedAffinity 13.8714485
REMARK minimizedRMSD -1
REMARK  0 active torsions:
REMARK  status: ('A' for Active; 'I' for Inactive)
ROOT
ATOM      1  O1  BZF d   1      -3.446  -4.380  -4.435  0.00  0.00    -0.204 OA
ATOM      2  C2  BZF d   1      -4.497  -4.829  -3.659  0.00  0.00     0.174 A 
ATOM      3  C3  BZF d   1      -4.339  -4.450  -2.374  0.00  0.00    -0.012 A 
ATOM      4  C3A BZF d   1      -3.160  -3.640  -2.363  0.00  0.00    -0.107 A 
ATOM      5  C4  BZF d   1      -2.497  -2.960  -1.382  0.00  0.00     0.055 A 
ATOM      6  C5  BZF d   1      -1.334  -2.326  -1.687  0.00  0.00    -0.016 A 
ATOM      7  C6  BZF d   1      -0.804  -2.355  -2.961  0.00  0.00     0.022 A 
ATOM      8  C7  BZF d   1      -1.429  -3.011  -3.968  0.00  0.00     0.029 A 
ATOM      9  C7A BZF d   1      -2.620  -3.626  -3.671  0.00  0.00     0.058 A 
ENDROOT
TORSDOF 0
ENDMDL
