MODEL 1
REMARK minimizedAffinity 10.4009409
REMARK minimizedRMSD -1
REMARK  0 active torsions:
REMARK  status: ('A' for Active; 'I' for Inactive)
ROOT
ATOM      1  O1  BZF d   1      -3.004  -2.759  -2.999  0.00  0.00    -0.204 OA
ATOM      2  C2  BZF d   1      -1.728  -3.244  -2.788  0.00  0.00     0.174 A 
ATOM      3  C3  BZF d   1      -1.768  -4.507  -2.316  0.00  0.00    -0.012 A 
ATOM      4  C3A BZF d   1      -3.154  -4.863  -2.313  0.00  0.00    -0.107 A 
ATOM      5  C4  BZF d   1      -3.831  -5.997  -1.965  0.00  0.00     0.055 A 
ATOM      6  C5  BZF d   1      -5.190  -5.995  -2.010  0.00  0.00    -0.016 A 
ATOM      7  C6  BZF d   1      -5.902  -4.877  -2.392  0.00  0.00     0.022 A 
ATOM      8  C7  BZF d   1      -5.274  -3.730  -2.751  0.00  0.00     0.029 A 
ATOM      9  C7A BZF d   1      -3.901  -3.740  -2.738  0.00  0.00     0.058 A 
ENDROOT
TORSDOF 0
ENDMDL
