MODEL 1
REMARK minimizedAffinity 5.98802042
REMARK minimizedRMSD -1
REMARK  0 active torsions:
REMARK  status: ('A' for Active; 'I' for Inactive)
ROOT
ATOM      1  O1  BZF d   1       0.502  -4.529  -3.132  0.00  0.00    -0.204 OA
ATOM      2  C2  BZF d   1       0.384  -5.625  -3.966  0.00  0.00     0.174 A 
ATOM      3  C3  BZF d   1      -0.906  -6.000  -4.083  0.00  0.00    -0.012 A 
ATOM      4  C3A BZF d   1      -1.650  -5.025  -3.345  0.00  0.00    -0.107 A 
ATOM      5  C4  BZF d   1      -2.982  -4.848  -3.102  0.00  0.00     0.055 A 
ATOM      6  C5  BZF d   1      -3.374  -3.838  -2.281  0.00  0.00    -0.016 A 
ATOM      7  C6  BZF d   1      -2.463  -2.992  -1.684  0.00  0.00     0.022 A 
ATOM      8  C7  BZF d   1      -1.132  -3.126  -1.899  0.00  0.00     0.029 A 
ATOM      9  C7A BZF d   1      -0.734  -4.124  -2.754  0.00  0.00     0.058 A 
ENDROOT
TORSDOF 0
ENDMDL
