MODEL 1
REMARK minimizedAffinity 8.76402855
REMARK minimizedRMSD -1
REMARK  0 active torsions:
REMARK  status: ('A' for Active; 'I' for Inactive)
ROOT
ATOM      1  O1  BZF d   1      -0.952  -2.139  -2.360  0.00  0.00    -0.204 OA
ATOM      2  C2  BZF d   1      -2.071  -2.720  -2.924  0.00  0.00     0.174 A 
ATOM      3  C3  BZF d   1      -2.852  -3.275  -1.975  0.00  0.00    -0.012 A 
ATOM      4  C3A BZF d   1      -2.226  -2.944  -0.732  0.00  0.00    -0.107 A 
ATOM      5  C4  BZF d   1      -2.536  -3.199   0.573  0.00  0.00     0.055 A 
ATOM      6  C5  BZF d   1      -1.677  -2.799   1.547  0.00  0.00    -0.016 A 
ATOM      7  C6  BZF d   1      -0.498  -2.147   1.252  0.00  0.00     0.022 A 
ATOM      8  C7  BZF d   1      -0.149  -1.867  -0.027  0.00  0.00     0.029 A 
ATOM      9  C7A BZF d   1      -1.031  -2.241  -1.012  0.00  0.00     0.058 A 
ENDROOT
TORSDOF 0
ENDMDL
