MODEL 1
REMARK minimizedAffinity 23.0100422
REMARK minimizedRMSD -1
REMARK  0 active torsions:
REMARK  status: ('A' for Active; 'I' for Inactive)
ROOT
ATOM      1  O1  BZF d   1       0.677  -4.414  -3.386  0.00  0.00    -0.204 OA
ATOM      2  C2  BZF d   1       0.428  -5.690  -3.853  0.00  0.00     0.174 A 
ATOM      3  C3  BZF d   1      -0.881  -5.994  -3.741  0.00  0.00    -0.012 A 
ATOM      4  C3A BZF d   1      -1.503  -4.801  -3.253  0.00  0.00    -0.107 A 
ATOM      5  C4  BZF d   1      -2.794  -4.471  -2.954  0.00  0.00     0.055 A 
ATOM      6  C5  BZF d   1      -3.057  -3.246  -2.428  0.00  0.00    -0.016 A 
ATOM      7  C6  BZF d   1      -2.055  -2.329  -2.185  0.00  0.00     0.022 A 
ATOM      8  C7  BZF d   1      -0.760  -2.610  -2.470  0.00  0.00     0.029 A 
ATOM      9  C7A BZF d   1      -0.495  -3.835  -3.032  0.00  0.00     0.058 A 
ENDROOT
TORSDOF 0
ENDMDL
