MODEL 1
REMARK minimizedAffinity 12.1758881
REMARK minimizedRMSD -1
REMARK  0 active torsions:
REMARK  status: ('A' for Active; 'I' for Inactive)
ROOT
ATOM      1  O1  BZF d   1      -3.386  -5.030   0.295  0.00  0.00    -0.204 OA
ATOM      2  C2  BZF d   1      -4.248  -5.999   0.771  0.00  0.00     0.174 A 
ATOM      3  C3  BZF d   1      -5.400  -6.000   0.071  0.00  0.00    -0.012 A 
ATOM      4  C3A BZF d   1      -5.213  -5.029  -0.963  0.00  0.00    -0.107 A 
ATOM      5  C4  BZF d   1      -5.999  -4.587  -1.989  0.00  0.00     0.055 A 
ATOM      6  C5  BZF d   1      -5.548  -3.577  -2.778  0.00  0.00    -0.016 A 
ATOM      7  C6  BZF d   1      -4.321  -2.983  -2.566  0.00  0.00     0.022 A 
ATOM      8  C7  BZF d   1      -3.504  -3.391  -1.565  0.00  0.00     0.029 A 
ATOM      9  C7A BZF d   1      -3.943  -4.434  -0.786  0.00  0.00     0.058 A 
ENDROOT
TORSDOF 0
ENDMDL
