MODEL 1
REMARK minimizedAffinity 5.6732893
REMARK minimizedRMSD -1
REMARK  0 active torsions:
REMARK  status: ('A' for Active; 'I' for Inactive)
ROOT
ATOM      1  N1  IND d   1      -5.767   2.154   4.249  0.00  0.00    -0.196 N 
ATOM      2  C2  IND d   1      -5.551   2.608   5.520  0.00  0.00     0.054 A 
ATOM      3  C3  IND d   1      -4.315   2.257   5.942  0.00  0.00    -0.031 A 
ATOM      4  C4  IND d   1      -2.444   1.024   4.674  0.00  0.00     0.051 A 
ATOM      5  C5  IND d   1      -2.183   0.380   3.498  0.00  0.00    -0.031 A 
ATOM      6  C6  IND d   1      -3.122   0.294   2.490  0.00  0.00     0.015 A 
ATOM      7  C7  IND d   1      -4.358   0.862   2.617  0.00  0.00    -0.016 A 
ATOM      8  C8  IND d   1      -4.628   1.512   3.814  0.00  0.00    -0.047 A 
ATOM      9  C9  IND d   1      -3.695   1.565   4.856  0.00  0.00    -0.096 A 
ATOM     10  HN1 IND d   1      -6.492   2.253   3.797  0.00  0.00     0.298 HD
ENDROOT
TORSDOF 0
ENDMDL
