MODEL 1
REMARK minimizedAffinity 6.48680449
REMARK minimizedRMSD -1
REMARK  0 active torsions:
REMARK  status: ('A' for Active; 'I' for Inactive)
ROOT
ATOM      1  N1  IND d   1      -0.522  -1.849   2.894  0.00  0.00    -0.196 N 
ATOM      2  C2  IND d   1      -0.744  -1.943   1.549  0.00  0.00     0.054 A 
ATOM      3  C3  IND d   1      -1.616  -0.990   1.149  0.00  0.00    -0.031 A 
ATOM      4  C4  IND d   1      -2.722   0.891   2.514  0.00  0.00     0.051 A 
ATOM      5  C5  IND d   1      -2.854   1.362   3.791  0.00  0.00    -0.031 A 
ATOM      6  C6  IND d   1      -2.199   0.776   4.855  0.00  0.00     0.015 A 
ATOM      7  C7  IND d   1      -1.376  -0.300   4.679  0.00  0.00    -0.016 A 
ATOM      8  C8  IND d   1      -1.246  -0.785   3.385  0.00  0.00    -0.047 A 
ATOM      9  C9  IND d   1      -1.941  -0.221   2.308  0.00  0.00    -0.096 A 
ATOM     10  HN1 IND d   1      -0.015  -2.368   3.356  0.00  0.00     0.298 HD
ENDROOT
TORSDOF 0
ENDMDL
