MODEL 1
REMARK minimizedAffinity 8.98637295
REMARK minimizedRMSD -1
REMARK  0 active torsions:
REMARK  status: ('A' for Active; 'I' for Inactive)
ROOT
ATOM      1  N1  IND d   1       0.182  -3.628   1.607  0.00  0.00    -0.196 N 
ATOM      2  C2  IND d   1       1.327  -2.975   1.970  0.00  0.00     0.054 A 
ATOM      3  C3  IND d   1       1.059  -1.680   2.254  0.00  0.00    -0.031 A 
ATOM      4  C4  IND d   1      -1.199  -0.445   2.286  0.00  0.00     0.051 A 
ATOM      5  C5  IND d   1      -2.523  -0.613   1.992  0.00  0.00    -0.031 A 
ATOM      6  C6  IND d   1      -3.024  -1.820   1.548  0.00  0.00     0.015 A 
ATOM      7  C7  IND d   1      -2.217  -2.912   1.392  0.00  0.00    -0.016 A 
ATOM      8  C8  IND d   1      -0.871  -2.743   1.683  0.00  0.00    -0.047 A 
ATOM      9  C9  IND d   1      -0.350  -1.509   2.093  0.00  0.00    -0.096 A 
ATOM     10  HN1 IND d   1       0.129  -4.453   1.371  0.00  0.00     0.298 HD
ENDROOT
TORSDOF 0
ENDMDL
