MODEL 1
REMARK minimizedAffinity 13.3624315
REMARK minimizedRMSD -1
REMARK  0 active torsions:
REMARK  status: ('A' for Active; 'I' for Inactive)
ROOT
ATOM      1  N1  IND d   1      -1.904   0.863   4.011  0.00  0.00    -0.196 N 
ATOM      2  C2  IND d   1      -1.778   0.149   2.853  0.00  0.00     0.054 A 
ATOM      3  C3  IND d   1      -2.974   0.044   2.231  0.00  0.00    -0.031 A 
ATOM      4  C4  IND d   1      -5.250   1.054   2.885  0.00  0.00     0.051 A 
ATOM      5  C5  IND d   1      -5.872   1.755   3.881  0.00  0.00    -0.031 A 
ATOM      6  C6  IND d   1      -5.188   2.205   4.992  0.00  0.00     0.015 A 
ATOM      7  C7  IND d   1      -3.849   1.980   5.144  0.00  0.00    -0.016 A 
ATOM      8  C8  IND d   1      -3.216   1.263   4.138  0.00  0.00    -0.047 A 
ATOM      9  C9  IND d   1      -3.913   0.767   3.029  0.00  0.00    -0.096 A 
ATOM     10  HN1 IND d   1      -1.271   1.033   4.567  0.00  0.00     0.298 HD
ENDROOT
TORSDOF 0
ENDMDL
