MODEL 1
REMARK minimizedAffinity 13.6565094
REMARK minimizedRMSD -1
REMARK  0 active torsions:
REMARK  status: ('A' for Active; 'I' for Inactive)
ROOT
ATOM      1  N1  IND d   1      -5.192   2.162   4.038  0.00  0.00    -0.196 N 
ATOM      2  C2  IND d   1      -5.244   2.634   5.320  0.00  0.00     0.054 A 
ATOM      3  C3  IND d   1      -4.131   2.275   5.998  0.00  0.00    -0.031 A 
ATOM      4  C4  IND d   1      -2.052   1.001   5.173  0.00  0.00     0.051 A 
ATOM      5  C5  IND d   1      -1.557   0.335   4.087  0.00  0.00    -0.031 A 
ATOM      6  C6  IND d   1      -2.262   0.244   2.904  0.00  0.00     0.015 A 
ATOM      7  C7  IND d   1      -3.489   0.828   2.759  0.00  0.00    -0.016 A 
ATOM      8  C8  IND d   1      -3.997   1.500   3.862  0.00  0.00    -0.047 A 
ATOM      9  C9  IND d   1      -3.305   1.559   5.079  0.00  0.00    -0.096 A 
ATOM     10  HN1 IND d   1      -5.803   2.262   3.441  0.00  0.00     0.298 HD
ENDROOT
TORSDOF 0
ENDMDL
