MODEL 1
REMARK minimizedAffinity 12.0833426
REMARK minimizedRMSD -1
REMARK  0 active torsions:
REMARK  status: ('A' for Active; 'I' for Inactive)
ROOT
ATOM      1  N1  IND d   1       4.817  -2.532  -0.708  0.00  0.00    -0.196 N 
ATOM      2  C2  IND d   1       5.999  -3.028  -1.185  0.00  0.00     0.054 A 
ATOM      3  C3  IND d   1       5.999  -4.379  -1.128  0.00  0.00    -0.031 A 
ATOM      4  C4  IND d   1       4.129  -5.984  -0.383  0.00  0.00     0.051 A 
ATOM      5  C5  IND d   1       2.879  -5.999   0.169  0.00  0.00    -0.031 A 
ATOM      6  C6  IND d   1       2.196  -4.836   0.459  0.00  0.00     0.015 A 
ATOM      7  C7  IND d   1       2.736  -3.609   0.198  0.00  0.00    -0.016 A 
ATOM      8  C8  IND d   1       4.008  -3.589  -0.356  0.00  0.00    -0.047 A 
ATOM      9  C9  IND d   1       4.723  -4.766  -0.614  0.00  0.00    -0.096 A 
ATOM     10  HN1 IND d   1       4.614  -1.699  -0.640  0.00  0.00     0.298 HD
ENDROOT
TORSDOF 0
ENDMDL
