MODEL 1
REMARK minimizedAffinity 15.1576824
REMARK minimizedRMSD -1
REMARK  0 active torsions:
REMARK  status: ('A' for Active; 'I' for Inactive)
ROOT
ATOM      1  N1  IND d   1      -1.099   0.752   4.484  0.00  0.00    -0.196 N 
ATOM      2  C2  IND d   1      -2.232   1.512   4.394  0.00  0.00     0.054 A 
ATOM      3  C3  IND d   1      -2.896   1.231   3.250  0.00  0.00    -0.031 A 
ATOM      4  C4  IND d   1      -2.359  -0.511   1.432  0.00  0.00     0.051 A 
ATOM      5  C5  IND d   1      -1.408  -1.418   1.057  0.00  0.00    -0.031 A 
ATOM      6  C6  IND d   1      -0.284  -1.654   1.821  0.00  0.00     0.015 A 
ATOM      7  C7  IND d   1      -0.074  -0.998   3.001  0.00  0.00    -0.016 A 
ATOM      8  C8  IND d   1      -1.034  -0.071   3.382  0.00  0.00    -0.047 A 
ATOM      9  C9  IND d   1      -2.156   0.204   2.589  0.00  0.00    -0.096 A 
ATOM     10  HN1 IND d   1      -0.524   0.784   5.122  0.00  0.00     0.298 HD
ENDROOT
TORSDOF 0
ENDMDL
