MODEL 1
REMARK minimizedAffinity 6.36216879
REMARK minimizedRMSD -1
REMARK  0 active torsions:
REMARK  status: ('A' for Active; 'I' for Inactive)
ROOT
ATOM      1  N1  IND d   1      -0.833   0.540   5.454  0.00  0.00    -0.196 N 
ATOM      2  C2  IND d   1      -1.764   1.333   4.844  0.00  0.00     0.054 A 
ATOM      3  C3  IND d   1      -1.793   1.087   3.515  0.00  0.00    -0.031 A 
ATOM      4  C4  IND d   1      -0.473  -0.646   2.143  0.00  0.00     0.051 A 
ATOM      5  C5  IND d   1       0.524  -1.575   2.254  0.00  0.00    -0.031 A 
ATOM      6  C6  IND d   1       1.129  -1.854   3.463  0.00  0.00     0.015 A 
ATOM      7  C7  IND d   1       0.751  -1.219   4.612  0.00  0.00    -0.016 A 
ATOM      8  C8  IND d   1      -0.255  -0.270   4.502  0.00  0.00    -0.047 A 
ATOM      9  C9  IND d   1      -0.844   0.047   3.271  0.00  0.00    -0.096 A 
ATOM     10  HN1 IND d   1      -0.640   0.547   6.292  0.00  0.00     0.298 HD
ENDROOT
TORSDOF 0
ENDMDL
