MODEL 1
REMARK minimizedAffinity 11.8708038
REMARK minimizedRMSD -1
REMARK  0 active torsions:
REMARK  status: ('A' for Active; 'I' for Inactive)
ROOT
ATOM      1  N1  IND d   1       1.003  -5.022  -3.210  0.00  0.00    -0.196 N 
ATOM      2  C2  IND d   1       1.811  -5.508  -4.199  0.00  0.00     0.054 A 
ATOM      3  C3  IND d   1       1.068  -5.993  -5.219  0.00  0.00    -0.031 A 
ATOM      4  C4  IND d   1      -1.489  -5.999  -5.520  0.00  0.00     0.051 A 
ATOM      5  C5  IND d   1      -2.651  -5.697  -4.867  0.00  0.00    -0.031 A 
ATOM      6  C6  IND d   1      -2.655  -5.141  -3.604  0.00  0.00     0.015 A 
ATOM      7  C7  IND d   1      -1.491  -4.855  -2.948  0.00  0.00    -0.016 A 
ATOM      8  C8  IND d   1      -0.309  -5.166  -3.605  0.00  0.00    -0.047 A 
ATOM      9  C9  IND d   1      -0.299  -5.770  -4.869  0.00  0.00    -0.096 A 
ATOM     10  HN1 IND d   1       1.269  -4.684  -2.465  0.00  0.00     0.298 HD
ENDROOT
TORSDOF 0
ENDMDL
