MODEL 1
REMARK minimizedAffinity 15.6950102
REMARK minimizedRMSD -1
REMARK  0 active torsions:
REMARK  status: ('A' for Active; 'I' for Inactive)
ROOT
ATOM      1  N1  IND d   1       3.513   2.998  -3.899  0.00  0.00    -0.196 N 
ATOM      2  C2  IND d   1       2.314   2.878  -3.252  0.00  0.00     0.054 A 
ATOM      3  C3  IND d   1       2.253   3.740  -2.212  0.00  0.00    -0.031 A 
ATOM      4  C4  IND d   1       3.962   5.508  -1.450  0.00  0.00     0.051 A 
ATOM      5  C5  IND d   1       5.223   5.967  -1.706  0.00  0.00    -0.031 A 
ATOM      6  C6  IND d   1       5.994   5.452  -2.728  0.00  0.00     0.015 A 
ATOM      7  C7  IND d   1       5.524   4.461  -3.543  0.00  0.00    -0.016 A 
ATOM      8  C8  IND d   1       4.247   3.987  -3.282  0.00  0.00    -0.047 A 
ATOM      9  C9  IND d   1       3.477   4.477  -2.219  0.00  0.00    -0.096 A 
ATOM     10  HN1 IND d   1       3.766   2.533  -4.576  0.00  0.00     0.298 HD
ENDROOT
TORSDOF 0
ENDMDL
