MODEL 1
REMARK minimizedAffinity 23.1294594
REMARK minimizedRMSD -1
REMARK  0 active torsions:
REMARK  status: ('A' for Active; 'I' for Inactive)
ROOT
ATOM      1  N1  IND d   1      -0.931   0.431   3.213  0.00  0.00    -0.196 N 
ATOM      2  C2  IND d   1      -2.280   0.473   3.001  0.00  0.00     0.054 A 
ATOM      3  C3  IND d   1      -2.664  -0.551   2.206  0.00  0.00    -0.031 A 
ATOM      4  C4  IND d   1      -1.260  -2.472   1.223  0.00  0.00     0.051 A 
ATOM      5  C5  IND d   1       0.027  -2.918   1.111  0.00  0.00    -0.031 A 
ATOM      6  C6  IND d   1       1.081  -2.259   1.708  0.00  0.00     0.015 A 
ATOM      7  C7  IND d   1       0.886  -1.130   2.453  0.00  0.00    -0.016 A 
ATOM      8  C8  IND d   1      -0.419  -0.671   2.563  0.00  0.00    -0.047 A 
ATOM      9  C9  IND d   1      -1.488  -1.311   1.923  0.00  0.00    -0.096 A 
ATOM     10  HN1 IND d   1      -0.477   0.997   3.676  0.00  0.00     0.298 HD
ENDROOT
TORSDOF 0
ENDMDL
