MODEL 1
REMARK minimizedAffinity 5.56358719
REMARK minimizedRMSD -1
REMARK  0 active torsions:
REMARK  status: ('A' for Active; 'I' for Inactive)
ROOT
ATOM      1  N1  IND d   1      -2.996  -5.724  -2.895  0.00  0.00    -0.196 N 
ATOM      2  C2  IND d   1      -3.379  -6.000  -4.178  0.00  0.00     0.054 A 
ATOM      3  C3  IND d   1      -2.306  -6.000  -5.000  0.00  0.00    -0.031 A 
ATOM      4  C4  IND d   1       0.185  -5.674  -4.437  0.00  0.00     0.051 A 
ATOM      5  C5  IND d   1       1.024  -5.359  -3.405  0.00  0.00    -0.031 A 
ATOM      6  C6  IND d   1       0.557  -5.148  -2.124  0.00  0.00     0.015 A 
ATOM      7  C7  IND d   1      -0.772  -5.256  -1.824  0.00  0.00    -0.016 A 
ATOM      8  C8  IND d   1      -1.627  -5.569  -2.870  0.00  0.00    -0.047 A 
ATOM      9  C9  IND d   1      -1.164  -5.742  -4.181  0.00  0.00    -0.096 A 
ATOM     10  HN1 IND d   1      -3.521  -5.659  -2.218  0.00  0.00     0.298 HD
ENDROOT
TORSDOF 0
ENDMDL
