MODEL 1
REMARK minimizedAffinity 9.23580837
REMARK minimizedRMSD -1
REMARK  0 active torsions:
REMARK  status: ('A' for Active; 'I' for Inactive)
ROOT
ATOM      1  N1  IND d   1       1.437  -0.714   4.215  0.00  0.00    -0.196 N 
ATOM      2  C2  IND d   1       2.084  -1.603   3.402  0.00  0.00     0.054 A 
ATOM      3  C3  IND d   1       1.359  -1.834   2.285  0.00  0.00    -0.031 A 
ATOM      4  C4  IND d   1      -0.869  -0.784   1.536  0.00  0.00     0.051 A 
ATOM      5  C5  IND d   1      -1.862   0.053   1.960  0.00  0.00    -0.031 A 
ATOM      6  C6  IND d   1      -1.804   0.693   3.182  0.00  0.00     0.015 A 
ATOM      7  C7  IND d   1      -0.740   0.527   4.023  0.00  0.00    -0.016 A 
ATOM      8  C8  IND d   1       0.267  -0.329   3.598  0.00  0.00    -0.047 A 
ATOM      9  C9  IND d   1       0.193  -1.014   2.378  0.00  0.00    -0.096 A 
ATOM     10  HN1 IND d   1       1.714  -0.442   4.982  0.00  0.00     0.298 HD
ENDROOT
TORSDOF 0
ENDMDL
