MODEL 1
REMARK minimizedAffinity 15.8098879
REMARK minimizedRMSD -1
REMARK  0 active torsions:
REMARK  status: ('A' for Active; 'I' for Inactive)
ROOT
ATOM      1  N1  IND d   1      -1.195   1.002   4.283  0.00  0.00    -0.196 N 
ATOM      2  C2  IND d   1      -2.504   1.283   4.564  0.00  0.00     0.054 A 
ATOM      3  C3  IND d   1      -3.315   0.699   3.654  0.00  0.00    -0.031 A 
ATOM      4  C4  IND d   1      -2.718  -0.845   1.682  0.00  0.00     0.051 A 
ATOM      5  C5  IND d   1      -1.650  -1.362   1.003  0.00  0.00    -0.031 A 
ATOM      6  C6  IND d   1      -0.349  -1.114   1.393  0.00  0.00     0.015 A 
ATOM      7  C7  IND d   1      -0.068  -0.346   2.488  0.00  0.00    -0.016 A 
ATOM      8  C8  IND d   1      -1.150   0.186   3.175  0.00  0.00    -0.047 A 
ATOM      9  C9  IND d   1      -2.470  -0.027   2.759  0.00  0.00    -0.096 A 
ATOM     10  HN1 IND d   1      -0.515   1.288   4.725  0.00  0.00     0.298 HD
ENDROOT
TORSDOF 0
ENDMDL
