MODEL 1
REMARK minimizedAffinity 1.64423072
REMARK minimizedRMSD -1
REMARK  1 active torsions:
REMARK  status: ('A' for Active; 'I' for Inactive)
REMARK    1  A    between atoms: C1_2  and  C2_3 
ROOT
ATOM      1  C2  UNL d   1       1.136  -0.356  -2.674  0.00  0.00    -0.076 A 
ATOM      2  C3  UNL d   1       0.726  -1.493  -3.391  0.00  0.00     0.004 A 
ATOM      3  C4  UNL d   1       0.403  -2.678  -2.733  0.00  0.00    -0.003 A 
ATOM      4  C5  UNL d   1       0.485  -2.746  -1.346  0.00  0.00     0.000 A 
ATOM      5  C6  UNL d   1       0.873  -1.622  -0.618  0.00  0.00     0.000 A 
ATOM      6  C7  UNL d   1       1.186  -0.414  -1.265  0.00  0.00    -0.073 A 
ATOM      7  C8  UNL d   1       1.605   0.765  -0.430  0.00  0.00     0.078 C 
ENDROOT
BRANCH   1   8
ATOM      8  C1  UNL d   1       1.500   0.894  -3.444  0.00  0.00     0.053 C 
ATOM      9  C   UNL d   1       2.629   0.660  -4.435  0.00  0.00     0.018 C 
ENDBRANCH   1   8
TORSDOF 1
ENDMDL
