MODEL 1
REMARK minimizedAffinity 1.16269732
REMARK minimizedRMSD -1
REMARK  1 active torsions:
REMARK  status: ('A' for Active; 'I' for Inactive)
REMARK    1  A    between atoms: C1_2  and  C2_3 
ROOT
ATOM      1  C2  UNL d   1       1.258  -0.855  -2.442  0.00  0.00    -0.076 A 
ATOM      2  C3  UNL d   1       1.364   0.065  -3.499  0.00  0.00     0.004 A 
ATOM      3  C4  UNL d   1       1.029   1.406  -3.320  0.00  0.00    -0.003 A 
ATOM      4  C5  UNL d   1       0.582   1.849  -2.080  0.00  0.00     0.000 A 
ATOM      5  C6  UNL d   1       0.488   0.954  -1.015  0.00  0.00     0.000 A 
ATOM      6  C7  UNL d   1       0.837  -0.398  -1.175  0.00  0.00    -0.073 A 
ATOM      7  C8  UNL d   1       0.710  -1.321   0.006  0.00  0.00     0.078 C 
ENDROOT
BRANCH   1   8
ATOM      8  C1  UNL d   1       1.610  -2.302  -2.703  0.00  0.00     0.053 C 
ATOM      9  C   UNL d   1       0.409  -3.123  -3.144  0.00  0.00     0.018 C 
ENDBRANCH   1   8
TORSDOF 1
ENDMDL
