MODEL 1
REMARK minimizedAffinity -2.82432652
REMARK minimizedRMSD -1
REMARK  1 active torsions:
REMARK  status: ('A' for Active; 'I' for Inactive)
REMARK    1  A    between atoms: C1_2  and  C2_3 
ROOT
ATOM      1  C2  UNL d   1       1.025  -0.692  -1.148  0.00  0.00    -0.076 A 
ATOM      2  C3  UNL d   1       1.374  -1.814  -1.920  0.00  0.00     0.004 A 
ATOM      3  C4  UNL d   1       1.553  -1.709  -3.299  0.00  0.00    -0.003 A 
ATOM      4  C5  UNL d   1       1.386  -0.480  -3.927  0.00  0.00     0.000 A 
ATOM      5  C6  UNL d   1       1.057   0.647  -3.174  0.00  0.00     0.000 A 
ATOM      6  C7  UNL d   1       0.890   0.561  -1.782  0.00  0.00    -0.073 A 
ATOM      7  C8  UNL d   1       0.530   1.807  -1.020  0.00  0.00     0.078 C 
ENDROOT
BRANCH   1   8
ATOM      8  C1  UNL d   1       0.818  -0.873   0.339  0.00  0.00     0.053 C 
ATOM      9  C   UNL d   1      -0.410  -1.710   0.659  0.00  0.00     0.018 C 
ENDBRANCH   1   8
TORSDOF 1
ENDMDL
