MODEL 1
REMARK minimizedAffinity 5.77868319
REMARK minimizedRMSD -1
REMARK  1 active torsions:
REMARK  status: ('A' for Active; 'I' for Inactive)
REMARK    1  A    between atoms: C1_2  and  C2_3 
ROOT
ATOM      1  C2  UNL d   1       4.504   2.084  -5.281  0.00  0.00    -0.076 A 
ATOM      2  C3  UNL d   1       5.142   3.335  -5.219  0.00  0.00     0.004 A 
ATOM      3  C4  UNL d   1       4.427   4.491  -4.911  0.00  0.00    -0.003 A 
ATOM      4  C5  UNL d   1       3.061   4.415  -4.658  0.00  0.00     0.000 A 
ATOM      5  C6  UNL d   1       2.415   3.179  -4.697  0.00  0.00     0.000 A 
ATOM      6  C7  UNL d   1       3.125   2.002  -4.991  0.00  0.00    -0.073 A 
ATOM      7  C8  UNL d   1       2.376   0.698  -5.026  0.00  0.00     0.078 C 
ENDROOT
BRANCH   1   8
ATOM      8  C1  UNL d   1       5.325   0.869  -5.647  0.00  0.00     0.053 C 
ATOM      9  C   UNL d   1       5.996   0.233  -4.440  0.00  0.00     0.018 C 
ENDBRANCH   1   8
TORSDOF 1
ENDMDL
