MODEL 1
REMARK minimizedAffinity 4.29941702
REMARK minimizedRMSD -1
REMARK  1 active torsions:
REMARK  status: ('A' for Active; 'I' for Inactive)
REMARK    1  A    between atoms: C1_2  and  C2_3 
ROOT
ATOM      1  C2  UNL d   1       5.188   2.442   4.383  0.00  0.00    -0.076 A 
ATOM      2  C3  UNL d   1       5.987   2.031   5.464  0.00  0.00     0.004 A 
ATOM      3  C4  UNL d   1       6.000   0.702   5.883  0.00  0.00    -0.003 A 
ATOM      4  C5  UNL d   1       5.215  -0.239   5.227  0.00  0.00     0.000 A 
ATOM      5  C6  UNL d   1       4.429   0.147   4.141  0.00  0.00     0.000 A 
ATOM      6  C7  UNL d   1       4.418   1.480   3.695  0.00  0.00    -0.073 A 
ATOM      7  C8  UNL d   1       3.548   1.841   2.523  0.00  0.00     0.078 C 
ENDROOT
BRANCH   1   8
ATOM      8  C1  UNL d   1       5.195   3.902   3.990  0.00  0.00     0.053 C 
ATOM      9  C   UNL d   1       5.996   4.761   4.956  0.00  0.00     0.018 C 
ENDBRANCH   1   8
TORSDOF 1
ENDMDL
