MODEL 1
REMARK minimizedAffinity -1.69045722
REMARK minimizedRMSD -1
REMARK  1 active torsions:
REMARK  status: ('A' for Active; 'I' for Inactive)
REMARK    1  A    between atoms: C1_2  and  C2_3 
ROOT
ATOM      1  C2  UNL d   1       0.638  -1.053  -0.791  0.00  0.00    -0.076 A 
ATOM      2  C3  UNL d   1       0.611   0.312  -0.457  0.00  0.00     0.004 A 
ATOM      3  C4  UNL d   1       0.826   1.292  -1.425  0.00  0.00    -0.003 A 
ATOM      4  C5  UNL d   1       1.071   0.922  -2.743  0.00  0.00     0.000 A 
ATOM      5  C6  UNL d   1       1.084  -0.427  -3.095  0.00  0.00     0.000 A 
ATOM      6  C7  UNL d   1       0.853  -1.427  -2.135  0.00  0.00    -0.073 A 
ATOM      7  C8  UNL d   1       0.884  -2.867  -2.569  0.00  0.00     0.078 C 
ENDROOT
BRANCH   1   8
ATOM      8  C1  UNL d   1       0.424  -2.072   0.306  0.00  0.00     0.053 C 
ATOM      9  C   UNL d   1      -0.985  -2.026   0.877  0.00  0.00     0.018 C 
ENDBRANCH   1   8
TORSDOF 1
ENDMDL
