MODEL 1
REMARK minimizedAffinity -1.96943283
REMARK minimizedRMSD -1
REMARK  1 active torsions:
REMARK  status: ('A' for Active; 'I' for Inactive)
REMARK    1  A    between atoms: C1_2  and  C2_3 
ROOT
ATOM      1  C2  UNL d   1       1.399  -0.096  -3.296  0.00  0.00    -0.076 A 
ATOM      2  C3  UNL d   1       1.212   1.195  -2.771  0.00  0.00     0.004 A 
ATOM      3  C4  UNL d   1       0.831   1.381  -1.443  0.00  0.00    -0.003 A 
ATOM      4  C5  UNL d   1       0.632   0.279  -0.619  0.00  0.00     0.000 A 
ATOM      5  C6  UNL d   1       0.830  -1.008  -1.118  0.00  0.00     0.000 A 
ATOM      6  C7  UNL d   1       1.229  -1.212  -2.450  0.00  0.00    -0.073 A 
ATOM      7  C8  UNL d   1       1.423  -2.622  -2.937  0.00  0.00     0.078 C 
ENDROOT
BRANCH   1   8
ATOM      8  C1  UNL d   1       1.785  -0.237  -4.751  0.00  0.00     0.053 C 
ATOM      9  C   UNL d   1       3.180   0.297  -5.038  0.00  0.00     0.018 C 
ENDBRANCH   1   8
TORSDOF 1
ENDMDL
