MODEL 1
REMARK minimizedAffinity 1.48238361
REMARK minimizedRMSD -1
REMARK  1 active torsions:
REMARK  status: ('A' for Active; 'I' for Inactive)
REMARK    1  A    between atoms: C1_2  and  C2_3 
ROOT
ATOM      1  C2  UNL d   1       1.563  -0.131  -3.729  0.00  0.00    -0.076 A 
ATOM      2  C3  UNL d   1       1.395   1.213  -3.352  0.00  0.00     0.004 A 
ATOM      3  C4  UNL d   1       0.804   1.548  -2.135  0.00  0.00    -0.003 A 
ATOM      4  C5  UNL d   1       0.373   0.545  -1.274  0.00  0.00     0.000 A 
ATOM      5  C6  UNL d   1       0.548  -0.793  -1.623  0.00  0.00     0.000 A 
ATOM      6  C7  UNL d   1       1.156  -1.149  -2.839  0.00  0.00    -0.073 A 
ATOM      7  C8  UNL d   1       1.315  -2.608  -3.168  0.00  0.00     0.078 C 
ENDROOT
BRANCH   1   8
ATOM      8  C1  UNL d   1       2.186  -0.434  -5.073  0.00  0.00     0.053 C 
ATOM      9  C   UNL d   1       3.658  -0.058  -5.131  0.00  0.00     0.018 C 
ENDBRANCH   1   8
TORSDOF 1
ENDMDL
