MODEL 1
REMARK minimizedAffinity 4.41535664
REMARK minimizedRMSD -1
REMARK  1 active torsions:
REMARK  status: ('A' for Active; 'I' for Inactive)
REMARK    1  A    between atoms: C1_2  and  C2_3 
ROOT
ATOM      1  C2  UNL d   1      -3.634   3.454   4.886  0.00  0.00    -0.076 A 
ATOM      2  C3  UNL d   1      -4.514   3.786   5.930  0.00  0.00     0.004 A 
ATOM      3  C4  UNL d   1      -5.101   5.049   5.999  0.00  0.00    -0.003 A 
ATOM      4  C5  UNL d   1      -4.817   6.000   5.025  0.00  0.00     0.000 A 
ATOM      5  C6  UNL d   1      -3.960   5.681   3.972  0.00  0.00     0.000 A 
ATOM      6  C7  UNL d   1      -3.373   4.408   3.879  0.00  0.00    -0.073 A 
ATOM      7  C8  UNL d   1      -2.451   4.121   2.725  0.00  0.00     0.078 C 
ENDROOT
BRANCH   1   8
ATOM      8  C1  UNL d   1      -3.006   2.079   4.877  0.00  0.00     0.053 C 
ATOM      9  C   UNL d   1      -3.993   0.986   5.259  0.00  0.00     0.018 C 
ENDBRANCH   1   8
TORSDOF 1
ENDMDL
