MODEL 1
REMARK minimizedAffinity 4.91704035
REMARK minimizedRMSD -1
REMARK  1 active torsions:
REMARK  status: ('A' for Active; 'I' for Inactive)
REMARK    1  A    between atoms: C1_2  and  C2_3 
ROOT
ATOM      1  C2  UNL d   1       0.683   0.647  -1.868  0.00  0.00    -0.076 A 
ATOM      2  C3  UNL d   1       0.498  -0.626  -1.301  0.00  0.00     0.004 A 
ATOM      3  C4  UNL d   1       0.791  -1.782  -2.023  0.00  0.00    -0.003 A 
ATOM      4  C5  UNL d   1       1.275  -1.684  -3.322  0.00  0.00     0.000 A 
ATOM      5  C6  UNL d   1       1.482  -0.429  -3.894  0.00  0.00     0.000 A 
ATOM      6  C7  UNL d   1       1.207   0.747  -3.175  0.00  0.00    -0.073 A 
ATOM      7  C8  UNL d   1       1.443   2.074  -3.842  0.00  0.00     0.078 C 
ENDROOT
BRANCH   1   8
ATOM      8  C1  UNL d   1       0.323   1.865  -1.047  0.00  0.00     0.053 C 
ATOM      9  C   UNL d   1       1.412   2.242  -0.055  0.00  0.00     0.018 C 
ENDBRANCH   1   8
TORSDOF 1
ENDMDL
