MODEL 1
REMARK minimizedAffinity 5.2104249
REMARK minimizedRMSD -1
REMARK  2 active torsions:
REMARK  status: ('A' for Active; 'I' for Inactive)
REMARK    1  A    between atoms: C1_2  and  C2_3 
REMARK    2  A    between atoms: C2_3  and  C3_4 
ROOT
ATOM      1  C3  UNL d   1       0.326   1.323   1.299  0.00  0.00    -0.075 A 
ATOM      2  C4  UNL d   1       0.870   2.526   0.826  0.00  0.00     0.002 A 
ATOM      3  C5  UNL d   1       1.515   2.574  -0.410  0.00  0.00     0.002 A 
ATOM      4  C6  UNL d   1       1.634   1.421  -1.183  0.00  0.00    -0.004 A 
ATOM      5  C7  UNL d   1       1.112   0.217  -0.715  0.00  0.00     0.002 A 
ATOM      6  C8  UNL d   1       0.462   0.167   0.519  0.00  0.00     0.002 A 
ENDROOT
BRANCH   1   7
ATOM      7  C2  UNL d   1      -0.399   1.271   2.622  0.00  0.00     0.056 C 
BRANCH   7   8
ATOM      8  C1  UNL d   1      -1.739   0.529   2.571  0.00  0.00     0.007 C 
ATOM      9  C   UNL d   1      -2.927   1.408   2.935  0.00  0.00     0.009 C 
ENDBRANCH   7   8
ENDBRANCH   1   7
TORSDOF 2
ENDMDL
