MODEL 1
REMARK minimizedAffinity 7.8644948
REMARK minimizedRMSD -1
REMARK  2 active torsions:
REMARK  status: ('A' for Active; 'I' for Inactive)
REMARK    1  A    between atoms: C1_2  and  C2_3 
REMARK    2  A    between atoms: C2_3  and  C3_4 
ROOT
ATOM      1  C3  UNL d   1       2.566   0.413   0.530  0.00  0.00    -0.075 A 
ATOM      2  C4  UNL d   1       1.504   1.140  -0.026  0.00  0.00     0.002 A 
ATOM      3  C5  UNL d   1       0.429   1.542   0.767  0.00  0.00     0.002 A 
ATOM      4  C6  UNL d   1       0.397   1.214   2.120  0.00  0.00    -0.004 A 
ATOM      5  C7  UNL d   1       1.438   0.478   2.680  0.00  0.00     0.002 A 
ATOM      6  C8  UNL d   1       2.518   0.078   1.890  0.00  0.00     0.002 A 
ENDROOT
BRANCH   1   7
ATOM      7  C2  UNL d   1       3.747   0.000  -0.316  0.00  0.00     0.056 C 
BRANCH   7   8
ATOM      8  C1  UNL d   1       5.106   0.245   0.348  0.00  0.00     0.007 C 
ATOM      9  C   UNL d   1       6.000   1.190  -0.444  0.00  0.00     0.009 C 
ENDBRANCH   7   8
ENDBRANCH   1   7
TORSDOF 2
ENDMDL
