MODEL 1
REMARK minimizedAffinity -0.821420372
REMARK minimizedRMSD -1
REMARK  2 active torsions:
REMARK  status: ('A' for Active; 'I' for Inactive)
REMARK    1  A    between atoms: C1_2  and  C2_3 
REMARK    2  A    between atoms: C2_3  and  C3_4 
ROOT
ATOM      1  C3  UNL d   1       0.507   0.274  -1.104  0.00  0.00    -0.075 A 
ATOM      2  C4  UNL d   1       1.142   1.519  -0.993  0.00  0.00     0.002 A 
ATOM      3  C5  UNL d   1       1.199   2.178   0.235  0.00  0.00     0.002 A 
ATOM      4  C6  UNL d   1       0.615   1.607   1.363  0.00  0.00    -0.004 A 
ATOM      5  C7  UNL d   1      -0.033   0.377   1.261  0.00  0.00     0.002 A 
ATOM      6  C8  UNL d   1      -0.088  -0.286   0.034  0.00  0.00     0.002 A 
ENDROOT
BRANCH   1   7
ATOM      7  C2  UNL d   1       0.467  -0.458  -2.424  0.00  0.00     0.056 C 
BRANCH   7   8
ATOM      8  C1  UNL d   1      -0.945  -0.819  -2.895  0.00  0.00     0.007 C 
ATOM      9  C   UNL d   1      -0.988  -1.330  -4.329  0.00  0.00     0.009 C 
ENDBRANCH   7   8
ENDBRANCH   1   7
TORSDOF 2
ENDMDL
