MODEL 1
REMARK minimizedAffinity 2.12460661
REMARK minimizedRMSD -1
REMARK  2 active torsions:
REMARK  status: ('A' for Active; 'I' for Inactive)
REMARK    1  A    between atoms: C1_2  and  C2_3 
REMARK    2  A    between atoms: C2_3  and  C3_4 
ROOT
ATOM      1  C3  UNL d   1      -0.711  -1.363   1.057  0.00  0.00    -0.075 A 
ATOM      2  C4  UNL d   1       0.190  -2.023   0.208  0.00  0.00     0.002 A 
ATOM      3  C5  UNL d   1       1.308  -1.357  -0.294  0.00  0.00     0.002 A 
ATOM      4  C6  UNL d   1       1.535  -0.023   0.037  0.00  0.00    -0.004 A 
ATOM      5  C7  UNL d   1       0.637   0.648   0.866  0.00  0.00     0.002 A 
ATOM      6  C8  UNL d   1      -0.480  -0.018   1.373  0.00  0.00     0.002 A 
ENDROOT
BRANCH   1   7
ATOM      7  C2  UNL d   1      -1.907  -2.087   1.627  0.00  0.00     0.056 C 
BRANCH   7   8
ATOM      8  C1  UNL d   1      -2.086  -3.512   1.094  0.00  0.00     0.007 C 
ATOM      9  C   UNL d   1      -3.108  -3.609  -0.031  0.00  0.00     0.009 C 
ENDBRANCH   7   8
ENDBRANCH   1   7
TORSDOF 2
ENDMDL
