MODEL 1
REMARK minimizedAffinity 14.516325
REMARK minimizedRMSD -1
REMARK  2 active torsions:
REMARK  status: ('A' for Active; 'I' for Inactive)
REMARK    1  A    between atoms: C1_2  and  C2_3 
REMARK    2  A    between atoms: C2_3  and  C3_4 
ROOT
ATOM      1  C3  UNL d   1       0.015   0.678   0.878  0.00  0.00    -0.075 A 
ATOM      2  C4  UNL d   1       0.109   1.895   0.188  0.00  0.00     0.002 A 
ATOM      3  C5  UNL d   1       0.915   2.006  -0.946  0.00  0.00     0.002 A 
ATOM      4  C6  UNL d   1       1.642   0.907  -1.397  0.00  0.00    -0.004 A 
ATOM      5  C7  UNL d   1       1.569  -0.303  -0.709  0.00  0.00     0.002 A 
ATOM      6  C8  UNL d   1       0.760  -0.418   0.423  0.00  0.00     0.002 A 
ENDROOT
BRANCH   1   7
ATOM      7  C2  UNL d   1      -0.878   0.543   2.089  0.00  0.00     0.056 C 
BRANCH   7   8
ATOM      8  C1  UNL d   1      -2.316   0.127   1.760  0.00  0.00     0.007 C 
ATOM      9  C   UNL d   1      -2.651  -1.286   2.219  0.00  0.00     0.009 C 
ENDBRANCH   7   8
ENDBRANCH   1   7
TORSDOF 2
ENDMDL
