MODEL 1
REMARK minimizedAffinity 3.83272505
REMARK minimizedRMSD -1
REMARK  2 active torsions:
REMARK  status: ('A' for Active; 'I' for Inactive)
REMARK    1  A    between atoms: C1_2  and  C2_3 
REMARK    2  A    between atoms: C2_3  and  C3_4 
ROOT
ATOM      1  C3  UNL d   1      -1.182   4.778  -3.444  0.00  0.00    -0.075 A 
ATOM      2  C4  UNL d   1      -1.874   3.611  -3.800  0.00  0.00     0.002 A 
ATOM      3  C5  UNL d   1      -2.498   2.832  -2.825  0.00  0.00     0.002 A 
ATOM      4  C6  UNL d   1      -2.431   3.204  -1.484  0.00  0.00    -0.004 A 
ATOM      5  C7  UNL d   1      -1.733   4.352  -1.117  0.00  0.00     0.002 A 
ATOM      6  C8  UNL d   1      -1.111   5.135  -2.091  0.00  0.00     0.002 A 
ENDROOT
BRANCH   1   7
ATOM      7  C2  UNL d   1      -0.529   5.640  -4.498  0.00  0.00     0.056 C 
BRANCH   7   8
ATOM      8  C1  UNL d   1       0.958   5.913  -4.246  0.00  0.00     0.007 C 
ATOM      9  C   UNL d   1       1.779   5.989  -5.526  0.00  0.00     0.009 C 
ENDBRANCH   7   8
ENDBRANCH   1   7
TORSDOF 2
ENDMDL
