MODEL 1
REMARK minimizedAffinity 15.37146
REMARK minimizedRMSD -1
REMARK  2 active torsions:
REMARK  status: ('A' for Active; 'I' for Inactive)
REMARK    1  A    between atoms: C1_2  and  C2_3 
REMARK    2  A    between atoms: C2_3  and  C3_4 
ROOT
ATOM      1  C3  UNL d   1       0.946   0.648   0.778  0.00  0.00    -0.075 A 
ATOM      2  C4  UNL d   1       2.116  -0.121   0.702  0.00  0.00     0.002 A 
ATOM      3  C5  UNL d   1       3.065   0.129  -0.290  0.00  0.00     0.002 A 
ATOM      4  C6  UNL d   1       2.851   1.142  -1.223  0.00  0.00    -0.004 A 
ATOM      5  C7  UNL d   1       1.684   1.901  -1.167  0.00  0.00     0.002 A 
ATOM      6  C8  UNL d   1       0.736   1.656  -0.172  0.00  0.00     0.002 A 
ENDROOT
BRANCH   1   7
ATOM      7  C2  UNL d   1      -0.071   0.402   1.868  0.00  0.00     0.056 C 
BRANCH   7   8
ATOM      8  C1  UNL d   1      -1.172  -0.590   1.480  0.00  0.00     0.007 C 
ATOM      9  C   UNL d   1      -2.563   0.031   1.470  0.00  0.00     0.009 C 
ENDBRANCH   7   8
ENDBRANCH   1   7
TORSDOF 2
ENDMDL
