MODEL 1
REMARK minimizedAffinity 0.71648252
REMARK minimizedRMSD -1
REMARK  2 active torsions:
REMARK  status: ('A' for Active; 'I' for Inactive)
REMARK    1  A    between atoms: C1_2  and  C2_3 
REMARK    2  A    between atoms: C2_3  and  C3_4 
ROOT
ATOM      1  C3  UNL d   1       1.111   5.286  -5.039  0.00  0.00    -0.075 A 
ATOM      2  C4  UNL d   1       2.246   6.000  -4.628  0.00  0.00     0.002 A 
ATOM      3  C5  UNL d   1       3.479   5.359  -4.504  0.00  0.00     0.002 A 
ATOM      4  C6  UNL d   1       3.590   3.998  -4.779  0.00  0.00    -0.004 A 
ATOM      5  C7  UNL d   1       2.466   3.275  -5.172  0.00  0.00     0.002 A 
ATOM      6  C8  UNL d   1       1.232   3.915  -5.301  0.00  0.00     0.002 A 
ENDROOT
BRANCH   1   7
ATOM      7  C2  UNL d   1      -0.220   5.980  -5.204  0.00  0.00     0.056 C 
BRANCH   7   8
ATOM      8  C1  UNL d   1      -1.075   6.000  -3.932  0.00  0.00     0.007 C 
ATOM      9  C   UNL d   1      -2.571   5.961  -4.214  0.00  0.00     0.009 C 
ENDBRANCH   7   8
ENDBRANCH   1   7
TORSDOF 2
ENDMDL
