MODEL 1
REMARK minimizedAffinity 6.85858393
REMARK minimizedRMSD -1
REMARK  2 active torsions:
REMARK  status: ('A' for Active; 'I' for Inactive)
REMARK    1  A    between atoms: C1_2  and  C2_3 
REMARK    2  A    between atoms: C2_3  and  C3_4 
ROOT
ATOM      1  C3  UNL d   1      -0.051  -0.226   1.112  0.00  0.00    -0.075 A 
ATOM      2  C4  UNL d   1       0.932   0.529   1.769  0.00  0.00     0.002 A 
ATOM      3  C5  UNL d   1       1.746   1.408   1.054  0.00  0.00     0.002 A 
ATOM      4  C6  UNL d   1       1.595   1.536  -0.325  0.00  0.00    -0.004 A 
ATOM      5  C7  UNL d   1       0.633   0.779  -0.990  0.00  0.00     0.002 A 
ATOM      6  C8  UNL d   1      -0.186  -0.098  -0.276  0.00  0.00     0.002 A 
ENDROOT
BRANCH   1   7
ATOM      7  C2  UNL d   1      -0.955  -1.157   1.885  0.00  0.00     0.056 C 
BRANCH   7   8
ATOM      8  C1  UNL d   1      -1.261  -0.688   3.311  0.00  0.00     0.007 C 
ATOM      9  C   UNL d   1      -2.684  -0.175   3.482  0.00  0.00     0.009 C 
ENDBRANCH   7   8
ENDBRANCH   1   7
TORSDOF 2
ENDMDL
