MODEL 1
REMARK minimizedAffinity -0.467871398
REMARK minimizedRMSD -1
REMARK  2 active torsions:
REMARK  status: ('A' for Active; 'I' for Inactive)
REMARK    1  A    between atoms: C1_2  and  C2_3 
REMARK    2  A    between atoms: C2_3  and  C3_4 
ROOT
ATOM      1  C3  UNL d   1      -1.263   5.984  -3.639  0.00  0.00    -0.075 A 
ATOM      2  C4  UNL d   1      -2.314   5.970  -4.568  0.00  0.00     0.002 A 
ATOM      3  C5  UNL d   1      -3.640   5.983  -4.136  0.00  0.00     0.002 A 
ATOM      4  C6  UNL d   1      -3.932   6.000  -2.774  0.00  0.00    -0.004 A 
ATOM      5  C7  UNL d   1      -2.896   5.997  -1.842  0.00  0.00     0.002 A 
ATOM      6  C8  UNL d   1      -1.568   5.989  -2.272  0.00  0.00     0.002 A 
ENDROOT
BRANCH   1   7
ATOM      7  C2  UNL d   1       0.175   6.000  -4.101  0.00  0.00     0.056 C 
BRANCH   7   8
ATOM      8  C1  UNL d   1       0.350   5.765  -5.605  0.00  0.00     0.007 C 
ATOM      9  C   UNL d   1       1.625   5.006  -5.949  0.00  0.00     0.009 C 
ENDBRANCH   7   8
ENDBRANCH   1   7
TORSDOF 2
ENDMDL
