MODEL 1
REMARK minimizedAffinity 5.52716923
REMARK minimizedRMSD -1
REMARK  2 active torsions:
REMARK  status: ('A' for Active; 'I' for Inactive)
REMARK    1  A    between atoms: C1_2  and  C2_3 
REMARK    2  A    between atoms: C2_3  and  C3_4 
ROOT
ATOM      1  C3  UNL d   1       0.415   0.332   0.489  0.00  0.00    -0.075 A 
ATOM      2  C4  UNL d   1       0.894   1.429   1.219  0.00  0.00     0.002 A 
ATOM      3  C5  UNL d   1       1.658   2.416   0.596  0.00  0.00     0.002 A 
ATOM      4  C6  UNL d   1       1.961   2.315  -0.760  0.00  0.00    -0.004 A 
ATOM      5  C7  UNL d   1       1.504   1.221  -1.492  0.00  0.00     0.002 A 
ATOM      6  C8  UNL d   1       0.736   0.234  -0.872  0.00  0.00     0.002 A 
ENDROOT
BRANCH   1   7
ATOM      7  C2  UNL d   1      -0.437  -0.725   1.150  0.00  0.00     0.056 C 
BRANCH   7   8
ATOM      8  C1  UNL d   1      -1.518  -0.163   2.079  0.00  0.00     0.007 C 
ATOM      9  C   UNL d   1      -1.930  -1.133   3.178  0.00  0.00     0.009 C 
ENDBRANCH   7   8
ENDBRANCH   1   7
TORSDOF 2
ENDMDL
