MODEL 1
REMARK minimizedAffinity 6.24425411
REMARK minimizedRMSD -1
REMARK  2 active torsions:
REMARK  status: ('A' for Active; 'I' for Inactive)
REMARK    1  A    between atoms: C1_2  and  C2_3 
REMARK    2  A    between atoms: C2_3  and  C3_4 
ROOT
ATOM      1  C3  UNL d   1       0.218   0.553   0.960  0.00  0.00    -0.075 A 
ATOM      2  C4  UNL d   1       1.047   1.102   1.950  0.00  0.00     0.002 A 
ATOM      3  C5  UNL d   1       1.810   2.239   1.684  0.00  0.00     0.002 A 
ATOM      4  C6  UNL d   1       1.763   2.835   0.425  0.00  0.00    -0.004 A 
ATOM      5  C7  UNL d   1       0.956   2.288  -0.570  0.00  0.00     0.002 A 
ATOM      6  C8  UNL d   1       0.187   1.153  -0.306  0.00  0.00     0.002 A 
ENDROOT
BRANCH   1   7
ATOM      7  C2  UNL d   1      -0.633  -0.660   1.251  0.00  0.00     0.056 C 
BRANCH   7   8
ATOM      8  C1  UNL d   1      -1.876  -0.362   2.096  0.00  0.00     0.007 C 
ATOM      9  C   UNL d   1      -2.671   0.836   1.593  0.00  0.00     0.009 C 
ENDBRANCH   7   8
ENDBRANCH   1   7
TORSDOF 2
ENDMDL
