MODEL 1
REMARK minimizedAffinity 3.14515138
REMARK minimizedRMSD -1
REMARK  2 active torsions:
REMARK  status: ('A' for Active; 'I' for Inactive)
REMARK    1  A    between atoms: C1_2  and  C2_3 
REMARK    2  A    between atoms: C2_3  and  C3_4 
ROOT
ATOM      1  C3  UNL d   1       0.259   1.222   1.220  0.00  0.00    -0.075 A 
ATOM      2  C4  UNL d   1       0.745   0.143   0.468  0.00  0.00     0.002 A 
ATOM      3  C5  UNL d   1       0.021  -1.047   0.386  0.00  0.00     0.002 A 
ATOM      4  C6  UNL d   1      -1.190  -1.176   1.062  0.00  0.00    -0.004 A 
ATOM      5  C7  UNL d   1      -1.675  -0.116   1.825  0.00  0.00     0.002 A 
ATOM      6  C8  UNL d   1      -0.955   1.077   1.905  0.00  0.00     0.002 A 
ENDROOT
BRANCH   1   7
ATOM      7  C2  UNL d   1       1.023   2.523   1.288  0.00  0.00     0.056 C 
BRANCH   7   8
ATOM      8  C1  UNL d   1       1.119   3.261  -0.052  0.00  0.00     0.007 C 
ATOM      9  C   UNL d   1       2.310   2.823  -0.894  0.00  0.00     0.009 C 
ENDBRANCH   7   8
ENDBRANCH   1   7
TORSDOF 2
ENDMDL
