MODEL 1
REMARK minimizedAffinity 0.625509322
REMARK minimizedRMSD -1
REMARK  2 active torsions:
REMARK  status: ('A' for Active; 'I' for Inactive)
REMARK    1  A    between atoms: C1_2  and  C2_3 
REMARK    2  A    between atoms: C2_3  and  C3_4 
ROOT
ATOM      1  C3  UNL d   1      -0.956   5.879  -4.693  0.00  0.00    -0.075 A 
ATOM      2  C4  UNL d   1      -0.314   5.999  -3.452  0.00  0.00     0.002 A 
ATOM      3  C5  UNL d   1       1.076   5.914  -3.362  0.00  0.00     0.002 A 
ATOM      4  C6  UNL d   1       1.839   5.698  -4.507  0.00  0.00    -0.004 A 
ATOM      5  C7  UNL d   1       1.210   5.561  -5.743  0.00  0.00     0.002 A 
ATOM      6  C8  UNL d   1      -0.180   5.650  -5.837  0.00  0.00     0.002 A 
ENDROOT
BRANCH   1   7
ATOM      7  C2  UNL d   1      -2.457   5.999  -4.801  0.00  0.00     0.056 C 
BRANCH   7   8
ATOM      8  C1  UNL d   1      -3.188   5.917  -3.456  0.00  0.00     0.007 C 
ATOM      9  C   UNL d   1      -4.703   5.999  -3.590  0.00  0.00     0.009 C 
ENDBRANCH   7   8
ENDBRANCH   1   7
TORSDOF 2
ENDMDL
