MODEL 1
REMARK minimizedAffinity 0.28722769
REMARK minimizedRMSD -1
REMARK  2 active torsions:
REMARK  status: ('A' for Active; 'I' for Inactive)
REMARK    1  A    between atoms: C1_2  and  C2_3 
REMARK    2  A    between atoms: C2_3  and  C3_4 
ROOT
ATOM      1  C3  UNL d   1       0.562   0.296   0.116  0.00  0.00    -0.075 A 
ATOM      2  C4  UNL d   1       0.588   1.094  -1.037  0.00  0.00     0.002 A 
ATOM      3  C5  UNL d   1       1.037   2.413  -0.976  0.00  0.00     0.002 A 
ATOM      4  C6  UNL d   1       1.455   2.954   0.238  0.00  0.00    -0.004 A 
ATOM      5  C7  UNL d   1       1.418   2.176   1.393  0.00  0.00     0.002 A 
ATOM      6  C8  UNL d   1       0.973   0.854   1.334  0.00  0.00     0.002 A 
ENDROOT
BRANCH   1   7
ATOM      7  C2  UNL d   1       0.106  -1.142   0.050  0.00  0.00     0.056 C 
BRANCH   7   8
ATOM      8  C1  UNL d   1      -1.197  -1.418   0.808  0.00  0.00     0.007 C 
ATOM      9  C   UNL d   1      -2.208  -2.214  -0.006  0.00  0.00     0.009 C 
ENDBRANCH   7   8
ENDBRANCH   1   7
TORSDOF 2
ENDMDL
