MODEL 1
REMARK minimizedAffinity 2.79338288
REMARK minimizedRMSD -1
REMARK  2 active torsions:
REMARK  status: ('A' for Active; 'I' for Inactive)
REMARK    1  A    between atoms: C1_2  and  C2_3 
REMARK    2  A    between atoms: C2_3  and  C3_4 
ROOT
ATOM      1  C3  UNL d   1      -0.533  -0.151  -1.479  0.00  0.00    -0.075 A 
ATOM      2  C4  UNL d   1      -1.858  -0.208  -1.935  0.00  0.00     0.002 A 
ATOM      3  C5  UNL d   1      -2.133  -0.415  -3.287  0.00  0.00     0.002 A 
ATOM      4  C6  UNL d   1      -1.090  -0.557  -4.200  0.00  0.00    -0.004 A 
ATOM      5  C7  UNL d   1       0.230  -0.486  -3.760  0.00  0.00     0.002 A 
ATOM      6  C8  UNL d   1       0.509  -0.283  -2.407  0.00  0.00     0.002 A 
ENDROOT
BRANCH   1   7
ATOM      7  C2  UNL d   1      -0.228   0.044  -0.013  0.00  0.00     0.056 C 
BRANCH   7   8
ATOM      8  C1  UNL d   1       1.247   0.334   0.285  0.00  0.00     0.007 C 
ATOM      9  C   UNL d   1       1.596   1.814   0.206  0.00  0.00     0.009 C 
ENDBRANCH   7   8
ENDBRANCH   1   7
TORSDOF 2
ENDMDL
