MODEL 1
REMARK minimizedAffinity 6.16091108
REMARK minimizedRMSD -1
REMARK  2 active torsions:
REMARK  status: ('A' for Active; 'I' for Inactive)
REMARK    1  A    between atoms: C1_2  and  C2_3 
REMARK    2  A    between atoms: C2_3  and  C3_4 
ROOT
ATOM      1  C3  UNL d   1      -0.493  -0.227   1.032  0.00  0.00    -0.075 A 
ATOM      2  C4  UNL d   1       0.726   0.163   0.459  0.00  0.00     0.002 A 
ATOM      3  C5  UNL d   1       1.403   1.288   0.932  0.00  0.00     0.002 A 
ATOM      4  C6  UNL d   1       0.867   2.040   1.974  0.00  0.00    -0.004 A 
ATOM      5  C7  UNL d   1      -0.352   1.671   2.540  0.00  0.00     0.002 A 
ATOM      6  C8  UNL d   1      -1.029   0.544   2.071  0.00  0.00     0.002 A 
ENDROOT
BRANCH   1   7
ATOM      7  C2  UNL d   1      -1.216  -1.460   0.544  0.00  0.00     0.056 C 
BRANCH   7   8
ATOM      8  C1  UNL d   1      -2.199  -1.195  -0.601  0.00  0.00     0.007 C 
ATOM      9  C   UNL d   1      -3.079  -2.394  -0.927  0.00  0.00     0.009 C 
ENDBRANCH   7   8
ENDBRANCH   1   7
TORSDOF 2
ENDMDL
