MODEL 1
REMARK minimizedAffinity -5.03634501
REMARK minimizedRMSD -1
REMARK  0 active torsions:
REMARK  status: ('A' for Active; 'I' for Inactive)
ROOT
ATOM      1  C   UNL d   1       3.533  -0.558   0.670  0.00  0.00     0.023 A 
ATOM      2  C1  UNL d   1       3.164   0.787   0.672  0.00  0.00     0.003 A 
ATOM      3  C2  UNL d   1       1.831   1.147   0.468  0.00  0.00     0.048 A 
ATOM      4  C3  UNL d   1       0.871   0.157   0.263  0.00  0.00     0.023 A 
ATOM      5  C4  UNL d   1       1.235  -1.191   0.261  0.00  0.00     0.048 A 
ATOM      6  C5  UNL d   1       2.570  -1.546   0.464  0.00  0.00     0.003 A 
ATOM      7  I   UNL d   1      -1.115   0.690  -0.040  0.00  0.00    -0.146 I 
ENDROOT
TORSDOF 0
ENDMDL
