MODEL 1
REMARK minimizedAffinity -4.38848972
REMARK minimizedRMSD -1
REMARK  0 active torsions:
REMARK  status: ('A' for Active; 'I' for Inactive)
ROOT
ATOM      1  C   UNL d   1       3.273  -0.173   0.625  0.00  0.00     0.023 A 
ATOM      2  C1  UNL d   1       2.792   1.135   0.572  0.00  0.00     0.003 A 
ATOM      3  C2  UNL d   1       1.425   1.372   0.413  0.00  0.00     0.048 A 
ATOM      4  C3  UNL d   1       0.544   0.296   0.309  0.00  0.00     0.023 A 
ATOM      5  C4  UNL d   1       1.021  -1.015   0.363  0.00  0.00     0.048 A 
ATOM      6  C5  UNL d   1       2.388  -1.247   0.520  0.00  0.00     0.003 A 
ATOM      7  I   UNL d   1      -1.491   0.646   0.073  0.00  0.00    -0.146 I 
ENDROOT
TORSDOF 0
ENDMDL
