MODEL 1
REMARK minimizedAffinity -5.2423625
REMARK minimizedRMSD -1
REMARK  0 active torsions:
REMARK  status: ('A' for Active; 'I' for Inactive)
ROOT
ATOM      1  C   UNL d   1       3.745  -0.727   0.523  0.00  0.00     0.023 A 
ATOM      2  C1  UNL d   1       3.453   0.636   0.451  0.00  0.00     0.003 A 
ATOM      3  C2  UNL d   1       2.156   1.059   0.156  0.00  0.00     0.048 A 
ATOM      4  C3  UNL d   1       1.154   0.115  -0.065  0.00  0.00     0.023 A 
ATOM      5  C4  UNL d   1       1.440  -1.250   0.007  0.00  0.00     0.048 A 
ATOM      6  C5  UNL d   1       2.739  -1.668   0.301  0.00  0.00     0.003 A 
ATOM      7  I   UNL d   1      -0.778   0.742  -0.505  0.00  0.00    -0.146 I 
ENDROOT
TORSDOF 0
ENDMDL
