MODEL 1
REMARK minimizedAffinity -3.00196648
REMARK minimizedRMSD -1
REMARK  0 active torsions:
REMARK  status: ('A' for Active; 'I' for Inactive)
ROOT
ATOM      1  C   UNL d   1       1.926  -0.610  -0.029  0.00  0.00     0.023 A 
ATOM      2  C1  UNL d   1       1.621   0.632   0.527  0.00  0.00     0.003 A 
ATOM      3  C2  UNL d   1       0.294   1.060   0.598  0.00  0.00     0.048 A 
ATOM      4  C3  UNL d   1      -0.724   0.240   0.112  0.00  0.00     0.023 A 
ATOM      5  C4  UNL d   1      -0.423  -1.005  -0.445  0.00  0.00     0.048 A 
ATOM      6  C5  UNL d   1       0.905  -1.427  -0.515  0.00  0.00     0.003 A 
ATOM      7  I   UNL d   1      -2.700   0.874   0.217  0.00  0.00    -0.146 I 
ENDROOT
TORSDOF 0
ENDMDL
