MODEL 1
REMARK minimizedAffinity -1.6926986
REMARK minimizedRMSD -1
REMARK  0 active torsions:
REMARK  status: ('A' for Active; 'I' for Inactive)
ROOT
ATOM      1  C   UNL d   1       1.708  -0.014   0.376  0.00  0.00     0.023 A 
ATOM      2  C1  UNL d   1       1.251   1.269   0.076  0.00  0.00     0.003 A 
ATOM      3  C2  UNL d   1      -0.119   1.512  -0.049  0.00  0.00     0.048 A 
ATOM      4  C3  UNL d   1      -1.025   0.468   0.128  0.00  0.00     0.023 A 
ATOM      5  C4  UNL d   1      -0.573  -0.818   0.429  0.00  0.00     0.048 A 
ATOM      6  C5  UNL d   1       0.797  -1.056   0.552  0.00  0.00     0.003 A 
ATOM      7  I   UNL d   1      -3.064   0.827  -0.057  0.00  0.00    -0.146 I 
ENDROOT
TORSDOF 0
ENDMDL
