MODEL 1
REMARK minimizedAffinity -3.83311653
REMARK minimizedRMSD -1
REMARK  1 active torsions:
REMARK  status: ('A' for Active; 'I' for Inactive)
REMARK    1  A    between atoms: C1_2  and  C2_3 
ROOT
ATOM      1  C2  UNL d   1      -0.283  -0.918  -0.298  0.00  0.00    -0.076 A 
ATOM      2  C3  UNL d   1      -0.576  -2.052   0.478  0.00  0.00     0.004 A 
ATOM      3  C4  UNL d   1      -0.738  -3.304  -0.113  0.00  0.00    -0.003 A 
ATOM      4  C5  UNL d   1      -0.608  -3.442  -1.491  0.00  0.00     0.000 A 
ATOM      5  C6  UNL d   1      -0.301  -2.330  -2.274  0.00  0.00     0.000 A 
ATOM      6  C7  UNL d   1      -0.119  -1.064  -1.692  0.00  0.00    -0.073 A 
ATOM      7  C8  UNL d   1       0.206   0.102  -2.586  0.00  0.00     0.078 C 
ENDROOT
BRANCH   1   8
ATOM      8  C1  UNL d   1      -0.146   0.419   0.395  0.00  0.00     0.053 C 
ATOM      9  C   UNL d   1       0.981   0.432   1.416  0.00  0.00     0.018 C 
ENDBRANCH   1   8
TORSDOF 1
ENDMDL
