MODEL 1
REMARK minimizedAffinity -1.72667277
REMARK minimizedRMSD -1
REMARK  1 active torsions:
REMARK  status: ('A' for Active; 'I' for Inactive)
REMARK    1  A    between atoms: C1_2  and  C2_3 
ROOT
ATOM      1  C2  UNL d   1      -0.332   0.164  -0.147  0.00  0.00    -0.076 A 
ATOM      2  C3  UNL d   1      -0.850  -0.183   1.112  0.00  0.00     0.004 A 
ATOM      3  C4  UNL d   1      -1.359  -1.459   1.352  0.00  0.00    -0.003 A 
ATOM      4  C5  UNL d   1      -1.358  -2.407   0.335  0.00  0.00     0.000 A 
ATOM      5  C6  UNL d   1      -0.832  -2.086  -0.915  0.00  0.00     0.000 A 
ATOM      6  C7  UNL d   1      -0.300  -0.810  -1.169  0.00  0.00    -0.073 A 
ATOM      7  C8  UNL d   1       0.249  -0.515  -2.538  0.00  0.00     0.078 C 
ENDROOT
BRANCH   1   8
ATOM      8  C1  UNL d   1       0.182   1.571  -0.356  0.00  0.00     0.053 C 
ATOM      9  C   UNL d   1       1.298   1.933   0.611  0.00  0.00     0.018 C 
ENDBRANCH   1   8
TORSDOF 1
ENDMDL
