MODEL 1
REMARK minimizedAffinity -0.643004715
REMARK minimizedRMSD -1
REMARK  1 active torsions:
REMARK  status: ('A' for Active; 'I' for Inactive)
REMARK    1  A    between atoms: C1_2  and  C2_3 
ROOT
ATOM      1  C2  UNL d   1       0.646   1.422   0.276  0.00  0.00    -0.076 A 
ATOM      2  C3  UNL d   1       0.554   1.146   1.651  0.00  0.00     0.004 A 
ATOM      3  C4  UNL d   1      -0.257   0.116   2.123  0.00  0.00    -0.003 A 
ATOM      4  C5  UNL d   1      -0.990  -0.655   1.228  0.00  0.00     0.000 A 
ATOM      5  C6  UNL d   1      -0.897  -0.407  -0.141  0.00  0.00     0.000 A 
ATOM      6  C7  UNL d   1      -0.071   0.617  -0.635  0.00  0.00    -0.073 A 
ATOM      7  C8  UNL d   1      -0.013   0.845  -2.121  0.00  0.00     0.078 C 
ENDROOT
BRANCH   1   8
ATOM      8  C1  UNL d   1       1.522   2.569  -0.176  0.00  0.00     0.053 C 
ATOM      9  C   UNL d   1       1.946   3.467   0.976  0.00  0.00     0.018 C 
ENDBRANCH   1   8
TORSDOF 1
ENDMDL
