MODEL 1
REMARK minimizedAffinity -3.55442071
REMARK minimizedRMSD -1
REMARK  1 active torsions:
REMARK  status: ('A' for Active; 'I' for Inactive)
REMARK    1  A    between atoms: C1_2  and  C2_3 
ROOT
ATOM      1  C2  UNL d   1      -0.547  -0.092  -0.140  0.00  0.00    -0.076 A 
ATOM      2  C3  UNL d   1      -0.857  -0.104   1.231  0.00  0.00     0.004 A 
ATOM      3  C4  UNL d   1      -1.174  -1.294   1.884  0.00  0.00    -0.003 A 
ATOM      4  C5  UNL d   1      -1.186  -2.491   1.176  0.00  0.00     0.000 A 
ATOM      5  C6  UNL d   1      -0.864  -2.500  -0.180  0.00  0.00     0.000 A 
ATOM      6  C7  UNL d   1      -0.526  -1.312  -0.850  0.00  0.00    -0.073 A 
ATOM      7  C8  UNL d   1      -0.193  -1.378  -2.316  0.00  0.00     0.078 C 
ENDROOT
BRANCH   1   8
ATOM      8  C1  UNL d   1      -0.237   1.232  -0.801  0.00  0.00     0.053 C 
ATOM      9  C   UNL d   1       0.544   2.169   0.109  0.00  0.00     0.018 C 
ENDBRANCH   1   8
TORSDOF 1
ENDMDL
