MODEL 1
REMARK minimizedAffinity -3.25979471
REMARK minimizedRMSD -1
REMARK  1 active torsions:
REMARK  status: ('A' for Active; 'I' for Inactive)
REMARK    1  A    between atoms: C1_2  and  C2_3 
ROOT
ATOM      1  C2  UNL d   1      -0.470  -0.589  -0.759  0.00  0.00    -0.076 A 
ATOM      2  C3  UNL d   1      -0.760  -0.617   0.616  0.00  0.00     0.004 A 
ATOM      3  C4  UNL d   1      -0.940  -1.826   1.287  0.00  0.00    -0.003 A 
ATOM      4  C5  UNL d   1      -0.832  -3.026   0.593  0.00  0.00     0.000 A 
ATOM      5  C6  UNL d   1      -0.527  -3.017  -0.768  0.00  0.00     0.000 A 
ATOM      6  C7  UNL d   1      -0.327  -1.808  -1.455  0.00  0.00    -0.073 A 
ATOM      7  C8  UNL d   1      -0.006  -1.857  -2.924  0.00  0.00     0.078 C 
ENDROOT
BRANCH   1   8
ATOM      8  C1  UNL d   1      -0.312   0.753  -1.438  0.00  0.00     0.053 C 
ATOM      9  C   UNL d   1       0.165   1.837  -0.484  0.00  0.00     0.018 C 
ENDBRANCH   1   8
TORSDOF 1
ENDMDL
