MODEL 1
REMARK minimizedAffinity -2.26834178
REMARK minimizedRMSD -1
REMARK  1 active torsions:
REMARK  status: ('A' for Active; 'I' for Inactive)
REMARK    1  A    between atoms: C1_2  and  C2_3 
ROOT
ATOM      1  C2  UNL d   1      -0.305  -0.706   0.685  0.00  0.00    -0.076 A 
ATOM      2  C3  UNL d   1       0.975  -0.527   0.132  0.00  0.00     0.004 A 
ATOM      3  C4  UNL d   1       1.464   0.748  -0.148  0.00  0.00    -0.003 A 
ATOM      4  C5  UNL d   1       0.681   1.865   0.121  0.00  0.00     0.000 A 
ATOM      5  C6  UNL d   1      -0.585   1.707   0.686  0.00  0.00     0.000 A 
ATOM      6  C7  UNL d   1      -1.086   0.430   0.989  0.00  0.00    -0.073 A 
ATOM      7  C8  UNL d   1      -2.459   0.317   1.592  0.00  0.00     0.078 C 
ENDROOT
BRANCH   1   8
ATOM      8  C1  UNL d   1      -0.792  -2.114   0.942  0.00  0.00     0.053 C 
ATOM      9  C   UNL d   1      -0.632  -3.017  -0.272  0.00  0.00     0.018 C 
ENDBRANCH   1   8
TORSDOF 1
ENDMDL
