MODEL 1
REMARK minimizedAffinity -2.88835764
REMARK minimizedRMSD -1
REMARK  1 active torsions:
REMARK  status: ('A' for Active; 'I' for Inactive)
REMARK    1  A    between atoms: C1_2  and  C2_3 
ROOT
ATOM      1  C2  UNL d   1       0.100  -0.003  -0.157  0.00  0.00    -0.076 A 
ATOM      2  C3  UNL d   1      -0.363  -0.057   1.169  0.00  0.00     0.004 A 
ATOM      3  C4  UNL d   1      -0.929  -1.221   1.685  0.00  0.00    -0.003 A 
ATOM      4  C5  UNL d   1      -1.041  -2.352   0.884  0.00  0.00     0.000 A 
ATOM      5  C6  UNL d   1      -0.571  -2.322  -0.429  0.00  0.00     0.000 A 
ATOM      6  C7  UNL d   1       0.017  -1.161  -0.960  0.00  0.00    -0.073 A 
ATOM      7  C8  UNL d   1       0.502  -1.184  -2.383  0.00  0.00     0.078 C 
ENDROOT
BRANCH   1   8
ATOM      8  C1  UNL d   1       0.680   1.295  -0.670  0.00  0.00     0.053 C 
ATOM      9  C   UNL d   1       0.109   2.511   0.044  0.00  0.00     0.018 C 
ENDBRANCH   1   8
TORSDOF 1
ENDMDL
