MODEL 1
REMARK minimizedAffinity -2.95123482
REMARK minimizedRMSD -1
REMARK  1 active torsions:
REMARK  status: ('A' for Active; 'I' for Inactive)
REMARK    1  A    between atoms: C1_2  and  C2_3 
ROOT
ATOM      1  C2  UNL d   1      -0.239  -1.440  -0.729  0.00  0.00    -0.076 A 
ATOM      2  C3  UNL d   1      -0.445  -2.565   0.087  0.00  0.00     0.004 A 
ATOM      3  C4  UNL d   1      -0.661  -2.428   1.457  0.00  0.00    -0.003 A 
ATOM      4  C5  UNL d   1      -0.675  -1.163   2.033  0.00  0.00     0.000 A 
ATOM      5  C6  UNL d   1      -0.490  -0.034   1.236  0.00  0.00     0.000 A 
ATOM      6  C7  UNL d   1      -0.287  -0.154  -0.150  0.00  0.00    -0.073 A 
ATOM      7  C8  UNL d   1      -0.086   1.097  -0.961  0.00  0.00     0.078 C 
ENDROOT
BRANCH   1   8
ATOM      8  C1  UNL d   1       0.018  -1.652  -2.204  0.00  0.00     0.053 C 
ATOM      9  C   UNL d   1      -0.437  -3.022  -2.684  0.00  0.00     0.018 C 
ENDBRANCH   1   8
TORSDOF 1
ENDMDL
