MODEL 1
REMARK minimizedAffinity -2.1037662
REMARK minimizedRMSD -1
REMARK  1 active torsions:
REMARK  status: ('A' for Active; 'I' for Inactive)
REMARK    1  A    between atoms: C1_2  and  C2_3 
ROOT
ATOM      1  C2  UNL d   1       0.427   1.606   1.128  0.00  0.00    -0.076 A 
ATOM      2  C3  UNL d   1       0.437   1.017   2.405  0.00  0.00     0.004 A 
ATOM      3  C4  UNL d   1      -0.116  -0.245   2.617  0.00  0.00    -0.003 A 
ATOM      4  C5  UNL d   1      -0.687  -0.939   1.556  0.00  0.00     0.000 A 
ATOM      5  C6  UNL d   1      -0.689  -0.377   0.279  0.00  0.00     0.000 A 
ATOM      6  C7  UNL d   1      -0.121   0.887   0.045  0.00  0.00    -0.073 A 
ATOM      7  C8  UNL d   1      -0.157   1.447  -1.351  0.00  0.00     0.078 C 
ENDROOT
BRANCH   1   8
ATOM      8  C1  UNL d   1       1.018   2.988   0.964  0.00  0.00     0.053 C 
ATOM      9  C   UNL d   1       1.045   3.769   2.269  0.00  0.00     0.018 C 
ENDBRANCH   1   8
TORSDOF 1
ENDMDL
