MODEL 1
REMARK minimizedAffinity -0.836415589
REMARK minimizedRMSD -1
REMARK  2 active torsions:
REMARK  status: ('A' for Active; 'I' for Inactive)
REMARK    1  A    between atoms: C1_2  and  C2_3 
REMARK    2  A    between atoms: C2_3  and  C3_4 
ROOT
ATOM      1  C3  UNL d   1      -0.333   2.682  -3.051  0.00  0.00    -0.075 A 
ATOM      2  C4  UNL d   1      -1.139   2.284  -4.127  0.00  0.00     0.002 A 
ATOM      3  C5  UNL d   1      -2.276   1.505  -3.911  0.00  0.00     0.002 A 
ATOM      4  C6  UNL d   1      -2.615   1.105  -2.620  0.00  0.00    -0.004 A 
ATOM      5  C7  UNL d   1      -1.813   1.481  -1.545  0.00  0.00     0.002 A 
ATOM      6  C8  UNL d   1      -0.677   2.265  -1.758  0.00  0.00     0.002 A 
ENDROOT
BRANCH   1   7
ATOM      7  C2  UNL d   1       0.882   3.550  -3.275  0.00  0.00     0.056 C 
BRANCH   7   8
ATOM      8  C1  UNL d   1       0.759   4.499  -4.472  0.00  0.00     0.007 C 
ATOM      9  C   UNL d   1       1.498   5.815  -4.273  0.00  0.00     0.009 C 
ENDBRANCH   7   8
ENDBRANCH   1   7
TORSDOF 2
ENDMDL
