MODEL 1
REMARK minimizedAffinity -3.93234706
REMARK minimizedRMSD -1
REMARK  2 active torsions:
REMARK  status: ('A' for Active; 'I' for Inactive)
REMARK    1  A    between atoms: C1_2  and  C2_3 
REMARK    2  A    between atoms: C2_3  and  C3_4 
ROOT
ATOM      1  C3  UNL d   1      -0.376   1.104  -0.989  0.00  0.00    -0.075 A 
ATOM      2  C4  UNL d   1      -1.688   1.582  -0.861  0.00  0.00     0.002 A 
ATOM      3  C5  UNL d   1      -2.265   2.348  -1.874  0.00  0.00     0.002 A 
ATOM      4  C6  UNL d   1      -1.537   2.654  -3.021  0.00  0.00    -0.004 A 
ATOM      5  C7  UNL d   1      -0.227   2.198  -3.152  0.00  0.00     0.002 A 
ATOM      6  C8  UNL d   1       0.352   1.427  -2.142  0.00  0.00     0.002 A 
ENDROOT
BRANCH   1   7
ATOM      7  C2  UNL d   1       0.245   0.249   0.090  0.00  0.00     0.056 C 
BRANCH   7   8
ATOM      8  C1  UNL d   1       1.722  -0.080  -0.147  0.00  0.00     0.007 C 
ATOM      9  C   UNL d   1       2.252  -1.165   0.781  0.00  0.00     0.009 C 
ENDBRANCH   7   8
ENDBRANCH   1   7
TORSDOF 2
ENDMDL
