MODEL 1
REMARK minimizedAffinity -4.87517548
REMARK minimizedRMSD -1
REMARK  2 active torsions:
REMARK  status: ('A' for Active; 'I' for Inactive)
REMARK    1  A    between atoms: C1_2  and  C2_3 
REMARK    2  A    between atoms: C2_3  and  C3_4 
ROOT
ATOM      1  C3  UNL d   1      -0.868   1.261  -1.176  0.00  0.00    -0.075 A 
ATOM      2  C4  UNL d   1      -2.249   1.047  -1.300  0.00  0.00     0.002 A 
ATOM      3  C5  UNL d   1      -2.902   1.312  -2.504  0.00  0.00     0.002 A 
ATOM      4  C6  UNL d   1      -2.187   1.804  -3.594  0.00  0.00    -0.004 A 
ATOM      5  C7  UNL d   1      -0.818   2.037  -3.477  0.00  0.00     0.002 A 
ATOM      6  C8  UNL d   1      -0.161   1.768  -2.275  0.00  0.00     0.002 A 
ENDROOT
BRANCH   1   7
ATOM      7  C2  UNL d   1      -0.151   0.948   0.115  0.00  0.00     0.056 C 
BRANCH   7   8
ATOM      8  C1  UNL d   1       1.219   0.289  -0.077  0.00  0.00     0.007 C 
ATOM      9  C   UNL d   1       1.303  -1.106   0.529  0.00  0.00     0.009 C 
ENDBRANCH   7   8
ENDBRANCH   1   7
TORSDOF 2
ENDMDL
