MODEL 1
REMARK minimizedAffinity -4.31097603
REMARK minimizedRMSD -1
REMARK  2 active torsions:
REMARK  status: ('A' for Active; 'I' for Inactive)
REMARK    1  A    between atoms: C1_2  and  C2_3 
REMARK    2  A    between atoms: C2_3  and  C3_4 
ROOT
ATOM      1  C3  UNL d   1      -0.384   0.897  -0.433  0.00  0.00    -0.075 A 
ATOM      2  C4  UNL d   1      -0.696  -0.097   0.506  0.00  0.00     0.002 A 
ATOM      3  C5  UNL d   1       0.289  -0.973   0.965  0.00  0.00     0.002 A 
ATOM      4  C6  UNL d   1       1.592  -0.874   0.483  0.00  0.00    -0.004 A 
ATOM      5  C7  UNL d   1       1.910   0.098  -0.463  0.00  0.00     0.002 A 
ATOM      6  C8  UNL d   1       0.928   0.979  -0.920  0.00  0.00     0.002 A 
ENDROOT
BRANCH   1   7
ATOM      7  C2  UNL d   1      -1.438   1.867  -0.911  0.00  0.00     0.056 C 
BRANCH   7   8
ATOM      8  C1  UNL d   1      -2.440   1.262  -1.899  0.00  0.00     0.007 C 
ATOM      9  C   UNL d   1      -1.896   1.155  -3.317  0.00  0.00     0.009 C 
ENDBRANCH   7   8
ENDBRANCH   1   7
TORSDOF 2
ENDMDL
