MODEL 1
REMARK minimizedAffinity -3.71182203
REMARK minimizedRMSD -1
REMARK  2 active torsions:
REMARK  status: ('A' for Active; 'I' for Inactive)
REMARK    1  A    between atoms: C1_2  and  C2_3 
REMARK    2  A    between atoms: C2_3  and  C3_4 
ROOT
ATOM      1  C3  UNL d   1      -0.131  -0.093   0.233  0.00  0.00    -0.075 A 
ATOM      2  C4  UNL d   1       0.968  -0.482  -0.547  0.00  0.00     0.002 A 
ATOM      3  C5  UNL d   1       1.980  -1.272  -0.001  0.00  0.00     0.002 A 
ATOM      4  C6  UNL d   1       1.912  -1.674   1.331  0.00  0.00    -0.004 A 
ATOM      5  C7  UNL d   1       0.833  -1.280   2.119  0.00  0.00     0.002 A 
ATOM      6  C8  UNL d   1      -0.183  -0.493   1.575  0.00  0.00     0.002 A 
ENDROOT
BRANCH   1   7
ATOM      7  C2  UNL d   1      -1.243   0.738  -0.360  0.00  0.00     0.056 C 
BRANCH   7   8
ATOM      8  C1  UNL d   1      -1.266   0.748  -1.892  0.00  0.00     0.007 C 
ATOM      9  C   UNL d   1      -2.431   1.540  -2.470  0.00  0.00     0.009 C 
ENDBRANCH   7   8
ENDBRANCH   1   7
TORSDOF 2
ENDMDL
