MODEL 1
REMARK minimizedAffinity -4.66778469
REMARK minimizedRMSD -1
REMARK  2 active torsions:
REMARK  status: ('A' for Active; 'I' for Inactive)
REMARK    1  A    between atoms: C1_2  and  C2_3 
REMARK    2  A    between atoms: C2_3  and  C3_4 
ROOT
ATOM      1  C3  UNL d   1       0.041   1.062  -0.621  0.00  0.00    -0.075 A 
ATOM      2  C4  UNL d   1       1.408   1.286  -0.838  0.00  0.00     0.002 A 
ATOM      3  C5  UNL d   1       2.359   0.393  -0.343  0.00  0.00     0.002 A 
ATOM      4  C6  UNL d   1       1.958  -0.726   0.382  0.00  0.00    -0.004 A 
ATOM      5  C7  UNL d   1       0.603  -0.950   0.618  0.00  0.00     0.002 A 
ATOM      6  C8  UNL d   1      -0.351  -0.060   0.121  0.00  0.00     0.002 A 
ENDROOT
BRANCH   1   7
ATOM      7  C2  UNL d   1      -0.995   2.009  -1.179  0.00  0.00     0.056 C 
BRANCH   7   8
ATOM      8  C1  UNL d   1      -2.196   1.309  -1.823  0.00  0.00     0.007 C 
ATOM      9  C   UNL d   1      -2.108   1.242  -3.342  0.00  0.00     0.009 C 
ENDBRANCH   7   8
ENDBRANCH   1   7
TORSDOF 2
ENDMDL
