MODEL 1
REMARK minimizedAffinity -2.12522268
REMARK minimizedRMSD -1
REMARK  2 active torsions:
REMARK  status: ('A' for Active; 'I' for Inactive)
REMARK    1  A    between atoms: C1_2  and  C2_3 
REMARK    2  A    between atoms: C2_3  and  C3_4 
ROOT
ATOM      1  C3  UNL d   1      -1.231   1.521  -1.216  0.00  0.00    -0.075 A 
ATOM      2  C4  UNL d   1      -2.413   0.836  -1.532  0.00  0.00     0.002 A 
ATOM      3  C5  UNL d   1      -3.101   1.116  -2.712  0.00  0.00     0.002 A 
ATOM      4  C6  UNL d   1      -2.623   2.091  -3.586  0.00  0.00    -0.004 A 
ATOM      5  C7  UNL d   1      -1.459   2.789  -3.275  0.00  0.00     0.002 A 
ATOM      6  C8  UNL d   1      -0.766   2.507  -2.096  0.00  0.00     0.002 A 
ENDROOT
BRANCH   1   7
ATOM      7  C2  UNL d   1      -0.466   1.201   0.046  0.00  0.00     0.056 C 
BRANCH   7   8
ATOM      8  C1  UNL d   1       0.149  -0.203   0.064  0.00  0.00     0.007 C 
ATOM      9  C   UNL d   1       1.670  -0.193  -0.002  0.00  0.00     0.009 C 
ENDBRANCH   7   8
ENDBRANCH   1   7
TORSDOF 2
ENDMDL
