MODEL 1
REMARK minimizedAffinity -4.28926849
REMARK minimizedRMSD -1
REMARK  2 active torsions:
REMARK  status: ('A' for Active; 'I' for Inactive)
REMARK    1  A    between atoms: C1_2  and  C2_3 
REMARK    2  A    between atoms: C2_3  and  C3_4 
ROOT
ATOM      1  C3  UNL d   1       0.125   0.595  -0.546  0.00  0.00    -0.075 A 
ATOM      2  C4  UNL d   1       1.505   0.552  -0.796  0.00  0.00     0.002 A 
ATOM      3  C5  UNL d   1       2.294  -0.458  -0.245  0.00  0.00     0.002 A 
ATOM      4  C6  UNL d   1       1.717  -1.429   0.571  0.00  0.00    -0.004 A 
ATOM      5  C7  UNL d   1       0.351  -1.387   0.840  0.00  0.00     0.002 A 
ATOM      6  C8  UNL d   1      -0.442  -0.380   0.286  0.00  0.00     0.002 A 
ENDROOT
BRANCH   1   7
ATOM      7  C2  UNL d   1      -0.739   1.668  -1.163  0.00  0.00     0.056 C 
BRANCH   7   8
ATOM      8  C1  UNL d   1      -1.952   1.129  -1.929  0.00  0.00     0.007 C 
ATOM      9  C   UNL d   1      -1.889   1.405  -3.425  0.00  0.00     0.009 C 
ENDBRANCH   7   8
ENDBRANCH   1   7
TORSDOF 2
ENDMDL
