MODEL 1
REMARK minimizedAffinity -4.49731684
REMARK minimizedRMSD -1
REMARK  2 active torsions:
REMARK  status: ('A' for Active; 'I' for Inactive)
REMARK    1  A    between atoms: C1_2  and  C2_3 
REMARK    2  A    between atoms: C2_3  and  C3_4 
ROOT
ATOM      1  C3  UNL d   1      -0.308   0.119   0.559  0.00  0.00    -0.075 A 
ATOM      2  C4  UNL d   1      -1.268  -0.286   1.497  0.00  0.00     0.002 A 
ATOM      3  C5  UNL d   1      -0.977  -1.294   2.418  0.00  0.00     0.002 A 
ATOM      4  C6  UNL d   1       0.270  -1.914   2.405  0.00  0.00    -0.004 A 
ATOM      5  C7  UNL d   1       1.226  -1.531   1.467  0.00  0.00     0.002 A 
ATOM      6  C8  UNL d   1       0.939  -0.520   0.548  0.00  0.00     0.002 A 
ENDROOT
BRANCH   1   7
ATOM      7  C2  UNL d   1      -0.605   1.229  -0.421  0.00  0.00     0.056 C 
BRANCH   7   8
ATOM      8  C1  UNL d   1      -1.705   0.889  -1.433  0.00  0.00     0.007 C 
ATOM      9  C   UNL d   1      -1.558   1.635  -2.752  0.00  0.00     0.009 C 
ENDBRANCH   7   8
ENDBRANCH   1   7
TORSDOF 2
ENDMDL
