MODEL 1
REMARK minimizedAffinity -0.474197686
REMARK minimizedRMSD -1
REMARK  2 active torsions:
REMARK  status: ('A' for Active; 'I' for Inactive)
REMARK    1  A    between atoms: C1_2  and  C2_3 
REMARK    2  A    between atoms: C2_3  and  C3_4 
ROOT
ATOM      1  C3  UNL d   1       1.140   0.332  -0.195  0.00  0.00    -0.075 A 
ATOM      2  C4  UNL d   1       1.817   0.343  -1.423  0.00  0.00     0.002 A 
ATOM      3  C5  UNL d   1       3.108  -0.176  -1.524  0.00  0.00     0.002 A 
ATOM      4  C6  UNL d   1       3.741  -0.702  -0.400  0.00  0.00    -0.004 A 
ATOM      5  C7  UNL d   1       3.084  -0.704   0.828  0.00  0.00     0.002 A 
ATOM      6  C8  UNL d   1       1.790  -0.189   0.932  0.00  0.00     0.002 A 
ENDROOT
BRANCH   1   7
ATOM      7  C2  UNL d   1      -0.269   0.865  -0.085  0.00  0.00     0.056 C 
BRANCH   7   8
ATOM      8  C1  UNL d   1      -1.306  -0.190   0.315  0.00  0.00     0.007 C 
ATOM      9  C   UNL d   1      -1.668  -0.145   1.793  0.00  0.00     0.009 C 
ENDBRANCH   7   8
ENDBRANCH   1   7
TORSDOF 2
ENDMDL
