MODEL 1
REMARK minimizedAffinity 0.913649023
REMARK minimizedRMSD -1
REMARK  2 active torsions:
REMARK  status: ('A' for Active; 'I' for Inactive)
REMARK    1  A    between atoms: C1_2  and  C2_3 
REMARK    2  A    between atoms: C2_3  and  C3_4 
ROOT
ATOM      1  C3  UNL d   1       1.170  -0.101   0.025  0.00  0.00    -0.075 A 
ATOM      2  C4  UNL d   1       1.989   0.084  -1.098  0.00  0.00     0.002 A 
ATOM      3  C5  UNL d   1       3.155  -0.666  -1.255  0.00  0.00     0.002 A 
ATOM      4  C6  UNL d   1       3.522  -1.600  -0.289  0.00  0.00    -0.004 A 
ATOM      5  C7  UNL d   1       2.724  -1.780   0.839  0.00  0.00     0.002 A 
ATOM      6  C8  UNL d   1       1.555  -1.034   0.996  0.00  0.00     0.002 A 
ENDROOT
BRANCH   1   7
ATOM      7  C2  UNL d   1      -0.109   0.686   0.186  0.00  0.00     0.056 C 
BRANCH   7   8
ATOM      8  C1  UNL d   1      -1.317  -0.164   0.593  0.00  0.00     0.007 C 
ATOM      9  C   UNL d   1      -1.445  -0.342   2.100  0.00  0.00     0.009 C 
ENDBRANCH   7   8
ENDBRANCH   1   7
TORSDOF 2
ENDMDL
