MODEL 1
REMARK minimizedAffinity -2.36787415
REMARK minimizedRMSD -1
REMARK  2 active torsions:
REMARK  status: ('A' for Active; 'I' for Inactive)
REMARK    1  A    between atoms: C1_2  and  C2_3 
REMARK    2  A    between atoms: C2_3  and  C3_4 
ROOT
ATOM      1  C3  UNL d   1       0.342   0.340  -0.103  0.00  0.00    -0.075 A 
ATOM      2  C4  UNL d   1       0.229  -0.052   1.239  0.00  0.00     0.002 A 
ATOM      3  C5  UNL d   1      -0.980   0.094   1.920  0.00  0.00     0.002 A 
ATOM      4  C6  UNL d   1      -2.086   0.642   1.274  0.00  0.00    -0.004 A 
ATOM      5  C7  UNL d   1      -1.980   1.050  -0.054  0.00  0.00     0.002 A 
ATOM      6  C8  UNL d   1      -0.773   0.901  -0.740  0.00  0.00     0.002 A 
ENDROOT
BRANCH   1   7
ATOM      7  C2  UNL d   1       1.639   0.157  -0.854  0.00  0.00     0.056 C 
BRANCH   7   8
ATOM      8  C1  UNL d   1       2.857   0.768  -0.153  0.00  0.00     0.007 C 
ATOM      9  C   UNL d   1       3.772   1.533  -1.099  0.00  0.00     0.009 C 
ENDBRANCH   7   8
ENDBRANCH   1   7
TORSDOF 2
ENDMDL
