MODEL 1
REMARK minimizedAffinity 6.61824179
REMARK minimizedRMSD -1
REMARK  1 active torsions:
REMARK  status: ('A' for Active; 'I' for Inactive)
REMARK    1  A    between atoms: C3_4  and  O_7 
ROOT
ATOM      1  C   UNL d   1      -4.919  -3.107  -5.267  0.00  0.00    -0.033 A 
ATOM      2  C1  UNL d   1      -5.110  -4.286  -5.992  0.00  0.00     0.039 A 
ATOM      3  C2  UNL d   1      -4.120  -5.271  -5.999  0.00  0.00    -0.080 A 
ATOM      4  C3  UNL d   1      -2.947  -5.066  -5.278  0.00  0.00     0.150 A 
ATOM      5  C4  UNL d   1      -2.752  -3.897  -4.551  0.00  0.00    -0.007 A 
ATOM      6  C5  UNL d   1      -3.740  -2.914  -4.546  0.00  0.00     0.039 A 
ENDROOT
BRANCH   4   7
ATOM      7  O   UNL d   1      -1.951  -5.997  -5.259  0.00  0.00    -0.526 OA
ATOM      8  H5  UNL d   1      -2.213  -6.740  -5.829  0.00  0.00     0.418 HD
ENDBRANCH   4   7
TORSDOF 1
ENDMDL
