MODEL 1
REMARK minimizedAffinity 3.98265457
REMARK minimizedRMSD -1
REMARK  1 active torsions:
REMARK  status: ('A' for Active; 'I' for Inactive)
REMARK    1  A    between atoms: C3_4  and  O_7 
ROOT
ATOM      1  C   UNL d   1       1.121  -1.236  -1.871  0.00  0.00    -0.033 A 
ATOM      2  C1  UNL d   1       1.150  -2.385  -2.664  0.00  0.00     0.039 A 
ATOM      3  C2  UNL d   1       2.142  -3.348  -2.465  0.00  0.00    -0.080 A 
ATOM      4  C3  UNL d   1       3.097  -3.150  -1.472  0.00  0.00     0.150 A 
ATOM      5  C4  UNL d   1       3.072  -2.009  -0.676  0.00  0.00    -0.007 A 
ATOM      6  C5  UNL d   1       2.081  -1.049  -0.876  0.00  0.00     0.039 A 
ENDROOT
BRANCH   4   7
ATOM      7  O   UNL d   1       4.087  -4.059  -1.244  0.00  0.00    -0.526 OA
ATOM      8  H5  UNL d   1       3.995  -4.781  -1.888  0.00  0.00     0.418 HD
ENDBRANCH   4   7
TORSDOF 1
ENDMDL
