MODEL 1
REMARK minimizedAffinity 3.14313769
REMARK minimizedRMSD -1
REMARK  1 active torsions:
REMARK  status: ('A' for Active; 'I' for Inactive)
REMARK    1  A    between atoms: C3_4  and  O_7 
ROOT
ATOM      1  C   UNL d   1       1.586  -1.269  -1.445  0.00  0.00    -0.033 A 
ATOM      2  C1  UNL d   1       1.839  -2.628  -1.246  0.00  0.00     0.039 A 
ATOM      3  C2  UNL d   1       3.021  -3.036  -0.626  0.00  0.00    -0.080 A 
ATOM      4  C3  UNL d   1       3.940  -2.077  -0.208  0.00  0.00     0.150 A 
ATOM      5  C4  UNL d   1       3.693  -0.722  -0.400  0.00  0.00    -0.007 A 
ATOM      6  C5  UNL d   1       2.512  -0.316  -1.021  0.00  0.00     0.039 A 
ENDROOT
BRANCH   4   7
ATOM      7  O   UNL d   1       5.110  -2.427   0.398  0.00  0.00    -0.526 OA
ATOM      8  H5  UNL d   1       5.158  -3.397   0.437  0.00  0.00     0.418 HD
ENDBRANCH   4   7
TORSDOF 1
ENDMDL
