MODEL 1
REMARK minimizedAffinity 7.41892529
REMARK minimizedRMSD -1
REMARK  1 active torsions:
REMARK  status: ('A' for Active; 'I' for Inactive)
REMARK    1  A    between atoms: C3_4  and  O_7 
ROOT
ATOM      1  C   UNL d   1       3.428  -3.023  -6.000  0.00  0.00    -0.033 A 
ATOM      2  C1  UNL d   1       3.610  -3.748  -4.821  0.00  0.00     0.039 A 
ATOM      3  C2  UNL d   1       2.999  -3.328  -3.639  0.00  0.00    -0.080 A 
ATOM      4  C3  UNL d   1       2.207  -2.182  -3.649  0.00  0.00     0.150 A 
ATOM      5  C4  UNL d   1       2.018  -1.457  -4.820  0.00  0.00    -0.007 A 
ATOM      6  C5  UNL d   1       2.630  -1.878  -6.000  0.00  0.00     0.039 A 
ENDROOT
BRANCH   4   7
ATOM      7  O   UNL d   1       1.594  -1.730  -2.518  0.00  0.00    -0.526 OA
ATOM      8  H5  UNL d   1       1.837  -2.315  -1.781  0.00  0.00     0.418 HD
ENDBRANCH   4   7
TORSDOF 1
ENDMDL
