MODEL 1
REMARK minimizedAffinity 3.61542988
REMARK minimizedRMSD -1
REMARK  1 active torsions:
REMARK  status: ('A' for Active; 'I' for Inactive)
REMARK    1  A    between atoms: C3_4  and  O_7 
ROOT
ATOM      1  C   UNL d   1       2.013  -3.477  -0.996  0.00  0.00    -0.033 A 
ATOM      2  C1  UNL d   1       0.992  -2.535  -1.139  0.00  0.00     0.039 A 
ATOM      3  C2  UNL d   1       1.304  -1.197  -1.390  0.00  0.00    -0.080 A 
ATOM      4  C3  UNL d   1       2.638  -0.815  -1.497  0.00  0.00     0.150 A 
ATOM      5  C4  UNL d   1       3.660  -1.748  -1.360  0.00  0.00    -0.007 A 
ATOM      6  C5  UNL d   1       3.347  -3.083  -1.108  0.00  0.00     0.039 A 
ENDROOT
BRANCH   4   7
ATOM      7  O   UNL d   1       2.991   0.480  -1.736  0.00  0.00    -0.526 OA
ATOM      8  H5  UNL d   1       2.182   1.017  -1.779  0.00  0.00     0.418 HD
ENDBRANCH   4   7
TORSDOF 1
ENDMDL
