MODEL 1
REMARK minimizedAffinity 6.33370066
REMARK minimizedRMSD -1
REMARK  1 active torsions:
REMARK  status: ('A' for Active; 'I' for Inactive)
REMARK    1  A    between atoms: C3_4  and  O_7 
ROOT
ATOM      1  C   UNL d   1      -2.094  -0.191   2.174  0.00  0.00    -0.033 A 
ATOM      2  C1  UNL d   1      -1.492   0.990   2.614  0.00  0.00     0.039 A 
ATOM      3  C2  UNL d   1      -2.222   1.907   3.373  0.00  0.00    -0.080 A 
ATOM      4  C3  UNL d   1      -3.550   1.631   3.686  0.00  0.00     0.150 A 
ATOM      5  C4  UNL d   1      -4.155   0.455   3.255  0.00  0.00    -0.007 A 
ATOM      6  C5  UNL d   1      -3.425  -0.459   2.496  0.00  0.00     0.039 A 
ENDROOT
BRANCH   4   7
ATOM      7  O   UNL d   1      -4.304   2.497   4.421  0.00  0.00    -0.526 OA
ATOM      8  H5  UNL d   1      -3.764   3.279   4.625  0.00  0.00     0.418 HD
ENDBRANCH   4   7
TORSDOF 1
ENDMDL
