MODEL 1
REMARK minimizedAffinity 7.81523275
REMARK minimizedRMSD -1
REMARK  1 active torsions:
REMARK  status: ('A' for Active; 'I' for Inactive)
REMARK    1  A    between atoms: C3_4  and  O_7 
ROOT
ATOM      1  C   UNL d   1       2.243  -1.579  -1.435  0.00  0.00    -0.033 A 
ATOM      2  C1  UNL d   1       1.565  -1.158  -2.581  0.00  0.00     0.039 A 
ATOM      3  C2  UNL d   1       1.450   0.205  -2.865  0.00  0.00    -0.080 A 
ATOM      4  C3  UNL d   1       2.018   1.134  -1.999  0.00  0.00     0.150 A 
ATOM      5  C4  UNL d   1       2.699   0.721  -0.858  0.00  0.00    -0.007 A 
ATOM      6  C5  UNL d   1       2.811  -0.639  -0.574  0.00  0.00     0.039 A 
ENDROOT
BRANCH   4   7
ATOM      7  O   UNL d   1       1.928   2.474  -2.232  0.00  0.00    -0.526 OA
ATOM      8  H5  UNL d   1       1.406   2.611  -3.040  0.00  0.00     0.418 HD
ENDBRANCH   4   7
TORSDOF 1
ENDMDL
