MODEL 1
REMARK minimizedAffinity 3.50598764
REMARK minimizedRMSD -1
REMARK  1 active torsions:
REMARK  status: ('A' for Active; 'I' for Inactive)
REMARK    1  A    between atoms: C3_4  and  O_7 
ROOT
ATOM      1  C   UNL d   1       0.249  -1.829  -1.281  0.00  0.00    -0.033 A 
ATOM      2  C1  UNL d   1       0.019  -2.313   0.009  0.00  0.00     0.039 A 
ATOM      3  C2  UNL d   1       0.904  -3.229   0.581  0.00  0.00    -0.080 A 
ATOM      4  C3  UNL d   1       2.014  -3.652  -0.146  0.00  0.00     0.150 A 
ATOM      5  C4  UNL d   1       2.251  -3.171  -1.429  0.00  0.00    -0.007 A 
ATOM      6  C5  UNL d   1       1.366  -2.257  -1.999  0.00  0.00     0.039 A 
ENDROOT
BRANCH   4   7
ATOM      7  O   UNL d   1       2.903  -4.548   0.369  0.00  0.00    -0.526 OA
ATOM      8  H5  UNL d   1       2.596  -4.814   1.251  0.00  0.00     0.418 HD
ENDBRANCH   4   7
TORSDOF 1
ENDMDL
