MODEL 1
REMARK minimizedAffinity 4.30077934
REMARK minimizedRMSD -1
REMARK  1 active torsions:
REMARK  status: ('A' for Active; 'I' for Inactive)
REMARK    1  A    between atoms: C3_4  and  O_7 
ROOT
ATOM      1  C   UNL d   1      -5.547  -6.000  -1.427  0.00  0.00    -0.033 A 
ATOM      2  C1  UNL d   1      -4.223  -5.999  -1.872  0.00  0.00     0.039 A 
ATOM      3  C2  UNL d   1      -3.176  -5.918  -0.952  0.00  0.00    -0.080 A 
ATOM      4  C3  UNL d   1      -3.465  -5.840   0.407  0.00  0.00     0.150 A 
ATOM      5  C4  UNL d   1      -4.781  -5.844   0.858  0.00  0.00    -0.007 A 
ATOM      6  C5  UNL d   1      -5.825  -5.924  -0.062  0.00  0.00     0.039 A 
ENDROOT
BRANCH   4   7
ATOM      7  O   UNL d   1      -2.476  -5.755   1.342  0.00  0.00    -0.526 OA
ATOM      8  H5  UNL d   1      -1.620  -5.734   0.883  0.00  0.00     0.418 HD
ENDBRANCH   4   7
TORSDOF 1
ENDMDL
