MODEL 1
REMARK minimizedAffinity -0.0179469939
REMARK minimizedRMSD -1
REMARK  1 active torsions:
REMARK  status: ('A' for Active; 'I' for Inactive)
REMARK    1  A    between atoms: C3_4  and  O_7 
ROOT
ATOM      1  C   UNL d   1      -2.631  -5.280  -5.476  0.00  0.00    -0.033 A 
ATOM      2  C1  UNL d   1      -3.910  -5.477  -5.999  0.00  0.00     0.039 A 
ATOM      3  C2  UNL d   1      -4.836  -4.433  -5.997  0.00  0.00    -0.080 A 
ATOM      4  C3  UNL d   1      -4.471  -3.197  -5.469  0.00  0.00     0.150 A 
ATOM      5  C4  UNL d   1      -3.197  -2.992  -4.949  0.00  0.00    -0.007 A 
ATOM      6  C5  UNL d   1      -2.274  -4.037  -4.952  0.00  0.00     0.039 A 
ENDROOT
BRANCH   4   7
ATOM      7  O   UNL d   1      -5.342  -2.149  -5.440  0.00  0.00    -0.526 OA
ATOM      8  H5  UNL d   1      -6.193  -2.446  -5.806  0.00  0.00     0.418 HD
ENDBRANCH   4   7
TORSDOF 1
ENDMDL
