MODEL 1
REMARK minimizedAffinity 5.96244574
REMARK minimizedRMSD -1
REMARK  1 active torsions:
REMARK  status: ('A' for Active; 'I' for Inactive)
REMARK    1  A    between atoms: C3_4  and  O_7 
ROOT
ATOM      1  C   UNL d   1       2.386   1.185  -2.334  0.00  0.00    -0.033 A 
ATOM      2  C1  UNL d   1       2.634   1.098  -0.963  0.00  0.00     0.039 A 
ATOM      3  C2  UNL d   1       2.473  -0.119  -0.298  0.00  0.00    -0.080 A 
ATOM      4  C3  UNL d   1       2.065  -1.240  -1.016  0.00  0.00     0.150 A 
ATOM      5  C4  UNL d   1       1.820  -1.162  -2.382  0.00  0.00    -0.007 A 
ATOM      6  C5  UNL d   1       1.980   0.055  -3.044  0.00  0.00     0.039 A 
ENDROOT
BRANCH   4   7
ATOM      7  O   UNL d   1       1.890  -2.449  -0.410  0.00  0.00    -0.526 OA
ATOM      8  H5  UNL d   1       2.068  -2.346   0.540  0.00  0.00     0.418 HD
ENDBRANCH   4   7
TORSDOF 1
ENDMDL
