MODEL 1
REMARK minimizedAffinity 2.19961357
REMARK minimizedRMSD -1
REMARK  1 active torsions:
REMARK  status: ('A' for Active; 'I' for Inactive)
REMARK    1  A    between atoms: C3_4  and  O_7 
ROOT
ATOM      1  C   UNL d   1       1.185  -1.353  -1.554  0.00  0.00    -0.033 A 
ATOM      2  C1  UNL d   1       0.314  -2.441  -1.462  0.00  0.00     0.039 A 
ATOM      3  C2  UNL d   1       0.792  -3.687  -1.053  0.00  0.00    -0.080 A 
ATOM      4  C3  UNL d   1       2.140  -3.832  -0.737  0.00  0.00     0.150 A 
ATOM      5  C4  UNL d   1       3.012  -2.752  -0.822  0.00  0.00    -0.007 A 
ATOM      6  C5  UNL d   1       2.534  -1.508  -1.233  0.00  0.00     0.039 A 
ENDROOT
BRANCH   4   7
ATOM      7  O   UNL d   1       2.654  -5.030  -0.337  0.00  0.00    -0.526 OA
ATOM      8  H5  UNL d   1       1.942  -5.691  -0.352  0.00  0.00     0.418 HD
ENDBRANCH   4   7
TORSDOF 1
ENDMDL
