MODEL 1
REMARK minimizedAffinity 5.59413862
REMARK minimizedRMSD -1
REMARK  1 active torsions:
REMARK  status: ('A' for Active; 'I' for Inactive)
REMARK    1  A    between atoms: C3_4  and  O_7 
ROOT
ATOM      1  C   UNL d   1       2.965  -2.245  -6.000  0.00  0.00    -0.033 A 
ATOM      2  C1  UNL d   1       1.876  -1.371  -6.000  0.00  0.00     0.039 A 
ATOM      3  C2  UNL d   1       1.180  -1.120  -4.816  0.00  0.00    -0.080 A 
ATOM      4  C3  UNL d   1       1.583  -1.748  -3.640  0.00  0.00     0.150 A 
ATOM      5  C4  UNL d   1       2.669  -2.616  -3.632  0.00  0.00    -0.007 A 
ATOM      6  C5  UNL d   1       3.363  -2.866  -4.815  0.00  0.00     0.039 A 
ENDROOT
BRANCH   4   7
ATOM      7  O   UNL d   1       0.932  -1.538  -2.461  0.00  0.00    -0.526 OA
ATOM      8  H5  UNL d   1       0.185  -0.937  -2.624  0.00  0.00     0.418 HD
ENDBRANCH   4   7
TORSDOF 1
ENDMDL
