MODEL 1
REMARK minimizedAffinity 4.71687555
REMARK minimizedRMSD -1
REMARK  1 active torsions:
REMARK  status: ('A' for Active; 'I' for Inactive)
REMARK    1  A    between atoms: C3_4  and  O_7 
ROOT
ATOM      1  C   UNL d   1       2.086  -2.495  -0.713  0.00  0.00    -0.033 A 
ATOM      2  C1  UNL d   1       1.762  -3.852  -0.652  0.00  0.00     0.039 A 
ATOM      3  C2  UNL d   1       0.572  -4.313  -1.216  0.00  0.00    -0.080 A 
ATOM      4  C3  UNL d   1      -0.285  -3.410  -1.838  0.00  0.00     0.150 A 
ATOM      5  C4  UNL d   1       0.033  -2.057  -1.907  0.00  0.00    -0.007 A 
ATOM      6  C5  UNL d   1       1.222  -1.598  -1.342  0.00  0.00     0.039 A 
ENDROOT
BRANCH   4   7
ATOM      7  O   UNL d   1      -1.461  -3.812  -2.399  0.00  0.00    -0.526 OA
ATOM      8  H5  UNL d   1      -1.561  -4.767  -2.251  0.00  0.00     0.418 HD
ENDBRANCH   4   7
TORSDOF 1
ENDMDL
