MODEL 1
REMARK minimizedAffinity 0.122804396
REMARK minimizedRMSD -1
REMARK  1 active torsions:
REMARK  status: ('A' for Active; 'I' for Inactive)
REMARK    1  A    between atoms: C3_4  and  O_7 
ROOT
ATOM      1  C   UNL d   1       0.059  -1.949  -2.458  0.00  0.00    -0.033 A 
ATOM      2  C1  UNL d   1      -0.191  -2.718  -1.320  0.00  0.00     0.039 A 
ATOM      3  C2  UNL d   1       0.862  -3.092  -0.483  0.00  0.00    -0.080 A 
ATOM      4  C3  UNL d   1       2.158  -2.689  -0.794  0.00  0.00     0.150 A 
ATOM      5  C4  UNL d   1       2.414  -1.920  -1.924  0.00  0.00    -0.007 A 
ATOM      6  C5  UNL d   1       1.361  -1.549  -2.760  0.00  0.00     0.039 A 
ENDROOT
BRANCH   4   7
ATOM      7  O   UNL d   1       3.218  -3.034  -0.010  0.00  0.00    -0.526 OA
ATOM      8  H5  UNL d   1       2.895  -3.589   0.719  0.00  0.00     0.418 HD
ENDBRANCH   4   7
TORSDOF 1
ENDMDL
