MODEL 1
REMARK minimizedAffinity 5.96396303
REMARK minimizedRMSD -1
REMARK  1 active torsions:
REMARK  status: ('A' for Active; 'I' for Inactive)
REMARK    1  A    between atoms: C3_4  and  O_7 
ROOT
ATOM      1  C   UNL d   1      -3.443  -0.660   2.037  0.00  0.00    -0.033 A 
ATOM      2  C1  UNL d   1      -2.657   0.415   2.457  0.00  0.00     0.039 A 
ATOM      3  C2  UNL d   1      -3.163   1.333   3.379  0.00  0.00    -0.080 A 
ATOM      4  C3  UNL d   1      -4.453   1.164   3.874  0.00  0.00     0.150 A 
ATOM      5  C4  UNL d   1      -5.240   0.093   3.463  0.00  0.00    -0.007 A 
ATOM      6  C5  UNL d   1      -4.734  -0.822   2.541  0.00  0.00     0.039 A 
ENDROOT
BRANCH   4   7
ATOM      7  O   UNL d   1      -4.992   2.036   4.773  0.00  0.00    -0.526 OA
ATOM      8  H5  UNL d   1      -4.345   2.741   4.943  0.00  0.00     0.418 HD
ENDBRANCH   4   7
TORSDOF 1
ENDMDL
