MODEL 1
REMARK minimizedAffinity 8.44464684
REMARK minimizedRMSD -1
REMARK  1 active torsions:
REMARK  status: ('A' for Active; 'I' for Inactive)
REMARK    1  A    between atoms: C1_2  and  C2_3 
ROOT
ATOM      1  C2  UNL d   1      -0.405   2.655  -1.033  0.00  0.00    -0.077 A 
ATOM      2  C3  UNL d   1      -0.826   1.579  -0.239  0.00  0.00     0.002 A 
ATOM      3  C4  UNL d   1      -0.288   1.390   1.036  0.00  0.00     0.002 A 
ATOM      4  C5  UNL d   1       0.669   2.274   1.529  0.00  0.00    -0.004 A 
ATOM      5  C6  UNL d   1       1.096   3.346   0.746  0.00  0.00     0.002 A 
ATOM      6  C7  UNL d   1       0.561   3.536  -0.529  0.00  0.00     0.002 A 
ENDROOT
BRANCH   1   7
ATOM      7  C1  UNL d   1      -1.019   2.890  -2.388  0.00  0.00     0.055 C 
ATOM      8  C   UNL d   1      -2.453   2.384  -2.441  0.00  0.00     0.019 C 
ENDBRANCH   1   7
TORSDOF 1
ENDMDL
