MODEL 1
REMARK minimizedAffinity 16.9237041
REMARK minimizedRMSD -1
REMARK  1 active torsions:
REMARK  status: ('A' for Active; 'I' for Inactive)
REMARK    1  A    between atoms: C1_2  and  C2_3 
ROOT
ATOM      1  C2  UNL d   1       1.859  -3.310  -0.611  0.00  0.00    -0.077 A 
ATOM      2  C3  UNL d   1       1.868  -1.908  -0.596  0.00  0.00     0.002 A 
ATOM      3  C4  UNL d   1       3.029  -1.213  -0.252  0.00  0.00     0.002 A 
ATOM      4  C5  UNL d   1       4.190  -1.911   0.074  0.00  0.00    -0.004 A 
ATOM      5  C6  UNL d   1       4.191  -3.305   0.063  0.00  0.00     0.002 A 
ATOM      6  C7  UNL d   1       3.031  -4.001  -0.279  0.00  0.00     0.002 A 
ENDROOT
BRANCH   1   7
ATOM      7  C1  UNL d   1       0.622  -4.061  -1.029  0.00  0.00     0.055 C 
ATOM      8  C   UNL d   1       0.950  -5.496  -1.415  0.00  0.00     0.019 C 
ENDBRANCH   1   7
TORSDOF 1
ENDMDL
