MODEL 1
REMARK minimizedAffinity -3.45153451
REMARK minimizedRMSD -1
REMARK  1 active torsions:
REMARK  status: ('A' for Active; 'I' for Inactive)
REMARK    1  A    between atoms: C1_2  and  C2_3 
ROOT
ATOM      1  C2  UNL d   1       1.159  -5.062  -4.154  0.00  0.00    -0.077 A 
ATOM      2  C3  UNL d   1       1.096  -5.533  -2.835  0.00  0.00     0.002 A 
ATOM      3  C4  UNL d   1       2.246  -6.000  -2.196  0.00  0.00     0.002 A 
ATOM      4  C5  UNL d   1       3.467  -5.995  -2.865  0.00  0.00    -0.004 A 
ATOM      5  C6  UNL d   1       3.540  -5.530  -4.178  0.00  0.00     0.002 A 
ATOM      6  C7  UNL d   1       2.392  -5.065  -4.819  0.00  0.00     0.002 A 
ENDROOT
BRANCH   1   7
ATOM      7  C1  UNL d   1      -0.071  -4.512  -4.828  0.00  0.00     0.055 C 
ATOM      8  C   UNL d   1      -0.846  -5.609  -5.544  0.00  0.00     0.019 C 
ENDBRANCH   1   7
TORSDOF 1
ENDMDL
