MODEL 1
REMARK minimizedAffinity 6.13731766
REMARK minimizedRMSD -1
REMARK  1 active torsions:
REMARK  status: ('A' for Active; 'I' for Inactive)
REMARK    1  A    between atoms: C1_2  and  C2_3 
ROOT
ATOM      1  C2  UNL d   1      -2.451  -3.752  -5.950  0.00  0.00    -0.077 A 
ATOM      2  C3  UNL d   1      -3.755  -3.237  -5.973  0.00  0.00     0.002 A 
ATOM      3  C4  UNL d   1      -4.854  -4.098  -6.000  0.00  0.00     0.002 A 
ATOM      4  C5  UNL d   1      -4.660  -5.478  -5.999  0.00  0.00    -0.004 A 
ATOM      5  C6  UNL d   1      -3.367  -6.000  -5.978  0.00  0.00     0.002 A 
ATOM      6  C7  UNL d   1      -2.268  -5.141  -5.953  0.00  0.00     0.002 A 
ENDROOT
BRANCH   1   7
ATOM      7  C1  UNL d   1      -1.266  -2.826  -5.871  0.00  0.00     0.055 C 
ATOM      8  C   UNL d   1       0.039  -3.603  -5.783  0.00  0.00     0.019 C 
ENDBRANCH   1   7
TORSDOF 1
ENDMDL
