MODEL 1
REMARK minimizedAffinity 7.39847755
REMARK minimizedRMSD -1
REMARK  1 active torsions:
REMARK  status: ('A' for Active; 'I' for Inactive)
REMARK    1  A    between atoms: C1_2  and  C2_3 
ROOT
ATOM      1  C2  UNL d   1      -2.661  -3.876  -5.834  0.00  0.00    -0.077 A 
ATOM      2  C3  UNL d   1      -3.895  -3.231  -6.000  0.00  0.00     0.002 A 
ATOM      3  C4  UNL d   1      -5.082  -3.967  -5.996  0.00  0.00     0.002 A 
ATOM      4  C5  UNL d   1      -5.047  -5.348  -5.822  0.00  0.00    -0.004 A 
ATOM      5  C6  UNL d   1      -3.825  -5.999  -5.659  0.00  0.00     0.002 A 
ATOM      6  C7  UNL d   1      -2.637  -5.266  -5.664  0.00  0.00     0.002 A 
ENDROOT
BRANCH   1   7
ATOM      7  C1  UNL d   1      -1.383  -3.079  -5.788  0.00  0.00     0.055 C 
ATOM      8  C   UNL d   1      -1.651  -1.593  -5.970  0.00  0.00     0.019 C 
ENDBRANCH   1   7
TORSDOF 1
ENDMDL
