MODEL 1
REMARK minimizedAffinity 5.16521454
REMARK minimizedRMSD -1
REMARK  1 active torsions:
REMARK  status: ('A' for Active; 'I' for Inactive)
REMARK    1  A    between atoms: C1_2  and  C2_3 
ROOT
ATOM      1  C2  UNL d   1      -2.688  -4.107  -5.993  0.00  0.00    -0.077 A 
ATOM      2  C3  UNL d   1      -1.802  -5.194  -5.978  0.00  0.00     0.002 A 
ATOM      3  C4  UNL d   1      -0.422  -4.980  -5.967  0.00  0.00     0.002 A 
ATOM      4  C5  UNL d   1       0.084  -3.682  -5.965  0.00  0.00    -0.004 A 
ATOM      5  C6  UNL d   1      -0.789  -2.595  -5.982  0.00  0.00     0.002 A 
ATOM      6  C7  UNL d   1      -2.169  -2.806  -5.994  0.00  0.00     0.002 A 
ENDROOT
BRANCH   1   7
ATOM      7  C1  UNL d   1      -4.176  -4.335  -5.956  0.00  0.00     0.055 C 
ATOM      8  C   UNL d   1      -4.510  -5.820  -5.989  0.00  0.00     0.019 C 
ENDBRANCH   1   7
TORSDOF 1
ENDMDL
