MODEL 1
REMARK minimizedAffinity 3.78546119
REMARK minimizedRMSD -1
REMARK  1 active torsions:
REMARK  status: ('A' for Active; 'I' for Inactive)
REMARK    1  A    between atoms: C1_2  and  C2_3 
ROOT
ATOM      1  C2  UNL d   1      -4.759  -0.311   2.145  0.00  0.00    -0.077 A 
ATOM      2  C3  UNL d   1      -4.764  -1.623   2.638  0.00  0.00     0.002 A 
ATOM      3  C4  UNL d   1      -5.381  -1.918   3.856  0.00  0.00     0.002 A 
ATOM      4  C5  UNL d   1      -6.000  -0.907   4.588  0.00  0.00    -0.004 A 
ATOM      5  C6  UNL d   1      -5.999   0.402   4.107  0.00  0.00     0.002 A 
ATOM      6  C7  UNL d   1      -5.382   0.698   2.890  0.00  0.00     0.002 A 
ENDROOT
BRANCH   1   7
ATOM      7  C1  UNL d   1      -4.138  -0.000   0.808  0.00  0.00     0.055 C 
ATOM      8  C   UNL d   1      -5.198   0.333  -0.231  0.00  0.00     0.019 C 
ENDBRANCH   1   7
TORSDOF 1
ENDMDL
