MODEL 1
REMARK minimizedAffinity 8.00784397
REMARK minimizedRMSD -1
REMARK  1 active torsions:
REMARK  status: ('A' for Active; 'I' for Inactive)
REMARK    1  A    between atoms: C1_2  and  C2_3 
ROOT
ATOM      1  C2  UNL d   1      -2.763  -4.781  -5.699  0.00  0.00    -0.077 A 
ATOM      2  C3  UNL d   1      -1.400  -5.107  -5.693  0.00  0.00     0.002 A 
ATOM      3  C4  UNL d   1      -0.434  -4.110  -5.840  0.00  0.00     0.002 A 
ATOM      4  C5  UNL d   1      -0.821  -2.780  -5.990  0.00  0.00    -0.004 A 
ATOM      5  C6  UNL d   1      -2.174  -2.445  -5.999  0.00  0.00     0.002 A 
ATOM      6  C7  UNL d   1      -3.141  -3.441  -5.854  0.00  0.00     0.002 A 
ENDROOT
BRANCH   1   7
ATOM      7  C1  UNL d   1      -3.805  -5.849  -5.492  0.00  0.00     0.055 C 
ATOM      8  C   UNL d   1      -5.185  -5.365  -5.911  0.00  0.00     0.019 C 
ENDBRANCH   1   7
TORSDOF 1
ENDMDL
