MODEL 1
REMARK minimizedAffinity 4.18318319
REMARK minimizedRMSD -1
REMARK  1 active torsions:
REMARK  status: ('A' for Active; 'I' for Inactive)
REMARK    1  A    between atoms: C1_2  and  C2_3 
ROOT
ATOM      1  C2  UNL d   1      -1.103  -2.135  -4.801  0.00  0.00    -0.077 A 
ATOM      2  C3  UNL d   1      -1.737  -2.327  -3.566  0.00  0.00     0.002 A 
ATOM      3  C4  UNL d   1      -1.307  -3.335  -2.700  0.00  0.00     0.002 A 
ATOM      4  C5  UNL d   1      -0.238  -4.154  -3.058  0.00  0.00    -0.004 A 
ATOM      5  C6  UNL d   1       0.398  -3.972  -4.285  0.00  0.00     0.002 A 
ATOM      6  C7  UNL d   1      -0.032  -2.966  -5.152  0.00  0.00     0.002 A 
ENDROOT
BRANCH   1   7
ATOM      7  C1  UNL d   1      -1.534  -1.018  -5.715  0.00  0.00     0.055 C 
ATOM      8  C   UNL d   1      -3.027  -1.080  -5.999  0.00  0.00     0.019 C 
ENDBRANCH   1   7
TORSDOF 1
ENDMDL
