MODEL 1
REMARK minimizedAffinity 5.63080597
REMARK minimizedRMSD -1
REMARK  1 active torsions:
REMARK  status: ('A' for Active; 'I' for Inactive)
REMARK    1  A    between atoms: C1_2  and  C2_3 
ROOT
ATOM      1  C2  UNL d   1       2.886  -3.767   0.528  0.00  0.00    -0.077 A 
ATOM      2  C3  UNL d   1       3.619  -4.057   1.687  0.00  0.00     0.002 A 
ATOM      3  C4  UNL d   1       4.747  -4.877   1.623  0.00  0.00     0.002 A 
ATOM      4  C5  UNL d   1       5.155  -5.409   0.402  0.00  0.00    -0.004 A 
ATOM      5  C6  UNL d   1       4.432  -5.128  -0.757  0.00  0.00     0.002 A 
ATOM      6  C7  UNL d   1       3.303  -4.310  -0.694  0.00  0.00     0.002 A 
ENDROOT
BRANCH   1   7
ATOM      7  C1  UNL d   1       1.697  -2.844   0.587  0.00  0.00     0.055 C 
ATOM      8  C   UNL d   1       1.848  -1.684  -0.387  0.00  0.00     0.019 C 
ENDBRANCH   1   7
TORSDOF 1
ENDMDL
