MODEL 1
REMARK minimizedAffinity 6.64030409
REMARK minimizedRMSD -1
REMARK  1 active torsions:
REMARK  status: ('A' for Active; 'I' for Inactive)
REMARK    1  A    between atoms: C1_2  and  C2_3 
ROOT
ATOM      1  C2  UNL d   1       2.768   3.655   4.822  0.00  0.00    -0.077 A 
ATOM      2  C3  UNL d   1       2.009   4.834   4.816  0.00  0.00     0.002 A 
ATOM      3  C4  UNL d   1       2.510   6.000   5.397  0.00  0.00     0.002 A 
ATOM      4  C5  UNL d   1       3.774   6.000   5.985  0.00  0.00    -0.004 A 
ATOM      5  C6  UNL d   1       4.535   4.832   5.998  0.00  0.00     0.002 A 
ATOM      6  C7  UNL d   1       4.035   3.665   5.419  0.00  0.00     0.002 A 
ENDROOT
BRANCH   1   7
ATOM      7  C1  UNL d   1       2.250   2.410   4.152  0.00  0.00     0.055 C 
ATOM      8  C   UNL d   1       3.209   1.919   3.077  0.00  0.00     0.019 C 
ENDBRANCH   1   7
TORSDOF 1
ENDMDL
