MODEL 1
REMARK minimizedAffinity 4.00142193
REMARK minimizedRMSD -1
REMARK  1 active torsions:
REMARK  status: ('A' for Active; 'I' for Inactive)
REMARK    1  A    between atoms: C1_2  and  C2_3 
ROOT
ATOM      1  C2  UNL d   1      -3.776   3.315   5.261  0.00  0.00    -0.077 A 
ATOM      2  C3  UNL d   1      -2.669   4.090   5.634  0.00  0.00     0.002 A 
ATOM      3  C4  UNL d   1      -2.834   5.427   6.000  0.00  0.00     0.002 A 
ATOM      4  C5  UNL d   1      -4.104   6.000   5.999  0.00  0.00    -0.004 A 
ATOM      5  C6  UNL d   1      -5.211   5.238   5.627  0.00  0.00     0.002 A 
ATOM      6  C7  UNL d   1      -5.048   3.902   5.260  0.00  0.00     0.002 A 
ENDROOT
BRANCH   1   7
ATOM      7  C1  UNL d   1      -3.607   1.859   4.913  0.00  0.00     0.055 C 
ATOM      8  C   UNL d   1      -4.502   1.460   3.749  0.00  0.00     0.019 C 
ENDBRANCH   1   7
TORSDOF 1
ENDMDL
