MODEL 1
REMARK minimizedAffinity 1.36775577
REMARK minimizedRMSD -1
REMARK  1 active torsions:
REMARK  status: ('A' for Active; 'I' for Inactive)
REMARK    1  A    between atoms: C1_2  and  C2_3 
ROOT
ATOM      1  C2  UNL d   1       1.032  -1.692   1.345  0.00  0.00    -0.077 A 
ATOM      2  C3  UNL d   1      -0.280  -1.464   0.907  0.00  0.00     0.002 A 
ATOM      3  C4  UNL d   1      -1.182  -0.765   1.711  0.00  0.00     0.002 A 
ATOM      4  C5  UNL d   1      -0.781  -0.285   2.956  0.00  0.00    -0.004 A 
ATOM      5  C6  UNL d   1       0.520  -0.508   3.402  0.00  0.00     0.002 A 
ATOM      6  C7  UNL d   1       1.423  -1.208   2.600  0.00  0.00     0.002 A 
ENDROOT
BRANCH   1   7
ATOM      7  C1  UNL d   1       2.020  -2.403   0.459  0.00  0.00     0.055 C 
ATOM      8  C   UNL d   1       2.267  -3.827   0.935  0.00  0.00     0.019 C 
ENDBRANCH   1   7
TORSDOF 1
ENDMDL
