MODEL 1
REMARK minimizedAffinity 3.20332026
REMARK minimizedRMSD -1
REMARK  1 active torsions:
REMARK  status: ('A' for Active; 'I' for Inactive)
REMARK    1  A    between atoms: C1_2  and  C2_3 
ROOT
ATOM      1  C2  UNL d   1      -3.963   0.328  -2.800  0.00  0.00    -0.077 A 
ATOM      2  C3  UNL d   1      -3.419  -0.923  -2.479  0.00  0.00     0.002 A 
ATOM      3  C4  UNL d   1      -3.847  -2.072  -3.147  0.00  0.00     0.002 A 
ATOM      4  C5  UNL d   1      -4.818  -1.979  -4.142  0.00  0.00    -0.004 A 
ATOM      5  C6  UNL d   1      -5.367  -0.739  -4.467  0.00  0.00     0.002 A 
ATOM      6  C7  UNL d   1      -4.941   0.410  -3.799  0.00  0.00     0.002 A 
ENDROOT
BRANCH   1   7
ATOM      7  C1  UNL d   1      -3.466   1.575  -2.114  0.00  0.00     0.055 C 
ATOM      8  C   UNL d   1      -2.956   2.595  -3.122  0.00  0.00     0.019 C 
ENDBRANCH   1   7
TORSDOF 1
ENDMDL
