MODEL 1
REMARK minimizedAffinity 6.79048347
REMARK minimizedRMSD -1
REMARK  0 active torsions:
REMARK  status: ('A' for Active; 'I' for Inactive)
ROOT
ATOM      1  O1  BZF d   1       0.708   0.050   2.964  0.00  0.00    -0.204 OA
ATOM      2  C2  BZF d   1       0.293   0.811   1.888  0.00  0.00     0.174 A 
ATOM      3  C3  BZF d   1       0.692   0.255   0.726  0.00  0.00    -0.012 A 
ATOM      4  C3A BZF d   1       1.321  -0.976   1.095  0.00  0.00    -0.107 A 
ATOM      5  C4  BZF d   1       1.906  -1.982   0.380  0.00  0.00     0.055 A 
ATOM      6  C5  BZF d   1       2.492  -3.011   1.047  0.00  0.00    -0.016 A 
ATOM      7  C6  BZF d   1       2.515  -3.064   2.425  0.00  0.00     0.022 A 
ATOM      8  C7  BZF d   1       1.943  -2.092   3.177  0.00  0.00     0.029 A 
ATOM      9  C7A BZF d   1       1.322  -1.067   2.506  0.00  0.00     0.058 A 
ENDROOT
TORSDOF 0
ENDMDL
