MODEL 1
REMARK minimizedAffinity 10.0175486
REMARK minimizedRMSD -1
REMARK  0 active torsions:
REMARK  status: ('A' for Active; 'I' for Inactive)
ROOT
ATOM      1  O1  BZF d   1       1.101  -0.282   2.954  0.00  0.00    -0.204 OA
ATOM      2  C2  BZF d   1       1.512  -0.729   1.713  0.00  0.00     0.174 A 
ATOM      3  C3  BZF d   1       2.174  -1.899   1.821  0.00  0.00    -0.012 A 
ATOM      4  C3A BZF d   1       2.096  -2.248   3.206  0.00  0.00    -0.107 A 
ATOM      5  C4  BZF d   1       2.552  -3.311   3.934  0.00  0.00     0.055 A 
ATOM      6  C5  BZF d   1       2.373  -3.314   5.281  0.00  0.00    -0.016 A 
ATOM      7  C6  BZF d   1       1.749  -2.271   5.933  0.00  0.00     0.022 A 
ATOM      8  C7  BZF d   1       1.276  -1.198   5.254  0.00  0.00     0.029 A 
ATOM      9  C7A BZF d   1       1.425  -1.207   3.888  0.00  0.00     0.058 A 
ENDROOT
TORSDOF 0
ENDMDL
