MODEL 1
REMARK minimizedAffinity 9.8893137
REMARK minimizedRMSD -1
REMARK  0 active torsions:
REMARK  status: ('A' for Active; 'I' for Inactive)
ROOT
ATOM      1  O1  BZF d   1       1.632  -2.978   4.942  0.00  0.00    -0.204 OA
ATOM      2  C2  BZF d   1       1.073  -2.285   5.999  0.00  0.00     0.174 A 
ATOM      3  C3  BZF d   1       0.650  -1.068   5.603  0.00  0.00    -0.012 A 
ATOM      4  C3A BZF d   1       0.881  -1.029   4.192  0.00  0.00    -0.107 A 
ATOM      5  C4  BZF d   1       0.653  -0.089   3.228  0.00  0.00     0.055 A 
ATOM      6  C5  BZF d   1       1.061  -0.335   1.956  0.00  0.00    -0.016 A 
ATOM      7  C6  BZF d   1       1.703  -1.506   1.613  0.00  0.00     0.022 A 
ATOM      8  C7  BZF d   1       1.947  -2.471   2.533  0.00  0.00     0.029 A 
ATOM      9  C7A BZF d   1       1.507  -2.240   3.813  0.00  0.00     0.058 A 
ENDROOT
TORSDOF 0
ENDMDL
