MODEL 1
REMARK minimizedAffinity 7.79176331
REMARK minimizedRMSD -1
REMARK  0 active torsions:
REMARK  status: ('A' for Active; 'I' for Inactive)
ROOT
ATOM      1  O1  BZF d   1       0.869   1.405   1.566  0.00  0.00    -0.204 OA
ATOM      2  C2  BZF d   1      -0.142   2.228   1.111  0.00  0.00     0.174 A 
ATOM      3  C3  BZF d   1      -1.209   1.503   0.718  0.00  0.00    -0.012 A 
ATOM      4  C3A BZF d   1      -0.876   0.146   1.027  0.00  0.00    -0.107 A 
ATOM      5  C4  BZF d   1      -1.540  -1.039   0.886  0.00  0.00     0.055 A 
ATOM      6  C5  BZF d   1      -0.907  -2.195   1.218  0.00  0.00    -0.016 A 
ATOM      7  C6  BZF d   1       0.390  -2.202   1.690  0.00  0.00     0.022 A 
ATOM      8  C7  BZF d   1       1.087  -1.051   1.852  0.00  0.00     0.029 A 
ATOM      9  C7A BZF d   1       0.438   0.121   1.548  0.00  0.00     0.058 A 
ENDROOT
TORSDOF 0
ENDMDL
