MODEL 1
REMARK minimizedAffinity 10.8965273
REMARK minimizedRMSD -1
REMARK  0 active torsions:
REMARK  status: ('A' for Active; 'I' for Inactive)
ROOT
ATOM      1  O1  BZF d   1      -3.056  -0.577  -0.431  0.00  0.00    -0.204 OA
ATOM      2  C2  BZF d   1      -3.193  -1.896  -0.045  0.00  0.00     0.174 A 
ATOM      3  C3  BZF d   1      -2.150  -2.284   0.716  0.00  0.00    -0.012 A 
ATOM      4  C3A BZF d   1      -1.353  -1.108   0.889  0.00  0.00    -0.107 A 
ATOM      5  C4  BZF d   1      -0.193  -0.850   1.562  0.00  0.00     0.055 A 
ATOM      6  C5  BZF d   1       0.363   0.386   1.471  0.00  0.00    -0.016 A 
ATOM      7  C6  BZF d   1      -0.210   1.386   0.713  0.00  0.00     0.022 A 
ATOM      8  C7  BZF d   1      -1.364   1.180   0.031  0.00  0.00     0.029 A 
ATOM      9  C7A BZF d   1      -1.945  -0.059   0.148  0.00  0.00     0.058 A 
ENDROOT
TORSDOF 0
ENDMDL
