MODEL 1
REMARK minimizedAffinity 21.2735558
REMARK minimizedRMSD -1
REMARK  0 active torsions:
REMARK  status: ('A' for Active; 'I' for Inactive)
ROOT
ATOM      1  O1  BZF d   1      -0.615  -0.310   1.733  0.00  0.00    -0.204 OA
ATOM      2  C2  BZF d   1       0.043   0.904   1.685  0.00  0.00     0.174 A 
ATOM      3  C3  BZF d   1      -0.387   1.640   0.639  0.00  0.00    -0.012 A 
ATOM      4  C3A BZF d   1      -1.440   0.874   0.048  0.00  0.00    -0.107 A 
ATOM      5  C4  BZF d   1      -2.270   1.083  -1.016  0.00  0.00     0.055 A 
ATOM      6  C5  BZF d   1      -3.142   0.105  -1.376  0.00  0.00    -0.016 A 
ATOM      7  C6  BZF d   1      -3.208  -1.095  -0.698  0.00  0.00     0.022 A 
ATOM      8  C7  BZF d   1      -2.409  -1.346   0.367  0.00  0.00     0.029 A 
ATOM      9  C7A BZF d   1      -1.549  -0.347   0.753  0.00  0.00     0.058 A 
ENDROOT
TORSDOF 0
ENDMDL
