MODEL 1
REMARK minimizedAffinity 6.24076986
REMARK minimizedRMSD -1
REMARK  0 active torsions:
REMARK  status: ('A' for Active; 'I' for Inactive)
ROOT
ATOM      1  O1  BZF d   1       0.978  -3.386   1.266  0.00  0.00    -0.204 OA
ATOM      2  C2  BZF d   1       2.211  -2.890   1.643  0.00  0.00     0.174 A 
ATOM      3  C3  BZF d   1       2.153  -1.556   1.831  0.00  0.00    -0.012 A 
ATOM      4  C3A BZF d   1       0.778  -1.209   1.644  0.00  0.00    -0.107 A 
ATOM      5  C4  BZF d   1       0.089  -0.032   1.714  0.00  0.00     0.055 A 
ATOM      6  C5  BZF d   1      -1.234  -0.022   1.404  0.00  0.00    -0.016 A 
ATOM      7  C6  BZF d   1      -1.898  -1.168   1.015  0.00  0.00     0.022 A 
ATOM      8  C7  BZF d   1      -1.257  -2.359   0.936  0.00  0.00     0.029 A 
ATOM      9  C7A BZF d   1       0.072  -2.379   1.280  0.00  0.00     0.058 A 
ENDROOT
TORSDOF 0
ENDMDL
