MODEL 1
REMARK minimizedAffinity 7.85344887
REMARK minimizedRMSD -1
REMARK  0 active torsions:
REMARK  status: ('A' for Active; 'I' for Inactive)
ROOT
ATOM      1  O1  BZF d   1       0.507   0.863   2.152  0.00  0.00    -0.204 OA
ATOM      2  C2  BZF d   1      -0.106   1.176   0.955  0.00  0.00     0.174 A 
ATOM      3  C3  BZF d   1       0.148   0.232   0.026  0.00  0.00    -0.012 A 
ATOM      4  C3A BZF d   1       0.896  -0.778   0.710  0.00  0.00    -0.107 A 
ATOM      5  C4  BZF d   1       1.426  -1.977   0.326  0.00  0.00     0.055 A 
ATOM      6  C5  BZF d   1       2.163  -2.689   1.218  0.00  0.00    -0.016 A 
ATOM      7  C6  BZF d   1       2.393  -2.232   2.499  0.00  0.00     0.022 A 
ATOM      8  C7  BZF d   1       1.883  -1.052   2.928  0.00  0.00     0.029 A 
ATOM      9  C7A BZF d   1       1.111  -0.345   2.039  0.00  0.00     0.058 A 
ENDROOT
TORSDOF 0
ENDMDL
