MODEL 1
REMARK minimizedAffinity 8.50256062
REMARK minimizedRMSD -1
REMARK  0 active torsions:
REMARK  status: ('A' for Active; 'I' for Inactive)
ROOT
ATOM      1  O1  BZF d   1       1.198  -0.953   2.842  0.00  0.00    -0.204 OA
ATOM      2  C2  BZF d   1       1.675  -1.489   1.661  0.00  0.00     0.174 A 
ATOM      3  C3  BZF d   1       2.353  -2.631   1.894  0.00  0.00    -0.012 A 
ATOM      4  C3A BZF d   1       2.217  -2.869   3.299  0.00  0.00    -0.107 A 
ATOM      5  C4  BZF d   1       2.658  -3.859   4.130  0.00  0.00     0.055 A 
ATOM      6  C5  BZF d   1       2.417  -3.758   5.464  0.00  0.00    -0.016 A 
ATOM      7  C6  BZF d   1       1.743  -2.680   6.000  0.00  0.00     0.022 A 
ATOM      8  C7  BZF d   1       1.282  -1.676   5.214  0.00  0.00     0.029 A 
ATOM      9  C7A BZF d   1       1.496  -1.792   3.862  0.00  0.00     0.058 A 
ENDROOT
TORSDOF 0
ENDMDL
