MODEL 1
REMARK minimizedAffinity 16.2241287
REMARK minimizedRMSD -1
REMARK  0 active torsions:
REMARK  status: ('A' for Active; 'I' for Inactive)
ROOT
ATOM      1  O1  BZF d   1       1.379   0.513   3.240  0.00  0.00    -0.204 OA
ATOM      2  C2  BZF d   1       1.115  -0.064   4.467  0.00  0.00     0.174 A 
ATOM      3  C3  BZF d   1       1.147  -1.409   4.380  0.00  0.00    -0.012 A 
ATOM      4  C3A BZF d   1       1.540  -1.690   3.034  0.00  0.00    -0.107 A 
ATOM      5  C4  BZF d   1       1.763  -2.847   2.342  0.00  0.00     0.055 A 
ATOM      6  C5  BZF d   1       2.065  -2.778   1.019  0.00  0.00    -0.016 A 
ATOM      7  C6  BZF d   1       2.147  -1.572   0.355  0.00  0.00     0.022 A 
ATOM      8  C7  BZF d   1       1.940  -0.397   1.000  0.00  0.00     0.029 A 
ATOM      9  C7A BZF d   1       1.667  -0.462   2.344  0.00  0.00     0.058 A 
ENDROOT
TORSDOF 0
ENDMDL
