MODEL 1
REMARK minimizedAffinity 1.39560711
REMARK minimizedRMSD -1
REMARK  0 active torsions:
REMARK  status: ('A' for Active; 'I' for Inactive)
ROOT
ATOM      1  O1  BZF d   1       5.025  -4.213  -3.789  0.00  0.00    -0.204 OA
ATOM      2  C2  BZF d   1       5.579  -4.999  -4.781  0.00  0.00     0.174 A 
ATOM      3  C3  BZF d   1       5.998  -4.241  -5.814  0.00  0.00    -0.012 A 
ATOM      4  C3A BZF d   1       5.771  -2.889  -5.405  0.00  0.00    -0.107 A 
ATOM      5  C4  BZF d   1       5.998  -1.679  -5.996  0.00  0.00     0.055 A 
ATOM      6  C5  BZF d   1       5.594  -0.547  -5.361  0.00  0.00    -0.016 A 
ATOM      7  C6  BZF d   1       4.957  -0.589  -4.138  0.00  0.00     0.022 A 
ATOM      8  C7  BZF d   1       4.715  -1.766  -3.510  0.00  0.00     0.029 A 
ATOM      9  C7A BZF d   1       5.151  -2.909  -4.135  0.00  0.00     0.058 A 
ENDROOT
TORSDOF 0
ENDMDL
