MODEL 1
REMARK minimizedAffinity 3.8857615
REMARK minimizedRMSD -1
REMARK  0 active torsions:
REMARK  status: ('A' for Active; 'I' for Inactive)
ROOT
ATOM      1  O1  BZF d   1       0.721  -0.688   5.248  0.00  0.00    -0.204 OA
ATOM      2  C2  BZF d   1       1.083  -1.856   5.892  0.00  0.00     0.174 A 
ATOM      3  C3  BZF d   1       1.781  -2.662   5.066  0.00  0.00    -0.012 A 
ATOM      4  C3A BZF d   1       1.940  -1.913   3.857  0.00  0.00    -0.107 A 
ATOM      5  C4  BZF d   1       2.559  -2.172   2.667  0.00  0.00     0.055 A 
ATOM      6  C5  BZF d   1       2.468  -1.260   1.664  0.00  0.00    -0.016 A 
ATOM      7  C6  BZF d   1       1.764  -0.084   1.813  0.00  0.00     0.022 A 
ATOM      8  C7  BZF d   1       1.137   0.219   2.976  0.00  0.00     0.029 A 
ATOM      9  C7A BZF d   1       1.255  -0.685   4.003  0.00  0.00     0.058 A 
ENDROOT
TORSDOF 0
ENDMDL
