MODEL 1
REMARK minimizedAffinity -3.87992835
REMARK minimizedRMSD -1
REMARK  1 active torsions:
REMARK  status: ('A' for Active; 'I' for Inactive)
REMARK    1  A    between atoms: C1_2  and  C2_3 
ROOT
ATOM      1  C2  UNL d   1      -3.912  -0.380   0.200  0.00  0.00    -0.081 A 
ATOM      2  C3  UNL d   1      -2.519  -0.379   0.342  0.00  0.00     0.006 A 
ATOM      3  C4  UNL d   1      -1.936  -0.391   1.612  0.00  0.00     0.002 A 
ATOM      4  C5  UNL d   1      -2.736  -0.413   2.759  0.00  0.00    -0.080 A 
ATOM      5  C6  UNL d   1      -2.124  -0.456   4.128  0.00  0.00     0.076 C 
ATOM      6  C7  UNL d   1      -4.128  -0.396   2.618  0.00  0.00     0.002 A 
ATOM      7  C8  UNL d   1      -4.711  -0.384   1.349  0.00  0.00     0.006 A 
ENDROOT
BRANCH   1   8
ATOM      8  C1  UNL d   1      -4.542  -0.433  -1.168  0.00  0.00     0.054 C 
ATOM      9  C   UNL d   1      -6.000   0.003  -1.123  0.00  0.00     0.018 C 
ENDBRANCH   1   8
TORSDOF 1
ENDMDL
