MODEL 1
REMARK minimizedAffinity 0.258762866
REMARK minimizedRMSD -1
REMARK  1 active torsions:
REMARK  status: ('A' for Active; 'I' for Inactive)
REMARK    1  A    between atoms: C1_2  and  C2_3 
ROOT
ATOM      1  C2  UNL d   1      -2.623   3.218   0.027  0.00  0.00    -0.081 A 
ATOM      2  C3  UNL d   1      -2.918   4.540  -0.327  0.00  0.00     0.006 A 
ATOM      3  C4  UNL d   1      -3.393   5.440   0.630  0.00  0.00     0.002 A 
ATOM      4  C5  UNL d   1      -3.573   5.036   1.957  0.00  0.00    -0.080 A 
ATOM      5  C6  UNL d   1      -4.053   6.000   3.001  0.00  0.00     0.076 C 
ATOM      6  C7  UNL d   1      -3.294   3.710   2.307  0.00  0.00     0.002 A 
ATOM      7  C8  UNL d   1      -2.820   2.810   1.350  0.00  0.00     0.006 A 
ENDROOT
BRANCH   1   8
ATOM      8  C1  UNL d   1      -2.050   2.263  -0.989  0.00  0.00     0.054 C 
ATOM      9  C   UNL d   1      -0.549   2.462  -1.150  0.00  0.00     0.018 C 
ENDBRANCH   1   8
TORSDOF 1
ENDMDL
