MODEL 1
REMARK minimizedAffinity 1.2213918
REMARK minimizedRMSD -1
REMARK  1 active torsions:
REMARK  status: ('A' for Active; 'I' for Inactive)
REMARK    1  A    between atoms: C1_2  and  C2_3 
ROOT
ATOM      1  C2  UNL d   1      -2.864   0.171   1.660  0.00  0.00    -0.081 A 
ATOM      2  C3  UNL d   1      -2.657   1.337   2.407  0.00  0.00     0.006 A 
ATOM      3  C4  UNL d   1      -2.614   2.583   1.777  0.00  0.00     0.002 A 
ATOM      4  C5  UNL d   1      -2.787   2.685   0.392  0.00  0.00    -0.080 A 
ATOM      5  C6  UNL d   1      -2.773   4.019  -0.292  0.00  0.00     0.076 C 
ATOM      6  C7  UNL d   1      -2.977   1.518  -0.356  0.00  0.00     0.002 A 
ATOM      7  C8  UNL d   1      -3.018   0.272   0.273  0.00  0.00     0.006 A 
ENDROOT
BRANCH   1   8
ATOM      8  C1  UNL d   1      -2.975  -1.167   2.344  0.00  0.00     0.054 C 
ATOM      9  C   UNL d   1      -3.514  -1.022   3.761  0.00  0.00     0.018 C 
ENDBRANCH   1   8
TORSDOF 1
ENDMDL
