MODEL 1
REMARK minimizedAffinity 0.471260488
REMARK minimizedRMSD -1
REMARK  1 active torsions:
REMARK  status: ('A' for Active; 'I' for Inactive)
REMARK    1  A    between atoms: C1_2  and  C2_3 
ROOT
ATOM      1  C2  UNL d   1      -3.000   0.536   2.312  0.00  0.00    -0.081 A 
ATOM      2  C3  UNL d   1      -3.298   0.392   0.951  0.00  0.00     0.006 A 
ATOM      3  C4  UNL d   1      -3.278   1.500   0.101  0.00  0.00     0.002 A 
ATOM      4  C5  UNL d   1      -2.953   2.768   0.594  0.00  0.00    -0.080 A 
ATOM      5  C6  UNL d   1      -2.899   3.960  -0.314  0.00  0.00     0.076 C 
ATOM      6  C7  UNL d   1      -2.672   2.915   1.957  0.00  0.00     0.002 A 
ATOM      7  C8  UNL d   1      -2.693   1.808   2.808  0.00  0.00     0.006 A 
ENDROOT
BRANCH   1   8
ATOM      8  C1  UNL d   1      -2.957  -0.667   3.219  0.00  0.00     0.054 C 
ATOM      9  C   UNL d   1      -4.108  -0.651   4.214  0.00  0.00     0.018 C 
ENDBRANCH   1   8
TORSDOF 1
ENDMDL
