MODEL 1
REMARK minimizedAffinity -2.58763003
REMARK minimizedRMSD -1
REMARK  1 active torsions:
REMARK  status: ('A' for Active; 'I' for Inactive)
REMARK    1  A    between atoms: C1_2  and  C2_3 
ROOT
ATOM      1  C2  UNL d   1      -2.949  -0.587   2.439  0.00  0.00    -0.081 A 
ATOM      2  C3  UNL d   1      -4.108  -0.814   3.191  0.00  0.00     0.006 A 
ATOM      3  C4  UNL d   1      -4.617   0.183   4.026  0.00  0.00     0.002 A 
ATOM      4  C5  UNL d   1      -3.982   1.426   4.116  0.00  0.00    -0.080 A 
ATOM      5  C6  UNL d   1      -4.536   2.516   4.985  0.00  0.00     0.076 C 
ATOM      6  C7  UNL d   1      -2.815   1.648   3.378  0.00  0.00     0.002 A 
ATOM      7  C8  UNL d   1      -2.304   0.651   2.543  0.00  0.00     0.006 A 
ENDROOT
BRANCH   1   8
ATOM      8  C1  UNL d   1      -2.433  -1.637   1.489  0.00  0.00     0.054 C 
ATOM      9  C   UNL d   1      -2.536  -1.174   0.042  0.00  0.00     0.018 C 
ENDBRANCH   1   8
TORSDOF 1
ENDMDL
