MODEL 1
REMARK minimizedAffinity -2.75012207
REMARK minimizedRMSD -1
REMARK  1 active torsions:
REMARK  status: ('A' for Active; 'I' for Inactive)
REMARK    1  A    between atoms: C1_2  and  C2_3 
ROOT
ATOM      1  C2  UNL d   1      -2.488  -0.662   1.191  0.00  0.00    -0.081 A 
ATOM      2  C3  UNL d   1      -2.670   0.038  -0.008  0.00  0.00     0.006 A 
ATOM      3  C4  UNL d   1      -2.744   1.433  -0.009  0.00  0.00     0.002 A 
ATOM      4  C5  UNL d   1      -2.629   2.151   1.187  0.00  0.00    -0.080 A 
ATOM      5  C6  UNL d   1      -2.676   3.650   1.196  0.00  0.00     0.076 C 
ATOM      6  C7  UNL d   1      -2.465   1.450   2.387  0.00  0.00     0.002 A 
ATOM      7  C8  UNL d   1      -2.392   0.056   2.388  0.00  0.00     0.006 A 
ENDROOT
BRANCH   1   8
ATOM      8  C1  UNL d   1      -2.344  -2.162   1.188  0.00  0.00     0.054 C 
ATOM      9  C   UNL d   1      -1.540  -2.638  -0.014  0.00  0.00     0.018 C 
ENDBRANCH   1   8
TORSDOF 1
ENDMDL
