MODEL 1
REMARK minimizedAffinity 2.53876925
REMARK minimizedRMSD -1
REMARK  1 active torsions:
REMARK  status: ('A' for Active; 'I' for Inactive)
REMARK    1  A    between atoms: C1_2  and  C2_3 
ROOT
ATOM      1  C2  UNL d   1       5.148   2.562   2.186  0.00  0.00    -0.081 A 
ATOM      2  C3  UNL d   1       4.880   1.431   1.405  0.00  0.00     0.006 A 
ATOM      3  C4  UNL d   1       5.166   0.153   1.889  0.00  0.00     0.002 A 
ATOM      4  C5  UNL d   1       5.716  -0.017   3.164  0.00  0.00    -0.080 A 
ATOM      5  C6  UNL d   1       6.000  -1.386   3.707  0.00  0.00     0.076 C 
ATOM      6  C7  UNL d   1       6.000   1.113   3.937  0.00  0.00     0.002 A 
ATOM      7  C8  UNL d   1       5.715   2.392   3.453  0.00  0.00     0.006 A 
ENDROOT
BRANCH   1   8
ATOM      8  C1  UNL d   1       4.781   3.939   1.693  0.00  0.00     0.054 C 
ATOM      9  C   UNL d   1       3.576   3.891   0.764  0.00  0.00     0.018 C 
ENDBRANCH   1   8
TORSDOF 1
ENDMDL
