MODEL 1
REMARK minimizedAffinity 0.316830307
REMARK minimizedRMSD -1
REMARK  1 active torsions:
REMARK  status: ('A' for Active; 'I' for Inactive)
REMARK    1  A    between atoms: C3_4  and  O_7 
ROOT
ATOM      1  C   UNL d   1      -2.017   1.513  -2.806  0.00  0.00    -0.033 A 
ATOM      2  C1  UNL d   1      -2.513   2.328  -3.826  0.00  0.00     0.039 A 
ATOM      3  C2  UNL d   1      -3.372   3.385  -3.521  0.00  0.00    -0.080 A 
ATOM      4  C3  UNL d   1      -3.726   3.617  -2.195  0.00  0.00     0.150 A 
ATOM      5  C4  UNL d   1      -3.233   2.811  -1.174  0.00  0.00    -0.007 A 
ATOM      6  C5  UNL d   1      -2.376   1.755  -1.480  0.00  0.00     0.039 A 
ENDROOT
BRANCH   4   7
ATOM      7  O   UNL d   1      -4.566   4.634  -1.849  0.00  0.00    -0.526 OA
ATOM      8  H5  UNL d   1      -4.850   5.088  -2.660  0.00  0.00     0.418 HD
ENDBRANCH   4   7
TORSDOF 1
ENDMDL
