MODEL 1
REMARK minimizedAffinity 1.68318868
REMARK minimizedRMSD -1
REMARK  1 active torsions:
REMARK  status: ('A' for Active; 'I' for Inactive)
REMARK    1  A    between atoms: C3_4  and  O_7 
ROOT
ATOM      1  C   UNL d   1       0.158   1.523  -0.550  0.00  0.00    -0.033 A 
ATOM      2  C1  UNL d   1      -0.284   0.321  -1.105  0.00  0.00     0.039 A 
ATOM      3  C2  UNL d   1      -0.601  -0.758  -0.278  0.00  0.00    -0.080 A 
ATOM      4  C3  UNL d   1      -0.473  -0.622   1.102  0.00  0.00     0.150 A 
ATOM      5  C4  UNL d   1      -0.037   0.574   1.662  0.00  0.00    -0.007 A 
ATOM      6  C5  UNL d   1       0.280   1.650   0.834  0.00  0.00     0.039 A 
ENDROOT
BRANCH   4   7
ATOM      7  O   UNL d   1      -0.765  -1.649   1.950  0.00  0.00    -0.526 OA
ATOM      8  H5  UNL d   1      -1.026  -2.420   1.420  0.00  0.00     0.418 HD
ENDBRANCH   4   7
TORSDOF 1
ENDMDL
