MODEL 1
REMARK minimizedAffinity 1.77983117
REMARK minimizedRMSD -1
REMARK  1 active torsions:
REMARK  status: ('A' for Active; 'I' for Inactive)
REMARK    1  A    between atoms: C3_4  and  O_7 
ROOT
ATOM      1  C   UNL d   1      -3.405  -3.836  -2.046  0.00  0.00    -0.033 A 
ATOM      2  C1  UNL d   1      -2.025  -3.625  -2.069  0.00  0.00     0.039 A 
ATOM      3  C2  UNL d   1      -1.502  -2.488  -2.688  0.00  0.00    -0.080 A 
ATOM      4  C3  UNL d   1      -2.367  -1.571  -3.278  0.00  0.00     0.150 A 
ATOM      5  C4  UNL d   1      -3.743  -1.774  -3.256  0.00  0.00    -0.007 A 
ATOM      6  C5  UNL d   1      -4.264  -2.910  -2.638  0.00  0.00     0.039 A 
ENDROOT
BRANCH   4   7
ATOM      7  O   UNL d   1      -1.903  -0.449  -3.898  0.00  0.00    -0.526 OA
ATOM      8  H5  UNL d   1      -0.932  -0.457  -3.861  0.00  0.00     0.418 HD
ENDBRANCH   4   7
TORSDOF 1
ENDMDL
