MODEL 1
REMARK minimizedAffinity 7.33940315
REMARK minimizedRMSD -1
REMARK  1 active torsions:
REMARK  status: ('A' for Active; 'I' for Inactive)
REMARK    1  A    between atoms: C3_4  and  O_7 
ROOT
ATOM      1  C   UNL d   1       5.782  -3.241   6.000  0.00  0.00    -0.033 A 
ATOM      2  C1  UNL d   1       4.489  -3.766   6.000  0.00  0.00     0.039 A 
ATOM      3  C2  UNL d   1       3.408  -2.965   5.626  0.00  0.00    -0.080 A 
ATOM      4  C3  UNL d   1       3.635  -1.643   5.253  0.00  0.00     0.150 A 
ATOM      5  C4  UNL d   1       4.922  -1.115   5.247  0.00  0.00    -0.007 A 
ATOM      6  C5  UNL d   1       5.999  -1.916   5.622  0.00  0.00     0.039 A 
ENDROOT
BRANCH   4   7
ATOM      7  O   UNL d   1       2.611  -0.821   4.885  0.00  0.00    -0.526 OA
ATOM      8  H5  UNL d   1       1.777  -1.313   4.964  0.00  0.00     0.418 HD
ENDBRANCH   4   7
TORSDOF 1
ENDMDL
