MODEL 1
REMARK minimizedAffinity 1.0466032
REMARK minimizedRMSD -1
REMARK  1 active torsions:
REMARK  status: ('A' for Active; 'I' for Inactive)
REMARK    1  A    between atoms: C3_4  and  O_7 
ROOT
ATOM      1  C   UNL d   1       0.211  -3.830  -2.331  0.00  0.00    -0.033 A 
ATOM      2  C1  UNL d   1       1.278  -3.943  -1.437  0.00  0.00     0.039 A 
ATOM      3  C2  UNL d   1       1.335  -3.123  -0.309  0.00  0.00    -0.080 A 
ATOM      4  C3  UNL d   1       0.320  -2.197  -0.085  0.00  0.00     0.150 A 
ATOM      5  C4  UNL d   1      -0.748  -2.082  -0.969  0.00  0.00    -0.007 A 
ATOM      6  C5  UNL d   1      -0.802  -2.901  -2.096  0.00  0.00     0.039 A 
ENDROOT
BRANCH   4   7
ATOM      7  O   UNL d   1       0.335  -1.372   1.001  0.00  0.00    -0.526 OA
ATOM      8  H5  UNL d   1       1.147  -1.543   1.507  0.00  0.00     0.418 HD
ENDBRANCH   4   7
TORSDOF 1
ENDMDL
