MODEL 1
REMARK minimizedAffinity 8.16894627
REMARK minimizedRMSD -1
REMARK  0 active torsions:
REMARK  status: ('A' for Active; 'I' for Inactive)
ROOT
ATOM      1  C   UNL d   1       1.965  -2.213   3.339  0.00  0.00    -0.002 A 
ATOM      2  C1  UNL d   1       1.285  -2.449   2.152  0.00  0.00     0.010 A 
ATOM      3  C2  UNL d   1       1.223  -1.468   1.162  0.00  0.00     0.041 A 
ATOM      4  C3  UNL d   1       1.863  -0.233   1.384  0.00  0.00    -0.075 A 
ATOM      5  S   UNL d   1       1.920   1.116   0.312  0.00  0.00     0.015 SA
ATOM      6  C4  UNL d   1       2.850   2.038   1.403  0.00  0.00     0.022 A 
ATOM      7  C5  UNL d   1       3.119   1.349   2.562  0.00  0.00     0.026 A 
ATOM      8  C6  UNL d   1       2.555   0.029   2.570  0.00  0.00    -0.082 A 
ATOM      9  C7  UNL d   1       2.600  -0.987   3.556  0.00  0.00     0.045 A 
ENDROOT
TORSDOF 0
ENDMDL
