MODEL 1
REMARK minimizedAffinity 4.80834055
REMARK minimizedRMSD -1
REMARK  0 active torsions:
REMARK  status: ('A' for Active; 'I' for Inactive)
ROOT
ATOM      1  C   UNL d   1       2.260  -5.461  -0.925  0.00  0.00    -0.002 A 
ATOM      2  C1  UNL d   1       1.831  -4.427  -1.746  0.00  0.00     0.010 A 
ATOM      3  C2  UNL d   1       1.499  -3.183  -1.207  0.00  0.00     0.041 A 
ATOM      4  C3  UNL d   1       1.606  -2.993   0.184  0.00  0.00    -0.075 A 
ATOM      5  S   UNL d   1       1.254  -1.554   1.067  0.00  0.00     0.015 SA
ATOM      6  C4  UNL d   1       1.664  -2.277   2.555  0.00  0.00     0.022 A 
ATOM      7  C5  UNL d   1       2.062  -3.584   2.400  0.00  0.00     0.026 A 
ATOM      8  C6  UNL d   1       2.036  -4.018   1.032  0.00  0.00    -0.082 A 
ATOM      9  C7  UNL d   1       2.365  -5.268   0.455  0.00  0.00     0.045 A 
ENDROOT
TORSDOF 0
ENDMDL
