MODEL 1
REMARK minimizedAffinity 14.5331211
REMARK minimizedRMSD -1
REMARK  0 active torsions:
REMARK  status: ('A' for Active; 'I' for Inactive)
ROOT
ATOM      1  C   UNL d   1       2.144  -2.202   2.110  0.00  0.00    -0.002 A 
ATOM      2  C1  UNL d   1       2.197  -1.832   3.447  0.00  0.00     0.010 A 
ATOM      3  C2  UNL d   1       2.336  -0.490   3.807  0.00  0.00     0.041 A 
ATOM      4  C3  UNL d   1       2.419   0.483   2.791  0.00  0.00    -0.075 A 
ATOM      5  S   UNL d   1       2.590   2.186   2.995  0.00  0.00     0.015 SA
ATOM      6  C4  UNL d   1       2.597   2.463   1.314  0.00  0.00     0.022 A 
ATOM      7  C5  UNL d   1       2.472   1.295   0.599  0.00  0.00     0.026 A 
ATOM      8  C6  UNL d   1       2.367   0.135   1.439  0.00  0.00    -0.082 A 
ATOM      9  C7  UNL d   1       2.227  -1.234   1.106  0.00  0.00     0.045 A 
ENDROOT
TORSDOF 0
ENDMDL
