MODEL 1
REMARK minimizedAffinity 9.57536888
REMARK minimizedRMSD -1
REMARK  0 active torsions:
REMARK  status: ('A' for Active; 'I' for Inactive)
ROOT
ATOM      1  C   UNL d   1      -3.049  -1.945  -1.572  0.00  0.00    -0.002 A 
ATOM      2  C1  UNL d   1      -2.915  -1.323  -0.338  0.00  0.00     0.010 A 
ATOM      3  C2  UNL d   1      -1.651  -1.006   0.163  0.00  0.00     0.041 A 
ATOM      4  C3  UNL d   1      -0.513  -1.325  -0.605  0.00  0.00    -0.075 A 
ATOM      5  S   UNL d   1       1.135  -1.029  -0.193  0.00  0.00     0.015 SA
ATOM      6  C4  UNL d   1       1.699  -1.721  -1.646  0.00  0.00     0.022 A 
ATOM      7  C5  UNL d   1       0.668  -2.171  -2.437  0.00  0.00     0.026 A 
ATOM      8  C6  UNL d   1      -0.624  -1.950  -1.850  0.00  0.00    -0.082 A 
ATOM      9  C7  UNL d   1      -1.919  -2.260  -2.330  0.00  0.00     0.045 A 
ENDROOT
TORSDOF 0
ENDMDL
