MODEL 1
REMARK minimizedAffinity 14.8617334
REMARK minimizedRMSD -1
REMARK  0 active torsions:
REMARK  status: ('A' for Active; 'I' for Inactive)
ROOT
ATOM      1  C   UNL d   1       2.339  -0.025   3.463  0.00  0.00    -0.002 A 
ATOM      2  C1  UNL d   1       1.474  -1.014   3.017  0.00  0.00     0.010 A 
ATOM      3  C2  UNL d   1       1.510  -1.442   1.688  0.00  0.00     0.041 A 
ATOM      4  C3  UNL d   1       2.440  -0.855   0.808  0.00  0.00    -0.075 A 
ATOM      5  S   UNL d   1       2.665  -1.221  -0.862  0.00  0.00     0.015 SA
ATOM      6  C4  UNL d   1       3.916  -0.074  -1.021  0.00  0.00     0.022 A 
ATOM      7  C5  UNL d   1       4.168   0.581   0.161  0.00  0.00     0.026 A 
ATOM      8  C6  UNL d   1       3.322   0.142   1.234  0.00  0.00    -0.082 A 
ATOM      9  C7  UNL d   1       3.261   0.555   2.587  0.00  0.00     0.045 A 
ENDROOT
TORSDOF 0
ENDMDL
