MODEL 1
REMARK minimizedAffinity 4.68930006
REMARK minimizedRMSD -1
REMARK  0 active torsions:
REMARK  status: ('A' for Active; 'I' for Inactive)
ROOT
ATOM      1  O1  BZF d   1      -3.069   0.514   1.707  0.00  0.00    -0.204 OA
ATOM      2  C2  BZF d   1      -2.207   1.567   1.471  0.00  0.00     0.174 A 
ATOM      3  C3  BZF d   1      -1.109   1.469   2.248  0.00  0.00    -0.012 A 
ATOM      4  C3A BZF d   1      -1.254   0.232   2.951  0.00  0.00    -0.107 A 
ATOM      5  C4  BZF d   1      -0.478  -0.428   3.860  0.00  0.00     0.055 A 
ATOM      6  C5  BZF d   1      -0.941  -1.581   4.410  0.00  0.00    -0.016 A 
ATOM      7  C6  BZF d   1      -2.176  -2.100   4.078  0.00  0.00     0.022 A 
ATOM      8  C7  BZF d   1      -2.979  -1.484   3.177  0.00  0.00     0.029 A 
ATOM      9  C7A BZF d   1      -2.500  -0.335   2.595  0.00  0.00     0.058 A 
ENDROOT
TORSDOF 0
ENDMDL
