MODEL 1
REMARK minimizedAffinity 3.03897405
REMARK minimizedRMSD -1
REMARK  0 active torsions:
REMARK  status: ('A' for Active; 'I' for Inactive)
ROOT
ATOM      1  O1  BZF d   1      -0.043  -0.015  -0.966  0.00  0.00    -0.204 OA
ATOM      2  C2  BZF d   1       1.173   0.036  -0.312  0.00  0.00     0.174 A 
ATOM      3  C3  BZF d   1       0.998   0.260   1.006  0.00  0.00    -0.012 A 
ATOM      4  C3A BZF d   1      -0.419   0.263   1.203  0.00  0.00    -0.107 A 
ATOM      5  C4  BZF d   1      -1.214   0.420   2.302  0.00  0.00     0.055 A 
ATOM      6  C5  BZF d   1      -2.563   0.445   2.143  0.00  0.00    -0.016 A 
ATOM      7  C6  BZF d   1      -3.151   0.319   0.901  0.00  0.00     0.022 A 
ATOM      8  C7  BZF d   1      -2.403   0.156  -0.218  0.00  0.00     0.029 A 
ATOM      9  C7A BZF d   1      -1.041   0.098  -0.057  0.00  0.00     0.058 A 
ENDROOT
TORSDOF 0
ENDMDL
