MODEL 1
REMARK minimizedAffinity 7.77727079
REMARK minimizedRMSD -1
REMARK  0 active torsions:
REMARK  status: ('A' for Active; 'I' for Inactive)
ROOT
ATOM      1  O1  BZF d   1      -3.240   0.729   1.477  0.00  0.00    -0.204 OA
ATOM      2  C2  BZF d   1      -2.173   1.580   1.265  0.00  0.00     0.174 A 
ATOM      3  C3  BZF d   1      -1.149   1.277   2.089  0.00  0.00    -0.012 A 
ATOM      4  C3A BZF d   1      -1.570   0.109   2.800  0.00  0.00    -0.107 A 
ATOM      5  C4  BZF d   1      -0.981  -0.676   3.749  0.00  0.00     0.055 A 
ATOM      6  C5  BZF d   1      -1.690  -1.700   4.293  0.00  0.00    -0.016 A 
ATOM      7  C6  BZF d   1      -2.990  -1.963   3.915  0.00  0.00     0.022 A 
ATOM      8  C7  BZF d   1      -3.616  -1.215   2.974  0.00  0.00     0.029 A 
ATOM      9  C7A BZF d   1      -2.890  -0.201   2.399  0.00  0.00     0.058 A 
ENDROOT
TORSDOF 0
ENDMDL
