MODEL 1
REMARK minimizedAffinity 3.21909022
REMARK minimizedRMSD -1
REMARK  0 active torsions:
REMARK  status: ('A' for Active; 'I' for Inactive)
ROOT
ATOM      1  O1  BZF d   1       0.990  -1.122   2.487  0.00  0.00    -0.204 OA
ATOM      2  C2  BZF d   1       0.670  -1.197   3.829  0.00  0.00     0.174 A 
ATOM      3  C3  BZF d   1      -0.604  -0.807   4.040  0.00  0.00    -0.012 A 
ATOM      4  C3A BZF d   1      -1.140  -0.554   2.737  0.00  0.00    -0.107 A 
ATOM      5  C4  BZF d   1      -2.366  -0.153   2.289  0.00  0.00     0.055 A 
ATOM      6  C5  BZF d   1      -2.542   0.070   0.960  0.00  0.00    -0.016 A 
ATOM      7  C6  BZF d   1      -1.514  -0.092   0.054  0.00  0.00     0.022 A 
ATOM      8  C7  BZF d   1      -0.282  -0.494   0.451  0.00  0.00     0.029 A 
ATOM      9  C7A BZF d   1      -0.110  -0.752   1.789  0.00  0.00     0.058 A 
ENDROOT
TORSDOF 0
ENDMDL
