MODEL 1
REMARK minimizedAffinity -0.571351111
REMARK minimizedRMSD -1
REMARK  0 active torsions:
REMARK  status: ('A' for Active; 'I' for Inactive)
ROOT
ATOM      1  O1  BZF d   1      -1.489  -0.092   3.228  0.00  0.00    -0.204 OA
ATOM      2  C2  BZF d   1      -0.792   0.980   3.750  0.00  0.00     0.174 A 
ATOM      3  C3  BZF d   1      -0.274   1.740   2.763  0.00  0.00    -0.012 A 
ATOM      4  C3A BZF d   1      -0.750   1.154   1.548  0.00  0.00    -0.107 A 
ATOM      5  C4  BZF d   1      -0.590   1.468   0.229  0.00  0.00     0.055 A 
ATOM      6  C5  BZF d   1      -1.126   0.649  -0.715  0.00  0.00    -0.016 A 
ATOM      7  C6  BZF d   1      -1.823  -0.491  -0.375  0.00  0.00     0.022 A 
ATOM      8  C7  BZF d   1      -2.013  -0.841   0.921  0.00  0.00     0.029 A 
ATOM      9  C7A BZF d   1      -1.500   0.001   1.877  0.00  0.00     0.058 A 
ENDROOT
TORSDOF 0
ENDMDL
