MODEL 1
REMARK minimizedAffinity 9.83368397
REMARK minimizedRMSD -1
REMARK  0 active torsions:
REMARK  status: ('A' for Active; 'I' for Inactive)
ROOT
ATOM      1  O1  BZF d   1       0.976   0.018   1.599  0.00  0.00    -0.204 OA
ATOM      2  C2  BZF d   1       1.686  -0.377   0.481  0.00  0.00     0.174 A 
ATOM      3  C3  BZF d   1       0.853  -0.635  -0.548  0.00  0.00    -0.012 A 
ATOM      4  C3A BZF d   1      -0.453  -0.299  -0.069  0.00  0.00    -0.107 A 
ATOM      5  C4  BZF d   1      -1.695  -0.325  -0.635  0.00  0.00     0.055 A 
ATOM      6  C5  BZF d   1      -2.774  -0.002   0.126  0.00  0.00    -0.016 A 
ATOM      7  C6  BZF d   1      -2.647   0.346   1.455  0.00  0.00     0.022 A 
ATOM      8  C7  BZF d   1      -1.434   0.391   2.058  0.00  0.00     0.029 A 
ATOM      9  C7A BZF d   1      -0.339   0.097   1.283  0.00  0.00     0.058 A 
ENDROOT
TORSDOF 0
ENDMDL
