MODEL 1
REMARK minimizedAffinity 10.9292412
REMARK minimizedRMSD -1
REMARK  0 active torsions:
REMARK  status: ('A' for Active; 'I' for Inactive)
ROOT
ATOM      1  O1  BZF d   1       1.012  -0.868  -0.065  0.00  0.00    -0.204 OA
ATOM      2  C2  BZF d   1       1.567  -0.145   0.974  0.00  0.00     0.174 A 
ATOM      3  C3  BZF d   1       0.632   0.612   1.583  0.00  0.00    -0.012 A 
ATOM      4  C3A BZF d   1      -0.601   0.277   0.940  0.00  0.00    -0.107 A 
ATOM      5  C4  BZF d   1      -1.892   0.687   1.114  0.00  0.00     0.055 A 
ATOM      6  C5  BZF d   1      -2.852   0.221   0.272  0.00  0.00    -0.016 A 
ATOM      7  C6  BZF d   1      -2.556  -0.651  -0.755  0.00  0.00     0.022 A 
ATOM      8  C7  BZF d   1      -1.291  -1.090  -0.964  0.00  0.00     0.029 A 
ATOM      9  C7A BZF d   1      -0.324  -0.646  -0.095  0.00  0.00     0.058 A 
ENDROOT
TORSDOF 0
ENDMDL
