MODEL 1
REMARK minimizedAffinity 7.25853491
REMARK minimizedRMSD -1
REMARK  3 active torsions:
REMARK  status: ('A' for Active; 'I' for Inactive)
REMARK    1  A    between atoms: C3'_2  and  C2'_3 
REMARK    2  A    between atoms: C2'_3  and  C1'_4 
REMARK    3  A    between atoms: C1'_4  and  C1_5 
ROOT
ATOM      1  C1  N4B d   1       1.937  -4.807  -5.201  0.00  0.00    -0.075 A 
ATOM      2  C2  N4B d   1       1.741  -4.199  -3.941  0.00  0.00     0.002 A 
ATOM      3  C3  N4B d   1       0.543  -4.346  -3.286  0.00  0.00     0.002 A 
ATOM      4  C4  N4B d   1      -0.477  -5.076  -3.878  0.00  0.00    -0.004 A 
ATOM      5  C5  N4B d   1      -0.272  -5.681  -5.083  0.00  0.00     0.002 A 
ATOM      6  C6  N4B d   1       0.929  -5.546  -5.750  0.00  0.00     0.002 A 
ENDROOT
BRANCH   1   7
ATOM      7  C1' N4B d   1       3.199  -4.604  -5.993  0.00  0.00     0.057 C 
BRANCH   7   8
ATOM      8  C2' N4B d   1       4.112  -5.811  -5.798  0.00  0.00     0.009 C 
BRANCH   8   9
ATOM      9  C3' N4B d   1       5.575  -5.455  -5.999  0.00  0.00     0.004 C 
ATOM     10  C4' N4B d   1       5.835  -3.982  -5.888  0.00  0.00     0.003 C 
ENDBRANCH   8   9
ENDBRANCH   7   8
ENDBRANCH   1   7
TORSDOF 3
ENDMDL
