MODEL 1
REMARK minimizedAffinity 6.80928898
REMARK minimizedRMSD -1
REMARK  3 active torsions:
REMARK  status: ('A' for Active; 'I' for Inactive)
REMARK    1  A    between atoms: C3'_2  and  C2'_3 
REMARK    2  A    between atoms: C2'_3  and  C1'_4 
REMARK    3  A    between atoms: C1'_4  and  C1_5 
ROOT
ATOM      1  C1  N4B d   1       1.280  -4.639  -3.026  0.00  0.00    -0.075 A 
ATOM      2  C2  N4B d   1       0.412  -5.608  -3.576  0.00  0.00     0.002 A 
ATOM      3  C3  N4B d   1       0.559  -5.999  -4.884  0.00  0.00     0.002 A 
ATOM      4  C4  N4B d   1       1.551  -5.423  -5.664  0.00  0.00    -0.004 A 
ATOM      5  C5  N4B d   1       2.402  -4.507  -5.118  0.00  0.00     0.002 A 
ATOM      6  C6  N4B d   1       2.268  -4.108  -3.804  0.00  0.00     0.002 A 
ENDROOT
BRANCH   1   7
ATOM      7  C1' N4B d   1       1.104  -4.118  -1.626  0.00  0.00     0.057 C 
BRANCH   7   8
ATOM      8  C2' N4B d   1       2.456  -4.113  -0.920  0.00  0.00     0.009 C 
BRANCH   8   9
ATOM      9  C3' N4B d   1       2.325  -3.776   0.556  0.00  0.00     0.004 C 
ATOM     10  C4' N4B d   1       1.211  -2.812   0.835  0.00  0.00     0.003 C 
ENDBRANCH   8   9
ENDBRANCH   7   8
ENDBRANCH   1   7
TORSDOF 3
ENDMDL
