MODEL 1
REMARK minimizedAffinity 7.18488312
REMARK minimizedRMSD -1
REMARK  3 active torsions:
REMARK  status: ('A' for Active; 'I' for Inactive)
REMARK    1  A    between atoms: C3'_2  and  C2'_3 
REMARK    2  A    between atoms: C2'_3  and  C1'_4 
REMARK    3  A    between atoms: C1'_4  and  C1_5 
ROOT
ATOM      1  C1  N4B d   1       3.105  -1.311   0.682  0.00  0.00    -0.075 A 
ATOM      2  C2  N4B d   1       3.949  -2.071  -0.158  0.00  0.00     0.002 A 
ATOM      3  C3  N4B d   1       4.876  -1.441  -0.951  0.00  0.00     0.002 A 
ATOM      4  C4  N4B d   1       4.965  -0.057  -0.936  0.00  0.00    -0.004 A 
ATOM      5  C5  N4B d   1       4.164   0.668  -0.103  0.00  0.00     0.002 A 
ATOM      6  C6  N4B d   1       3.230   0.048   0.703  0.00  0.00     0.002 A 
ENDROOT
BRANCH   1   7
ATOM      7  C1' N4B d   1       2.018  -1.949   1.503  0.00  0.00     0.057 C 
BRANCH   7   8
ATOM      8  C2' N4B d   1       0.725  -1.160   1.321  0.00  0.00     0.009 C 
BRANCH   8   9
ATOM      9  C3' N4B d   1      -0.254  -1.404   2.457  0.00  0.00     0.004 C 
ATOM     10  C4' N4B d   1       0.075  -0.613   3.687  0.00  0.00     0.003 C 
ENDBRANCH   8   9
ENDBRANCH   7   8
ENDBRANCH   1   7
TORSDOF 3
ENDMDL
