MODEL 1
REMARK minimizedAffinity 14.2728024
REMARK minimizedRMSD -1
REMARK  3 active torsions:
REMARK  status: ('A' for Active; 'I' for Inactive)
REMARK    1  A    between atoms: C3'_2  and  C2'_3 
REMARK    2  A    between atoms: C2'_3  and  C1'_4 
REMARK    3  A    between atoms: C1'_4  and  C1_5 
ROOT
ATOM      1  C1  N4B d   1       0.006   3.617  -0.590  0.00  0.00    -0.075 A 
ATOM      2  C2  N4B d   1       1.263   4.034  -1.080  0.00  0.00     0.002 A 
ATOM      3  C3  N4B d   1       1.812   5.215  -0.643  0.00  0.00     0.002 A 
ATOM      4  C4  N4B d   1       1.118   6.000   0.265  0.00  0.00    -0.004 A 
ATOM      5  C5  N4B d   1      -0.084   5.577   0.752  0.00  0.00     0.002 A 
ATOM      6  C6  N4B d   1      -0.647   4.391   0.325  0.00  0.00     0.002 A 
ENDROOT
BRANCH   1   7
ATOM      7  C1' N4B d   1      -0.674   2.377  -1.103  0.00  0.00     0.057 C 
BRANCH   7   8
ATOM      8  C2' N4B d   1      -1.120   2.609  -2.543  0.00  0.00     0.009 C 
BRANCH   8   9
ATOM      9  C3' N4B d   1      -2.574   3.039  -2.626  0.00  0.00     0.004 C 
ATOM     10  C4' N4B d   1      -2.893   3.766  -3.898  0.00  0.00     0.003 C 
ENDBRANCH   8   9
ENDBRANCH   7   8
ENDBRANCH   1   7
TORSDOF 3
ENDMDL
