MODEL 1
REMARK minimizedAffinity 13.8560848
REMARK minimizedRMSD -1
REMARK  3 active torsions:
REMARK  status: ('A' for Active; 'I' for Inactive)
REMARK    1  A    between atoms: C3'_2  and  C2'_3 
REMARK    2  A    between atoms: C2'_3  and  C1'_4 
REMARK    3  A    between atoms: C1'_4  and  C1_5 
ROOT
ATOM      1  C1  N4B d   1      -2.787   3.228  -2.181  0.00  0.00    -0.075 A 
ATOM      2  C2  N4B d   1      -3.623   2.478  -1.325  0.00  0.00     0.002 A 
ATOM      3  C3  N4B d   1      -4.693   3.080  -0.710  0.00  0.00     0.002 A 
ATOM      4  C4  N4B d   1      -4.934   4.430  -0.919  0.00  0.00    -0.004 A 
ATOM      5  C5  N4B d   1      -4.136   5.141  -1.767  0.00  0.00     0.002 A 
ATOM      6  C6  N4B d   1      -3.060   4.548  -2.396  0.00  0.00     0.002 A 
ENDROOT
BRANCH   1   7
ATOM      7  C1' N4B d   1      -1.556   2.634  -2.809  0.00  0.00     0.057 C 
BRANCH   7   8
ATOM      8  C2' N4B d   1      -0.776   1.861  -1.749  0.00  0.00     0.009 C 
BRANCH   8   9
ATOM      9  C3' N4B d   1       0.050   2.782  -0.868  0.00  0.00     0.004 C 
ATOM     10  C4' N4B d   1       1.287   3.284  -1.551  0.00  0.00     0.003 C 
ENDBRANCH   8   9
ENDBRANCH   7   8
ENDBRANCH   1   7
TORSDOF 3
ENDMDL
