MODEL 1
REMARK minimizedAffinity 13.1933289
REMARK minimizedRMSD -1
REMARK  3 active torsions:
REMARK  status: ('A' for Active; 'I' for Inactive)
REMARK    1  A    between atoms: C3'_2  and  C2'_3 
REMARK    2  A    between atoms: C2'_3  and  C1'_4 
REMARK    3  A    between atoms: C1'_4  and  C1_5 
ROOT
ATOM      1  C1  N4B d   1       2.011  -1.504   1.590  0.00  0.00    -0.075 A 
ATOM      2  C2  N4B d   1       1.355  -2.743   1.414  0.00  0.00     0.002 A 
ATOM      3  C3  N4B d   1       1.866  -3.671   0.540  0.00  0.00     0.002 A 
ATOM      4  C4  N4B d   1       3.015  -3.378  -0.179  0.00  0.00    -0.004 A 
ATOM      5  C5  N4B d   1       3.656  -2.189   0.016  0.00  0.00     0.002 A 
ATOM      6  C6  N4B d   1       3.156  -1.248   0.894  0.00  0.00     0.002 A 
ENDROOT
BRANCH   1   7
ATOM      7  C1' N4B d   1       1.443  -0.424   2.469  0.00  0.00     0.057 C 
BRANCH   7   8
ATOM      8  C2' N4B d   1      -0.008  -0.759   2.802  0.00  0.00     0.009 C 
BRANCH   8   9
ATOM      9  C3' N4B d   1      -0.336  -0.483   4.259  0.00  0.00     0.004 C 
ATOM     10  C4' N4B d   1       0.888  -0.254   5.096  0.00  0.00     0.003 C 
ENDBRANCH   8   9
ENDBRANCH   7   8
ENDBRANCH   1   7
TORSDOF 3
ENDMDL
