MODEL 1
REMARK minimizedAffinity 2.79767156
REMARK minimizedRMSD -1
REMARK  3 active torsions:
REMARK  status: ('A' for Active; 'I' for Inactive)
REMARK    1  A    between atoms: C3'_2  and  C2'_3 
REMARK    2  A    between atoms: C2'_3  and  C1'_4 
REMARK    3  A    between atoms: C1'_4  and  C1_5 
ROOT
ATOM      1  C1  N4B d   1      -4.284  -4.077   2.903  0.00  0.00    -0.075 A 
ATOM      2  C2  N4B d   1      -4.582  -3.962   4.279  0.00  0.00     0.002 A 
ATOM      3  C3  N4B d   1      -5.423  -4.868   4.877  0.00  0.00     0.002 A 
ATOM      4  C4  N4B d   1      -5.992  -5.881   4.119  0.00  0.00    -0.004 A 
ATOM      5  C5  N4B d   1      -5.679  -5.999   2.796  0.00  0.00     0.002 A 
ATOM      6  C6  N4B d   1      -4.832  -5.099   2.183  0.00  0.00     0.002 A 
ENDROOT
BRANCH   1   7
ATOM      7  C1' N4B d   1      -3.438  -3.060   2.186  0.00  0.00     0.057 C 
BRANCH   7   8
ATOM      8  C2' N4B d   1      -1.995  -3.184   2.665  0.00  0.00     0.009 C 
BRANCH   8   9
ATOM      9  C3' N4B d   1      -1.168  -1.964   2.296  0.00  0.00     0.004 C 
ATOM     10  C4' N4B d   1       0.308  -2.226   2.346  0.00  0.00     0.003 C 
ENDBRANCH   8   9
ENDBRANCH   7   8
ENDBRANCH   1   7
TORSDOF 3
ENDMDL
