MODEL 1
REMARK minimizedAffinity 8.83790588
REMARK minimizedRMSD -1
REMARK  3 active torsions:
REMARK  status: ('A' for Active; 'I' for Inactive)
REMARK    1  A    between atoms: C3'_2  and  C2'_3 
REMARK    2  A    between atoms: C2'_3  and  C1'_4 
REMARK    3  A    between atoms: C1'_4  and  C1_5 
ROOT
ATOM      1  C1  N4B d   1       4.534  -1.709  -4.040  0.00  0.00    -0.075 A 
ATOM      2  C2  N4B d   1       5.270  -2.442  -3.083  0.00  0.00     0.002 A 
ATOM      3  C3  N4B d   1       5.641  -1.848  -1.901  0.00  0.00     0.002 A 
ATOM      4  C4  N4B d   1       5.306  -0.524  -1.664  0.00  0.00    -0.004 A 
ATOM      5  C5  N4B d   1       4.573   0.169  -2.583  0.00  0.00     0.002 A 
ATOM      6  C6  N4B d   1       4.190  -0.416  -3.773  0.00  0.00     0.002 A 
ENDROOT
BRANCH   1   7
ATOM      7  C1' N4B d   1       4.180  -2.289  -5.382  0.00  0.00     0.057 C 
BRANCH   7   8
ATOM      8  C2' N4B d   1       5.424  -2.922  -5.998  0.00  0.00     0.009 C 
BRANCH   8   9
ATOM      9  C3' N4B d   1       5.997  -4.021  -5.119  0.00  0.00     0.004 C 
ATOM     10  C4' N4B d   1       6.000  -5.361  -5.792  0.00  0.00     0.003 C 
ENDBRANCH   8   9
ENDBRANCH   7   8
ENDBRANCH   1   7
TORSDOF 3
ENDMDL
