MODEL 1
REMARK minimizedAffinity -2.55524278
REMARK minimizedRMSD -1
REMARK  3 active torsions:
REMARK  status: ('A' for Active; 'I' for Inactive)
REMARK    1  A    between atoms: C3'_2  and  C2'_3 
REMARK    2  A    between atoms: C2'_3  and  C1'_4 
REMARK    3  A    between atoms: C1'_4  and  C1_5 
ROOT
ATOM      1  C1  N4B d   1       2.538  -1.952   0.908  0.00  0.00    -0.075 A 
ATOM      2  C2  N4B d   1       1.823  -0.835   1.393  0.00  0.00     0.002 A 
ATOM      3  C3  N4B d   1       0.617  -1.013   2.025  0.00  0.00     0.002 A 
ATOM      4  C4  N4B d   1       0.098  -2.292   2.166  0.00  0.00    -0.004 A 
ATOM      5  C5  N4B d   1       0.807  -3.368   1.717  0.00  0.00     0.002 A 
ATOM      6  C6  N4B d   1       2.022  -3.204   1.083  0.00  0.00     0.002 A 
ENDROOT
BRANCH   1   7
ATOM      7  C1' N4B d   1       3.819  -1.800   0.135  0.00  0.00     0.057 C 
BRANCH   7   8
ATOM      8  C2' N4B d   1       3.635  -0.727  -0.935  0.00  0.00     0.009 C 
BRANCH   8   9
ATOM      9  C3' N4B d   1       4.561  -0.941  -2.119  0.00  0.00     0.004 C 
ATOM     10  C4' N4B d   1       4.408   0.114  -3.174  0.00  0.00     0.003 C 
ENDBRANCH   8   9
ENDBRANCH   7   8
ENDBRANCH   1   7
TORSDOF 3
ENDMDL
