MODEL 1
REMARK minimizedAffinity 16.1372375
REMARK minimizedRMSD -1
REMARK  3 active torsions:
REMARK  status: ('A' for Active; 'I' for Inactive)
REMARK    1  A    between atoms: C3'_2  and  C2'_3 
REMARK    2  A    between atoms: C2'_3  and  C1'_4 
REMARK    3  A    between atoms: C1'_4  and  C1_5 
ROOT
ATOM      1  C1  N4B d   1       3.023   1.374   0.651  0.00  0.00    -0.075 A 
ATOM      2  C2  N4B d   1       2.931   0.859   1.963  0.00  0.00     0.002 A 
ATOM      3  C3  N4B d   1       3.302  -0.438   2.219  0.00  0.00     0.002 A 
ATOM      4  C4  N4B d   1       3.747  -1.242   1.180  0.00  0.00    -0.004 A 
ATOM      5  C5  N4B d   1       3.857  -0.729  -0.080  0.00  0.00     0.002 A 
ATOM      6  C6  N4B d   1       3.491   0.574  -0.350  0.00  0.00     0.002 A 
ENDROOT
BRANCH   1   7
ATOM      7  C1' N4B d   1       2.548   2.759   0.307  0.00  0.00     0.057 C 
BRANCH   7   8
ATOM      8  C2' N4B d   1       1.074   2.701  -0.082  0.00  0.00     0.009 C 
BRANCH   8   9
ATOM      9  C3' N4B d   1       0.819   3.332  -1.440  0.00  0.00     0.004 C 
ATOM     10  C4' N4B d   1      -0.346   2.718  -2.157  0.00  0.00     0.003 C 
ENDBRANCH   8   9
ENDBRANCH   7   8
ENDBRANCH   1   7
TORSDOF 3
ENDMDL
