MODEL 1
REMARK minimizedAffinity -4.30858564
REMARK minimizedRMSD -1
REMARK  0 active torsions:
REMARK  status: ('A' for Active; 'I' for Inactive)
ROOT
ATOM      1  C4' PXY d   1       0.375  -1.504  -1.448  0.00  0.00     0.077 C 
ATOM      2  C1' PXY d   1      -0.913   1.774   3.136  0.00  0.00     0.077 C 
ATOM      3  C1  PXY d   1      -0.563   0.919   1.934  0.00  0.00    -0.082 A 
ATOM      4  C2  PXY d   1      -1.519   0.531   1.106  0.00  0.00     0.003 A 
ATOM      5  C3  PXY d   1      -1.225  -0.269   0.032  0.00  0.00     0.003 A 
ATOM      6  C4  PXY d   1       0.069  -0.632  -0.227  0.00  0.00    -0.082 A 
ATOM      7  C5  PXY d   1       1.052  -0.233   0.608  0.00  0.00     0.003 A 
ATOM      8  C6  PXY d   1       0.727   0.545   1.715  0.00  0.00     0.003 A 
ENDROOT
TORSDOF 0
ENDMDL
