MODEL 1
REMARK minimizedAffinity 1.78571916
REMARK minimizedRMSD -1
REMARK  0 active torsions:
REMARK  status: ('A' for Active; 'I' for Inactive)
ROOT
ATOM      1  C4' PXY d   1       2.303   0.822   2.170  0.00  0.00     0.077 C 
ATOM      2  C1' PXY d   1      -2.918  -0.368  -0.007  0.00  0.00     0.077 C 
ATOM      3  C1  PXY d   1      -1.546  -0.069   0.564  0.00  0.00    -0.082 A 
ATOM      4  C2  PXY d   1      -1.351   1.049   1.245  0.00  0.00     0.003 A 
ATOM      5  C3  PXY d   1      -0.108   1.351   1.741  0.00  0.00     0.003 A 
ATOM      6  C4  PXY d   1       0.932   0.474   1.584  0.00  0.00    -0.082 A 
ATOM      7  C5  PXY d   1       0.738  -0.673   0.900  0.00  0.00     0.003 A 
ATOM      8  C6  PXY d   1      -0.521  -0.942   0.369  0.00  0.00     0.003 A 
ENDROOT
TORSDOF 0
ENDMDL
