MODEL 1
REMARK minimizedAffinity 9.70738506
REMARK minimizedRMSD -1
REMARK  0 active torsions:
REMARK  status: ('A' for Active; 'I' for Inactive)
ROOT
ATOM      1  C4' PXY d   1       0.237   0.891   1.258  0.00  0.00     0.077 C 
ATOM      2  C1' PXY d   1      -4.123  -1.431   4.259  0.00  0.00     0.077 C 
ATOM      3  C1  PXY d   1      -2.982  -0.831   3.463  0.00  0.00    -0.082 A 
ATOM      4  C2  PXY d   1      -2.034  -0.151   4.088  0.00  0.00     0.003 A 
ATOM      5  C3  PXY d   1      -1.012   0.426   3.379  0.00  0.00     0.003 A 
ATOM      6  C4  PXY d   1      -0.929   0.260   2.023  0.00  0.00    -0.082 A 
ATOM      7  C5  PXY d   1      -1.886  -0.442   1.379  0.00  0.00     0.003 A 
ATOM      8  C6  PXY d   1      -2.938  -0.984   2.111  0.00  0.00     0.003 A 
ENDROOT
TORSDOF 0
ENDMDL
