MODEL 1
REMARK minimizedAffinity 4.8064971
REMARK minimizedRMSD -1
REMARK  0 active torsions:
REMARK  status: ('A' for Active; 'I' for Inactive)
ROOT
ATOM      1  C4' PXY d   1       4.592  -0.339  -1.065  0.00  0.00     0.077 C 
ATOM      2  C1' PXY d   1       0.924   0.777  -5.392  0.00  0.00     0.077 C 
ATOM      3  C1  PXY d   1       1.879   0.491  -4.249  0.00  0.00    -0.082 A 
ATOM      4  C2  PXY d   1       3.132   0.156  -4.512  0.00  0.00     0.003 A 
ATOM      5  C3  PXY d   1       4.000  -0.137  -3.491  0.00  0.00     0.003 A 
ATOM      6  C4  PXY d   1       3.596  -0.033  -2.187  0.00  0.00    -0.082 A 
ATOM      7  C5  PXY d   1       2.322   0.319  -1.911  0.00  0.00     0.003 A 
ATOM      8  C6  PXY d   1       1.446   0.572  -2.962  0.00  0.00     0.003 A 
ENDROOT
TORSDOF 0
ENDMDL
