MODEL 1
REMARK minimizedAffinity 8.16771317
REMARK minimizedRMSD -1
REMARK  0 active torsions:
REMARK  status: ('A' for Active; 'I' for Inactive)
ROOT
ATOM      1  C4' PXY d   1      -0.728  -0.379  -6.000  0.00  0.00     0.077 C 
ATOM      2  C1' PXY d   1       4.108   1.157  -3.231  0.00  0.00     0.077 C 
ATOM      3  C1  PXY d   1       2.837   0.746  -3.948  0.00  0.00    -0.082 A 
ATOM      4  C2  PXY d   1       2.747   0.897  -5.259  0.00  0.00     0.003 A 
ATOM      5  C3  PXY d   1       1.593   0.560  -5.919  0.00  0.00     0.003 A 
ATOM      6  C4  PXY d   1       0.540   0.013  -5.236  0.00  0.00    -0.082 A 
ATOM      7  C5  PXY d   1       0.627  -0.154  -3.900  0.00  0.00     0.003 A 
ATOM      8  C6  PXY d   1       1.792   0.232  -3.243  0.00  0.00     0.003 A 
ENDROOT
TORSDOF 0
ENDMDL
