MODEL 1
REMARK minimizedAffinity 8.38913441
REMARK minimizedRMSD -1
REMARK  0 active torsions:
REMARK  status: ('A' for Active; 'I' for Inactive)
ROOT
ATOM      1  C4' PXY d   1      -3.465  -1.936   3.582  0.00  0.00     0.077 C 
ATOM      2  C1' PXY d   1       0.696   1.966   2.647  0.00  0.00     0.077 C 
ATOM      3  C1  PXY d   1      -0.404   0.952   2.887  0.00  0.00    -0.082 A 
ATOM      4  C2  PXY d   1      -0.228  -0.003   3.786  0.00  0.00     0.003 A 
ATOM      5  C3  PXY d   1      -1.199  -0.948   3.994  0.00  0.00     0.003 A 
ATOM      6  C4  PXY d   1      -2.385  -0.884   3.312  0.00  0.00    -0.082 A 
ATOM      7  C5  PXY d   1      -2.577   0.093   2.401  0.00  0.00     0.003 A 
ATOM      8  C6  PXY d   1      -1.562   1.018   2.175  0.00  0.00     0.003 A 
ENDROOT
TORSDOF 0
ENDMDL
