MODEL 1
REMARK minimizedAffinity 2.15393305
REMARK minimizedRMSD -1
REMARK  0 active torsions:
REMARK  status: ('A' for Active; 'I' for Inactive)
ROOT
ATOM      1  C4' PXY d   1       1.350   0.981  -5.088  0.00  0.00     0.077 C 
ATOM      2  C1' PXY d   1       2.514  -2.280  -0.459  0.00  0.00     0.077 C 
ATOM      3  C1  PXY d   1       2.218  -1.417  -1.670  0.00  0.00    -0.082 A 
ATOM      4  C2  PXY d   1       0.999  -1.405  -2.183  0.00  0.00     0.003 A 
ATOM      5  C3  PXY d   1       0.722  -0.655  -3.297  0.00  0.00     0.003 A 
ATOM      6  C4  PXY d   1       1.691   0.132  -3.861  0.00  0.00    -0.082 A 
ATOM      7  C5  PXY d   1       2.935   0.134  -3.337  0.00  0.00     0.003 A 
ATOM      8  C6  PXY d   1       3.206  -0.666  -2.230  0.00  0.00     0.003 A 
ENDROOT
TORSDOF 0
ENDMDL
