MODEL 1
REMARK minimizedAffinity 6.00249338
REMARK minimizedRMSD -1
REMARK  0 active torsions:
REMARK  status: ('A' for Active; 'I' for Inactive)
ROOT
ATOM      1  C4' PXY d   1      -0.762  -0.430  -4.147  0.00  0.00     0.077 C 
ATOM      2  C1' PXY d   1       4.769   0.968  -3.215  0.00  0.00     0.077 C 
ATOM      3  C1  PXY d   1       3.318   0.609  -3.470  0.00  0.00    -0.082 A 
ATOM      4  C2  PXY d   1       2.550   0.231  -2.461  0.00  0.00     0.003 A 
ATOM      5  C3  PXY d   1       1.245  -0.128  -2.679  0.00  0.00     0.003 A 
ATOM      6  C4  PXY d   1       0.705  -0.049  -3.935  0.00  0.00    -0.082 A 
ATOM      7  C5  PXY d   1       1.479   0.345  -4.968  0.00  0.00     0.003 A 
ATOM      8  C6  PXY d   1       2.813   0.666  -4.732  0.00  0.00     0.003 A 
ENDROOT
TORSDOF 0
ENDMDL
