MODEL 1
REMARK minimizedAffinity 2.41147161
REMARK minimizedRMSD -1
REMARK  0 active torsions:
REMARK  status: ('A' for Active; 'I' for Inactive)
ROOT
ATOM      1  C4' PXY d   1       1.131   0.764  -4.134  0.00  0.00     0.077 C 
ATOM      2  C1' PXY d   1       5.847  -2.422  -3.126  0.00  0.00     0.077 C 
ATOM      3  C1  PXY d   1       4.612  -1.580  -3.380  0.00  0.00    -0.082 A 
ATOM      4  C2  PXY d   1       3.627  -2.068  -4.115  0.00  0.00     0.003 A 
ATOM      5  C3  PXY d   1       2.517  -1.308  -4.380  0.00  0.00     0.003 A 
ATOM      6  C4  PXY d   1       2.392  -0.054  -3.844  0.00  0.00    -0.082 A 
ATOM      7  C5  PXY d   1       3.388   0.447  -3.084  0.00  0.00     0.003 A 
ATOM      8  C6  PXY d   1       4.525  -0.325  -2.860  0.00  0.00     0.003 A 
ENDROOT
TORSDOF 0
ENDMDL
