MODEL 1
REMARK minimizedAffinity 10.6299162
REMARK minimizedRMSD -1
REMARK  0 active torsions:
REMARK  status: ('A' for Active; 'I' for Inactive)
ROOT
ATOM      1  C4' PXY d   1      -0.472   3.972   1.327  0.00  0.00     0.077 C 
ATOM      2  C1' PXY d   1      -2.558  -0.936   3.558  0.00  0.00     0.077 C 
ATOM      3  C1  PXY d   1      -2.007   0.355   2.985  0.00  0.00    -0.082 A 
ATOM      4  C2  PXY d   1      -2.444   0.790   1.814  0.00  0.00     0.003 A 
ATOM      5  C3  PXY d   1      -1.934   1.939   1.266  0.00  0.00     0.003 A 
ATOM      6  C4  PXY d   1      -1.006   2.678   1.949  0.00  0.00    -0.082 A 
ATOM      7  C5  PXY d   1      -0.563   2.247   3.149  0.00  0.00     0.003 A 
ATOM      8  C6  PXY d   1      -1.063   1.057   3.668  0.00  0.00     0.003 A 
ENDROOT
TORSDOF 0
ENDMDL
