MODEL 1
REMARK minimizedAffinity 1.74116135
REMARK minimizedRMSD -1
REMARK  0 active torsions:
REMARK  status: ('A' for Active; 'I' for Inactive)
ROOT
ATOM      1  C4' PXY d   1       1.698  -1.134   0.005  0.00  0.00     0.077 C 
ATOM      2  C1' PXY d   1       1.483   1.357  -5.207  0.00  0.00     0.077 C 
ATOM      3  C1  PXY d   1       1.552   0.708  -3.839  0.00  0.00    -0.082 A 
ATOM      4  C2  PXY d   1       0.712  -0.268  -3.535  0.00  0.00     0.003 A 
ATOM      5  C3  PXY d   1       0.739  -0.845  -2.292  0.00  0.00     0.003 A 
ATOM      6  C4  PXY d   1       1.671  -0.456  -1.368  0.00  0.00    -0.082 A 
ATOM      7  C5  PXY d   1       2.539   0.532  -1.674  0.00  0.00     0.003 A 
ATOM      8  C6  PXY d   1       2.468   1.133  -2.927  0.00  0.00     0.003 A 
ENDROOT
TORSDOF 0
ENDMDL
