MODEL 1
REMARK minimizedAffinity -4.15195322
REMARK minimizedRMSD -1
REMARK  1 active torsions:
REMARK  status: ('A' for Active; 'I' for Inactive)
REMARK    1  A    between atoms: N_2  and  C1_3 
ROOT
ATOM      1  C1  UNL d   1      -0.333   0.596   0.919  0.00  0.00     0.143 A 
ATOM      2  C2  UNL d   1      -1.694   0.639   0.600  0.00  0.00    -0.057 A 
ATOM      3  C3  UNL d   1      -2.669   0.233   1.520  0.00  0.00     0.033 A 
ATOM      4  C4  UNL d   1      -2.296  -0.252   2.769  0.00  0.00    -0.042 A 
ATOM      5  C5  UNL d   1      -0.947  -0.327   3.098  0.00  0.00     0.033 A 
ATOM      6  C6  UNL d   1       0.021   0.086   2.178  0.00  0.00    -0.057 A 
ENDROOT
BRANCH   1   7
ATOM      7  N   UNL d   1       0.688   0.892   0.013  0.00  0.00    -0.732 N 
ATOM      8  C   UNL d   1       0.817   0.148  -1.222  0.00  0.00     0.284 C 
ATOM      9  H3  UNL d   1       0.840   1.893  -0.087  0.00  0.00     0.395 HD
ENDBRANCH   1   7
TORSDOF 1
ENDMDL
