MODEL 1
REMARK minimizedAffinity -3.75674438
REMARK minimizedRMSD -1
REMARK  1 active torsions:
REMARK  status: ('A' for Active; 'I' for Inactive)
REMARK    1  A    between atoms: N_2  and  C1_3 
ROOT
ATOM      1  C1  UNL d   1       0.316   0.076  -1.400  0.00  0.00     0.143 A 
ATOM      2  C2  UNL d   1      -1.027   0.108  -1.009  0.00  0.00    -0.057 A 
ATOM      3  C3  UNL d   1      -1.391   0.070   0.342  0.00  0.00     0.033 A 
ATOM      4  C4  UNL d   1      -0.416  -0.030   1.329  0.00  0.00    -0.042 A 
ATOM      5  C5  UNL d   1       0.924  -0.088   0.963  0.00  0.00     0.033 A 
ATOM      6  C6  UNL d   1       1.282  -0.044  -0.388  0.00  0.00    -0.057 A 
ENDROOT
BRANCH   1   7
ATOM      7  N   UNL d   1       0.738   0.010  -2.730  0.00  0.00    -0.732 N 
ATOM      8  C   UNL d   1       0.671  -1.235  -3.464  0.00  0.00     0.284 C 
ATOM      9  H3  UNL d   1       0.455   0.826  -3.268  0.00  0.00     0.395 HD
ENDBRANCH   1   7
TORSDOF 1
ENDMDL
