MODEL 1
REMARK minimizedAffinity -1.98507619
REMARK minimizedRMSD -1
REMARK  1 active torsions:
REMARK  status: ('A' for Active; 'I' for Inactive)
REMARK    1  A    between atoms: N_2  and  C1_3 
ROOT
ATOM      1  C1  UNL d   1      -0.044   0.062  -0.323  0.00  0.00     0.143 A 
ATOM      2  C2  UNL d   1       1.263   0.265   0.131  0.00  0.00    -0.057 A 
ATOM      3  C3  UNL d   1       1.533   0.507   1.484  0.00  0.00     0.033 A 
ATOM      4  C4  UNL d   1       0.493   0.580   2.404  0.00  0.00    -0.042 A 
ATOM      5  C5  UNL d   1      -0.817   0.406   1.972  0.00  0.00     0.033 A 
ATOM      6  C6  UNL d   1      -1.079   0.158   0.621  0.00  0.00    -0.057 A 
ENDROOT
BRANCH   1   7
ATOM      7  N   UNL d   1      -0.386  -0.085  -1.669  0.00  0.00    -0.732 N 
ATOM      8  C   UNL d   1       0.583  -0.573  -2.627  0.00  0.00     0.284 C 
ATOM      9  H3  UNL d   1      -1.321  -0.467  -1.793  0.00  0.00     0.395 HD
ENDBRANCH   1   7
TORSDOF 1
ENDMDL
