MODEL 1
REMARK minimizedAffinity -4.78184605
REMARK minimizedRMSD -1
REMARK  1 active torsions:
REMARK  status: ('A' for Active; 'I' for Inactive)
REMARK    1  A    between atoms: N_2  and  C1_3 
ROOT
ATOM      1  C1  UNL d   1      -0.189   0.033   0.041  0.00  0.00     0.143 A 
ATOM      2  C2  UNL d   1      -1.192  -0.616   0.769  0.00  0.00    -0.057 A 
ATOM      3  C3  UNL d   1      -1.071  -0.819   2.149  0.00  0.00     0.033 A 
ATOM      4  C4  UNL d   1       0.072  -0.402   2.823  0.00  0.00    -0.042 A 
ATOM      5  C5  UNL d   1       1.093   0.223   2.115  0.00  0.00     0.033 A 
ATOM      6  C6  UNL d   1       0.964   0.429   0.738  0.00  0.00    -0.057 A 
ENDROOT
BRANCH   1   7
ATOM      7  N   UNL d   1      -0.206   0.178  -1.348  0.00  0.00    -0.732 N 
ATOM      8  C   UNL d   1       0.834  -0.412  -2.164  0.00  0.00     0.284 C 
ATOM      9  H3  UNL d   1      -1.142   0.085  -1.737  0.00  0.00     0.395 HD
ENDBRANCH   1   7
TORSDOF 1
ENDMDL
