MODEL 1
REMARK minimizedAffinity -4.65859318
REMARK minimizedRMSD -1
REMARK  1 active torsions:
REMARK  status: ('A' for Active; 'I' for Inactive)
REMARK    1  A    between atoms: N_2  and  C1_3 
ROOT
ATOM      1  C1  UNL d   1       0.222   0.007  -0.113  0.00  0.00     0.143 A 
ATOM      2  C2  UNL d   1      -1.151  -0.118   0.125  0.00  0.00    -0.057 A 
ATOM      3  C3  UNL d   1      -1.651  -0.297   1.420  0.00  0.00     0.033 A 
ATOM      4  C4  UNL d   1      -0.781  -0.384   2.502  0.00  0.00    -0.042 A 
ATOM      5  C5  UNL d   1       0.589  -0.288   2.287  0.00  0.00     0.033 A 
ATOM      6  C6  UNL d   1       1.082  -0.102   0.992  0.00  0.00    -0.057 A 
ENDROOT
BRANCH   1   7
ATOM      7  N   UNL d   1       0.787   0.088  -1.388  0.00  0.00    -0.732 N 
ATOM      8  C   UNL d   1       0.806  -1.066  -2.260  0.00  0.00     0.284 C 
ATOM      9  H3  UNL d   1       0.560   0.961  -1.858  0.00  0.00     0.395 HD
ENDBRANCH   1   7
TORSDOF 1
ENDMDL
