MODEL 1
REMARK minimizedAffinity -5.35773706
REMARK minimizedRMSD -1
REMARK  1 active torsions:
REMARK  status: ('A' for Active; 'I' for Inactive)
REMARK    1  A    between atoms: N_2  and  C1_3 
ROOT
ATOM      1  C1  UNL d   1      -0.783   0.362   0.631  0.00  0.00     0.143 A 
ATOM      2  C2  UNL d   1       0.162  -0.033   1.585  0.00  0.00    -0.057 A 
ATOM      3  C3  UNL d   1      -0.209  -0.289   2.910  0.00  0.00     0.033 A 
ATOM      4  C4  UNL d   1      -1.530  -0.127   3.313  0.00  0.00    -0.042 A 
ATOM      5  C5  UNL d   1      -2.481   0.289   2.388  0.00  0.00     0.033 A 
ATOM      6  C6  UNL d   1      -2.106   0.537   1.064  0.00  0.00    -0.057 A 
ENDROOT
BRANCH   1   7
ATOM      7  N   UNL d   1      -0.460   0.727  -0.679  0.00  0.00    -0.732 N 
ATOM      8  C   UNL d   1       0.610   0.058  -1.388  0.00  0.00     0.284 C 
ATOM      9  H3  UNL d   1      -1.285   0.907  -1.246  0.00  0.00     0.395 HD
ENDBRANCH   1   7
TORSDOF 1
ENDMDL
