MODEL 1
REMARK minimizedAffinity -2.27702212
REMARK minimizedRMSD -1
REMARK  1 active torsions:
REMARK  status: ('A' for Active; 'I' for Inactive)
REMARK    1  A    between atoms: N_2  and  C1_3 
ROOT
ATOM      1  C1  UNL d   1       0.237   0.137  -1.085  0.00  0.00     0.143 A 
ATOM      2  C2  UNL d   1      -1.050  -0.284  -0.733  0.00  0.00    -0.057 A 
ATOM      3  C3  UNL d   1      -1.408  -0.484   0.606  0.00  0.00     0.033 A 
ATOM      4  C4  UNL d   1      -0.472  -0.293   1.618  0.00  0.00    -0.042 A 
ATOM      5  C5  UNL d   1       0.820   0.101   1.289  0.00  0.00     0.033 A 
ATOM      6  C6  UNL d   1       1.169   0.305  -0.049  0.00  0.00    -0.057 A 
ENDROOT
BRANCH   1   7
ATOM      7  N   UNL d   1       0.682   0.258  -2.404  0.00  0.00    -0.732 N 
ATOM      8  C   UNL d   1       1.200  -0.890  -3.115  0.00  0.00     0.284 C 
ATOM      9  H3  UNL d   1       0.079   0.857  -2.964  0.00  0.00     0.395 HD
ENDBRANCH   1   7
TORSDOF 1
ENDMDL
