MODEL 1
REMARK minimizedAffinity -4.3705163
REMARK minimizedRMSD -1
REMARK  1 active torsions:
REMARK  status: ('A' for Active; 'I' for Inactive)
REMARK    1  A    between atoms: N_2  and  C1_3 
ROOT
ATOM      1  C1  UNL d   1      -0.331   0.162   0.055  0.00  0.00     0.143 A 
ATOM      2  C2  UNL d   1      -1.244  -0.287   1.016  0.00  0.00    -0.057 A 
ATOM      3  C3  UNL d   1      -0.867  -0.451   2.354  0.00  0.00     0.033 A 
ATOM      4  C4  UNL d   1       0.441  -0.195   2.751  0.00  0.00    -0.042 A 
ATOM      5  C5  UNL d   1       1.371   0.229   1.809  0.00  0.00     0.033 A 
ATOM      6  C6  UNL d   1       0.987   0.396   0.475  0.00  0.00    -0.057 A 
ENDROOT
BRANCH   1   7
ATOM      7  N   UNL d   1      -0.619   0.250  -1.309  0.00  0.00    -0.732 N 
ATOM      8  C   UNL d   1       0.292  -0.297  -2.291  0.00  0.00     0.284 C 
ATOM      9  H3  UNL d   1      -1.601   0.077  -1.511  0.00  0.00     0.395 HD
ENDBRANCH   1   7
TORSDOF 1
ENDMDL
