MODEL 1
REMARK minimizedAffinity -4.79715014
REMARK minimizedRMSD -1
REMARK  1 active torsions:
REMARK  status: ('A' for Active; 'I' for Inactive)
REMARK    1  A    between atoms: N_2  and  C1_3 
ROOT
ATOM      1  C1  UNL d   1      -0.002  -0.285  -0.171  0.00  0.00     0.143 A 
ATOM      2  C2  UNL d   1      -1.033  -0.450   0.760  0.00  0.00    -0.057 A 
ATOM      3  C3  UNL d   1      -0.767  -0.533   2.132  0.00  0.00     0.033 A 
ATOM      4  C4  UNL d   1       0.543  -0.482   2.596  0.00  0.00    -0.042 A 
ATOM      5  C5  UNL d   1       1.586  -0.344   1.687  0.00  0.00     0.033 A 
ATOM      6  C6  UNL d   1       1.313  -0.254   0.319  0.00  0.00    -0.057 A 
ENDROOT
BRANCH   1   7
ATOM      7  N   UNL d   1      -0.194  -0.295  -1.555  0.00  0.00    -0.732 N 
ATOM      8  C   UNL d   1       0.852  -0.759  -2.441  0.00  0.00     0.284 C 
ATOM      9  H3  UNL d   1      -1.127  -0.604  -1.815  0.00  0.00     0.395 HD
ENDBRANCH   1   7
TORSDOF 1
ENDMDL
