MODEL 1
REMARK minimizedAffinity -0.65223068
REMARK minimizedRMSD -1
REMARK  1 active torsions:
REMARK  status: ('A' for Active; 'I' for Inactive)
REMARK    1  A    between atoms: N_2  and  C1_3 
ROOT
ATOM      1  C1  UNL d   1       0.282  -0.235  -1.659  0.00  0.00     0.143 A 
ATOM      2  C2  UNL d   1       1.511   0.128  -2.221  0.00  0.00    -0.057 A 
ATOM      3  C3  UNL d   1       1.936  -0.408  -3.443  0.00  0.00     0.033 A 
ATOM      4  C4  UNL d   1       1.151  -1.342  -4.111  0.00  0.00    -0.042 A 
ATOM      5  C5  UNL d   1      -0.062  -1.736  -3.558  0.00  0.00     0.033 A 
ATOM      6  C6  UNL d   1      -0.485  -1.192  -2.341  0.00  0.00    -0.057 A 
ENDROOT
BRANCH   1   7
ATOM      7  N   UNL d   1      -0.152   0.189  -0.400  0.00  0.00    -0.732 N 
ATOM      8  C   UNL d   1       0.742   0.157   0.737  0.00  0.00     0.284 C 
ATOM      9  H3  UNL d   1      -0.732   1.023  -0.450  0.00  0.00     0.395 HD
ENDBRANCH   1   7
TORSDOF 1
ENDMDL
