MODEL 1
REMARK minimizedAffinity -4.19279385
REMARK minimizedRMSD -1
REMARK  1 active torsions:
REMARK  status: ('A' for Active; 'I' for Inactive)
REMARK    1  A    between atoms: N_2  and  C1_3 
ROOT
ATOM      1  C1  UNL d   1       0.156   0.154  -0.233  0.00  0.00     0.143 A 
ATOM      2  C2  UNL d   1       0.886   0.896   0.702  0.00  0.00    -0.057 A 
ATOM      3  C3  UNL d   1       0.778   0.640   2.074  0.00  0.00     0.033 A 
ATOM      4  C4  UNL d   1      -0.086  -0.346   2.539  0.00  0.00    -0.042 A 
ATOM      5  C5  UNL d   1      -0.839  -1.079   1.629  0.00  0.00     0.033 A 
ATOM      6  C6  UNL d   1      -0.723  -0.824   0.259  0.00  0.00    -0.057 A 
ENDROOT
BRANCH   1   7
ATOM      7  N   UNL d   1       0.145   0.426  -1.604  0.00  0.00    -0.732 N 
ATOM      8  C   UNL d   1       0.457  -0.611  -2.564  0.00  0.00     0.284 C 
ATOM      9  H3  UNL d   1      -0.633   1.023  -1.875  0.00  0.00     0.395 HD
ENDBRANCH   1   7
TORSDOF 1
ENDMDL
