MODEL 1
REMARK minimizedAffinity -4.23076677
REMARK minimizedRMSD -1
REMARK  0 active torsions:
REMARK  status: ('A' for Active; 'I' for Inactive)
ROOT
ATOM      1  C   UNL d   1      -0.573  -3.600  -2.565  0.00  0.00     0.078 C 
ATOM      2  C1  UNL d   1      -0.483  -2.556  -1.493  0.00  0.00    -0.077 A 
ATOM      3  C2  UNL d   1      -0.018  -1.266  -1.778  0.00  0.00    -0.001 A 
ATOM      4  C3  UNL d   1       0.070  -0.307  -0.768  0.00  0.00     0.003 A 
ATOM      5  C4  UNL d   1      -0.305  -0.628   0.535  0.00  0.00    -0.005 A 
ATOM      6  C5  UNL d   1      -0.766  -1.909   0.830  0.00  0.00     0.003 A 
ATOM      7  C6  UNL d   1      -0.854  -2.870  -0.179  0.00  0.00    -0.001 A 
ENDROOT
TORSDOF 0
ENDMDL
