MODEL 1
REMARK minimizedAffinity -2.23534346
REMARK minimizedRMSD -1
REMARK  0 active torsions:
REMARK  status: ('A' for Active; 'I' for Inactive)
ROOT
ATOM      1  C   UNL d   1      -1.391  -1.540   1.754  0.00  0.00     0.078 C 
ATOM      2  C1  UNL d   1      -0.880  -0.892   0.502  0.00  0.00    -0.077 A 
ATOM      3  C2  UNL d   1      -0.673  -1.639  -0.664  0.00  0.00    -0.001 A 
ATOM      4  C3  UNL d   1      -0.188  -1.024  -1.819  0.00  0.00     0.003 A 
ATOM      5  C4  UNL d   1       0.095   0.341  -1.819  0.00  0.00    -0.005 A 
ATOM      6  C5  UNL d   1      -0.105   1.092  -0.663  0.00  0.00     0.003 A 
ATOM      7  C6  UNL d   1      -0.591   0.478   0.493  0.00  0.00    -0.001 A 
ENDROOT
TORSDOF 0
ENDMDL
