MODEL 1
REMARK minimizedAffinity -3.42886567
REMARK minimizedRMSD -1
REMARK  0 active torsions:
REMARK  status: ('A' for Active; 'I' for Inactive)
ROOT
ATOM      1  C   UNL d   1       1.489   2.644  -0.305  0.00  0.00     0.078 C 
ATOM      2  C1  UNL d   1       0.780   1.413   0.174  0.00  0.00    -0.077 A 
ATOM      3  C2  UNL d   1       1.424   0.486   1.003  0.00  0.00    -0.001 A 
ATOM      4  C3  UNL d   1       0.754  -0.660   1.434  0.00  0.00     0.003 A 
ATOM      5  C4  UNL d   1      -0.562  -0.891   1.040  0.00  0.00    -0.005 A 
ATOM      6  C5  UNL d   1      -1.211   0.024   0.214  0.00  0.00     0.003 A 
ATOM      7  C6  UNL d   1      -0.543   1.171  -0.218  0.00  0.00    -0.001 A 
ENDROOT
TORSDOF 0
ENDMDL
