MODEL 1
REMARK minimizedAffinity -4.32043934
REMARK minimizedRMSD -1
REMARK  0 active torsions:
REMARK  status: ('A' for Active; 'I' for Inactive)
ROOT
ATOM      1  C   UNL d   1      -1.696  -0.291   2.397  0.00  0.00     0.078 C 
ATOM      2  C1  UNL d   1      -1.121  -0.591   1.045  0.00  0.00    -0.077 A 
ATOM      3  C2  UNL d   1      -0.624   0.433   0.229  0.00  0.00    -0.001 A 
ATOM      4  C3  UNL d   1      -0.100   0.140  -1.031  0.00  0.00     0.003 A 
ATOM      5  C4  UNL d   1      -0.069  -1.177  -1.487  0.00  0.00    -0.005 A 
ATOM      6  C5  UNL d   1      -0.562  -2.202  -0.683  0.00  0.00     0.003 A 
ATOM      7  C6  UNL d   1      -1.087  -1.911   0.577  0.00  0.00    -0.001 A 
ENDROOT
TORSDOF 0
ENDMDL
