MODEL 1
REMARK minimizedAffinity -3.55764508
REMARK minimizedRMSD -1
REMARK  0 active torsions:
REMARK  status: ('A' for Active; 'I' for Inactive)
ROOT
ATOM      1  C   UNL d   1      -0.325  -2.826   0.714  0.00  0.00     0.078 C 
ATOM      2  C1  UNL d   1      -0.230  -1.406   0.243  0.00  0.00    -0.077 A 
ATOM      3  C2  UNL d   1      -0.636  -0.346   1.062  0.00  0.00    -0.001 A 
ATOM      4  C3  UNL d   1      -0.551   0.971   0.607  0.00  0.00     0.003 A 
ATOM      5  C4  UNL d   1      -0.061   1.240  -0.669  0.00  0.00    -0.005 A 
ATOM      6  C5  UNL d   1       0.344   0.191  -1.493  0.00  0.00     0.003 A 
ATOM      7  C6  UNL d   1       0.260  -1.126  -1.039  0.00  0.00    -0.001 A 
ENDROOT
TORSDOF 0
ENDMDL
