MODEL 1
REMARK minimizedAffinity -3.12393498
REMARK minimizedRMSD -1
REMARK  0 active torsions:
REMARK  status: ('A' for Active; 'I' for Inactive)
ROOT
ATOM      1  C   UNL d   1       1.933   2.550   0.436  0.00  0.00     0.078 C 
ATOM      2  C1  UNL d   1       0.984   1.407   0.642  0.00  0.00    -0.077 A 
ATOM      3  C2  UNL d   1       0.107   1.006  -0.372  0.00  0.00    -0.001 A 
ATOM      4  C3  UNL d   1      -0.778  -0.053  -0.162  0.00  0.00     0.003 A 
ATOM      5  C4  UNL d   1      -0.795  -0.718   1.062  0.00  0.00    -0.005 A 
ATOM      6  C5  UNL d   1       0.073  -0.325   2.078  0.00  0.00     0.003 A 
ATOM      7  C6  UNL d   1       0.958   0.734   1.870  0.00  0.00    -0.001 A 
ENDROOT
TORSDOF 0
ENDMDL
