MODEL 1
REMARK minimizedAffinity -1.33023524
REMARK minimizedRMSD -1
REMARK  0 active torsions:
REMARK  status: ('A' for Active; 'I' for Inactive)
ROOT
ATOM      1  C   UNL d   1       1.571   3.118   0.584  0.00  0.00     0.078 C 
ATOM      2  C1  UNL d   1       0.753   1.871   0.431  0.00  0.00    -0.077 A 
ATOM      3  C2  UNL d   1       0.288   1.463  -0.825  0.00  0.00    -0.001 A 
ATOM      4  C3  UNL d   1      -0.480   0.304  -0.951  0.00  0.00     0.003 A 
ATOM      5  C4  UNL d   1      -0.791  -0.455   0.175  0.00  0.00    -0.005 A 
ATOM      6  C5  UNL d   1      -0.335  -0.056   1.429  0.00  0.00     0.003 A 
ATOM      7  C6  UNL d   1       0.434   1.102   1.557  0.00  0.00    -0.001 A 
ENDROOT
TORSDOF 0
ENDMDL
