MODEL 1
REMARK minimizedAffinity -3.6110661
REMARK minimizedRMSD -1
REMARK  0 active torsions:
REMARK  status: ('A' for Active; 'I' for Inactive)
ROOT
ATOM      1  C   UNL d   1      -0.029   1.506   0.004  0.00  0.00     0.078 C 
ATOM      2  C1  UNL d   1      -0.436   0.067   0.104  0.00  0.00    -0.077 A 
ATOM      3  C2  UNL d   1      -0.782  -0.502   1.336  0.00  0.00    -0.001 A 
ATOM      4  C3  UNL d   1      -1.149  -1.846   1.415  0.00  0.00     0.003 A 
ATOM      5  C4  UNL d   1      -1.173  -2.633   0.265  0.00  0.00    -0.005 A 
ATOM      6  C5  UNL d   1      -0.829  -2.077  -0.965  0.00  0.00     0.003 A 
ATOM      7  C6  UNL d   1      -0.461  -0.733  -1.046  0.00  0.00    -0.001 A 
ENDROOT
TORSDOF 0
ENDMDL
