MODEL 1
REMARK minimizedAffinity -3.74790454
REMARK minimizedRMSD -1
REMARK  0 active torsions:
REMARK  status: ('A' for Active; 'I' for Inactive)
ROOT
ATOM      1  C   UNL d   1      -0.222   0.392   0.029  0.00  0.00     0.078 C 
ATOM      2  C1  UNL d   1       0.815   1.387   0.455  0.00  0.00    -0.077 A 
ATOM      3  C2  UNL d   1       2.092   0.972   0.852  0.00  0.00    -0.001 A 
ATOM      4  C3  UNL d   1       3.045   1.909   1.255  0.00  0.00     0.003 A 
ATOM      5  C4  UNL d   1       2.731   3.266   1.266  0.00  0.00    -0.005 A 
ATOM      6  C5  UNL d   1       1.463   3.689   0.874  0.00  0.00     0.003 A 
ATOM      7  C6  UNL d   1       0.508   2.754   0.471  0.00  0.00    -0.001 A 
ENDROOT
TORSDOF 0
ENDMDL
