MODEL 1
REMARK minimizedAffinity -1.04150701
REMARK minimizedRMSD -1
REMARK  0 active torsions:
REMARK  status: ('A' for Active; 'I' for Inactive)
ROOT
ATOM      1  C   UNL d   1      -0.490  -2.686   0.036  0.00  0.00     0.078 C 
ATOM      2  C1  UNL d   1      -0.299  -1.230  -0.265  0.00  0.00    -0.077 A 
ATOM      3  C2  UNL d   1      -0.377  -0.267   0.749  0.00  0.00    -0.001 A 
ATOM      4  C3  UNL d   1      -0.207   1.086   0.453  0.00  0.00     0.003 A 
ATOM      5  C4  UNL d   1       0.040   1.489  -0.858  0.00  0.00    -0.005 A 
ATOM      6  C5  UNL d   1       0.117   0.539  -1.874  0.00  0.00     0.003 A 
ATOM      7  C6  UNL d   1      -0.053  -0.815  -1.580  0.00  0.00    -0.001 A 
ENDROOT
TORSDOF 0
ENDMDL
