MODEL 1
REMARK minimizedAffinity -2.64132667
REMARK minimizedRMSD -1
REMARK  0 active torsions:
REMARK  status: ('A' for Active; 'I' for Inactive)
ROOT
ATOM      1  C   UNL d   1      -0.435  -2.909   0.424  0.00  0.00     0.078 C 
ATOM      2  C1  UNL d   1      -0.398  -1.411   0.489  0.00  0.00    -0.077 A 
ATOM      3  C2  UNL d   1      -1.338  -0.699   1.244  0.00  0.00    -0.001 A 
ATOM      4  C3  UNL d   1      -1.297   0.696   1.288  0.00  0.00     0.003 A 
ATOM      5  C4  UNL d   1      -0.319   1.390   0.578  0.00  0.00    -0.005 A 
ATOM      6  C5  UNL d   1       0.619   0.690  -0.177  0.00  0.00     0.003 A 
ATOM      7  C6  UNL d   1       0.580  -0.705  -0.222  0.00  0.00    -0.001 A 
ENDROOT
TORSDOF 0
ENDMDL
