MODEL 1
REMARK minimizedAffinity -4.14531946
REMARK minimizedRMSD -1
REMARK  0 active torsions:
REMARK  status: ('A' for Active; 'I' for Inactive)
ROOT
ATOM      1  C   UNL d   1       0.113   1.580  -0.198  0.00  0.00     0.078 C 
ATOM      2  C1  UNL d   1      -0.234   0.161   0.142  0.00  0.00    -0.077 A 
ATOM      3  C2  UNL d   1       0.415  -0.910  -0.484  0.00  0.00    -0.001 A 
ATOM      4  C3  UNL d   1       0.076  -2.225  -0.165  0.00  0.00     0.003 A 
ATOM      5  C4  UNL d   1      -0.915  -2.482   0.781  0.00  0.00    -0.005 A 
ATOM      6  C5  UNL d   1      -1.568  -1.423   1.408  0.00  0.00     0.003 A 
ATOM      7  C6  UNL d   1      -1.229  -0.107   1.090  0.00  0.00    -0.001 A 
ENDROOT
TORSDOF 0
ENDMDL
