MODEL 1
REMARK minimizedAffinity -4.11499834
REMARK minimizedRMSD -1
REMARK  0 active torsions:
REMARK  status: ('A' for Active; 'I' for Inactive)
ROOT
ATOM      1  C   UNL d   1      -0.709  -1.805   1.346  0.00  0.00     0.078 C 
ATOM      2  C1  UNL d   1      -0.131  -0.492   0.909  0.00  0.00    -0.077 A 
ATOM      3  C2  UNL d   1      -0.833   0.352   0.040  0.00  0.00    -0.001 A 
ATOM      4  C3  UNL d   1      -0.279   1.566  -0.366  0.00  0.00     0.003 A 
ATOM      5  C4  UNL d   1       0.981   1.947   0.091  0.00  0.00    -0.005 A 
ATOM      6  C5  UNL d   1       1.689   1.113   0.954  0.00  0.00     0.003 A 
ATOM      7  C6  UNL d   1       1.136  -0.102   1.361  0.00  0.00    -0.001 A 
ENDROOT
TORSDOF 0
ENDMDL
