MODEL 1
REMARK minimizedAffinity -1.96241784
REMARK minimizedRMSD -1
REMARK  0 active torsions:
REMARK  status: ('A' for Active; 'I' for Inactive)
ROOT
ATOM      1  C   UNL d   1      -1.582  -1.798   1.481  0.00  0.00     0.078 C 
ATOM      2  C1  UNL d   1      -0.822  -0.801   0.657  0.00  0.00    -0.077 A 
ATOM      3  C2  UNL d   1      -0.980  -0.744  -0.733  0.00  0.00    -0.001 A 
ATOM      4  C3  UNL d   1      -0.259   0.182  -1.489  0.00  0.00     0.003 A 
ATOM      5  C4  UNL d   1       0.626   1.057  -0.863  0.00  0.00    -0.005 A 
ATOM      6  C5  UNL d   1       0.793   1.006   0.520  0.00  0.00     0.003 A 
ATOM      7  C6  UNL d   1       0.072   0.081   1.277  0.00  0.00    -0.001 A 
ENDROOT
TORSDOF 0
ENDMDL
