MODEL 1
REMARK minimizedAffinity -3.55789828
REMARK minimizedRMSD -1
REMARK  0 active torsions:
REMARK  status: ('A' for Active; 'I' for Inactive)
ROOT
ATOM      1  C   UNL d   1       0.123   1.625   0.328  0.00  0.00     0.078 C 
ATOM      2  C1  UNL d   1      -0.130   0.148   0.384  0.00  0.00    -0.077 A 
ATOM      3  C2  UNL d   1      -0.313  -0.506   1.608  0.00  0.00    -0.001 A 
ATOM      4  C3  UNL d   1      -0.538  -1.883   1.646  0.00  0.00     0.003 A 
ATOM      5  C4  UNL d   1      -0.580  -2.618   0.463  0.00  0.00    -0.005 A 
ATOM      6  C5  UNL d   1      -0.396  -1.976  -0.760  0.00  0.00     0.003 A 
ATOM      7  C6  UNL d   1      -0.171  -0.599  -0.800  0.00  0.00    -0.001 A 
ENDROOT
TORSDOF 0
ENDMDL
