MODEL 1
REMARK minimizedAffinity 4.88753939
REMARK minimizedRMSD -1
REMARK  1 active torsions:
REMARK  status: ('A' for Active; 'I' for Inactive)
REMARK    1  A    between atoms: C1_2  and  C2_3 
ROOT
ATOM      1  C2  UNL d   1      -4.779  -5.924   0.961  0.00  0.00    -0.073 A 
ATOM      2  C3  UNL d   1      -5.991  -5.951   0.262  0.00  0.00    -0.002 A 
ATOM      3  C4  UNL d   1      -5.999  -5.985  -1.133  0.00  0.00     0.004 A 
ATOM      4  C5  UNL d   1      -4.798  -6.000  -1.842  0.00  0.00    -0.004 A 
ATOM      5  C6  UNL d   1      -3.577  -5.986  -1.161  0.00  0.00    -0.075 A 
ATOM      6  C7  UNL d   1      -2.276  -5.999  -1.908  0.00  0.00     0.076 C 
ATOM      7  C8  UNL d   1      -3.577  -5.949   0.240  0.00  0.00     0.001 A 
ENDROOT
BRANCH   1   8
ATOM      8  C1  UNL d   1      -4.766  -5.894   2.468  0.00  0.00     0.053 C 
ATOM      9  C   UNL d   1      -4.875  -4.478   3.010  0.00  0.00     0.018 C 
ENDBRANCH   1   8
TORSDOF 1
ENDMDL
