MODEL 1
REMARK minimizedAffinity 2.84840107
REMARK minimizedRMSD -1
REMARK  1 active torsions:
REMARK  status: ('A' for Active; 'I' for Inactive)
REMARK    1  A    between atoms: C1_2  and  C2_3 
ROOT
ATOM      1  C2  UNL d   1      -2.211  -5.922  -3.170  0.00  0.00    -0.073 A 
ATOM      2  C3  UNL d   1      -1.374  -5.810  -2.053  0.00  0.00    -0.002 A 
ATOM      3  C4  UNL d   1       0.010  -5.739  -2.215  0.00  0.00     0.004 A 
ATOM      4  C5  UNL d   1       0.571  -5.772  -3.491  0.00  0.00    -0.004 A 
ATOM      5  C6  UNL d   1      -0.249  -5.873  -4.620  0.00  0.00    -0.075 A 
ATOM      6  C7  UNL d   1       0.339  -5.912  -6.000  0.00  0.00     0.076 C 
ATOM      7  C8  UNL d   1      -1.638  -5.946  -4.449  0.00  0.00     0.001 A 
ENDROOT
BRANCH   1   8
ATOM      8  C1  UNL d   1      -3.706  -5.993  -3.001  0.00  0.00     0.053 C 
ATOM      9  C   UNL d   1      -4.115  -6.000  -1.537  0.00  0.00     0.018 C 
ENDBRANCH   1   8
TORSDOF 1
ENDMDL
