MODEL 1
REMARK minimizedAffinity -1.33429873
REMARK minimizedRMSD -1
REMARK  1 active torsions:
REMARK  status: ('A' for Active; 'I' for Inactive)
REMARK    1  A    between atoms: C1_2  and  C2_3 
ROOT
ATOM      1  C2  UNL d   1      -0.180  -5.761  -4.879  0.00  0.00    -0.073 A 
ATOM      2  C3  UNL d   1      -0.326  -5.772  -3.487  0.00  0.00    -0.002 A 
ATOM      3  C4  UNL d   1      -1.596  -5.849  -2.913  0.00  0.00     0.004 A 
ATOM      4  C5  UNL d   1      -2.730  -5.922  -3.722  0.00  0.00    -0.004 A 
ATOM      5  C6  UNL d   1      -2.603  -5.924  -5.115  0.00  0.00    -0.075 A 
ATOM      6  C7  UNL d   1      -3.813  -6.000  -5.999  0.00  0.00     0.076 C 
ATOM      7  C8  UNL d   1      -1.325  -5.844  -5.684  0.00  0.00     0.001 A 
ENDROOT
BRANCH   1   8
ATOM      8  C1  UNL d   1       1.189  -5.684  -5.505  0.00  0.00     0.053 C 
ATOM      9  C   UNL d   1       2.291  -5.990  -4.503  0.00  0.00     0.018 C 
ENDBRANCH   1   8
TORSDOF 1
ENDMDL
