MODEL 1
REMARK minimizedAffinity 11.8097906
REMARK minimizedRMSD -1
REMARK  1 active torsions:
REMARK  status: ('A' for Active; 'I' for Inactive)
REMARK    1  A    between atoms: C1_2  and  C2_3 
ROOT
ATOM      1  C2  UNL d   1       0.958  -1.994   0.803  0.00  0.00    -0.073 A 
ATOM      2  C3  UNL d   1       0.035  -1.022   0.401  0.00  0.00    -0.002 A 
ATOM      3  C4  UNL d   1       0.453   0.282   0.138  0.00  0.00     0.004 A 
ATOM      4  C5  UNL d   1       1.799   0.627   0.266  0.00  0.00    -0.004 A 
ATOM      5  C6  UNL d   1       2.739  -0.332   0.655  0.00  0.00    -0.075 A 
ATOM      6  C7  UNL d   1       4.190   0.023   0.800  0.00  0.00     0.076 C 
ATOM      7  C8  UNL d   1       2.310  -1.640   0.921  0.00  0.00     0.001 A 
ENDROOT
BRANCH   1   8
ATOM      8  C1  UNL d   1       0.512  -3.406   1.083  0.00  0.00     0.053 C 
ATOM      9  C   UNL d   1      -0.315  -3.500   2.356  0.00  0.00     0.018 C 
ENDBRANCH   1   8
TORSDOF 1
ENDMDL
