MODEL 1
REMARK minimizedAffinity 7.15729618
REMARK minimizedRMSD -1
REMARK  1 active torsions:
REMARK  status: ('A' for Active; 'I' for Inactive)
REMARK    1  A    between atoms: C1_2  and  C2_3 
ROOT
ATOM      1  C2  UNL d   1       1.230   0.946   0.304  0.00  0.00    -0.073 A 
ATOM      2  C3  UNL d   1       1.039   2.314   0.535  0.00  0.00    -0.002 A 
ATOM      3  C4  UNL d   1       2.041   3.230   0.211  0.00  0.00     0.004 A 
ATOM      4  C5  UNL d   1       3.239   2.790  -0.352  0.00  0.00    -0.004 A 
ATOM      5  C6  UNL d   1       3.444   1.429  -0.601  0.00  0.00    -0.075 A 
ATOM      6  C7  UNL d   1       4.727   0.940  -1.205  0.00  0.00     0.076 C 
ATOM      7  C8  UNL d   1       2.434   0.515  -0.271  0.00  0.00     0.001 A 
ENDROOT
BRANCH   1   8
ATOM      8  C1  UNL d   1       0.149  -0.046   0.647  0.00  0.00     0.053 C 
ATOM      9  C   UNL d   1       0.718  -1.330   1.229  0.00  0.00     0.018 C 
ENDBRANCH   1   8
TORSDOF 1
ENDMDL
