MODEL 1
REMARK minimizedAffinity -0.291177243
REMARK minimizedRMSD -1
REMARK  1 active torsions:
REMARK  status: ('A' for Active; 'I' for Inactive)
REMARK    1  A    between atoms: C1_2  and  C2_3 
ROOT
ATOM      1  C2  UNL d   1      -1.077  -5.990  -4.092  0.00  0.00    -0.073 A 
ATOM      2  C3  UNL d   1      -0.207  -5.998  -2.995  0.00  0.00    -0.002 A 
ATOM      3  C4  UNL d   1      -0.713  -5.997  -1.695  0.00  0.00     0.004 A 
ATOM      4  C5  UNL d   1      -2.091  -5.996  -1.477  0.00  0.00    -0.004 A 
ATOM      5  C6  UNL d   1      -2.976  -6.000  -2.560  0.00  0.00    -0.075 A 
ATOM      6  C7  UNL d   1      -4.461  -5.996  -2.343  0.00  0.00     0.076 C 
ATOM      7  C8  UNL d   1      -2.460  -5.998  -3.863  0.00  0.00     0.001 A 
ENDROOT
BRANCH   1   8
ATOM      8  C1  UNL d   1      -0.536  -5.997  -5.498  0.00  0.00     0.053 C 
ATOM      9  C   UNL d   1       0.980  -5.879  -5.526  0.00  0.00     0.018 C 
ENDBRANCH   1   8
TORSDOF 1
ENDMDL
