MODEL 1
REMARK minimizedAffinity 7.94791365
REMARK minimizedRMSD -1
REMARK  1 active torsions:
REMARK  status: ('A' for Active; 'I' for Inactive)
REMARK    1  A    between atoms: C1_2  and  C2_3 
ROOT
ATOM      1  C2  UNL d   1       1.576  -1.067   0.562  0.00  0.00    -0.073 A 
ATOM      2  C3  UNL d   1       2.047  -2.368   0.774  0.00  0.00    -0.002 A 
ATOM      3  C4  UNL d   1       1.155  -3.440   0.832  0.00  0.00     0.004 A 
ATOM      4  C5  UNL d   1      -0.214  -3.223   0.673  0.00  0.00    -0.004 A 
ATOM      5  C6  UNL d   1      -0.702  -1.932   0.448  0.00  0.00    -0.075 A 
ATOM      6  C7  UNL d   1      -2.172  -1.683   0.276  0.00  0.00     0.076 C 
ATOM      7  C8  UNL d   1       0.199  -0.861   0.393  0.00  0.00     0.001 A 
ENDROOT
BRANCH   1   8
ATOM      8  C1  UNL d   1       2.536   0.092   0.491  0.00  0.00     0.053 C 
ATOM      9  C   UNL d   1       3.981  -0.370   0.391  0.00  0.00     0.018 C 
ENDBRANCH   1   8
TORSDOF 1
ENDMDL
