MODEL 1
REMARK minimizedAffinity 0.0933576226
REMARK minimizedRMSD -1
REMARK  1 active torsions:
REMARK  status: ('A' for Active; 'I' for Inactive)
REMARK    1  A    between atoms: C1_2  and  C2_3 
ROOT
ATOM      1  C2  UNL d   1       3.487  -0.220   0.451  0.00  0.00    -0.073 A 
ATOM      2  C3  UNL d   1       2.891   0.917  -0.107  0.00  0.00    -0.002 A 
ATOM      3  C4  UNL d   1       1.512   0.959  -0.316  0.00  0.00     0.004 A 
ATOM      4  C5  UNL d   1       0.715  -0.130   0.037  0.00  0.00    -0.004 A 
ATOM      5  C6  UNL d   1       1.291  -1.270   0.607  0.00  0.00    -0.075 A 
ATOM      6  C7  UNL d   1       0.447  -2.451   0.989  0.00  0.00     0.076 C 
ATOM      7  C8  UNL d   1       2.677  -1.306   0.810  0.00  0.00     0.001 A 
ENDROOT
BRANCH   1   8
ATOM      8  C1  UNL d   1       4.975  -0.268   0.684  0.00  0.00     0.053 C 
ATOM      9  C   UNL d   1       5.332  -0.019   2.141  0.00  0.00     0.018 C 
ENDBRANCH   1   8
TORSDOF 1
ENDMDL
