MODEL 1
REMARK minimizedAffinity -4.40168667
REMARK minimizedRMSD -1
REMARK  0 active torsions:
REMARK  status: ('A' for Active; 'I' for Inactive)
ROOT
ATOM      1  C1  DEN d   1       2.223   1.935  -0.016  0.00  0.00     0.130 A 
ATOM      2  C2  DEN d   1       1.386   3.111   0.199  0.00  0.00    -0.031 A 
ATOM      3  C3  DEN d   1       0.039   2.648   0.589  0.00  0.00     0.027 A 
ATOM      4  C4  DEN d   1      -0.825   0.236   0.885  0.00  0.00     0.027 A 
ATOM      5  C5  DEN d   1      -0.484  -1.097   0.802  0.00  0.00    -0.003 A 
ATOM      6  C6  DEN d   1       0.763  -1.509   0.412  0.00  0.00     0.001 A 
ATOM      7  C7  DEN d   1       1.728  -0.578   0.132  0.00  0.00     0.017 A 
ATOM      8  C8  DEN d   1       1.391   0.766   0.206  0.00  0.00    -0.094 A 
ATOM      9  C9  DEN d   1       0.129   1.163   0.614  0.00  0.00    -0.072 A 
ENDROOT
TORSDOF 0
ENDMDL
