MODEL 1
REMARK minimizedAffinity 7.4258399
REMARK minimizedRMSD -1
REMARK  0 active torsions:
REMARK  status: ('A' for Active; 'I' for Inactive)
ROOT
ATOM      1  C1  DEN d   1       2.364  -1.752  -1.542  0.00  0.00     0.130 A 
ATOM      2  C2  DEN d   1       2.986  -0.749  -0.682  0.00  0.00    -0.031 A 
ATOM      3  C3  DEN d   1       2.407  -0.883   0.669  0.00  0.00     0.027 A 
ATOM      4  C4  DEN d   1       0.618  -2.540   1.510  0.00  0.00     0.027 A 
ATOM      5  C5  DEN d   1      -0.216  -3.573   1.144  0.00  0.00    -0.003 A 
ATOM      6  C6  DEN d   1      -0.272  -4.046  -0.140  0.00  0.00     0.001 A 
ATOM      7  C7  DEN d   1       0.553  -3.514  -1.096  0.00  0.00     0.017 A 
ATOM      8  C8  DEN d   1       1.390  -2.466  -0.736  0.00  0.00    -0.094 A 
ATOM      9  C9  DEN d   1       1.442  -2.011   0.571  0.00  0.00    -0.072 A 
ENDROOT
TORSDOF 0
ENDMDL
