MODEL 1
REMARK minimizedAffinity 4.09901094
REMARK minimizedRMSD -1
REMARK  0 active torsions:
REMARK  status: ('A' for Active; 'I' for Inactive)
ROOT
ATOM      1  C1  DEN d   1      -2.237  -5.662  -0.332  0.00  0.00     0.130 A 
ATOM      2  C2  DEN d   1      -2.417  -4.653  -1.372  0.00  0.00    -0.031 A 
ATOM      3  C3  DEN d   1      -1.651  -3.452  -0.980  0.00  0.00     0.027 A 
ATOM      4  C4  DEN d   1      -0.208  -3.062   1.122  0.00  0.00     0.027 A 
ATOM      5  C5  DEN d   1       0.237  -3.624   2.297  0.00  0.00    -0.003 A 
ATOM      6  C6  DEN d   1      -0.134  -4.882   2.692  0.00  0.00     0.001 A 
ATOM      7  C7  DEN d   1      -0.941  -5.637   1.882  0.00  0.00     0.017 A 
ATOM      8  C8  DEN d   1      -1.400  -5.074   0.699  0.00  0.00    -0.094 A 
ATOM      9  C9  DEN d   1      -1.003  -3.806   0.311  0.00  0.00    -0.072 A 
ENDROOT
TORSDOF 0
ENDMDL
