MODEL 1
REMARK minimizedAffinity -0.331968337
REMARK minimizedRMSD -1
REMARK  0 active torsions:
REMARK  status: ('A' for Active; 'I' for Inactive)
ROOT
ATOM      1  C1  DEN d   1      -1.125  -5.500   2.323  0.00  0.00     0.130 A 
ATOM      2  C2  DEN d   1      -0.509  -4.802   3.449  0.00  0.00    -0.031 A 
ATOM      3  C3  DEN d   1      -0.232  -3.414   3.029  0.00  0.00     0.027 A 
ATOM      4  C4  DEN d   1      -0.698  -2.282   0.758  0.00  0.00     0.027 A 
ATOM      5  C5  DEN d   1      -1.197  -2.475  -0.511  0.00  0.00    -0.003 A 
ATOM      6  C6  DEN d   1      -1.673  -3.688  -0.931  0.00  0.00     0.001 A 
ATOM      7  C7  DEN d   1      -1.700  -4.745  -0.061  0.00  0.00     0.017 A 
ATOM      8  C8  DEN d   1      -1.191  -4.561   1.218  0.00  0.00    -0.094 A 
ATOM      9  C9  DEN d   1      -0.727  -3.323   1.629  0.00  0.00    -0.072 A 
ENDROOT
TORSDOF 0
ENDMDL
