MODEL 1
REMARK minimizedAffinity 11.6786852
REMARK minimizedRMSD -1
REMARK  0 active torsions:
REMARK  status: ('A' for Active; 'I' for Inactive)
ROOT
ATOM      1  C1  DEN d   1      -1.579  -3.330  -0.156  0.00  0.00     0.130 A 
ATOM      2  C2  DEN d   1      -1.797  -4.153  -1.343  0.00  0.00    -0.031 A 
ATOM      3  C3  DEN d   1      -0.494  -4.340  -2.013  0.00  0.00     0.027 A 
ATOM      4  C4  DEN d   1       1.826  -3.446  -1.328  0.00  0.00     0.027 A 
ATOM      5  C5  DEN d   1       2.509  -2.691  -0.401  0.00  0.00    -0.003 A 
ATOM      6  C6  DEN d   1       1.878  -2.072   0.645  0.00  0.00     0.001 A 
ATOM      7  C7  DEN d   1       0.528  -2.236   0.816  0.00  0.00     0.017 A 
ATOM      8  C8  DEN d   1      -0.169  -2.990  -0.119  0.00  0.00    -0.094 A 
ATOM      9  C9  DEN d   1       0.490  -3.617  -1.163  0.00  0.00    -0.072 A 
ENDROOT
TORSDOF 0
ENDMDL
