MODEL 1
REMARK minimizedAffinity -0.330008775
REMARK minimizedRMSD -1
REMARK  0 active torsions:
REMARK  status: ('A' for Active; 'I' for Inactive)
ROOT
ATOM      1  C1  DEN d   1       0.897   1.312   1.613  0.00  0.00     0.130 A 
ATOM      2  C2  DEN d   1       2.213   0.920   1.115  0.00  0.00    -0.031 A 
ATOM      3  C3  DEN d   1       2.091  -0.422   0.511  0.00  0.00     0.027 A 
ATOM      4  C4  DEN d   1       0.003  -1.921   0.296  0.00  0.00     0.027 A 
ATOM      5  C5  DEN d   1      -1.341  -2.021   0.581  0.00  0.00    -0.003 A 
ATOM      6  C6  DEN d   1      -2.020  -1.041   1.254  0.00  0.00     0.001 A 
ATOM      7  C7  DEN d   1      -1.367   0.105   1.626  0.00  0.00     0.017 A 
ATOM      8  C8  DEN d   1      -0.010   0.210   1.349  0.00  0.00    -0.094 A 
ATOM      9  C9  DEN d   1       0.656  -0.787   0.656  0.00  0.00    -0.072 A 
ENDROOT
TORSDOF 0
ENDMDL
