MODEL 1
REMARK minimizedAffinity 4.96949291
REMARK minimizedRMSD -1
REMARK  0 active torsions:
REMARK  status: ('A' for Active; 'I' for Inactive)
ROOT
ATOM      1  C1  DEN d   1      -0.922  -3.298   1.989  0.00  0.00     0.130 A 
ATOM      2  C2  DEN d   1       0.326  -2.865   1.368  0.00  0.00    -0.031 A 
ATOM      3  C3  DEN d   1       0.252  -3.180  -0.073  0.00  0.00     0.027 A 
ATOM      4  C4  DEN d   1      -1.668  -4.284  -1.396  0.00  0.00     0.027 A 
ATOM      5  C5  DEN d   1      -2.926  -4.835  -1.298  0.00  0.00    -0.003 A 
ATOM      6  C6  DEN d   1      -3.586  -4.942  -0.103  0.00  0.00     0.001 A 
ATOM      7  C7  DEN d   1      -3.008  -4.451   1.038  0.00  0.00     0.017 A 
ATOM      8  C8  DEN d   1      -1.736  -3.900   0.949  0.00  0.00    -0.094 A 
ATOM      9  C9  DEN d   1      -1.091  -3.790  -0.271  0.00  0.00    -0.072 A 
ENDROOT
TORSDOF 0
ENDMDL
