MODEL 1
REMARK minimizedAffinity 3.66410255
REMARK minimizedRMSD -1
REMARK  0 active torsions:
REMARK  status: ('A' for Active; 'I' for Inactive)
ROOT
ATOM      1  C1  DEN d   1      -0.400   1.247   3.159  0.00  0.00     0.130 A 
ATOM      2  C2  DEN d   1      -1.517   2.186   3.114  0.00  0.00    -0.031 A 
ATOM      3  C3  DEN d   1      -1.208   3.217   2.102  0.00  0.00     0.027 A 
ATOM      4  C4  DEN d   1       0.881   3.446   0.606  0.00  0.00     0.027 A 
ATOM      5  C5  DEN d   1       2.104   2.894   0.293  0.00  0.00    -0.003 A 
ATOM      6  C6  DEN d   1       2.589   1.784   0.932  0.00  0.00     0.001 A 
ATOM      7  C7  DEN d   1       1.827   1.163   1.886  0.00  0.00     0.017 A 
ATOM      8  C8  DEN d   1       0.596   1.717   2.212  0.00  0.00    -0.094 A 
ATOM      9  C9  DEN d   1       0.118   2.833   1.546  0.00  0.00    -0.072 A 
ENDROOT
TORSDOF 0
ENDMDL
