MODEL 1
REMARK minimizedAffinity 7.3024478
REMARK minimizedRMSD -1
REMARK  0 active torsions:
REMARK  status: ('A' for Active; 'I' for Inactive)
ROOT
ATOM      1  C1  DEN d   1      -0.207   2.269  -4.619  0.00  0.00     0.130 A 
ATOM      2  C2  DEN d   1       0.392   3.395  -5.330  0.00  0.00    -0.031 A 
ATOM      3  C3  DEN d   1      -0.693   4.141  -5.999  0.00  0.00     0.027 A 
ATOM      4  C4  DEN d   1      -3.228   3.667  -5.999  0.00  0.00     0.027 A 
ATOM      5  C5  DEN d   1      -4.211   2.815  -5.546  0.00  0.00    -0.003 A 
ATOM      6  C6  DEN d   1      -3.927   1.712  -4.786  0.00  0.00     0.001 A 
ATOM      7  C7  DEN d   1      -2.632   1.455  -4.419  0.00  0.00     0.017 A 
ATOM      8  C8  DEN d   1      -1.635   2.305  -4.878  0.00  0.00    -0.094 A 
ATOM      9  C9  DEN d   1      -1.944   3.423  -5.635  0.00  0.00    -0.072 A 
ENDROOT
TORSDOF 0
ENDMDL
