MODEL 1
REMARK minimizedAffinity 6.16248798
REMARK minimizedRMSD -1
REMARK  0 active torsions:
REMARK  status: ('A' for Active; 'I' for Inactive)
ROOT
ATOM      1  C1  DEN d   1       1.121   1.844  -3.130  0.00  0.00     0.130 A 
ATOM      2  C2  DEN d   1       2.132   1.669  -4.169  0.00  0.00    -0.031 A 
ATOM      3  C3  DEN d   1       1.456   1.739  -5.480  0.00  0.00     0.027 A 
ATOM      4  C4  DEN d   1      -1.044   2.104  -5.999  0.00  0.00     0.027 A 
ATOM      5  C5  DEN d   1      -2.290   2.291  -5.443  0.00  0.00    -0.003 A 
ATOM      6  C6  DEN d   1      -2.490   2.309  -4.088  0.00  0.00     0.001 A 
ATOM      7  C7  DEN d   1      -1.420   2.181  -3.242  0.00  0.00     0.017 A 
ATOM      8  C8  DEN d   1      -0.161   1.984  -3.795  0.00  0.00    -0.094 A 
ATOM      9  C9  DEN d   1       0.022   1.982  -5.168  0.00  0.00    -0.072 A 
ENDROOT
TORSDOF 0
ENDMDL
