MODEL 1
REMARK minimizedAffinity -2.99133158
REMARK minimizedRMSD -1
REMARK  0 active torsions:
REMARK  status: ('A' for Active; 'I' for Inactive)
ROOT
ATOM      1  C1  DEN d   1       1.632  -3.196  -0.783  0.00  0.00     0.130 A 
ATOM      2  C2  DEN d   1       2.209  -2.809   0.501  0.00  0.00    -0.031 A 
ATOM      3  C3  DEN d   1       1.109  -2.704   1.482  0.00  0.00     0.027 A 
ATOM      4  C4  DEN d   1      -1.415  -3.106   1.138  0.00  0.00     0.027 A 
ATOM      5  C5  DEN d   1      -2.383  -3.441   0.217  0.00  0.00    -0.003 A 
ATOM      6  C6  DEN d   1      -2.088  -3.683  -1.098  0.00  0.00     0.001 A 
ATOM      7  C7  DEN d   1      -0.785  -3.637  -1.520  0.00  0.00     0.017 A 
ATOM      8  C8  DEN d   1       0.195  -3.293  -0.600  0.00  0.00    -0.094 A 
ATOM      9  C9  DEN d   1      -0.122  -3.064   0.728  0.00  0.00    -0.072 A 
ENDROOT
TORSDOF 0
ENDMDL
