MODEL 1
REMARK minimizedAffinity 10.3243799
REMARK minimizedRMSD -1
REMARK  0 active torsions:
REMARK  status: ('A' for Active; 'I' for Inactive)
ROOT
ATOM      1  C1  DEN d   1      -1.963   1.611   1.161  0.00  0.00     0.130 A 
ATOM      2  C2  DEN d   1      -1.228   0.748   2.082  0.00  0.00    -0.031 A 
ATOM      3  C3  DEN d   1      -2.143  -0.319   2.536  0.00  0.00     0.027 A 
ATOM      4  C4  DEN d   1      -4.611  -0.718   1.903  0.00  0.00     0.027 A 
ATOM      5  C5  DEN d   1      -5.671  -0.243   1.164  0.00  0.00    -0.003 A 
ATOM      6  C6  DEN d   1      -5.581   0.894   0.405  0.00  0.00     0.001 A 
ATOM      7  C7  DEN d   1      -4.391   1.569   0.333  0.00  0.00     0.017 A 
ATOM      8  C8  DEN d   1      -3.319   1.099   1.081  0.00  0.00    -0.094 A 
ATOM      9  C9  DEN d   1      -3.427  -0.059   1.832  0.00  0.00    -0.072 A 
ENDROOT
TORSDOF 0
ENDMDL
