MODEL 1
REMARK minimizedAffinity 14.3528509
REMARK minimizedRMSD -1
REMARK  0 active torsions:
REMARK  status: ('A' for Active; 'I' for Inactive)
ROOT
ATOM      1  C   UNL d   1       1.081  -4.121  -1.371  0.00  0.00     0.124 A 
ATOM      2  C1  UNL d   1       1.090  -4.047   0.015  0.00  0.00     0.062 A 
ATOM      3  C2  UNL d   1       1.600  -2.920   0.652  0.00  0.00     0.162 A 
ATOM      4  C3  UNL d   1       2.105  -1.856  -0.096  0.00  0.00    -0.034 A 
ATOM      5  C4  UNL d   1       2.093  -1.939  -1.490  0.00  0.00     0.162 A 
ATOM      6  C5  UNL d   1       1.582  -3.068  -2.122  0.00  0.00     0.062 A 
ATOM      7  F   UNL d   1       1.574  -3.138  -3.461  0.00  0.00    -0.097 F 
ATOM      8  F1  UNL d   1       2.571  -0.934  -2.240  0.00  0.00    -0.096 F 
ATOM      9  I   UNL d   1       2.869  -0.169   0.853  0.00  0.00    -0.060 I 
ATOM     10  F2  UNL d   1       1.596  -2.875   1.993  0.00  0.00    -0.096 F 
ATOM     11  F3  UNL d   1       0.607  -5.064   0.743  0.00  0.00    -0.097 F 
ATOM     12  F4  UNL d   1       0.590  -5.208  -1.982  0.00  0.00    -0.092 F 
ENDROOT
TORSDOF 0
ENDMDL
