MODEL 1
REMARK minimizedAffinity 26.7846928
REMARK minimizedRMSD -1
REMARK  0 active torsions:
REMARK  status: ('A' for Active; 'I' for Inactive)
ROOT
ATOM      1  C   UNL d   1       0.871   4.197  -0.570  0.00  0.00     0.124 A 
ATOM      2  C1  UNL d   1      -0.258   3.547  -0.092  0.00  0.00     0.062 A 
ATOM      3  C2  UNL d   1      -0.131   2.368   0.638  0.00  0.00     0.162 A 
ATOM      4  C3  UNL d   1       1.132   1.832   0.894  0.00  0.00    -0.034 A 
ATOM      5  C4  UNL d   1       2.262   2.492   0.408  0.00  0.00     0.162 A 
ATOM      6  C5  UNL d   1       2.129   3.670  -0.320  0.00  0.00     0.062 A 
ATOM      7  F   UNL d   1       3.221   4.296  -0.782  0.00  0.00    -0.097 F 
ATOM      8  F1  UNL d   1       3.491   2.004   0.636  0.00  0.00    -0.096 F 
ATOM      9  I   UNL d   1       1.327   0.070   1.984  0.00  0.00    -0.060 I 
ATOM     10  F2  UNL d   1      -1.239   1.761   1.088  0.00  0.00    -0.096 F 
ATOM     11  F3  UNL d   1      -1.476   4.055  -0.333  0.00  0.00    -0.097 F 
ATOM     12  F4  UNL d   1       0.745   5.331  -1.272  0.00  0.00    -0.092 F 
ENDROOT
TORSDOF 0
ENDMDL
