MODEL 1
REMARK minimizedAffinity 11.9255438
REMARK minimizedRMSD -1
REMARK  0 active torsions:
REMARK  status: ('A' for Active; 'I' for Inactive)
ROOT
ATOM      1  C   UNL d   1       1.820  -0.155   2.336  0.00  0.00     0.124 A 
ATOM      2  C1  UNL d   1       1.567   0.073   3.681  0.00  0.00     0.062 A 
ATOM      3  C2  UNL d   1       1.185  -0.979   4.510  0.00  0.00     0.162 A 
ATOM      4  C3  UNL d   1       1.055  -2.269   3.995  0.00  0.00    -0.034 A 
ATOM      5  C4  UNL d   1       1.310  -2.490   2.640  0.00  0.00     0.162 A 
ATOM      6  C5  UNL d   1       1.691  -1.436   1.817  0.00  0.00     0.062 A 
ATOM      7  F   UNL d   1       1.935  -1.658   0.517  0.00  0.00    -0.097 F 
ATOM      8  F1  UNL d   1       1.195  -3.718   2.113  0.00  0.00    -0.096 F 
ATOM      9  I   UNL d   1       0.485  -3.844   5.230  0.00  0.00    -0.060 I 
ATOM     10  F2  UNL d   1       0.947  -0.730   5.806  0.00  0.00    -0.096 F 
ATOM     11  F3  UNL d   1       1.689   1.309   4.185  0.00  0.00    -0.097 F 
ATOM     12  F4  UNL d   1       2.186   0.858   1.541  0.00  0.00    -0.092 F 
ENDROOT
TORSDOF 0
ENDMDL
