MODEL 1
REMARK minimizedAffinity 14.9278841
REMARK minimizedRMSD -1
REMARK  0 active torsions:
REMARK  status: ('A' for Active; 'I' for Inactive)
ROOT
ATOM      1  C   UNL d   1      -5.533  -2.837  -4.862  0.00  0.00     0.124 A 
ATOM      2  C1  UNL d   1      -5.078  -4.148  -4.858  0.00  0.00     0.062 A 
ATOM      3  C2  UNL d   1      -4.620  -4.727  -3.678  0.00  0.00     0.162 A 
ATOM      4  C3  UNL d   1      -4.616  -3.995  -2.491  0.00  0.00    -0.034 A 
ATOM      5  C4  UNL d   1      -5.074  -2.676  -2.503  0.00  0.00     0.162 A 
ATOM      6  C5  UNL d   1      -5.530  -2.102  -3.685  0.00  0.00     0.062 A 
ATOM      7  F   UNL d   1      -5.969  -0.835  -3.687  0.00  0.00    -0.097 F 
ATOM      8  F1  UNL d   1      -5.084  -1.943  -1.379  0.00  0.00    -0.096 F 
ATOM      9  I   UNL d   1      -3.933  -4.856  -0.724  0.00  0.00    -0.060 I 
ATOM     10  F2  UNL d   1      -4.187  -5.996  -3.703  0.00  0.00    -0.096 F 
ATOM     11  F3  UNL d   1      -5.078  -4.860  -5.995  0.00  0.00    -0.097 F 
ATOM     12  F4  UNL d   1      -5.971  -2.282  -6.000  0.00  0.00    -0.092 F 
ENDROOT
TORSDOF 0
ENDMDL
