MODEL 1
REMARK minimizedAffinity 7.74845457
REMARK minimizedRMSD -1
REMARK  0 active torsions:
REMARK  status: ('A' for Active; 'I' for Inactive)
ROOT
ATOM      1  C   UNL d   1      -4.205   2.059   1.036  0.00  0.00     0.124 A 
ATOM      2  C1  UNL d   1      -5.105   1.079   0.641  0.00  0.00     0.062 A 
ATOM      3  C2  UNL d   1      -5.118   0.630  -0.677  0.00  0.00     0.162 A 
ATOM      4  C3  UNL d   1      -4.226   1.161  -1.610  0.00  0.00    -0.034 A 
ATOM      5  C4  UNL d   1      -3.325   2.147  -1.205  0.00  0.00     0.162 A 
ATOM      6  C5  UNL d   1      -3.316   2.592   0.113  0.00  0.00     0.062 A 
ATOM      7  F   UNL d   1      -2.446   3.539   0.493  0.00  0.00    -0.097 F 
ATOM      8  F1  UNL d   1      -2.454   2.678  -2.076  0.00  0.00    -0.096 F 
ATOM      9  I   UNL d   1      -4.242   0.492  -3.581  0.00  0.00    -0.060 I 
ATOM     10  F2  UNL d   1      -5.998  -0.318  -1.031  0.00  0.00    -0.096 F 
ATOM     11  F3  UNL d   1      -5.966   0.563   1.530  0.00  0.00    -0.097 F 
ATOM     12  F4  UNL d   1      -4.196   2.490   2.304  0.00  0.00    -0.092 F 
ENDROOT
TORSDOF 0
ENDMDL
