MODEL 1
REMARK minimizedAffinity 19.6031532
REMARK minimizedRMSD -1
REMARK  0 active torsions:
REMARK  status: ('A' for Active; 'I' for Inactive)
ROOT
ATOM      1  C   UNL d   1       2.297  -4.583   4.589  0.00  0.00     0.124 A 
ATOM      2  C1  UNL d   1       1.068  -4.146   4.116  0.00  0.00     0.062 A 
ATOM      3  C2  UNL d   1       0.972  -2.941   3.426  0.00  0.00     0.162 A 
ATOM      4  C3  UNL d   1       2.109  -2.164   3.204  0.00  0.00    -0.034 A 
ATOM      5  C4  UNL d   1       3.342  -2.610   3.684  0.00  0.00     0.162 A 
ATOM      6  C5  UNL d   1       3.433  -3.815   4.373  0.00  0.00     0.062 A 
ATOM      7  F   UNL d   1       4.622  -4.236   4.829  0.00  0.00    -0.097 F 
ATOM      8  F1  UNL d   1       4.456  -1.889   3.487  0.00  0.00    -0.096 F 
ATOM      9  I   UNL d   1       1.970  -0.362   2.173  0.00  0.00    -0.060 I 
ATOM     10  F2  UNL d   1      -0.229  -2.543   2.981  0.00  0.00    -0.096 F 
ATOM     11  F3  UNL d   1      -0.031  -4.885   4.325  0.00  0.00    -0.097 F 
ATOM     12  F4  UNL d   1       2.387  -5.742   5.254  0.00  0.00    -0.092 F 
ENDROOT
TORSDOF 0
ENDMDL
