MODEL 1
REMARK minimizedAffinity 16.4790344
REMARK minimizedRMSD -1
REMARK  0 active torsions:
REMARK  status: ('A' for Active; 'I' for Inactive)
ROOT
ATOM      1  C   UNL d   1      -3.759   3.980   2.007  0.00  0.00     0.124 A 
ATOM      2  C1  UNL d   1      -4.893   3.978   1.206  0.00  0.00     0.062 A 
ATOM      3  C2  UNL d   1      -4.890   3.300  -0.010  0.00  0.00     0.162 A 
ATOM      4  C3  UNL d   1      -3.749   2.618  -0.432  0.00  0.00    -0.034 A 
ATOM      5  C4  UNL d   1      -2.612   2.625   0.379  0.00  0.00     0.162 A 
ATOM      6  C5  UNL d   1      -2.621   3.304   1.593  0.00  0.00     0.062 A 
ATOM      7  F   UNL d   1      -1.524   3.305   2.365  0.00  0.00    -0.097 F 
ATOM      8  F1  UNL d   1      -1.499   1.979   0.003  0.00  0.00    -0.096 F 
ATOM      9  I   UNL d   1      -3.740   1.603  -2.249  0.00  0.00    -0.060 I 
ATOM     10  F2  UNL d   1      -5.999   3.315  -0.763  0.00  0.00    -0.096 F 
ATOM     11  F3  UNL d   1      -5.994   4.631   1.603  0.00  0.00    -0.097 F 
ATOM     12  F4  UNL d   1      -3.765   4.634   3.175  0.00  0.00    -0.092 F 
ENDROOT
TORSDOF 0
ENDMDL
