MODEL 1
REMARK minimizedAffinity 1.70310414
REMARK minimizedRMSD -1
REMARK  1 active torsions:
REMARK  status: ('A' for Active; 'I' for Inactive)
REMARK    1  A    between atoms: N_2  and  C1_3 
ROOT
ATOM      1  C1  UNL d   1       0.161  -0.196   0.280  0.00  0.00     0.143 A 
ATOM      2  C2  UNL d   1      -0.738   0.262   1.249  0.00  0.00    -0.057 A 
ATOM      3  C3  UNL d   1      -0.677  -0.196   2.570  0.00  0.00     0.033 A 
ATOM      4  C4  UNL d   1       0.269  -1.146   2.941  0.00  0.00    -0.042 A 
ATOM      5  C5  UNL d   1       1.157  -1.634   1.989  0.00  0.00     0.033 A 
ATOM      6  C6  UNL d   1       1.095  -1.167   0.672  0.00  0.00    -0.057 A 
ENDROOT
BRANCH   1   7
ATOM      7  N   UNL d   1       0.089   0.147  -1.072  0.00  0.00    -0.732 N 
ATOM      8  C   UNL d   1      -0.430   1.435  -1.479  0.00  0.00     0.284 C 
ATOM      9  H3  UNL d   1       0.910  -0.154  -1.594  0.00  0.00     0.395 HD
ENDBRANCH   1   7
TORSDOF 1
ENDMDL
