MODEL 1
REMARK minimizedAffinity -5.57835007
REMARK minimizedRMSD -1
REMARK  1 active torsions:
REMARK  status: ('A' for Active; 'I' for Inactive)
REMARK    1  A    between atoms: N_2  and  C1_3 
ROOT
ATOM      1  C1  UNL d   1       0.503   0.050   0.354  0.00  0.00     0.143 A 
ATOM      2  C2  UNL d   1       1.562  -0.842   0.152  0.00  0.00    -0.057 A 
ATOM      3  C3  UNL d   1       2.042  -1.647   1.192  0.00  0.00     0.033 A 
ATOM      4  C4  UNL d   1       1.489  -1.552   2.465  0.00  0.00    -0.042 A 
ATOM      5  C5  UNL d   1       0.452  -0.654   2.695  0.00  0.00     0.033 A 
ATOM      6  C6  UNL d   1      -0.027   0.142   1.650  0.00  0.00    -0.057 A 
ENDROOT
BRANCH   1   7
ATOM      7  N   UNL d   1       0.046   0.947  -0.615  0.00  0.00    -0.732 N 
ATOM      8  C   UNL d   1      -0.523   0.466  -1.855  0.00  0.00     0.284 C 
ATOM      9  H3  UNL d   1      -0.450   1.738  -0.209  0.00  0.00     0.395 HD
ENDBRANCH   1   7
TORSDOF 1
ENDMDL
