MODEL 1
REMARK minimizedAffinity -3.97319508
REMARK minimizedRMSD -1
REMARK  1 active torsions:
REMARK  status: ('A' for Active; 'I' for Inactive)
REMARK    1  A    between atoms: N_2  and  C1_3 
ROOT
ATOM      1  C1  UNL d   1      -0.321   0.201   0.672  0.00  0.00     0.143 A 
ATOM      2  C2  UNL d   1      -1.000  -0.499   1.675  0.00  0.00    -0.057 A 
ATOM      3  C3  UNL d   1      -0.308  -1.262   2.623  0.00  0.00     0.033 A 
ATOM      4  C4  UNL d   1       1.078  -1.361   2.568  0.00  0.00    -0.042 A 
ATOM      5  C5  UNL d   1       1.772  -0.694   1.564  0.00  0.00     0.033 A 
ATOM      6  C6  UNL d   1       1.076   0.072   0.624  0.00  0.00    -0.057 A 
ENDROOT
BRANCH   1   7
ATOM      7  N   UNL d   1      -0.958   0.896  -0.359  0.00  0.00    -0.732 N 
ATOM      8  C   UNL d   1      -0.579   0.679  -1.739  0.00  0.00     0.284 C 
ATOM      9  H3  UNL d   1      -1.962   0.977  -0.211  0.00  0.00     0.395 HD
ENDBRANCH   1   7
TORSDOF 1
ENDMDL
