MODEL 1
REMARK minimizedAffinity -0.197607592
REMARK minimizedRMSD -1
REMARK  1 active torsions:
REMARK  status: ('A' for Active; 'I' for Inactive)
REMARK    1  A    between atoms: N_2  and  C1_3 
ROOT
ATOM      1  C1  UNL d   1      -0.200   1.181  -1.611  0.00  0.00     0.143 A 
ATOM      2  C2  UNL d   1       0.842   0.968  -0.702  0.00  0.00    -0.057 A 
ATOM      3  C3  UNL d   1       0.725   0.028   0.329  0.00  0.00     0.033 A 
ATOM      4  C4  UNL d   1      -0.452  -0.697   0.487  0.00  0.00    -0.042 A 
ATOM      5  C5  UNL d   1      -1.510  -0.484  -0.390  0.00  0.00     0.033 A 
ATOM      6  C6  UNL d   1      -1.384   0.451  -1.422  0.00  0.00    -0.057 A 
ENDROOT
BRANCH   1   7
ATOM      7  N   UNL d   1      -0.182   2.171  -2.597  0.00  0.00    -0.732 N 
ATOM      8  C   UNL d   1      -1.337   3.014  -2.817  0.00  0.00     0.284 C 
ATOM      9  H3  UNL d   1       0.707   2.665  -2.635  0.00  0.00     0.395 HD
ENDBRANCH   1   7
TORSDOF 1
ENDMDL
