MODEL 1
REMARK minimizedAffinity -3.3618176
REMARK minimizedRMSD -1
REMARK  1 active torsions:
REMARK  status: ('A' for Active; 'I' for Inactive)
REMARK    1  A    between atoms: N_2  and  C1_3 
ROOT
ATOM      1  C1  UNL d   1      -0.454   0.201  -0.673  0.00  0.00     0.143 A 
ATOM      2  C2  UNL d   1       0.568  -0.481  -0.004  0.00  0.00    -0.057 A 
ATOM      3  C3  UNL d   1       0.542  -0.646   1.386  0.00  0.00     0.033 A 
ATOM      4  C4  UNL d   1      -0.496  -0.104   2.137  0.00  0.00    -0.042 A 
ATOM      5  C5  UNL d   1      -1.509   0.599   1.496  0.00  0.00     0.033 A 
ATOM      6  C6  UNL d   1      -1.481   0.755   0.107  0.00  0.00    -0.057 A 
ENDROOT
BRANCH   1   7
ATOM      7  N   UNL d   1      -0.434   0.483  -2.042  0.00  0.00    -0.732 N 
ATOM      8  C   UNL d   1      -0.962   1.734  -2.544  0.00  0.00     0.284 C 
ATOM      9  H3  UNL d   1       0.432   0.189  -2.487  0.00  0.00     0.395 HD
ENDBRANCH   1   7
TORSDOF 1
ENDMDL
