MODEL 1
REMARK minimizedAffinity -2.61346793
REMARK minimizedRMSD -1
REMARK  1 active torsions:
REMARK  status: ('A' for Active; 'I' for Inactive)
REMARK    1  A    between atoms: N_2  and  C1_3 
ROOT
ATOM      1  C1  UNL d   1      -0.290   0.944  -0.831  0.00  0.00     0.143 A 
ATOM      2  C2  UNL d   1      -0.091   1.650   0.360  0.00  0.00    -0.057 A 
ATOM      3  C3  UNL d   1      -0.301   1.045   1.606  0.00  0.00     0.033 A 
ATOM      4  C4  UNL d   1      -0.743  -0.271   1.681  0.00  0.00    -0.042 A 
ATOM      5  C5  UNL d   1      -0.972  -0.984   0.509  0.00  0.00     0.033 A 
ATOM      6  C6  UNL d   1      -0.753  -0.377  -0.732  0.00  0.00    -0.057 A 
ENDROOT
BRANCH   1   7
ATOM      7  N   UNL d   1      -0.193   1.519  -2.101  0.00  0.00    -0.732 N 
ATOM      8  C   UNL d   1      -1.237   2.388  -2.598  0.00  0.00     0.284 C 
ATOM      9  H3  UNL d   1       0.750   1.839  -2.312  0.00  0.00     0.395 HD
ENDBRANCH   1   7
TORSDOF 1
ENDMDL
