MODEL 1
REMARK minimizedAffinity 0.077892296
REMARK minimizedRMSD -1
REMARK  0 active torsions:
REMARK  status: ('A' for Active; 'I' for Inactive)
ROOT
ATOM      1  C   UNL d   1       1.154   2.395  -2.519  0.00  0.00     0.077 C 
ATOM      2  C1  UNL d   1       2.152   1.326  -2.184  0.00  0.00    -0.074 A 
ATOM      3  C2  UNL d   1       3.524   1.597  -2.188  0.00  0.00    -0.005 A 
ATOM      4  C3  UNL d   1       4.440   0.596  -1.865  0.00  0.00     0.006 A 
ATOM      5  C4  UNL d   1       3.994  -0.685  -1.536  0.00  0.00    -0.005 A 
ATOM      6  C5  UNL d   1       2.626  -0.974  -1.525  0.00  0.00    -0.074 A 
ATOM      7  C6  UNL d   1       2.129  -2.342  -1.164  0.00  0.00     0.077 C 
ATOM      8  C7  UNL d   1       1.711   0.039  -1.844  0.00  0.00    -0.001 A 
ENDROOT
TORSDOF 0
ENDMDL
