MODEL 1
REMARK minimizedAffinity 9.55696869
REMARK minimizedRMSD -1
REMARK  0 active torsions:
REMARK  status: ('A' for Active; 'I' for Inactive)
ROOT
ATOM      1  C   UNL d   1      -1.393  -1.247  -1.201  0.00  0.00     0.077 C 
ATOM      2  C1  UNL d   1       0.011  -1.675  -0.894  0.00  0.00    -0.074 A 
ATOM      3  C2  UNL d   1       1.098  -1.116  -1.573  0.00  0.00    -0.005 A 
ATOM      4  C3  UNL d   1       2.399  -1.517  -1.269  0.00  0.00     0.006 A 
ATOM      5  C4  UNL d   1       2.625  -2.481  -0.286  0.00  0.00    -0.005 A 
ATOM      6  C5  UNL d   1       1.551  -3.051   0.404  0.00  0.00    -0.074 A 
ATOM      7  C6  UNL d   1       1.777  -4.080   1.471  0.00  0.00     0.077 C 
ATOM      8  C7  UNL d   1       0.247  -2.637   0.099  0.00  0.00    -0.001 A 
ENDROOT
TORSDOF 0
ENDMDL
