MODEL 1
REMARK minimizedAffinity 10.2085686
REMARK minimizedRMSD -1
REMARK  0 active torsions:
REMARK  status: ('A' for Active; 'I' for Inactive)
ROOT
ATOM      1  C   UNL d   1      -3.602   6.000   5.775  0.00  0.00     0.077 C 
ATOM      2  C1  UNL d   1      -3.415   5.245   4.492  0.00  0.00    -0.074 A 
ATOM      3  C2  UNL d   1      -2.195   5.278   3.809  0.00  0.00    -0.005 A 
ATOM      4  C3  UNL d   1      -2.034   4.563   2.623  0.00  0.00     0.006 A 
ATOM      5  C4  UNL d   1      -3.089   3.809   2.108  0.00  0.00    -0.005 A 
ATOM      6  C5  UNL d   1      -4.316   3.763   2.777  0.00  0.00    -0.074 A 
ATOM      7  C6  UNL d   1      -5.457   2.949   2.242  0.00  0.00     0.077 C 
ATOM      8  C7  UNL d   1      -4.468   4.478   3.972  0.00  0.00    -0.001 A 
ENDROOT
TORSDOF 0
ENDMDL
