MODEL 1
REMARK minimizedAffinity 3.20765328
REMARK minimizedRMSD -1
REMARK  0 active torsions:
REMARK  status: ('A' for Active; 'I' for Inactive)
ROOT
ATOM      1  C   UNL d   1      -5.986   2.931   3.525  0.00  0.00     0.077 C 
ATOM      2  C1  UNL d   1      -5.347   1.604   3.806  0.00  0.00    -0.074 A 
ATOM      3  C2  UNL d   1      -4.157   1.231   3.173  0.00  0.00    -0.005 A 
ATOM      4  C3  UNL d   1      -3.568  -0.003   3.451  0.00  0.00     0.006 A 
ATOM      5  C4  UNL d   1      -4.163  -0.875   4.364  0.00  0.00    -0.005 A 
ATOM      6  C5  UNL d   1      -5.352  -0.519   5.008  0.00  0.00    -0.074 A 
ATOM      7  C6  UNL d   1      -5.999  -1.440   5.999  0.00  0.00     0.077 C 
ATOM      8  C7  UNL d   1      -5.934   0.726   4.728  0.00  0.00    -0.001 A 
ENDROOT
TORSDOF 0
ENDMDL
