MODEL 1
REMARK minimizedAffinity 3.21014333
REMARK minimizedRMSD -1
REMARK  0 active torsions:
REMARK  status: ('A' for Active; 'I' for Inactive)
ROOT
ATOM      1  C   UNL d   1       0.710  -3.229  -4.064  0.00  0.00     0.077 C 
ATOM      2  C1  UNL d   1       0.845  -1.979  -3.247  0.00  0.00    -0.074 A 
ATOM      3  C2  UNL d   1       0.867  -2.032  -1.849  0.00  0.00    -0.005 A 
ATOM      4  C3  UNL d   1       1.003  -0.861  -1.103  0.00  0.00     0.006 A 
ATOM      5  C4  UNL d   1       1.117   0.372  -1.746  0.00  0.00    -0.005 A 
ATOM      6  C5  UNL d   1       1.098   0.445  -3.142  0.00  0.00    -0.074 A 
ATOM      7  C6  UNL d   1       1.229   1.761  -3.848  0.00  0.00     0.077 C 
ATOM      8  C7  UNL d   1       0.968  -0.737  -3.885  0.00  0.00    -0.001 A 
ENDROOT
TORSDOF 0
ENDMDL
