MODEL 1
REMARK minimizedAffinity -1.52586281
REMARK minimizedRMSD -1
REMARK  0 active torsions:
REMARK  status: ('A' for Active; 'I' for Inactive)
ROOT
ATOM      1  C   UNL d   1       0.154  -1.222  -0.396  0.00  0.00     0.077 C 
ATOM      2  C1  UNL d   1       1.208  -0.553  -1.227  0.00  0.00    -0.074 A 
ATOM      3  C2  UNL d   1       2.435  -1.179  -1.471  0.00  0.00    -0.005 A 
ATOM      4  C3  UNL d   1       3.402  -0.548  -2.254  0.00  0.00     0.006 A 
ATOM      5  C4  UNL d   1       3.154   0.712  -2.799  0.00  0.00    -0.005 A 
ATOM      6  C5  UNL d   1       1.933   1.353  -2.566  0.00  0.00    -0.074 A 
ATOM      7  C6  UNL d   1       1.645   2.703  -3.152  0.00  0.00     0.077 C 
ATOM      8  C7  UNL d   1       0.963   0.710  -1.784  0.00  0.00    -0.001 A 
ENDROOT
TORSDOF 0
ENDMDL
