MODEL 1
REMARK minimizedAffinity 1.09691834
REMARK minimizedRMSD -1
REMARK  0 active torsions:
REMARK  status: ('A' for Active; 'I' for Inactive)
ROOT
ATOM      1  C   UNL d   1       2.265   5.570  -3.154  0.00  0.00     0.077 C 
ATOM      2  C1  UNL d   1       1.903   4.222  -3.704  0.00  0.00    -0.074 A 
ATOM      3  C2  UNL d   1       1.483   4.077  -5.030  0.00  0.00    -0.005 A 
ATOM      4  C3  UNL d   1       1.159   2.816  -5.531  0.00  0.00     0.006 A 
ATOM      5  C4  UNL d   1       1.252   1.690  -4.713  0.00  0.00    -0.005 A 
ATOM      6  C5  UNL d   1       1.672   1.816  -3.385  0.00  0.00    -0.074 A 
ATOM      7  C6  UNL d   1       1.787   0.614  -2.494  0.00  0.00     0.077 C 
ATOM      8  C7  UNL d   1       2.002   3.085  -2.891  0.00  0.00    -0.001 A 
ENDROOT
TORSDOF 0
ENDMDL
