MODEL 1
REMARK minimizedAffinity 4.45576572
REMARK minimizedRMSD -1
REMARK  0 active torsions:
REMARK  status: ('A' for Active; 'I' for Inactive)
ROOT
ATOM      1  C   UNL d   1       2.560   0.950  -2.556  0.00  0.00     0.077 C 
ATOM      2  C1  UNL d   1       2.354  -0.435  -2.018  0.00  0.00    -0.074 A 
ATOM      3  C2  UNL d   1       3.045  -0.877  -0.886  0.00  0.00    -0.005 A 
ATOM      4  C3  UNL d   1       2.835  -2.165  -0.391  0.00  0.00     0.006 A 
ATOM      5  C4  UNL d   1       1.934  -3.022  -1.024  0.00  0.00    -0.005 A 
ATOM      6  C5  UNL d   1       1.233  -2.597  -2.157  0.00  0.00    -0.074 A 
ATOM      7  C6  UNL d   1       0.253  -3.502  -2.842  0.00  0.00     0.077 C 
ATOM      8  C7  UNL d   1       1.444  -1.299  -2.643  0.00  0.00    -0.001 A 
ENDROOT
TORSDOF 0
ENDMDL
