MODEL 1
REMARK minimizedAffinity 5.76881838
REMARK minimizedRMSD -1
REMARK  0 active torsions:
REMARK  status: ('A' for Active; 'I' for Inactive)
ROOT
ATOM      1  C   UNL d   1       0.307  -2.957  -3.233  0.00  0.00     0.077 C 
ATOM      2  C1  UNL d   1       1.167  -1.896  -2.614  0.00  0.00    -0.074 A 
ATOM      3  C2  UNL d   1       1.982  -2.183  -1.514  0.00  0.00    -0.005 A 
ATOM      4  C3  UNL d   1       2.784  -1.188  -0.955  0.00  0.00     0.006 A 
ATOM      5  C4  UNL d   1       2.779   0.101  -1.489  0.00  0.00    -0.005 A 
ATOM      6  C5  UNL d   1       1.972   0.406  -2.590  0.00  0.00    -0.074 A 
ATOM      7  C6  UNL d   1       1.962   1.784  -3.182  0.00  0.00     0.077 C 
ATOM      8  C7  UNL d   1       1.174  -0.601  -3.150  0.00  0.00    -0.001 A 
ENDROOT
TORSDOF 0
ENDMDL
