MODEL 1
REMARK minimizedAffinity 7.23005724
REMARK minimizedRMSD -1
REMARK  0 active torsions:
REMARK  status: ('A' for Active; 'I' for Inactive)
ROOT
ATOM      1  C   UNL d   1       0.976  -2.870  -1.232  0.00  0.00     0.077 C 
ATOM      2  C1  UNL d   1       1.740  -1.643  -1.632  0.00  0.00    -0.074 A 
ATOM      3  C2  UNL d   1       3.031  -1.410  -1.147  0.00  0.00    -0.005 A 
ATOM      4  C3  UNL d   1       3.734  -0.269  -1.536  0.00  0.00     0.006 A 
ATOM      5  C4  UNL d   1       3.153   0.648  -2.413  0.00  0.00    -0.005 A 
ATOM      6  C5  UNL d   1       1.863   0.432  -2.909  0.00  0.00    -0.074 A 
ATOM      7  C6  UNL d   1       1.229   1.403  -3.859  0.00  0.00     0.077 C 
ATOM      8  C7  UNL d   1       1.167  -0.720  -2.518  0.00  0.00    -0.001 A 
ENDROOT
TORSDOF 0
ENDMDL
