MODEL 1
REMARK minimizedAffinity 5.5183301
REMARK minimizedRMSD -1
REMARK  0 active torsions:
REMARK  status: ('A' for Active; 'I' for Inactive)
ROOT
ATOM      1  C   UNL d   1       2.475  -2.348  -1.103  0.00  0.00     0.077 C 
ATOM      2  C1  UNL d   1       1.638  -1.128  -1.349  0.00  0.00    -0.074 A 
ATOM      3  C2  UNL d   1       0.273  -1.119  -1.042  0.00  0.00    -0.005 A 
ATOM      4  C3  UNL d   1      -0.491   0.025  -1.268  0.00  0.00     0.006 A 
ATOM      5  C4  UNL d   1       0.100   1.171  -1.802  0.00  0.00    -0.005 A 
ATOM      6  C5  UNL d   1       1.464   1.181  -2.113  0.00  0.00    -0.074 A 
ATOM      7  C6  UNL d   1       2.117   2.408  -2.678  0.00  0.00     0.077 C 
ATOM      8  C7  UNL d   1       2.226   0.029  -1.877  0.00  0.00    -0.001 A 
ENDROOT
TORSDOF 0
ENDMDL
