MODEL 1
REMARK minimizedAffinity 2.56375813
REMARK minimizedRMSD -1
REMARK  0 active torsions:
REMARK  status: ('A' for Active; 'I' for Inactive)
ROOT
ATOM      1  C   UNL d   1       2.254   2.450   1.836  0.00  0.00     0.077 C 
ATOM      2  C1  UNL d   1       1.424   2.039   0.657  0.00  0.00    -0.074 A 
ATOM      3  C2  UNL d   1       0.041   2.251   0.642  0.00  0.00    -0.005 A 
ATOM      4  C3  UNL d   1      -0.717   1.872  -0.466  0.00  0.00     0.006 A 
ATOM      5  C4  UNL d   1      -0.101   1.280  -1.569  0.00  0.00    -0.005 A 
ATOM      6  C5  UNL d   1       1.280   1.061  -1.573  0.00  0.00    -0.074 A 
ATOM      7  C6  UNL d   1       1.959   0.435  -2.754  0.00  0.00     0.077 C 
ATOM      8  C7  UNL d   1       2.036   1.451  -0.459  0.00  0.00    -0.001 A 
ENDROOT
TORSDOF 0
ENDMDL
