MODEL 1
REMARK minimizedAffinity 3.17009521
REMARK minimizedRMSD -1
REMARK  0 active torsions:
REMARK  status: ('A' for Active; 'I' for Inactive)
ROOT
ATOM      1  C   UNL d   1       1.988  -0.910  -1.807  0.00  0.00     0.077 C 
ATOM      2  C1  UNL d   1       1.410   0.473  -1.870  0.00  0.00    -0.074 A 
ATOM      3  C2  UNL d   1       1.563   1.265  -3.013  0.00  0.00    -0.005 A 
ATOM      4  C3  UNL d   1       1.012   2.545  -3.060  0.00  0.00     0.006 A 
ATOM      5  C4  UNL d   1       0.303   3.046  -1.967  0.00  0.00    -0.005 A 
ATOM      6  C5  UNL d   1       0.139   2.268  -0.816  0.00  0.00    -0.074 A 
ATOM      7  C6  UNL d   1      -0.628   2.787   0.363  0.00  0.00     0.077 C 
ATOM      8  C7  UNL d   1       0.690   0.980  -0.779  0.00  0.00    -0.001 A 
ENDROOT
TORSDOF 0
ENDMDL
