MODEL 1
REMARK minimizedAffinity 6.21261835
REMARK minimizedRMSD -1
REMARK  0 active torsions:
REMARK  status: ('A' for Active; 'I' for Inactive)
ROOT
ATOM      1  C   UNL d   1      -1.375  -2.463  -1.464  0.00  0.00     0.077 C 
ATOM      2  C1  UNL d   1       0.027  -2.028  -1.157  0.00  0.00    -0.074 A 
ATOM      3  C2  UNL d   1       0.855  -2.799  -0.335  0.00  0.00    -0.005 A 
ATOM      4  C3  UNL d   1       2.160  -2.386  -0.066  0.00  0.00     0.006 A 
ATOM      5  C4  UNL d   1       2.649  -1.200  -0.614  0.00  0.00    -0.005 A 
ATOM      6  C5  UNL d   1       1.836  -0.416  -1.439  0.00  0.00    -0.074 A 
ATOM      7  C6  UNL d   1       2.349   0.857  -2.045  0.00  0.00     0.077 C 
ATOM      8  C7  UNL d   1       0.528  -0.841  -1.711  0.00  0.00    -0.001 A 
ENDROOT
TORSDOF 0
ENDMDL
