MODEL 1
REMARK minimizedAffinity 2.19722819
REMARK minimizedRMSD -1
REMARK  0 active torsions:
REMARK  status: ('A' for Active; 'I' for Inactive)
ROOT
ATOM      1  C   UNL d   1       0.165   2.544  -1.757  0.00  0.00     0.077 C 
ATOM      2  C1  UNL d   1       1.277   1.580  -2.047  0.00  0.00    -0.074 A 
ATOM      3  C2  UNL d   1       2.362   1.955  -2.846  0.00  0.00    -0.005 A 
ATOM      4  C3  UNL d   1       3.394   1.051  -3.100  0.00  0.00     0.006 A 
ATOM      5  C4  UNL d   1       3.351  -0.234  -2.559  0.00  0.00    -0.005 A 
ATOM      6  C5  UNL d   1       2.274  -0.627  -1.757  0.00  0.00    -0.074 A 
ATOM      7  C6  UNL d   1       2.216  -2.001  -1.160  0.00  0.00     0.077 C 
ATOM      8  C7  UNL d   1       1.245   0.290  -1.501  0.00  0.00    -0.001 A 
ENDROOT
TORSDOF 0
ENDMDL
