MODEL 1
REMARK minimizedAffinity -0.12750718
REMARK minimizedRMSD -1
REMARK  0 active torsions:
REMARK  status: ('A' for Active; 'I' for Inactive)
ROOT
ATOM      1  C   UNL d   1      -5.950  -2.577  -5.137  0.00  0.00     0.172 C 
ATOM      2  N   UNL d   1      -5.385  -3.888  -5.353  0.00  0.00    -0.070 N 
ATOM      3  C1  UNL d   1      -6.000  -4.926  -6.000  0.00  0.00    -0.004 A 
ATOM      4  C2  UNL d   1      -5.134  -5.999  -5.996  0.00  0.00    -0.047 A 
ATOM      5  C3  UNL d   1      -3.958  -5.591  -5.322  0.00  0.00    -0.047 A 
ATOM      6  C4  UNL d   1      -4.141  -4.280  -4.934  0.00  0.00    -0.004 A 
ENDROOT
TORSDOF 0
ENDMDL
