MODEL 1
REMARK minimizedAffinity 3.31262374
REMARK minimizedRMSD -1
REMARK  0 active torsions:
REMARK  status: ('A' for Active; 'I' for Inactive)
ROOT
ATOM      1  C   UNL d   1       0.191  -1.975   1.612  0.00  0.00     0.172 C 
ATOM      2  N   UNL d   1       1.439  -1.254   1.513  0.00  0.00    -0.070 N 
ATOM      3  C1  UNL d   1       1.627   0.063   1.834  0.00  0.00    -0.004 A 
ATOM      4  C2  UNL d   1       2.951   0.369   1.603  0.00  0.00    -0.047 A 
ATOM      5  C3  UNL d   1       3.580  -0.805   1.125  0.00  0.00    -0.047 A 
ATOM      6  C4  UNL d   1       2.621  -1.795   1.080  0.00  0.00    -0.004 A 
ENDROOT
TORSDOF 0
ENDMDL
