MODEL 1
REMARK minimizedAffinity -2.05514288
REMARK minimizedRMSD -1
REMARK  0 active torsions:
REMARK  status: ('A' for Active; 'I' for Inactive)
ROOT
ATOM      1  C   UNL d   1       1.127  -2.365   5.579  0.00  0.00     0.172 C 
ATOM      2  N   UNL d   1       1.476  -1.577   4.420  0.00  0.00    -0.070 N 
ATOM      3  C1  UNL d   1       2.288  -1.982   3.395  0.00  0.00    -0.004 A 
ATOM      4  C2  UNL d   1       2.371  -0.948   2.488  0.00  0.00    -0.047 A 
ATOM      5  C3  UNL d   1       1.583   0.116   2.986  0.00  0.00    -0.047 A 
ATOM      6  C4  UNL d   1       1.040  -0.300   4.184  0.00  0.00    -0.004 A 
ENDROOT
TORSDOF 0
ENDMDL
