MODEL 1
REMARK minimizedAffinity -2.30022049
REMARK minimizedRMSD -1
REMARK  0 active torsions:
REMARK  status: ('A' for Active; 'I' for Inactive)
ROOT
ATOM      1  C   UNL d   1      -5.971  -4.535  -2.685  0.00  0.00     0.172 C 
ATOM      2  N   UNL d   1      -5.552  -4.838  -4.033  0.00  0.00    -0.070 N 
ATOM      3  C1  UNL d   1      -4.653  -4.115  -4.771  0.00  0.00    -0.004 A 
ATOM      4  C2  UNL d   1      -4.525  -4.728  -5.999  0.00  0.00    -0.047 A 
ATOM      5  C3  UNL d   1      -5.376  -5.859  -5.998  0.00  0.00    -0.047 A 
ATOM      6  C4  UNL d   1      -6.000  -5.903  -4.769  0.00  0.00    -0.004 A 
ENDROOT
TORSDOF 0
ENDMDL
