MODEL 1
REMARK minimizedAffinity -1.77904034
REMARK minimizedRMSD -1
REMARK  0 active torsions:
REMARK  status: ('A' for Active; 'I' for Inactive)
ROOT
ATOM      1  C   UNL d   1       0.214   0.631   1.714  0.00  0.00     0.172 C 
ATOM      2  N   UNL d   1      -0.082  -0.754   1.431  0.00  0.00    -0.070 N 
ATOM      3  C1  UNL d   1      -0.878  -1.571   2.188  0.00  0.00    -0.004 A 
ATOM      4  C2  UNL d   1      -0.907  -2.809   1.584  0.00  0.00    -0.047 A 
ATOM      5  C3  UNL d   1      -0.100  -2.734   0.424  0.00  0.00    -0.047 A 
ATOM      6  C4  UNL d   1       0.399  -1.450   0.353  0.00  0.00    -0.004 A 
ENDROOT
TORSDOF 0
ENDMDL
