MODEL 1
REMARK minimizedAffinity -3.78828287
REMARK minimizedRMSD -1
REMARK  0 active torsions:
REMARK  status: ('A' for Active; 'I' for Inactive)
ROOT
ATOM      1  N1  IND d   1       0.502  -0.325  -1.017  0.00  0.00    -0.196 N 
ATOM      2  C2  IND d   1      -0.828  -0.233  -1.318  0.00  0.00     0.054 A 
ATOM      3  C3  IND d   1      -1.569  -0.250  -0.187  0.00  0.00    -0.031 A 
ATOM      4  C4  IND d   1      -0.802  -0.321   2.269  0.00  0.00     0.051 A 
ATOM      5  C5  IND d   1       0.316  -0.448   3.046  0.00  0.00    -0.031 A 
ATOM      6  C6  IND d   1       1.578  -0.540   2.496  0.00  0.00     0.015 A 
ATOM      7  C7  IND d   1       1.772  -0.496   1.145  0.00  0.00    -0.016 A 
ATOM      8  C8  IND d   1       0.639  -0.374   0.353  0.00  0.00    -0.047 A 
ATOM      9  C9  IND d   1      -0.649  -0.324   0.903  0.00  0.00    -0.096 A 
ATOM     10  HN1 IND d   1       1.145  -0.349  -1.587  0.00  0.00     0.298 HD
ENDROOT
TORSDOF 0
ENDMDL
