MODEL 1
REMARK minimizedAffinity -5.02209377
REMARK minimizedRMSD -1
REMARK  0 active torsions:
REMARK  status: ('A' for Active; 'I' for Inactive)
ROOT
ATOM      1  N1  IND d   1       0.604  -0.192  -1.192  0.00  0.00    -0.196 N 
ATOM      2  C2  IND d   1      -0.518   0.480  -0.794  0.00  0.00     0.054 A 
ATOM      3  C3  IND d   1      -0.689   0.360   0.542  0.00  0.00    -0.031 A 
ATOM      4  C4  IND d   1       0.805  -0.806   2.284  0.00  0.00     0.051 A 
ATOM      5  C5  IND d   1       1.920  -1.589   2.396  0.00  0.00    -0.031 A 
ATOM      6  C6  IND d   1       2.670  -1.950   1.296  0.00  0.00     0.015 A 
ATOM      7  C7  IND d   1       2.338  -1.532   0.039  0.00  0.00    -0.016 A 
ATOM      8  C8  IND d   1       1.202  -0.743  -0.080  0.00  0.00    -0.047 A 
ATOM      9  C9  IND d   1       0.413  -0.408   1.028  0.00  0.00    -0.096 A 
ATOM     10  HN1 IND d   1       0.889  -0.258  -2.000  0.00  0.00     0.298 HD
ENDROOT
TORSDOF 0
ENDMDL
