MODEL 1
REMARK minimizedAffinity -1.59082794
REMARK minimizedRMSD -1
REMARK  0 active torsions:
REMARK  status: ('A' for Active; 'I' for Inactive)
ROOT
ATOM      1  N1  IND d   1       0.990  -0.022  -1.166  0.00  0.00    -0.196 N 
ATOM      2  C2  IND d   1       0.083   0.414  -2.091  0.00  0.00     0.054 A 
ATOM      3  C3  IND d   1      -1.152   0.479  -1.545  0.00  0.00    -0.031 A 
ATOM      4  C4  IND d   1      -1.897   0.013   0.875  0.00  0.00     0.051 A 
ATOM      5  C5  IND d   1      -1.432  -0.447   2.075  0.00  0.00    -0.031 A 
ATOM      6  C6  IND d   1      -0.109  -0.793   2.261  0.00  0.00     0.015 A 
ATOM      7  C7  IND d   1       0.805  -0.680   1.252  0.00  0.00    -0.016 A 
ATOM      8  C8  IND d   1       0.335  -0.221   0.030  0.00  0.00    -0.047 A 
ATOM      9  C9  IND d   1      -1.015   0.091  -0.177  0.00  0.00    -0.096 A 
ATOM     10  HN1 IND d   1       1.828  -0.150  -1.307  0.00  0.00     0.298 HD
ENDROOT
TORSDOF 0
ENDMDL
