MODEL 1
REMARK minimizedAffinity -4.78517723
REMARK minimizedRMSD -1
REMARK  0 active torsions:
REMARK  status: ('A' for Active; 'I' for Inactive)
ROOT
ATOM      1  N1  IND d   1      -0.085   0.013  -0.150  0.00  0.00    -0.196 N 
ATOM      2  C2  IND d   1      -1.363   0.263   0.268  0.00  0.00     0.054 A 
ATOM      3  C3  IND d   1      -1.502  -0.059   1.574  0.00  0.00    -0.031 A 
ATOM      4  C4  IND d   1       0.261  -0.916   3.244  0.00  0.00     0.051 A 
ATOM      5  C5  IND d   1       1.560  -1.333   3.319  0.00  0.00    -0.031 A 
ATOM      6  C6  IND d   1       2.395  -1.319   2.221  0.00  0.00     0.015 A 
ATOM      7  C7  IND d   1       1.963  -0.876   1.003  0.00  0.00    -0.016 A 
ATOM      8  C8  IND d   1       0.642  -0.458   0.921  0.00  0.00    -0.047 A 
ATOM      9  C9  IND d   1      -0.222  -0.510   2.022  0.00  0.00    -0.096 A 
ATOM     10  HN1 IND d   1       0.213   0.131  -0.947  0.00  0.00     0.298 HD
ENDROOT
TORSDOF 0
ENDMDL
