MODEL 1
REMARK minimizedAffinity -2.67830038
REMARK minimizedRMSD -1
REMARK  0 active torsions:
REMARK  status: ('A' for Active; 'I' for Inactive)
ROOT
ATOM      1  N1  IND d   1       0.901   0.527  -0.481  0.00  0.00    -0.196 N 
ATOM      2  C2  IND d   1      -0.057   1.305  -1.071  0.00  0.00     0.054 A 
ATOM      3  C3  IND d   1      -1.218   1.224  -0.383  0.00  0.00    -0.031 A 
ATOM      4  C4  IND d   1      -1.743  -0.043   1.796  0.00  0.00     0.051 A 
ATOM      5  C5  IND d   1      -1.197  -0.921   2.689  0.00  0.00    -0.031 A 
ATOM      6  C6  IND d   1       0.103  -1.369   2.571  0.00  0.00     0.015 A 
ATOM      7  C7  IND d   1       0.913  -0.943   1.556  0.00  0.00    -0.016 A 
ATOM      8  C8  IND d   1       0.360  -0.057   0.643  0.00  0.00    -0.047 A 
ATOM      9  C9  IND d   1      -0.972   0.367   0.734  0.00  0.00    -0.096 A 
ATOM     10  HN1 IND d   1       1.705   0.421  -0.765  0.00  0.00     0.298 HD
ENDROOT
TORSDOF 0
ENDMDL
