MODEL 1
REMARK minimizedAffinity -3.16033673
REMARK minimizedRMSD -1
REMARK  0 active torsions:
REMARK  status: ('A' for Active; 'I' for Inactive)
ROOT
ATOM      1  N1  IND d   1       0.351   0.082  -1.192  0.00  0.00    -0.196 N 
ATOM      2  C2  IND d   1      -0.821   0.642  -1.617  0.00  0.00     0.054 A 
ATOM      3  C3  IND d   1      -1.676   0.786  -0.579  0.00  0.00    -0.031 A 
ATOM      4  C4  IND d   1      -1.322   0.264   1.917  0.00  0.00     0.051 A 
ATOM      5  C5  IND d   1      -0.425  -0.295   2.784  0.00  0.00    -0.031 A 
ATOM      6  C6  IND d   1       0.802  -0.764   2.361  0.00  0.00     0.015 A 
ATOM      7  C7  IND d   1       1.184  -0.681   1.052  0.00  0.00    -0.016 A 
ATOM      8  C8  IND d   1       0.274  -0.120   0.168  0.00  0.00    -0.047 A 
ATOM      9  C9  IND d   1      -0.990   0.319   0.584  0.00  0.00    -0.096 A 
ATOM     10  HN1 IND d   1       1.024  -0.112  -1.691  0.00  0.00     0.298 HD
ENDROOT
TORSDOF 0
ENDMDL
