MODEL 1
REMARK minimizedAffinity -5.00244856
REMARK minimizedRMSD -1
REMARK  0 active torsions:
REMARK  status: ('A' for Active; 'I' for Inactive)
ROOT
ATOM      1  N1  IND d   1       0.168  -1.295   3.114  0.00  0.00    -0.196 N 
ATOM      2  C2  IND d   1       1.404  -1.835   3.337  0.00  0.00     0.054 A 
ATOM      3  C3  IND d   1       2.177  -1.714   2.234  0.00  0.00    -0.031 A 
ATOM      4  C4  IND d   1       1.651  -0.574  -0.013  0.00  0.00     0.051 A 
ATOM      5  C5  IND d   1       0.639   0.030  -0.704  0.00  0.00    -0.031 A 
ATOM      6  C6  IND d   1      -0.607   0.230  -0.145  0.00  0.00     0.015 A 
ATOM      7  C7  IND d   1      -0.884  -0.158   1.135  0.00  0.00    -0.016 A 
ATOM      8  C8  IND d   1       0.140  -0.779   1.837  0.00  0.00    -0.047 A 
ATOM      9  C9  IND d   1       1.393  -1.023   1.260  0.00  0.00    -0.096 A 
ATOM     10  HN1 IND d   1      -0.482  -1.281   3.676  0.00  0.00     0.298 HD
ENDROOT
TORSDOF 0
ENDMDL
