MODEL 1
REMARK minimizedAffinity -6.40487576
REMARK minimizedRMSD -1
REMARK  0 active torsions:
REMARK  status: ('A' for Active; 'I' for Inactive)
ROOT
ATOM      1  N1  IND d   1       1.626  -1.495  -1.244  0.00  0.00    -0.196 N 
ATOM      2  C2  IND d   1       0.611  -0.739  -1.760  0.00  0.00     0.054 A 
ATOM      3  C3  IND d   1      -0.060  -0.112  -0.767  0.00  0.00    -0.031 A 
ATOM      4  C4  IND d   1       0.400  -0.102   1.765  0.00  0.00     0.051 A 
ATOM      5  C5  IND d   1       1.198  -0.672   2.717  0.00  0.00    -0.031 A 
ATOM      6  C6  IND d   1       2.202  -1.561   2.391  0.00  0.00     0.015 A 
ATOM      7  C7  IND d   1       2.453  -1.906   1.093  0.00  0.00    -0.016 A 
ATOM      8  C8  IND d   1       1.640  -1.335   0.124  0.00  0.00    -0.047 A 
ATOM      9  C9  IND d   1       0.593  -0.465   0.453  0.00  0.00    -0.096 A 
ATOM     10  HN1 IND d   1       2.166  -1.987  -1.698  0.00  0.00     0.298 HD
ENDROOT
TORSDOF 0
ENDMDL
