MODEL 1
REMARK minimizedAffinity -1.63612306
REMARK minimizedRMSD -1
REMARK  0 active torsions:
REMARK  status: ('A' for Active; 'I' for Inactive)
ROOT
ATOM      1  N1  IND d   1       0.612  -0.394  -0.591  0.00  0.00    -0.196 N 
ATOM      2  C2  IND d   1      -0.408   0.221  -1.262  0.00  0.00     0.054 A 
ATOM      3  C3  IND d   1      -1.516   0.271  -0.489  0.00  0.00    -0.031 A 
ATOM      4  C4  IND d   1      -1.851  -0.504   1.943  0.00  0.00     0.051 A 
ATOM      5  C5  IND d   1      -1.217  -1.159   2.961  0.00  0.00    -0.031 A 
ATOM      6  C6  IND d   1       0.086  -1.599   2.847  0.00  0.00     0.015 A 
ATOM      7  C7  IND d   1       0.811  -1.389   1.708  0.00  0.00    -0.016 A 
ATOM      8  C8  IND d   1       0.168  -0.731   0.669  0.00  0.00    -0.047 A 
ATOM      9  C9  IND d   1      -1.168  -0.320   0.764  0.00  0.00    -0.096 A 
ATOM     10  HN1 IND d   1       1.399  -0.545  -0.903  0.00  0.00     0.298 HD
ENDROOT
TORSDOF 0
ENDMDL
