MODEL 1
REMARK minimizedAffinity -2.34860063
REMARK minimizedRMSD -1
REMARK  0 active torsions:
REMARK  status: ('A' for Active; 'I' for Inactive)
ROOT
ATOM      1  C   UNL d   1      -4.052  -1.793  -5.999  0.00  0.00    -0.002 A 
ATOM      2  C1  UNL d   1      -5.369  -1.355  -6.000  0.00  0.00     0.010 A 
ATOM      3  C2  UNL d   1      -5.664   0.008  -5.930  0.00  0.00     0.041 A 
ATOM      4  C3  UNL d   1      -4.603   0.933  -5.861  0.00  0.00    -0.075 A 
ATOM      5  S   UNL d   1      -4.725   2.650  -5.769  0.00  0.00     0.015 SA
ATOM      6  C4  UNL d   1      -3.032   2.842  -5.727  0.00  0.00     0.022 A 
ATOM      7  C5  UNL d   1      -2.374   1.636  -5.780  0.00  0.00     0.026 A 
ATOM      8  C6  UNL d   1      -3.269   0.516  -5.859  0.00  0.00    -0.082 A 
ATOM      9  C7  UNL d   1      -3.003  -0.873  -5.929  0.00  0.00     0.045 A 
ENDROOT
TORSDOF 0
ENDMDL
