MODEL 1
REMARK minimizedAffinity 5.08002949
REMARK minimizedRMSD -1
REMARK  0 active torsions:
REMARK  status: ('A' for Active; 'I' for Inactive)
ROOT
ATOM      1  C   UNL d   1      -2.598   1.364  -5.727  0.00  0.00    -0.002 A 
ATOM      2  C1  UNL d   1      -3.796   1.873  -5.247  0.00  0.00     0.010 A 
ATOM      3  C2  UNL d   1      -4.889   1.032  -5.030  0.00  0.00     0.041 A 
ATOM      4  C3  UNL d   1      -4.756  -0.343  -5.305  0.00  0.00    -0.075 A 
ATOM      5  S   UNL d   1      -5.959  -1.563  -5.115  0.00  0.00     0.015 SA
ATOM      6  C4  UNL d   1      -4.911  -2.789  -5.666  0.00  0.00     0.022 A 
ATOM      7  C5  UNL d   1      -3.669  -2.297  -5.992  0.00  0.00     0.026 A 
ATOM      8  C6  UNL d   1      -3.559  -0.880  -5.789  0.00  0.00    -0.082 A 
ATOM      9  C7  UNL d   1      -2.469  -0.001  -5.999  0.00  0.00     0.045 A 
ENDROOT
TORSDOF 0
ENDMDL
