MODEL 1
REMARK minimizedAffinity -2.2770505
REMARK minimizedRMSD -1
REMARK  0 active torsions:
REMARK  status: ('A' for Active; 'I' for Inactive)
ROOT
ATOM      1  C   UNL d   1      -4.330  -0.505  -5.710  0.00  0.00    -0.002 A 
ATOM      2  C1  UNL d   1      -3.011  -0.082  -5.628  0.00  0.00     0.010 A 
ATOM      3  C2  UNL d   1      -2.697   1.278  -5.669  0.00  0.00     0.041 A 
ATOM      4  C3  UNL d   1      -3.742   2.215  -5.792  0.00  0.00    -0.075 A 
ATOM      5  S   UNL d   1      -3.596   3.932  -5.861  0.00  0.00     0.015 SA
ATOM      6  C4  UNL d   1      -5.281   4.144  -5.999  0.00  0.00     0.022 A 
ATOM      7  C5  UNL d   1      -5.954   2.945  -5.995  0.00  0.00     0.026 A 
ATOM      8  C6  UNL d   1      -5.078   1.814  -5.875  0.00  0.00    -0.082 A 
ATOM      9  C7  UNL d   1      -5.364   0.428  -5.832  0.00  0.00     0.045 A 
ENDROOT
TORSDOF 0
ENDMDL
