MODEL 1
REMARK minimizedAffinity -0.78051424
REMARK minimizedRMSD -1
REMARK  0 active torsions:
REMARK  status: ('A' for Active; 'I' for Inactive)
ROOT
ATOM      1  C   UNL d   1      -4.816   1.401  -5.996  0.00  0.00    -0.002 A 
ATOM      2  C1  UNL d   1      -3.561   0.808  -5.996  0.00  0.00     0.010 A 
ATOM      3  C2  UNL d   1      -2.405   1.591  -5.998  0.00  0.00     0.041 A 
ATOM      4  C3  UNL d   1      -2.532   2.994  -5.998  0.00  0.00    -0.075 A 
ATOM      5  S   UNL d   1      -1.256   4.153  -5.999  0.00  0.00     0.015 SA
ATOM      6  C4  UNL d   1      -2.346   5.463  -5.999  0.00  0.00     0.022 A 
ATOM      7  C5  UNL d   1      -3.656   5.045  -5.999  0.00  0.00     0.026 A 
ATOM      8  C6  UNL d   1      -3.785   3.615  -5.997  0.00  0.00    -0.082 A 
ATOM      9  C7  UNL d   1      -4.938   2.793  -5.997  0.00  0.00     0.045 A 
ENDROOT
TORSDOF 0
ENDMDL
