MODEL 1
REMARK minimizedAffinity 3.03358269
REMARK minimizedRMSD -1
REMARK  0 active torsions:
REMARK  status: ('A' for Active; 'I' for Inactive)
ROOT
ATOM      1  C   UNL d   1      -4.771   4.314  -5.879  0.00  0.00    -0.002 A 
ATOM      2  C1  UNL d   1      -5.977   3.628  -5.898  0.00  0.00     0.010 A 
ATOM      3  C2  UNL d   1      -5.999   2.232  -5.936  0.00  0.00     0.041 A 
ATOM      4  C3  UNL d   1      -4.777   1.531  -5.953  0.00  0.00    -0.075 A 
ATOM      5  S   UNL d   1      -4.560  -0.179  -5.999  0.00  0.00     0.015 SA
ATOM      6  C4  UNL d   1      -2.862  -0.038  -5.992  0.00  0.00     0.022 A 
ATOM      7  C5  UNL d   1      -2.453   1.274  -5.957  0.00  0.00     0.026 A 
ATOM      8  C6  UNL d   1      -3.550   2.200  -5.933  0.00  0.00    -0.082 A 
ATOM      9  C7  UNL d   1      -3.561   3.615  -5.895  0.00  0.00     0.045 A 
ENDROOT
TORSDOF 0
ENDMDL
