MODEL 1
REMARK minimizedAffinity -0.736593723
REMARK minimizedRMSD -1
REMARK  0 active torsions:
REMARK  status: ('A' for Active; 'I' for Inactive)
ROOT
ATOM      1  C   UNL d   1      -3.036  -0.055  -6.000  0.00  0.00    -0.002 A 
ATOM      2  C1  UNL d   1      -4.418  -0.184  -6.000  0.00  0.00     0.010 A 
ATOM      3  C2  UNL d   1      -5.237   0.946  -5.998  0.00  0.00     0.041 A 
ATOM      4  C3  UNL d   1      -4.638   2.222  -5.999  0.00  0.00    -0.075 A 
ATOM      5  S   UNL d   1      -5.442   3.747  -5.998  0.00  0.00     0.015 SA
ATOM      6  C4  UNL d   1      -3.970   4.606  -5.998  0.00  0.00     0.022 A 
ATOM      7  C5  UNL d   1      -2.882   3.766  -5.999  0.00  0.00     0.026 A 
ATOM      8  C6  UNL d   1      -3.249   2.378  -5.999  0.00  0.00    -0.082 A 
ATOM      9  C7  UNL d   1      -2.446   1.212  -6.000  0.00  0.00     0.045 A 
ENDROOT
TORSDOF 0
ENDMDL
