MODEL 1
REMARK minimizedAffinity -1.49174631
REMARK minimizedRMSD -1
REMARK  0 active torsions:
REMARK  status: ('A' for Active; 'I' for Inactive)
ROOT
ATOM      1  C   UNL d   1      -2.967   0.617  -5.995  0.00  0.00    -0.002 A 
ATOM      2  C1  UNL d   1      -4.310   0.267  -5.997  0.00  0.00     0.010 A 
ATOM      3  C2  UNL d   1      -5.300   1.251  -5.998  0.00  0.00     0.041 A 
ATOM      4  C3  UNL d   1      -4.914   2.606  -5.998  0.00  0.00    -0.075 A 
ATOM      5  S   UNL d   1      -5.952   3.983  -6.000  0.00  0.00     0.015 SA
ATOM      6  C4  UNL d   1      -4.638   5.067  -5.999  0.00  0.00     0.022 A 
ATOM      7  C5  UNL d   1      -3.429   4.412  -5.997  0.00  0.00     0.026 A 
ATOM      8  C6  UNL d   1      -3.568   2.983  -5.997  0.00  0.00    -0.082 A 
ATOM      9  C7  UNL d   1      -2.588   1.962  -5.996  0.00  0.00     0.045 A 
ENDROOT
TORSDOF 0
ENDMDL
