MODEL 1
REMARK minimizedAffinity 5.46829462
REMARK minimizedRMSD -1
REMARK  0 active torsions:
REMARK  status: ('A' for Active; 'I' for Inactive)
ROOT
ATOM      1  C   UNL d   1      -2.513   0.974  -5.959  0.00  0.00    -0.002 A 
ATOM      2  C1  UNL d   1      -1.429   1.841  -5.968  0.00  0.00     0.010 A 
ATOM      3  C2  UNL d   1      -1.625   3.223  -5.979  0.00  0.00     0.041 A 
ATOM      4  C3  UNL d   1      -2.942   3.724  -5.978  0.00  0.00    -0.075 A 
ATOM      5  S   UNL d   1      -3.424   5.380  -5.990  0.00  0.00     0.015 SA
ATOM      6  C4  UNL d   1      -5.079   4.975  -5.982  0.00  0.00     0.022 A 
ATOM      7  C5  UNL d   1      -5.278   3.615  -5.971  0.00  0.00     0.026 A 
ATOM      8  C6  UNL d   1      -4.049   2.871  -5.968  0.00  0.00    -0.082 A 
ATOM      9  C7  UNL d   1      -3.817   1.475  -5.958  0.00  0.00     0.045 A 
ENDROOT
TORSDOF 0
ENDMDL
