MODEL 1
REMARK minimizedAffinity 2.178967
REMARK minimizedRMSD -1
REMARK  0 active torsions:
REMARK  status: ('A' for Active; 'I' for Inactive)
ROOT
ATOM      1  C   UNL d   1      -1.543  -4.958  -4.363  0.00  0.00    -0.002 A 
ATOM      2  C1  UNL d   1      -2.026  -6.000  -5.142  0.00  0.00     0.010 A 
ATOM      3  C2  UNL d   1      -3.310  -5.943  -5.687  0.00  0.00     0.041 A 
ATOM      4  C3  UNL d   1      -4.108  -4.809  -5.435  0.00  0.00    -0.075 A 
ATOM      5  S   UNL d   1      -5.711  -4.520  -5.999  0.00  0.00     0.015 SA
ATOM      6  C4  UNL d   1      -5.792  -3.006  -5.220  0.00  0.00     0.022 A 
ATOM      7  C5  UNL d   1      -4.633  -2.713  -4.541  0.00  0.00     0.026 A 
ATOM      8  C6  UNL d   1      -3.643  -3.747  -4.654  0.00  0.00    -0.082 A 
ATOM      9  C7  UNL d   1      -2.337  -3.835  -4.115  0.00  0.00     0.045 A 
ENDROOT
TORSDOF 0
ENDMDL
