MODEL 1
REMARK minimizedAffinity 1.0702517
REMARK minimizedRMSD -1
REMARK  0 active torsions:
REMARK  status: ('A' for Active; 'I' for Inactive)
ROOT
ATOM      1  C   UNL d   1      -2.403  -5.376  -5.352  0.00  0.00    -0.002 A 
ATOM      2  C1  UNL d   1      -1.881  -4.715  -4.249  0.00  0.00     0.010 A 
ATOM      3  C2  UNL d   1      -2.490  -3.556  -3.762  0.00  0.00     0.041 A 
ATOM      4  C3  UNL d   1      -3.644  -3.070  -4.407  0.00  0.00    -0.075 A 
ATOM      5  S   UNL d   1      -4.559  -1.671  -3.987  0.00  0.00     0.015 SA
ATOM      6  C4  UNL d   1      -5.664  -1.918  -5.260  0.00  0.00     0.022 A 
ATOM      7  C5  UNL d   1      -5.358  -3.037  -5.999  0.00  0.00     0.026 A 
ATOM      8  C6  UNL d   1      -4.189  -3.720  -5.519  0.00  0.00    -0.082 A 
ATOM      9  C7  UNL d   1      -3.548  -4.891  -5.989  0.00  0.00     0.045 A 
ENDROOT
TORSDOF 0
ENDMDL
