MODEL 1
REMARK minimizedAffinity 7.22647047
REMARK minimizedRMSD -1
REMARK  0 active torsions:
REMARK  status: ('A' for Active; 'I' for Inactive)
ROOT
ATOM      1  C2' OXE d   1       1.317  -0.778  -1.291  0.00  0.00     0.078 C 
ATOM      2  C1' OXE d   1       2.925   0.621   0.536  0.00  0.00     0.078 C 
ATOM      3  C1  OXE d   1       2.148   1.425  -0.476  0.00  0.00    -0.078 A 
ATOM      4  C2  OXE d   1       1.400   0.730  -1.396  0.00  0.00    -0.078 A 
ATOM      5  C3  OXE d   1       0.620   1.424  -2.317  0.00  0.00     0.003 A 
ATOM      6  C4  OXE d   1       0.710   2.818  -2.414  0.00  0.00    -0.002 A 
ATOM      7  C5  OXE d   1       1.497   3.543  -1.512  0.00  0.00    -0.002 A 
ATOM      8  C6  OXE d   1       2.187   2.866  -0.512  0.00  0.00     0.003 A 
ENDROOT
TORSDOF 0
ENDMDL
