MODEL 1
REMARK minimizedAffinity 0.0228048693
REMARK minimizedRMSD -1
REMARK  0 active torsions:
REMARK  status: ('A' for Active; 'I' for Inactive)
ROOT
ATOM      1  C2' OXE d   1       1.083   0.027  -2.481  0.00  0.00     0.078 C 
ATOM      2  C1' OXE d   1       2.232   0.195   0.075  0.00  0.00     0.078 C 
ATOM      3  C1  OXE d   1       1.746   1.472  -0.563  0.00  0.00    -0.078 A 
ATOM      4  C2  OXE d   1       1.228   1.387  -1.833  0.00  0.00    -0.078 A 
ATOM      5  C3  OXE d   1       0.715   2.527  -2.446  0.00  0.00     0.003 A 
ATOM      6  C4  OXE d   1       0.862   3.782  -1.844  0.00  0.00    -0.002 A 
ATOM      7  C5  OXE d   1       1.423   3.897  -0.568  0.00  0.00    -0.002 A 
ATOM      8  C6  OXE d   1       1.831   2.749   0.102  0.00  0.00     0.003 A 
ENDROOT
TORSDOF 0
ENDMDL
