MODEL 1
REMARK minimizedAffinity 1.70594001
REMARK minimizedRMSD -1
REMARK  0 active torsions:
REMARK  status: ('A' for Active; 'I' for Inactive)
ROOT
ATOM      1  C2' OXE d   1      -0.593  -1.396   4.373  0.00  0.00     0.078 C 
ATOM      2  C1' OXE d   1      -0.421  -3.205   2.233  0.00  0.00     0.078 C 
ATOM      3  C1  OXE d   1      -1.483  -3.448   3.277  0.00  0.00    -0.078 A 
ATOM      4  C2  OXE d   1      -1.529  -2.585   4.345  0.00  0.00    -0.078 A 
ATOM      5  C3  OXE d   1      -2.524  -2.732   5.307  0.00  0.00     0.003 A 
ATOM      6  C4  OXE d   1      -3.379  -3.840   5.279  0.00  0.00    -0.002 A 
ATOM      7  C5  OXE d   1      -3.323  -4.754   4.221  0.00  0.00    -0.002 A 
ATOM      8  C6  OXE d   1      -2.410  -4.549   3.192  0.00  0.00     0.003 A 
ENDROOT
TORSDOF 0
ENDMDL
