MODEL 1
REMARK minimizedAffinity 3.61408687
REMARK minimizedRMSD -1
REMARK  0 active torsions:
REMARK  status: ('A' for Active; 'I' for Inactive)
ROOT
ATOM      1  C2' OXE d   1      -1.223  -2.322   3.994  0.00  0.00     0.078 C 
ATOM      2  C1' OXE d   1      -0.084  -0.234   5.486  0.00  0.00     0.078 C 
ATOM      3  C1  OXE d   1      -1.235   0.101   4.570  0.00  0.00    -0.078 A 
ATOM      4  C2  OXE d   1      -1.756  -0.917   3.809  0.00  0.00    -0.078 A 
ATOM      5  C3  OXE d   1      -2.854  -0.674   2.989  0.00  0.00     0.003 A 
ATOM      6  C4  OXE d   1      -3.334   0.630   2.817  0.00  0.00    -0.002 A 
ATOM      7  C5  OXE d   1      -2.792   1.690   3.552  0.00  0.00    -0.002 A 
ATOM      8  C6  OXE d   1      -1.773   1.435   4.463  0.00  0.00     0.003 A 
ENDROOT
TORSDOF 0
ENDMDL
