MODEL 1
REMARK minimizedAffinity -1.65185809
REMARK minimizedRMSD -1
REMARK  0 active torsions:
REMARK  status: ('A' for Active; 'I' for Inactive)
ROOT
ATOM      1  C2' OXE d   1       1.412   0.369  -1.886  0.00  0.00     0.078 C 
ATOM      2  C1' OXE d   1       1.992   0.499   0.857  0.00  0.00     0.078 C 
ATOM      3  C1  OXE d   1       1.634   1.784   0.152  0.00  0.00    -0.078 A 
ATOM      4  C2  OXE d   1       1.398   1.718  -1.200  0.00  0.00    -0.078 A 
ATOM      5  C3  OXE d   1       1.010   2.864  -1.888  0.00  0.00     0.003 A 
ATOM      6  C4  OXE d   1       1.009   4.109  -1.248  0.00  0.00    -0.002 A 
ATOM      7  C5  OXE d   1       1.286   4.204   0.120  0.00  0.00    -0.002 A 
ATOM      8  C6  OXE d   1       1.558   3.048   0.842  0.00  0.00     0.003 A 
ENDROOT
TORSDOF 0
ENDMDL
