MODEL 1
REMARK minimizedAffinity 3.30319977
REMARK minimizedRMSD -1
REMARK  0 active torsions:
REMARK  status: ('A' for Active; 'I' for Inactive)
ROOT
ATOM      1  C2' OXE d   1      -1.339   2.691  -2.624  0.00  0.00     0.078 C 
ATOM      2  C1' OXE d   1       0.716   0.799  -2.895  0.00  0.00     0.078 C 
ATOM      3  C1  OXE d   1       1.031   2.079  -2.163  0.00  0.00    -0.078 A 
ATOM      4  C2  OXE d   1       0.033   3.019  -2.076  0.00  0.00    -0.078 A 
ATOM      5  C3  OXE d   1       0.254   4.195  -1.364  0.00  0.00     0.003 A 
ATOM      6  C4  OXE d   1       1.529   4.495  -0.869  0.00  0.00    -0.002 A 
ATOM      7  C5  OXE d   1       2.571   3.568  -0.982  0.00  0.00    -0.002 A 
ATOM      8  C6  OXE d   1       2.327   2.340  -1.587  0.00  0.00     0.003 A 
ENDROOT
TORSDOF 0
ENDMDL
