MODEL 1
REMARK minimizedAffinity -2.86002064
REMARK minimizedRMSD -1
REMARK  0 active torsions:
REMARK  status: ('A' for Active; 'I' for Inactive)
ROOT
ATOM      1  C2' OXE d   1       1.741   3.770   2.302  0.00  0.00     0.078 C 
ATOM      2  C1' OXE d   1       1.661   1.006   1.821  0.00  0.00     0.078 C 
ATOM      3  C1  OXE d   1       1.524   1.930   0.637  0.00  0.00    -0.078 A 
ATOM      4  C2  OXE d   1       1.517   3.281   0.887  0.00  0.00    -0.078 A 
ATOM      5  C3  OXE d   1       1.448   4.178  -0.175  0.00  0.00     0.003 A 
ATOM      6  C4  OXE d   1       1.231   3.717  -1.479  0.00  0.00    -0.002 A 
ATOM      7  C5  OXE d   1       1.195   2.345  -1.751  0.00  0.00    -0.002 A 
ATOM      8  C6  OXE d   1       1.382   1.440  -0.712  0.00  0.00     0.003 A 
ENDROOT
TORSDOF 0
ENDMDL
