MODEL 1
REMARK minimizedAffinity 1.66549087
REMARK minimizedRMSD -1
REMARK  0 active torsions:
REMARK  status: ('A' for Active; 'I' for Inactive)
ROOT
ATOM      1  C2' OXE d   1       1.146   1.075   1.617  0.00  0.00     0.078 C 
ATOM      2  C1' OXE d   1       1.130  -1.403   0.298  0.00  0.00     0.078 C 
ATOM      3  C1  OXE d   1       1.333  -0.163  -0.537  0.00  0.00    -0.078 A 
ATOM      4  C2  OXE d   1       1.293   1.048   0.110  0.00  0.00    -0.078 A 
ATOM      5  C3  OXE d   1       1.528   2.220  -0.604  0.00  0.00     0.003 A 
ATOM      6  C4  OXE d   1       1.653   2.187  -1.998  0.00  0.00    -0.002 A 
ATOM      7  C5  OXE d   1       1.657   0.966  -2.682  0.00  0.00    -0.002 A 
ATOM      8  C6  OXE d   1       1.541  -0.218  -1.963  0.00  0.00     0.003 A 
ENDROOT
TORSDOF 0
ENDMDL
