MODEL 1
REMARK minimizedAffinity -5.86826849
REMARK minimizedRMSD -1
REMARK  0 active torsions:
REMARK  status: ('A' for Active; 'I' for Inactive)
ROOT
ATOM      1  C2' OXE d   1       1.074   3.556  -0.619  0.00  0.00     0.078 C 
ATOM      2  C1' OXE d   1       1.150   1.745   1.524  0.00  0.00     0.078 C 
ATOM      3  C1  OXE d   1       1.216   1.183   0.126  0.00  0.00    -0.078 A 
ATOM      4  C2  OXE d   1       1.131   2.073  -0.918  0.00  0.00    -0.078 A 
ATOM      5  C3  OXE d   1       1.241   1.613  -2.227  0.00  0.00     0.003 A 
ATOM      6  C4  OXE d   1       1.283   0.240  -2.494  0.00  0.00    -0.002 A 
ATOM      7  C5  OXE d   1       1.331  -0.686  -1.447  0.00  0.00    -0.002 A 
ATOM      8  C6  OXE d   1       1.341  -0.230  -0.134  0.00  0.00     0.003 A 
ENDROOT
TORSDOF 0
ENDMDL
