MODEL 1
REMARK minimizedAffinity -1.96948564
REMARK minimizedRMSD -1
REMARK  0 active torsions:
REMARK  status: ('A' for Active; 'I' for Inactive)
ROOT
ATOM      1  C2' OXE d   1       1.297   3.081  -1.417  0.00  0.00     0.078 C 
ATOM      2  C1' OXE d   1       1.042   2.358   1.283  0.00  0.00     0.078 C 
ATOM      3  C1  OXE d   1       1.228   1.253   0.274  0.00  0.00    -0.078 A 
ATOM      4  C2  OXE d   1       1.305   1.613  -1.050  0.00  0.00    -0.078 A 
ATOM      5  C3  OXE d   1       1.532   0.637  -2.017  0.00  0.00     0.003 A 
ATOM      6  C4  OXE d   1       1.528  -0.719  -1.670  0.00  0.00    -0.002 A 
ATOM      7  C5  OXE d   1       1.412  -1.109  -0.332  0.00  0.00    -0.002 A 
ATOM      8  C6  OXE d   1       1.304  -0.136   0.655  0.00  0.00     0.003 A 
ENDROOT
TORSDOF 0
ENDMDL
