MODEL 1
REMARK minimizedAffinity -3.55491495
REMARK minimizedRMSD -1
REMARK  0 active torsions:
REMARK  status: ('A' for Active; 'I' for Inactive)
ROOT
ATOM      1  C2' OXE d   1       1.730   5.887  -0.409  0.00  0.00     0.078 C 
ATOM      2  C1' OXE d   1       1.516   4.242   1.855  0.00  0.00     0.078 C 
ATOM      3  C1  OXE d   1       1.419   3.588   0.499  0.00  0.00    -0.078 A 
ATOM      4  C2  OXE d   1       1.479   4.407  -0.603  0.00  0.00    -0.078 A 
ATOM      5  C3  OXE d   1       1.450   3.849  -1.878  0.00  0.00     0.003 A 
ATOM      6  C4  OXE d   1       1.206   2.481  -2.048  0.00  0.00    -0.002 A 
ATOM      7  C5  OXE d   1       1.103   1.635  -0.938  0.00  0.00    -0.002 A 
ATOM      8  C6  OXE d   1       1.250   2.165   0.339  0.00  0.00     0.003 A 
ENDROOT
TORSDOF 0
ENDMDL
