MODEL 1
REMARK minimizedAffinity -3.9490304
REMARK minimizedRMSD -1
REMARK  0 active torsions:
REMARK  status: ('A' for Active; 'I' for Inactive)
ROOT
ATOM      1  C2' OXE d   1       0.681  -0.307  -1.035  0.00  0.00     0.078 C 
ATOM      2  C1' OXE d   1       0.870   0.798   1.539  0.00  0.00     0.078 C 
ATOM      3  C1  OXE d   1       1.061   1.721   0.362  0.00  0.00    -0.078 A 
ATOM      4  C2  OXE d   1       1.013   1.163  -0.893  0.00  0.00    -0.078 A 
ATOM      5  C3  OXE d   1       1.129   1.978  -2.015  0.00  0.00     0.003 A 
ATOM      6  C4  OXE d   1       1.446   3.335  -1.876  0.00  0.00    -0.002 A 
ATOM      7  C5  OXE d   1       1.539   3.915  -0.606  0.00  0.00    -0.002 A 
ATOM      8  C6  OXE d   1       1.308   3.133   0.519  0.00  0.00     0.003 A 
ENDROOT
TORSDOF 0
ENDMDL
