MODEL 1
REMARK minimizedAffinity -3.82646394
REMARK minimizedRMSD -1
REMARK  0 active torsions:
REMARK  status: ('A' for Active; 'I' for Inactive)
ROOT
ATOM      1  C2' OXE d   1       1.695   4.510  -1.060  0.00  0.00     0.078 C 
ATOM      2  C1' OXE d   1       1.642   3.638   1.608  0.00  0.00     0.078 C 
ATOM      3  C1  OXE d   1       1.507   2.597   0.525  0.00  0.00    -0.078 A 
ATOM      4  C2  OXE d   1       1.487   3.038  -0.777  0.00  0.00    -0.078 A 
ATOM      5  C3  OXE d   1       1.419   2.114  -1.816  0.00  0.00     0.003 A 
ATOM      6  C4  OXE d   1       1.216   0.756  -1.545  0.00  0.00    -0.002 A 
ATOM      7  C5  OXE d   1       1.194   0.290  -0.226  0.00  0.00    -0.002 A 
ATOM      8  C6  OXE d   1       1.380   1.191   0.817  0.00  0.00     0.003 A 
ENDROOT
TORSDOF 0
ENDMDL
