MODEL 1
REMARK minimizedAffinity 1.3000294
REMARK minimizedRMSD -1
REMARK  0 active torsions:
REMARK  status: ('A' for Active; 'I' for Inactive)
ROOT
ATOM      1  C2' OXE d   1       1.473  -2.047   0.130  0.00  0.00     0.078 C 
ATOM      2  C1' OXE d   1       3.254  -0.057   0.997  0.00  0.00     0.078 C 
ATOM      3  C1  OXE d   1       2.230   0.320  -0.043  0.00  0.00    -0.078 A 
ATOM      4  C2  OXE d   1       1.393  -0.671  -0.496  0.00  0.00    -0.078 A 
ATOM      5  C3  OXE d   1       0.394  -0.364  -1.415  0.00  0.00     0.003 A 
ATOM      6  C4  OXE d   1       0.333   0.908  -1.997  0.00  0.00    -0.002 A 
ATOM      7  C5  OXE d   1       1.201   1.922  -1.579  0.00  0.00    -0.002 A 
ATOM      8  C6  OXE d   1       2.126   1.657  -0.575  0.00  0.00     0.003 A 
ENDROOT
TORSDOF 0
ENDMDL
