MODEL 1
REMARK minimizedAffinity -2.5203321
REMARK minimizedRMSD -1
REMARK  0 active torsions:
REMARK  status: ('A' for Active; 'I' for Inactive)
ROOT
ATOM      1  C2' OXE d   1      -3.247   2.027   1.800  0.00  0.00     0.078 C 
ATOM      2  C1' OXE d   1      -0.477   1.864   2.228  0.00  0.00     0.078 C 
ATOM      3  C1  OXE d   1      -1.379   1.815   3.435  0.00  0.00    -0.078 A 
ATOM      4  C2  OXE d   1      -2.730   1.942   3.221  0.00  0.00    -0.078 A 
ATOM      5  C3  OXE d   1      -3.611   1.847   4.295  0.00  0.00     0.003 A 
ATOM      6  C4  OXE d   1      -3.125   1.779   5.606  0.00  0.00    -0.002 A 
ATOM      7  C5  OXE d   1      -1.751   1.689   5.850  0.00  0.00    -0.002 A 
ATOM      8  C6  OXE d   1      -0.868   1.662   4.775  0.00  0.00     0.003 A 
ENDROOT
TORSDOF 0
ENDMDL
