MODEL 1
REMARK minimizedAffinity 0.331193894
REMARK minimizedRMSD -1
REMARK  0 active torsions:
REMARK  status: ('A' for Active; 'I' for Inactive)
ROOT
ATOM      1  C2' OXE d   1       1.720   3.941   1.259  0.00  0.00     0.078 C 
ATOM      2  C1' OXE d   1       1.358   5.094  -1.275  0.00  0.00     0.078 C 
ATOM      3  C1  OXE d   1       1.438   3.591  -1.192  0.00  0.00    -0.078 A 
ATOM      4  C2  OXE d   1       1.662   3.037   0.046  0.00  0.00    -0.078 A 
ATOM      5  C3  OXE d   1       1.690   1.653   0.187  0.00  0.00     0.003 A 
ATOM      6  C4  OXE d   1       1.647   0.824  -0.940  0.00  0.00    -0.002 A 
ATOM      7  C5  OXE d   1       1.459   1.369  -2.215  0.00  0.00    -0.002 A 
ATOM      8  C6  OXE d   1       1.310   2.745  -2.353  0.00  0.00     0.003 A 
ENDROOT
TORSDOF 0
ENDMDL
