MODEL 1
REMARK minimizedAffinity -1.47301543
REMARK minimizedRMSD -1
REMARK  0 active torsions:
REMARK  status: ('A' for Active; 'I' for Inactive)
ROOT
ATOM      1  C2' OXE d   1       1.070  -0.329  -0.327  0.00  0.00     0.078 C 
ATOM      2  C1' OXE d   1       1.542   0.964   2.120  0.00  0.00     0.078 C 
ATOM      3  C1  OXE d   1       1.416   1.820   0.885  0.00  0.00    -0.078 A 
ATOM      4  C2  OXE d   1       1.232   1.176  -0.315  0.00  0.00    -0.078 A 
ATOM      5  C3  OXE d   1       1.055   1.921  -1.477  0.00  0.00     0.003 A 
ATOM      6  C4  OXE d   1       1.216   3.312  -1.459  0.00  0.00    -0.002 A 
ATOM      7  C5  OXE d   1       1.444   3.985  -0.254  0.00  0.00    -0.002 A 
ATOM      8  C6  OXE d   1       1.504   3.259   0.931  0.00  0.00     0.003 A 
ENDROOT
TORSDOF 0
ENDMDL
