MODEL 1
REMARK minimizedAffinity 1.33521879
REMARK minimizedRMSD -1
REMARK  0 active torsions:
REMARK  status: ('A' for Active; 'I' for Inactive)
ROOT
ATOM      1  C2' OXE d   1       0.831  -0.757  -0.730  0.00  0.00     0.078 C 
ATOM      2  C1' OXE d   1       1.475   0.821   1.501  0.00  0.00     0.078 C 
ATOM      3  C1  OXE d   1       1.326   1.513   0.169  0.00  0.00    -0.078 A 
ATOM      4  C2  OXE d   1       1.056   0.727  -0.925  0.00  0.00    -0.078 A 
ATOM      5  C3  OXE d   1       0.854   1.321  -2.168  0.00  0.00     0.003 A 
ATOM      6  C4  OXE d   1       1.074   2.693  -2.342  0.00  0.00    -0.002 A 
ATOM      7  C5  OXE d   1       1.389   3.506  -1.248  0.00  0.00    -0.002 A 
ATOM      8  C6  OXE d   1       1.476   2.940   0.019  0.00  0.00     0.003 A 
ENDROOT
TORSDOF 0
ENDMDL
