MODEL 1
REMARK minimizedAffinity 3.97732258
REMARK minimizedRMSD -1
REMARK  0 active torsions:
REMARK  status: ('A' for Active; 'I' for Inactive)
ROOT
ATOM      1  C2' OXE d   1      -3.998   3.432   4.102  0.00  0.00     0.078 C 
ATOM      2  C1' OXE d   1      -2.437   1.898   2.344  0.00  0.00     0.078 C 
ATOM      3  C1  OXE d   1      -3.691   1.272   2.900  0.00  0.00    -0.078 A 
ATOM      4  C2  OXE d   1      -4.424   2.012   3.796  0.00  0.00    -0.078 A 
ATOM      5  C3  OXE d   1      -5.618   1.502   4.297  0.00  0.00     0.003 A 
ATOM      6  C4  OXE d   1      -6.000   0.185   4.017  0.00  0.00    -0.002 A 
ATOM      7  C5  OXE d   1      -5.247  -0.601   3.138  0.00  0.00    -0.002 A 
ATOM      8  C6  OXE d   1      -4.115  -0.059   2.539  0.00  0.00     0.003 A 
ENDROOT
TORSDOF 0
ENDMDL
