MODEL 1
REMARK minimizedAffinity 8.80440998
REMARK minimizedRMSD -1
REMARK  0 active torsions:
REMARK  status: ('A' for Active; 'I' for Inactive)
ROOT
ATOM      1  C2' OXE d   1       1.790   5.210  -0.566  0.00  0.00     0.078 C 
ATOM      2  C1' OXE d   1       1.586   3.294   1.475  0.00  0.00     0.078 C 
ATOM      3  C1  OXE d   1       1.449   2.821   0.050  0.00  0.00    -0.078 A 
ATOM      4  C2  OXE d   1       1.504   3.772  -0.940  0.00  0.00    -0.078 A 
ATOM      5  C3  OXE d   1       1.438   3.382  -2.275  0.00  0.00     0.003 A 
ATOM      6  C4  OXE d   1       1.164   2.052  -2.612  0.00  0.00    -0.002 A 
ATOM      7  C5  OXE d   1       1.064   1.073  -1.617  0.00  0.00    -0.002 A 
ATOM      8  C6  OXE d   1       1.247   1.433  -0.287  0.00  0.00     0.003 A 
ENDROOT
TORSDOF 0
ENDMDL
