MODEL 1
REMARK minimizedAffinity 3.79168868
REMARK minimizedRMSD -1
REMARK  0 active torsions:
REMARK  status: ('A' for Active; 'I' for Inactive)
ROOT
ATOM      1  C4' PXY d   1       2.172  -6.000  -6.000  0.00  0.00     0.077 C 
ATOM      2  C1' PXY d   1       5.999  -4.768  -1.847  0.00  0.00     0.077 C 
ATOM      3  C1  PXY d   1       5.005  -5.090  -2.945  0.00  0.00    -0.082 A 
ATOM      4  C2  PXY d   1       3.713  -4.892  -2.736  0.00  0.00     0.003 A 
ATOM      5  C3  PXY d   1       2.798  -5.207  -3.707  0.00  0.00     0.003 A 
ATOM      6  C4  PXY d   1       3.212  -5.680  -4.923  0.00  0.00    -0.082 A 
ATOM      7  C5  PXY d   1       4.529  -5.875  -5.147  0.00  0.00     0.003 A 
ATOM      8  C6  PXY d   1       5.439  -5.587  -4.135  0.00  0.00     0.003 A 
ENDROOT
TORSDOF 0
ENDMDL
