MODEL 1
REMARK minimizedAffinity 7.85317421
REMARK minimizedRMSD -1
REMARK  0 active torsions:
REMARK  status: ('A' for Active; 'I' for Inactive)
ROOT
ATOM      1  C4' PXY d   1       3.031   1.270  -3.571  0.00  0.00     0.077 C 
ATOM      2  C1' PXY d   1       6.000   5.595  -5.999  0.00  0.00     0.077 C 
ATOM      3  C1  PXY d   1       5.211   4.465  -5.368  0.00  0.00    -0.082 A 
ATOM      4  C2  PXY d   1       5.644   3.910  -4.248  0.00  0.00     0.003 A 
ATOM      5  C3  PXY d   1       4.960   2.866  -3.681  0.00  0.00     0.003 A 
ATOM      6  C4  PXY d   1       3.791   2.420  -4.238  0.00  0.00    -0.082 A 
ATOM      7  C5  PXY d   1       3.336   2.988  -5.375  0.00  0.00     0.003 A 
ATOM      8  C6  PXY d   1       4.068   4.020  -5.957  0.00  0.00     0.003 A 
ENDROOT
TORSDOF 0
ENDMDL
