MODEL 1
REMARK minimizedAffinity 12.6835155
REMARK minimizedRMSD -1
REMARK  0 active torsions:
REMARK  status: ('A' for Active; 'I' for Inactive)
ROOT
ATOM      1  C4' PXY d   1       4.478  -5.833  -5.999  0.00  0.00     0.077 C 
ATOM      2  C1' PXY d   1      -0.635  -5.274  -3.361  0.00  0.00     0.077 C 
ATOM      3  C1  PXY d   1       0.701  -5.429  -4.061  0.00  0.00    -0.082 A 
ATOM      4  C2  PXY d   1       1.818  -5.149  -3.409  0.00  0.00     0.003 A 
ATOM      5  C3  PXY d   1       3.032  -5.253  -4.037  0.00  0.00     0.003 A 
ATOM      6  C4  PXY d   1       3.108  -5.700  -5.329  0.00  0.00    -0.082 A 
ATOM      7  C5  PXY d   1       1.974  -5.999  -5.997  0.00  0.00     0.003 A 
ATOM      8  C6  PXY d   1       0.748  -5.847  -5.355  0.00  0.00     0.003 A 
ENDROOT
TORSDOF 0
ENDMDL
