MODEL 1
REMARK minimizedAffinity 12.5669003
REMARK minimizedRMSD -1
REMARK  0 active torsions:
REMARK  status: ('A' for Active; 'I' for Inactive)
ROOT
ATOM      1  C4' PXY d   1       0.106  -5.412  -4.862  0.00  0.00     0.077 C 
ATOM      2  C1' PXY d   1       5.861  -5.953  -4.865  0.00  0.00     0.077 C 
ATOM      3  C1  PXY d   1       4.351  -5.818  -4.853  0.00  0.00    -0.082 A 
ATOM      4  C2  PXY d   1       3.704  -5.613  -5.989  0.00  0.00     0.003 A 
ATOM      5  C3  PXY d   1       2.342  -5.456  -5.992  0.00  0.00     0.003 A 
ATOM      6  C4  PXY d   1       1.629  -5.564  -4.828  0.00  0.00    -0.082 A 
ATOM      7  C5  PXY d   1       2.282  -5.783  -3.667  0.00  0.00     0.003 A 
ATOM      8  C6  PXY d   1       3.669  -5.898  -3.679  0.00  0.00     0.003 A 
ENDROOT
TORSDOF 0
ENDMDL
