MODEL 1
REMARK minimizedAffinity 5.47827291
REMARK minimizedRMSD -1
REMARK  0 active torsions:
REMARK  status: ('A' for Active; 'I' for Inactive)
ROOT
ATOM      1  C4' PXY d   1      -1.519   2.840   3.746  0.00  0.00     0.077 C 
ATOM      2  C1' PXY d   1       3.203   1.633   0.639  0.00  0.00     0.077 C 
ATOM      3  C1  PXY d   1       1.969   1.942   1.463  0.00  0.00    -0.082 A 
ATOM      4  C2  PXY d   1       0.840   2.267   0.855  0.00  0.00     0.003 A 
ATOM      5  C3  PXY d   1      -0.276   2.581   1.586  0.00  0.00     0.003 A 
ATOM      6  C4  PXY d   1      -0.252   2.510   2.953  0.00  0.00    -0.082 A 
ATOM      7  C5  PXY d   1       0.893   2.169   3.581  0.00  0.00     0.003 A 
ATOM      8  C6  PXY d   1       2.027   1.894   2.822  0.00  0.00     0.003 A 
ENDROOT
TORSDOF 0
ENDMDL
