MODEL 1
REMARK minimizedAffinity 3.67606807
REMARK minimizedRMSD -1
REMARK  0 active torsions:
REMARK  status: ('A' for Active; 'I' for Inactive)
ROOT
ATOM      1  C4' PXY d   1      -0.561   2.717  -4.149  0.00  0.00     0.077 C 
ATOM      2  C1' PXY d   1      -6.000   3.357  -5.999  0.00  0.00     0.077 C 
ATOM      3  C1  PXY d   1      -4.578   3.184  -5.502  0.00  0.00    -0.082 A 
ATOM      4  C2  PXY d   1      -3.615   3.944  -5.998  0.00  0.00     0.003 A 
ATOM      5  C3  PXY d   1      -2.319   3.780  -5.583  0.00  0.00     0.003 A 
ATOM      6  C4  PXY d   1      -2.013   2.863  -4.613  0.00  0.00    -0.082 A 
ATOM      7  C5  PXY d   1      -2.991   2.091  -4.095  0.00  0.00     0.003 A 
ATOM      8  C6  PXY d   1      -4.294   2.245  -4.559  0.00  0.00     0.003 A 
ENDROOT
TORSDOF 0
ENDMDL
