MODEL 1
REMARK minimizedAffinity 9.86561108
REMARK minimizedRMSD -1
REMARK  0 active torsions:
REMARK  status: ('A' for Active; 'I' for Inactive)
ROOT
ATOM      1  C4' PXY d   1      -0.676   1.340   1.521  0.00  0.00     0.077 C 
ATOM      2  C1' PXY d   1       4.316   2.430  -1.180  0.00  0.00     0.077 C 
ATOM      3  C1  PXY d   1       3.011   2.132  -0.468  0.00  0.00    -0.082 A 
ATOM      4  C2  PXY d   1       1.907   2.762  -0.836  0.00  0.00     0.003 A 
ATOM      5  C3  PXY d   1       0.725   2.529  -0.181  0.00  0.00     0.003 A 
ATOM      6  C4  PXY d   1       0.661   1.602   0.824  0.00  0.00    -0.082 A 
ATOM      7  C5  PXY d   1       1.781   0.947   1.198  0.00  0.00     0.003 A 
ATOM      8  C6  PXY d   1       2.980   1.229   0.548  0.00  0.00     0.003 A 
ENDROOT
TORSDOF 0
ENDMDL
