MODEL 1
REMARK minimizedAffinity 9.17102146
REMARK minimizedRMSD -1
REMARK  0 active torsions:
REMARK  status: ('A' for Active; 'I' for Inactive)
ROOT
ATOM      1  C4' PXY d   1       0.451  -5.868  -4.697  0.00  0.00     0.077 C 
ATOM      2  C1' PXY d   1       6.000  -4.340  -5.237  0.00  0.00     0.077 C 
ATOM      3  C1  PXY d   1       4.544  -4.744  -5.109  0.00  0.00    -0.082 A 
ATOM      4  C2  PXY d   1       3.812  -4.247  -4.125  0.00  0.00     0.003 A 
ATOM      5  C3  PXY d   1       2.503  -4.626  -3.974  0.00  0.00     0.003 A 
ATOM      6  C4  PXY d   1       1.922  -5.481  -4.872  0.00  0.00    -0.082 A 
ATOM      7  C5  PXY d   1       2.659  -5.984  -5.885  0.00  0.00     0.003 A 
ATOM      8  C6  PXY d   1       3.998  -5.619  -5.996  0.00  0.00     0.003 A 
ENDROOT
TORSDOF 0
ENDMDL
