MODEL 1
REMARK minimizedAffinity 0.680882633
REMARK minimizedRMSD -1
REMARK  0 active torsions:
REMARK  status: ('A' for Active; 'I' for Inactive)
ROOT
ATOM      1  C4' PXY d   1       5.924  -3.835  -3.435  0.00  0.00     0.077 C 
ATOM      2  C1' PXY d   1       1.135  -5.949  -5.888  0.00  0.00     0.077 C 
ATOM      3  C1  PXY d   1       2.398  -5.400  -5.254  0.00  0.00    -0.082 A 
ATOM      4  C2  PXY d   1       2.393  -5.058  -3.976  0.00  0.00     0.003 A 
ATOM      5  C3  PXY d   1       3.517  -4.531  -3.394  0.00  0.00     0.003 A 
ATOM      6  C4  PXY d   1       4.674  -4.402  -4.115  0.00  0.00    -0.082 A 
ATOM      7  C5  PXY d   1       4.691  -4.759  -5.416  0.00  0.00     0.003 A 
ATOM      8  C6  PXY d   1       3.527  -5.253  -5.999  0.00  0.00     0.003 A 
ENDROOT
TORSDOF 0
ENDMDL
