MODEL 1
REMARK minimizedAffinity 16.4698296
REMARK minimizedRMSD -1
REMARK  0 active torsions:
REMARK  status: ('A' for Active; 'I' for Inactive)
ROOT
ATOM      1  C4' PXY d   1       5.975  -5.420  -5.932  0.00  0.00     0.077 C 
ATOM      2  C1' PXY d   1       0.659  -5.463  -3.662  0.00  0.00     0.077 C 
ATOM      3  C1  PXY d   1       2.058  -5.453  -4.245  0.00  0.00    -0.082 A 
ATOM      4  C2  PXY d   1       2.266  -4.917  -5.437  0.00  0.00     0.003 A 
ATOM      5  C3  PXY d   1       3.519  -4.928  -5.993  0.00  0.00     0.003 A 
ATOM      6  C4  PXY d   1       4.580  -5.445  -5.300  0.00  0.00    -0.082 A 
ATOM      7  C5  PXY d   1       4.378  -5.984  -4.079  0.00  0.00     0.003 A 
ATOM      8  C6  PXY d   1       3.091  -6.000  -3.549  0.00  0.00     0.003 A 
ENDROOT
TORSDOF 0
ENDMDL
