MODEL 1
REMARK minimizedAffinity 18.9428139
REMARK minimizedRMSD -1
REMARK  0 active torsions:
REMARK  status: ('A' for Active; 'I' for Inactive)
ROOT
ATOM      1  C4' PXY d   1      -2.477  -5.599   5.961  0.00  0.00     0.077 C 
ATOM      2  C1' PXY d   1      -2.061  -2.962   0.834  0.00  0.00     0.077 C 
ATOM      3  C1  PXY d   1      -2.180  -3.661   2.174  0.00  0.00    -0.082 A 
ATOM      4  C2  PXY d   1      -1.721  -3.068   3.264  0.00  0.00     0.003 A 
ATOM      5  C3  PXY d   1      -1.792  -3.699   4.480  0.00  0.00     0.003 A 
ATOM      6  C4  PXY d   1      -2.387  -4.927   4.589  0.00  0.00    -0.082 A 
ATOM      7  C5  PXY d   1      -2.868  -5.534   3.483  0.00  0.00     0.003 A 
ATOM      8  C6  PXY d   1      -2.749  -4.894   2.252  0.00  0.00     0.003 A 
ENDROOT
TORSDOF 0
ENDMDL
