MODEL 1
REMARK minimizedAffinity 16.9259605
REMARK minimizedRMSD -1
REMARK  0 active torsions:
REMARK  status: ('A' for Active; 'I' for Inactive)
ROOT
ATOM      1  C4' PXY d   1       2.938   2.466  -5.868  0.00  0.00     0.077 C 
ATOM      2  C1' PXY d   1       5.798   2.384  -0.845  0.00  0.00     0.077 C 
ATOM      3  C1  PXY d   1       5.048   2.419  -2.162  0.00  0.00    -0.082 A 
ATOM      4  C2  PXY d   1       4.308   1.383  -2.521  0.00  0.00     0.003 A 
ATOM      5  C3  PXY d   1       3.649   1.384  -3.723  0.00  0.00     0.003 A 
ATOM      6  C4  PXY d   1       3.705   2.479  -4.543  0.00  0.00    -0.082 A 
ATOM      7  C5  PXY d   1       4.450   3.545  -4.179  0.00  0.00     0.003 A 
ATOM      8  C6  PXY d   1       5.144   3.507  -2.973  0.00  0.00     0.003 A 
ENDROOT
TORSDOF 0
ENDMDL
