MODEL 1
REMARK minimizedAffinity 10.5027809
REMARK minimizedRMSD -1
REMARK  0 active torsions:
REMARK  status: ('A' for Active; 'I' for Inactive)
ROOT
ATOM      1  C4' PXY d   1       5.999   3.000   0.018  0.00  0.00     0.077 C 
ATOM      2  C1' PXY d   1       0.593   1.347   1.221  0.00  0.00     0.077 C 
ATOM      3  C1  PXY d   1       2.011   1.788   0.917  0.00  0.00    -0.082 A 
ATOM      4  C2  PXY d   1       2.439   1.795  -0.335  0.00  0.00     0.003 A 
ATOM      5  C3  PXY d   1       3.728   2.160  -0.625  0.00  0.00     0.003 A 
ATOM      6  C4  PXY d   1       4.572   2.572   0.371  0.00  0.00    -0.082 A 
ATOM      7  C5  PXY d   1       4.140   2.578   1.650  0.00  0.00     0.003 A 
ATOM      8  C6  PXY d   1       2.840   2.164   1.928  0.00  0.00     0.003 A 
ENDROOT
TORSDOF 0
ENDMDL
