MODEL 1
REMARK minimizedAffinity 9.26704979
REMARK minimizedRMSD -1
REMARK  0 active torsions:
REMARK  status: ('A' for Active; 'I' for Inactive)
ROOT
ATOM      1  C4' PXY d   1      -2.024  -1.985   2.267  0.00  0.00     0.077 C 
ATOM      2  C1' PXY d   1      -2.469  -6.000  -1.868  0.00  0.00     0.077 C 
ATOM      3  C1  PXY d   1      -2.360  -4.954  -0.776  0.00  0.00    -0.082 A 
ATOM      4  C2  PXY d   1      -2.004  -3.718  -1.087  0.00  0.00     0.003 A 
ATOM      5  C3  PXY d   1      -1.870  -2.768  -0.108  0.00  0.00     0.003 A 
ATOM      6  C4  PXY d   1      -2.155  -3.071   1.196  0.00  0.00    -0.082 A 
ATOM      7  C5  PXY d   1      -2.530  -4.327   1.520  0.00  0.00     0.003 A 
ATOM      8  C6  PXY d   1      -2.620  -5.288   0.517  0.00  0.00     0.003 A 
ENDROOT
TORSDOF 0
ENDMDL
