MODEL 1
REMARK minimizedAffinity 12.3474236
REMARK minimizedRMSD -1
REMARK  0 active torsions:
REMARK  status: ('A' for Active; 'I' for Inactive)
ROOT
ATOM      1  C4' PXY d   1       4.171   1.884  -0.974  0.00  0.00     0.077 C 
ATOM      2  C1' PXY d   1      -0.227   1.661   2.770  0.00  0.00     0.077 C 
ATOM      3  C1  PXY d   1       0.934   1.720   1.798  0.00  0.00    -0.082 A 
ATOM      4  C2  PXY d   1       0.747   2.209   0.583  0.00  0.00     0.003 A 
ATOM      5  C3  PXY d   1       1.779   2.240  -0.319  0.00  0.00     0.003 A 
ATOM      6  C4  PXY d   1       3.029   1.814   0.043  0.00  0.00    -0.082 A 
ATOM      7  C5  PXY d   1       3.231   1.323   1.284  0.00  0.00     0.003 A 
ATOM      8  C6  PXY d   1       2.160   1.263   2.172  0.00  0.00     0.003 A 
ENDROOT
TORSDOF 0
ENDMDL
