MODEL 1
REMARK minimizedAffinity 7.60521126
REMARK minimizedRMSD -1
REMARK  0 active torsions:
REMARK  status: ('A' for Active; 'I' for Inactive)
ROOT
ATOM      1  C4' PXY d   1       6.000   4.257  -5.999  0.00  0.00     0.077 C 
ATOM      2  C1' PXY d   1       3.467   0.862  -2.065  0.00  0.00     0.077 C 
ATOM      3  C1  PXY d   1       4.136   1.760  -3.087  0.00  0.00    -0.082 A 
ATOM      4  C2  PXY d   1       3.653   1.824  -4.317  0.00  0.00     0.003 A 
ATOM      5  C3  PXY d   1       4.265   2.606  -5.263  0.00  0.00     0.003 A 
ATOM      6  C4  PXY d   1       5.351   3.371  -4.932  0.00  0.00    -0.082 A 
ATOM      7  C5  PXY d   1       5.844   3.319  -3.676  0.00  0.00     0.003 A 
ATOM      8  C6  PXY d   1       5.233   2.487  -2.742  0.00  0.00     0.003 A 
ENDROOT
TORSDOF 0
ENDMDL
