MODEL 1
REMARK minimizedAffinity 15.694272
REMARK minimizedRMSD -1
REMARK  0 active torsions:
REMARK  status: ('A' for Active; 'I' for Inactive)
ROOT
ATOM      1  C4' PXY d   1       5.635  -5.906  -5.922  0.00  0.00     0.077 C 
ATOM      2  C1' PXY d   1       0.386  -5.241  -3.594  0.00  0.00     0.077 C 
ATOM      3  C1  PXY d   1       1.767  -5.407  -4.196  0.00  0.00    -0.082 A 
ATOM      4  C2  PXY d   1       1.890  -5.811  -5.450  0.00  0.00     0.003 A 
ATOM      5  C3  PXY d   1       3.132  -5.997  -6.000  0.00  0.00     0.003 A 
ATOM      6  C4  PXY d   1       4.260  -5.715  -5.276  0.00  0.00    -0.082 A 
ATOM      7  C5  PXY d   1       4.143  -5.293  -3.999  0.00  0.00     0.003 A 
ATOM      8  C6  PXY d   1       2.873  -5.150  -3.446  0.00  0.00     0.003 A 
ENDROOT
TORSDOF 0
ENDMDL
