MODEL 1
REMARK minimizedAffinity 13.4932642
REMARK minimizedRMSD -1
REMARK  0 active torsions:
REMARK  status: ('A' for Active; 'I' for Inactive)
ROOT
ATOM      1  C4' PXY d   1       4.753   2.236  -0.245  0.00  0.00     0.077 C 
ATOM      2  C1' PXY d   1      -0.493   1.949   2.165  0.00  0.00     0.077 C 
ATOM      3  C1  PXY d   1       0.888   2.030   1.544  0.00  0.00    -0.082 A 
ATOM      4  C2  PXY d   1       1.013   2.033   0.227  0.00  0.00     0.003 A 
ATOM      5  C3  PXY d   1       2.256   2.073  -0.352  0.00  0.00     0.003 A 
ATOM      6  C4  PXY d   1       3.379   2.165   0.426  0.00  0.00    -0.082 A 
ATOM      7  C5  PXY d   1       3.259   2.173   1.770  0.00  0.00     0.003 A 
ATOM      8  C6  PXY d   1       1.991   2.090   2.338  0.00  0.00     0.003 A 
ENDROOT
TORSDOF 0
ENDMDL
