MODEL 1
REMARK minimizedAffinity -1.15283763
REMARK minimizedRMSD -1
REMARK  0 active torsions:
REMARK  status: ('A' for Active; 'I' for Inactive)
ROOT
ATOM      1  C4' PXY d   1      -1.765  -0.602   0.840  0.00  0.00     0.077 C 
ATOM      2  C1' PXY d   1       2.736   2.948   1.583  0.00  0.00     0.077 C 
ATOM      3  C1  PXY d   1       1.561   2.012   1.377  0.00  0.00    -0.082 A 
ATOM      4  C2  PXY d   1       0.394   2.296   1.932  0.00  0.00     0.003 A 
ATOM      5  C3  PXY d   1      -0.670   1.445   1.782  0.00  0.00     0.003 A 
ATOM      6  C4  PXY d   1      -0.553   0.318   1.013  0.00  0.00    -0.082 A 
ATOM      7  C5  PXY d   1       0.631   0.027   0.436  0.00  0.00     0.003 A 
ATOM      8  C6  PXY d   1       1.711   0.883   0.634  0.00  0.00     0.003 A 
ENDROOT
TORSDOF 0
ENDMDL
