MODEL 1
REMARK minimizedAffinity 2.58193302
REMARK minimizedRMSD -1
REMARK  0 active torsions:
REMARK  status: ('A' for Active; 'I' for Inactive)
ROOT
ATOM      1  C   UNL d   1      -3.197  -0.513  -2.247  0.00  0.00     0.077 C 
ATOM      2  C1  UNL d   1      -1.870  -1.097  -1.862  0.00  0.00    -0.074 A 
ATOM      3  C2  UNL d   1      -0.938  -1.468  -2.836  0.00  0.00    -0.005 A 
ATOM      4  C3  UNL d   1       0.296  -2.001  -2.463  0.00  0.00     0.006 A 
ATOM      5  C4  UNL d   1       0.610  -2.168  -1.113  0.00  0.00    -0.005 A 
ATOM      6  C5  UNL d   1      -0.309  -1.802  -0.125  0.00  0.00    -0.074 A 
ATOM      7  C6  UNL d   1       0.016  -1.965   1.330  0.00  0.00     0.077 C 
ATOM      8  C7  UNL d   1      -1.544  -1.260  -0.508  0.00  0.00    -0.001 A 
ENDROOT
TORSDOF 0
ENDMDL
