MODEL 1
REMARK minimizedAffinity -0.442598611
REMARK minimizedRMSD -1
REMARK  0 active torsions:
REMARK  status: ('A' for Active; 'I' for Inactive)
ROOT
ATOM      1  C   UNL d   1      -0.388  -1.630   1.162  0.00  0.00     0.077 C 
ATOM      2  C1  UNL d   1       0.678  -0.576   1.201  0.00  0.00    -0.074 A 
ATOM      3  C2  UNL d   1       1.797  -0.715   2.028  0.00  0.00    -0.005 A 
ATOM      4  C3  UNL d   1       2.785   0.270   2.046  0.00  0.00     0.006 A 
ATOM      5  C4  UNL d   1       2.664   1.402   1.239  0.00  0.00    -0.005 A 
ATOM      6  C5  UNL d   1       1.553   1.557   0.405  0.00  0.00    -0.074 A 
ATOM      7  C6  UNL d   1       1.412   2.763  -0.477  0.00  0.00     0.077 C 
ATOM      8  C7  UNL d   1       0.568   0.560   0.387  0.00  0.00    -0.001 A 
ENDROOT
TORSDOF 0
ENDMDL
