MODEL 1
REMARK minimizedAffinity 7.39139891
REMARK minimizedRMSD -1
REMARK  0 active torsions:
REMARK  status: ('A' for Active; 'I' for Inactive)
ROOT
ATOM      1  C   UNL d   1       2.038   3.319  -0.923  0.00  0.00     0.077 C 
ATOM      2  C1  UNL d   1       1.939   2.145   0.006  0.00  0.00    -0.074 A 
ATOM      3  C2  UNL d   1       3.012   1.786   0.827  0.00  0.00    -0.005 A 
ATOM      4  C3  UNL d   1       2.902   0.697   1.692  0.00  0.00     0.006 A 
ATOM      5  C4  UNL d   1       1.720  -0.042   1.744  0.00  0.00    -0.005 A 
ATOM      6  C5  UNL d   1       0.636   0.303   0.931  0.00  0.00    -0.074 A 
ATOM      7  C6  UNL d   1      -0.646  -0.475   0.982  0.00  0.00     0.077 C 
ATOM      8  C7  UNL d   1       0.752   1.402   0.069  0.00  0.00    -0.001 A 
ENDROOT
TORSDOF 0
ENDMDL
