MODEL 1
REMARK minimizedAffinity -3.47140431
REMARK minimizedRMSD -1
REMARK  1 active torsions:
REMARK  status: ('A' for Active; 'I' for Inactive)
REMARK    1  A    between atoms: C1_2  and  C2_3 
ROOT
ATOM      1  C2  UNL d   1      -0.202  -0.478  -0.553  0.00  0.00    -0.073 A 
ATOM      2  C3  UNL d   1       1.166  -0.664  -0.782  0.00  0.00    -0.002 A 
ATOM      3  C4  UNL d   1       1.643  -1.889  -1.249  0.00  0.00     0.004 A 
ATOM      4  C5  UNL d   1       0.758  -2.938  -1.497  0.00  0.00    -0.004 A 
ATOM      5  C6  UNL d   1      -0.614  -2.768  -1.285  0.00  0.00    -0.075 A 
ATOM      6  C7  UNL d   1      -1.579  -3.887  -1.546  0.00  0.00     0.076 C 
ATOM      7  C8  UNL d   1      -1.085  -1.535  -0.814  0.00  0.00     0.001 A 
ENDROOT
BRANCH   1   8
ATOM      8  C1  UNL d   1      -0.722   0.846  -0.055  0.00  0.00     0.053 C 
ATOM      9  C   UNL d   1      -0.488   1.026   1.437  0.00  0.00     0.018 C 
ENDBRANCH   1   8
TORSDOF 1
ENDMDL
