MODEL 1
REMARK minimizedAffinity -1.73078263
REMARK minimizedRMSD -1
REMARK  1 active torsions:
REMARK  status: ('A' for Active; 'I' for Inactive)
REMARK    1  A    between atoms: C1_2  and  C2_3 
ROOT
ATOM      1  C2  UNL d   1       0.368  -1.931  -0.800  0.00  0.00    -0.073 A 
ATOM      2  C3  UNL d   1      -0.673  -2.603  -1.450  0.00  0.00    -0.002 A 
ATOM      3  C4  UNL d   1      -0.630  -3.990  -1.600  0.00  0.00     0.004 A 
ATOM      4  C5  UNL d   1       0.448  -4.718  -1.097  0.00  0.00    -0.004 A 
ATOM      5  C6  UNL d   1       1.492  -4.065  -0.433  0.00  0.00    -0.075 A 
ATOM      6  C7  UNL d   1       2.660  -4.833   0.112  0.00  0.00     0.076 C 
ATOM      7  C8  UNL d   1       1.443  -2.672  -0.289  0.00  0.00     0.001 A 
ENDROOT
BRANCH   1   8
ATOM      8  C1  UNL d   1       0.323  -0.434  -0.629  0.00  0.00     0.053 C 
ATOM      9  C   UNL d   1      -0.176  -0.032   0.749  0.00  0.00     0.018 C 
ENDBRANCH   1   8
TORSDOF 1
ENDMDL
