MODEL 1
REMARK minimizedAffinity -3.87032104
REMARK minimizedRMSD -1
REMARK  1 active torsions:
REMARK  status: ('A' for Active; 'I' for Inactive)
REMARK    1  A    between atoms: C1_2  and  C2_3 
ROOT
ATOM      1  C2  UNL d   1      -0.210  -0.472  -0.089  0.00  0.00    -0.073 A 
ATOM      2  C3  UNL d   1       0.769  -0.826   0.847  0.00  0.00    -0.002 A 
ATOM      3  C4  UNL d   1       0.907  -0.101   2.030  0.00  0.00     0.004 A 
ATOM      4  C5  UNL d   1       0.066   0.980   2.294  0.00  0.00    -0.004 A 
ATOM      5  C6  UNL d   1      -0.926   1.342   1.377  0.00  0.00    -0.075 A 
ATOM      6  C7  UNL d   1      -1.837   2.503   1.644  0.00  0.00     0.076 C 
ATOM      7  C8  UNL d   1      -1.057   0.610   0.189  0.00  0.00     0.001 A 
ENDROOT
BRANCH   1   8
ATOM      8  C1  UNL d   1      -0.367  -1.257  -1.366  0.00  0.00     0.053 C 
ATOM      9  C   UNL d   1      -0.788  -2.694  -1.104  0.00  0.00     0.018 C 
ENDBRANCH   1   8
TORSDOF 1
ENDMDL
