MODEL 1
REMARK minimizedAffinity -5.63276148
REMARK minimizedRMSD -1
REMARK  1 active torsions:
REMARK  status: ('A' for Active; 'I' for Inactive)
REMARK    1  A    between atoms: C1_2  and  C2_3 
ROOT
ATOM      1  C2  UNL d   1       0.030  -0.595  -0.407  0.00  0.00    -0.073 A 
ATOM      2  C3  UNL d   1       0.603  -1.327   0.640  0.00  0.00    -0.002 A 
ATOM      3  C4  UNL d   1       0.563  -0.838   1.946  0.00  0.00     0.004 A 
ATOM      4  C5  UNL d   1      -0.055   0.382   2.221  0.00  0.00    -0.004 A 
ATOM      5  C6  UNL d   1      -0.643   1.123   1.190  0.00  0.00    -0.075 A 
ATOM      6  C7  UNL d   1      -1.309   2.438   1.468  0.00  0.00     0.076 C 
ATOM      7  C8  UNL d   1      -0.596   0.626  -0.120  0.00  0.00     0.001 A 
ENDROOT
BRANCH   1   8
ATOM      8  C1  UNL d   1       0.066  -1.122  -1.818  0.00  0.00     0.053 C 
ATOM      9  C   UNL d   1      -0.671  -2.445  -1.951  0.00  0.00     0.018 C 
ENDBRANCH   1   8
TORSDOF 1
ENDMDL
