MODEL 1
REMARK minimizedAffinity -4.5110631
REMARK minimizedRMSD -1
REMARK  1 active torsions:
REMARK  status: ('A' for Active; 'I' for Inactive)
REMARK    1  A    between atoms: C1_2  and  C2_3 
ROOT
ATOM      1  C2  UNL d   1       0.326   0.127  -0.051  0.00  0.00    -0.073 A 
ATOM      2  C3  UNL d   1       1.127  -0.302   1.013  0.00  0.00    -0.002 A 
ATOM      3  C4  UNL d   1       0.951   0.235   2.289  0.00  0.00     0.004 A 
ATOM      4  C5  UNL d   1      -0.030   1.199   2.516  0.00  0.00    -0.004 A 
ATOM      5  C6  UNL d   1      -0.849   1.632   1.468  0.00  0.00    -0.075 A 
ATOM      6  C7  UNL d   1      -1.908   2.671   1.695  0.00  0.00     0.076 C 
ATOM      7  C8  UNL d   1      -0.664   1.091   0.189  0.00  0.00     0.001 A 
ENDROOT
BRANCH   1   8
ATOM      8  C1  UNL d   1       0.508  -0.454  -1.429  0.00  0.00     0.053 C 
ATOM      9  C   UNL d   1       0.158  -1.933  -1.475  0.00  0.00     0.018 C 
ENDBRANCH   1   8
TORSDOF 1
ENDMDL
