MODEL 1
REMARK minimizedAffinity -5.92740011
REMARK minimizedRMSD -1
REMARK  1 active torsions:
REMARK  status: ('A' for Active; 'I' for Inactive)
REMARK    1  A    between atoms: C1_2  and  C2_3 
ROOT
ATOM      1  C2  UNL d   1       0.796   0.309   0.167  0.00  0.00    -0.077 A 
ATOM      2  C3  UNL d   1       1.968   0.865   0.699  0.00  0.00     0.002 A 
ATOM      3  C4  UNL d   1       3.108   0.077   0.873  0.00  0.00     0.002 A 
ATOM      4  C5  UNL d   1       3.088  -1.269   0.513  0.00  0.00    -0.004 A 
ATOM      5  C6  UNL d   1       1.927  -1.831  -0.015  0.00  0.00     0.002 A 
ATOM      6  C7  UNL d   1       0.786  -1.046  -0.188  0.00  0.00     0.002 A 
ENDROOT
BRANCH   1   7
ATOM      7  C1  UNL d   1      -0.419   1.168  -0.066  0.00  0.00     0.055 C 
ATOM      8  C   UNL d   1      -1.700   0.416   0.260  0.00  0.00     0.019 C 
ENDBRANCH   1   7
TORSDOF 1
ENDMDL
