MODEL 1
REMARK minimizedAffinity -1.31336308
REMARK minimizedRMSD -1
REMARK  1 active torsions:
REMARK  status: ('A' for Active; 'I' for Inactive)
REMARK    1  A    between atoms: C1_2  and  C2_3 
ROOT
ATOM      1  C2  UNL d   1       0.969  -1.068  -0.400  0.00  0.00    -0.077 A 
ATOM      2  C3  UNL d   1      -0.109  -1.439  -1.216  0.00  0.00     0.002 A 
ATOM      3  C4  UNL d   1      -1.303  -0.716  -1.182  0.00  0.00     0.002 A 
ATOM      4  C5  UNL d   1      -1.428   0.385  -0.337  0.00  0.00    -0.004 A 
ATOM      5  C6  UNL d   1      -0.363   0.761   0.479  0.00  0.00     0.002 A 
ATOM      6  C7  UNL d   1       0.831   0.039   0.447  0.00  0.00     0.002 A 
ENDROOT
BRANCH   1   7
ATOM      7  C1  UNL d   1       2.274  -1.817  -0.472  0.00  0.00     0.055 C 
ATOM      8  C   UNL d   1       2.682  -2.081  -1.914  0.00  0.00     0.019 C 
ENDBRANCH   1   7
TORSDOF 1
ENDMDL
