MODEL 1
REMARK minimizedAffinity -4.05536604
REMARK minimizedRMSD -1
REMARK  1 active torsions:
REMARK  status: ('A' for Active; 'I' for Inactive)
REMARK    1  A    between atoms: C1_2  and  C2_3 
ROOT
ATOM      1  C2  UNL d   1       1.075   0.850   0.741  0.00  0.00    -0.077 A 
ATOM      2  C3  UNL d   1       0.665   1.993   0.041  0.00  0.00     0.002 A 
ATOM      3  C4  UNL d   1      -0.590   2.036  -0.569  0.00  0.00     0.002 A 
ATOM      4  C5  UNL d   1      -1.447   0.941  -0.482  0.00  0.00    -0.004 A 
ATOM      5  C6  UNL d   1      -1.048  -0.202   0.210  0.00  0.00     0.002 A 
ATOM      6  C7  UNL d   1       0.207  -0.247   0.820  0.00  0.00     0.002 A 
ENDROOT
BRANCH   1   7
ATOM      7  C1  UNL d   1       2.408   0.820   1.441  0.00  0.00     0.055 C 
ATOM      8  C   UNL d   1       3.344  -0.199   0.807  0.00  0.00     0.019 C 
ENDBRANCH   1   7
TORSDOF 1
ENDMDL
