MODEL 1
REMARK minimizedAffinity -5.9911685
REMARK minimizedRMSD -1
REMARK  1 active torsions:
REMARK  status: ('A' for Active; 'I' for Inactive)
REMARK    1  A    between atoms: C1_2  and  C2_3 
ROOT
ATOM      1  C2  UNL d   1       0.966   0.587  -0.230  0.00  0.00    -0.077 A 
ATOM      2  C3  UNL d   1       1.189  -0.788  -0.066  0.00  0.00     0.002 A 
ATOM      3  C4  UNL d   1       2.388  -1.247   0.483  0.00  0.00     0.002 A 
ATOM      4  C5  UNL d   1       3.370  -0.340   0.875  0.00  0.00    -0.004 A 
ATOM      5  C6  UNL d   1       3.158   1.028   0.714  0.00  0.00     0.002 A 
ATOM      6  C7  UNL d   1       1.961   1.490   0.165  0.00  0.00     0.002 A 
ENDROOT
BRANCH   1   7
ATOM      7  C1  UNL d   1      -0.347   1.087  -0.775  0.00  0.00     0.055 C 
ATOM      8  C   UNL d   1      -1.520   0.312  -0.192  0.00  0.00     0.019 C 
ENDBRANCH   1   7
TORSDOF 1
ENDMDL
