MODEL 1
REMARK minimizedAffinity 4.38926935
REMARK minimizedRMSD -1
REMARK  1 active torsions:
REMARK  status: ('A' for Active; 'I' for Inactive)
REMARK    1  A    between atoms: C1_2  and  C2_3 
ROOT
ATOM      1  C2  UNL d   1       1.453  -2.075  -0.469  0.00  0.00    -0.077 A 
ATOM      2  C3  UNL d   1       0.639  -3.209  -0.346  0.00  0.00     0.002 A 
ATOM      3  C4  UNL d   1      -0.705  -3.079   0.012  0.00  0.00     0.002 A 
ATOM      4  C5  UNL d   1      -1.245  -1.816   0.247  0.00  0.00    -0.004 A 
ATOM      5  C6  UNL d   1      -0.443  -0.682   0.129  0.00  0.00     0.002 A 
ATOM      6  C7  UNL d   1       0.900  -0.811  -0.227  0.00  0.00     0.002 A 
ENDROOT
BRANCH   1   7
ATOM      7  C1  UNL d   1       2.889  -2.210  -0.903  0.00  0.00     0.055 C 
ATOM      8  C   UNL d   1       2.992  -2.505  -2.392  0.00  0.00     0.019 C 
ENDBRANCH   1   7
TORSDOF 1
ENDMDL
