MODEL 1
REMARK minimizedAffinity 5.27389431
REMARK minimizedRMSD -1
REMARK  1 active torsions:
REMARK  status: ('A' for Active; 'I' for Inactive)
REMARK    1  A    between atoms: N_2  and  C1_3 
ROOT
ATOM      1  C1  UNL d   1       2.700   1.641  -0.598  0.00  0.00     0.143 A 
ATOM      2  C2  UNL d   1       3.179   0.477   0.013  0.00  0.00    -0.057 A 
ATOM      3  C3  UNL d   1       2.737  -0.789  -0.390  0.00  0.00     0.033 A 
ATOM      4  C4  UNL d   1       1.783  -0.912  -1.395  0.00  0.00    -0.042 A 
ATOM      5  C5  UNL d   1       1.274   0.233  -1.999  0.00  0.00     0.033 A 
ATOM      6  C6  UNL d   1       1.724   1.494  -1.596  0.00  0.00    -0.057 A 
ENDROOT
BRANCH   1   7
ATOM      7  N   UNL d   1       3.027   2.932  -0.175  0.00  0.00    -0.732 N 
ATOM      8  C   UNL d   1       2.475   3.468   1.050  0.00  0.00     0.284 C 
ATOM      9  H3  UNL d   1       4.010   3.151  -0.319  0.00  0.00     0.395 HD
ENDBRANCH   1   7
TORSDOF 1
ENDMDL
