MODEL 1
REMARK minimizedAffinity 2.89015913
REMARK minimizedRMSD -1
REMARK  1 active torsions:
REMARK  status: ('A' for Active; 'I' for Inactive)
REMARK    1  A    between atoms: N_2  and  C1_3 
ROOT
ATOM      1  C1  UNL d   1      -1.237   0.284   3.109  0.00  0.00     0.143 A 
ATOM      2  C2  UNL d   1      -1.588  -0.709   2.188  0.00  0.00    -0.057 A 
ATOM      3  C3  UNL d   1      -0.625  -1.564   1.641  0.00  0.00     0.033 A 
ATOM      4  C4  UNL d   1       0.716  -1.423   1.984  0.00  0.00    -0.042 A 
ATOM      5  C5  UNL d   1       1.091  -0.426   2.878  0.00  0.00     0.033 A 
ATOM      6  C6  UNL d   1       0.124   0.421   3.427  0.00  0.00    -0.057 A 
ENDROOT
BRANCH   1   7
ATOM      7  N   UNL d   1      -2.134   1.229   3.614  0.00  0.00    -0.732 N 
ATOM      8  C   UNL d   1      -3.516   1.237   3.185  0.00  0.00     0.284 C 
ATOM      9  H3  UNL d   1      -2.007   1.392   4.610  0.00  0.00     0.395 HD
ENDBRANCH   1   7
TORSDOF 1
ENDMDL
