MODEL 1
REMARK minimizedAffinity 6.18611526
REMARK minimizedRMSD -1
REMARK  1 active torsions:
REMARK  status: ('A' for Active; 'I' for Inactive)
REMARK    1  A    between atoms: N_2  and  C1_3 
ROOT
ATOM      1  C1  UNL d   1       0.777  -1.007   0.763  0.00  0.00     0.143 A 
ATOM      2  C2  UNL d   1       0.182  -0.592   1.959  0.00  0.00    -0.057 A 
ATOM      3  C3  UNL d   1       0.753  -0.900   3.200  0.00  0.00     0.033 A 
ATOM      4  C4  UNL d   1       1.917  -1.657   3.267  0.00  0.00    -0.042 A 
ATOM      5  C5  UNL d   1       2.513  -2.103   2.092  0.00  0.00     0.033 A 
ATOM      6  C6  UNL d   1       1.942  -1.785   0.856  0.00  0.00    -0.057 A 
ENDROOT
BRANCH   1   7
ATOM      7  N   UNL d   1       0.206  -0.816  -0.497  0.00  0.00    -0.732 N 
ATOM      8  C   UNL d   1       0.986  -0.265  -1.584  0.00  0.00     0.284 C 
ATOM      9  H3  UNL d   1      -0.400  -1.587  -0.770  0.00  0.00     0.395 HD
ENDBRANCH   1   7
TORSDOF 1
ENDMDL
