MODEL 1
REMARK minimizedAffinity 0.966325104
REMARK minimizedRMSD -1
REMARK  1 active torsions:
REMARK  status: ('A' for Active; 'I' for Inactive)
REMARK    1  A    between atoms: N_2  and  C1_3 
ROOT
ATOM      1  C1  UNL d   1       1.450  -1.422   1.683  0.00  0.00     0.143 A 
ATOM      2  C2  UNL d   1       0.586  -1.166   0.613  0.00  0.00    -0.057 A 
ATOM      3  C3  UNL d   1      -0.626  -0.491   0.803  0.00  0.00     0.033 A 
ATOM      4  C4  UNL d   1      -1.010  -0.085   2.077  0.00  0.00    -0.042 A 
ATOM      5  C5  UNL d   1      -0.180  -0.352   3.160  0.00  0.00     0.033 A 
ATOM      6  C6  UNL d   1       1.033  -1.020   2.962  0.00  0.00    -0.057 A 
ENDROOT
BRANCH   1   7
ATOM      7  N   UNL d   1       2.621  -2.175   1.574  0.00  0.00    -0.732 N 
ATOM      8  C   UNL d   1       3.185  -2.478   0.276  0.00  0.00     0.284 C 
ATOM      9  H3  UNL d   1       3.311  -1.924   2.278  0.00  0.00     0.395 HD
ENDBRANCH   1   7
TORSDOF 1
ENDMDL
