MODEL 1
REMARK minimizedAffinity 8.4047966
REMARK minimizedRMSD -1
REMARK  1 active torsions:
REMARK  status: ('A' for Active; 'I' for Inactive)
REMARK    1  A    between atoms: N_2  and  C1_3 
ROOT
ATOM      1  C1  UNL d   1       0.728  -1.107   1.097  0.00  0.00     0.143 A 
ATOM      2  C2  UNL d   1       1.124  -1.586   2.350  0.00  0.00    -0.057 A 
ATOM      3  C3  UNL d   1       0.359  -1.340   3.496  0.00  0.00     0.033 A 
ATOM      4  C4  UNL d   1      -0.805  -0.583   3.413  0.00  0.00    -0.042 A 
ATOM      5  C5  UNL d   1      -1.205  -0.076   2.182  0.00  0.00     0.033 A 
ATOM      6  C6  UNL d   1      -0.439  -0.331   1.040  0.00  0.00    -0.057 A 
ENDROOT
BRANCH   1   7
ATOM      7  N   UNL d   1       1.497  -1.235  -0.063  0.00  0.00    -0.732 N 
ATOM      8  C   UNL d   1       2.852  -1.738   0.003  0.00  0.00     0.284 C 
ATOM      9  H3  UNL d   1       0.959  -1.592  -0.849  0.00  0.00     0.395 HD
ENDBRANCH   1   7
TORSDOF 1
ENDMDL
