MODEL 1
REMARK minimizedAffinity 7.30175066
REMARK minimizedRMSD -1
REMARK  2 active torsions:
REMARK  status: ('A' for Active; 'I' for Inactive)
REMARK    1  A    between atoms: C2'_3  and  C1'_4 
REMARK    2  A    between atoms: C1'_4  and  C1_5 
ROOT
ATOM      1  C1  I4B d   1      -1.361  -2.731   2.615  0.00  0.00    -0.075 A 
ATOM      2  C2  I4B d   1      -1.165  -1.932   3.714  0.00  0.00     0.003 A 
ATOM      3  C3  I4B d   1      -0.025  -1.096   3.792  0.00  0.00     0.002 A 
ATOM      4  C4  I4B d   1       0.913  -1.128   2.780  0.00  0.00    -0.004 A 
ATOM      5  C5  I4B d   1       0.701  -1.922   1.657  0.00  0.00     0.002 A 
ATOM      6  C6  I4B d   1      -0.449  -2.720   1.568  0.00  0.00     0.003 A 
ENDROOT
BRANCH   1   7
ATOM      7  C1' I4B d   1      -2.559  -3.626   2.580  0.00  0.00     0.060 C 
BRANCH   7   8
ATOM      8  C2' I4B d   1      -3.549  -3.042   1.592  0.00  0.00    -0.013 C 
ATOM      9  C4' I4B d   1      -3.553  -3.818   0.301  0.00  0.00     0.013 C 
ATOM     10  C3' I4B d   1      -4.904  -3.053   2.234  0.00  0.00     0.013 C 
ENDBRANCH   7   8
ENDBRANCH   1   7
TORSDOF 2
ENDMDL
