MODEL 1
REMARK minimizedAffinity 8.59498978
REMARK minimizedRMSD -1
REMARK  2 active torsions:
REMARK  status: ('A' for Active; 'I' for Inactive)
REMARK    1  A    between atoms: C2'_3  and  C1'_4 
REMARK    2  A    between atoms: C1'_4  and  C1_5 
ROOT
ATOM      1  C1  I4B d   1      -3.227  -2.398   3.301  0.00  0.00    -0.075 A 
ATOM      2  C2  I4B d   1      -2.632  -2.698   2.101  0.00  0.00     0.003 A 
ATOM      3  C3  I4B d   1      -1.349  -2.185   1.793  0.00  0.00     0.002 A 
ATOM      4  C4  I4B d   1      -0.723  -1.339   2.686  0.00  0.00    -0.004 A 
ATOM      5  C5  I4B d   1      -1.317  -1.054   3.912  0.00  0.00     0.002 A 
ATOM      6  C6  I4B d   1      -2.572  -1.597   4.227  0.00  0.00     0.003 A 
ENDROOT
BRANCH   1   7
ATOM      7  C1' I4B d   1      -4.596  -2.931   3.580  0.00  0.00     0.060 C 
BRANCH   7   8
ATOM      8  C2' I4B d   1      -4.853  -2.803   5.068  0.00  0.00    -0.013 C 
ATOM      9  C4' I4B d   1      -5.980  -1.843   5.346  0.00  0.00     0.013 C 
ATOM     10  C3' I4B d   1      -5.160  -4.169   5.604  0.00  0.00     0.013 C 
ENDBRANCH   7   8
ENDBRANCH   1   7
TORSDOF 2
ENDMDL
