MODEL 1
REMARK minimizedAffinity 19.3705254
REMARK minimizedRMSD -1
REMARK  2 active torsions:
REMARK  status: ('A' for Active; 'I' for Inactive)
REMARK    1  A    between atoms: C2'_3  and  C1'_4 
REMARK    2  A    between atoms: C1'_4  and  C1_5 
ROOT
ATOM      1  C1  I4B d   1       0.890  -3.568  -0.018  0.00  0.00    -0.075 A 
ATOM      2  C2  I4B d   1       0.323  -2.345   0.239  0.00  0.00     0.003 A 
ATOM      3  C3  I4B d   1      -0.078  -2.008   1.555  0.00  0.00     0.002 A 
ATOM      4  C4  I4B d   1       0.060  -2.936   2.566  0.00  0.00    -0.004 A 
ATOM      5  C5  I4B d   1       0.657  -4.166   2.309  0.00  0.00     0.002 A 
ATOM      6  C6  I4B d   1       1.086  -4.480   1.011  0.00  0.00     0.003 A 
ENDROOT
BRANCH   1   7
ATOM      7  C1' I4B d   1       1.272  -3.905  -1.425  0.00  0.00     0.060 C 
BRANCH   7   8
ATOM      8  C2' I4B d   1       0.007  -4.266  -2.177  0.00  0.00    -0.013 C 
ATOM      9  C4' I4B d   1      -0.715  -3.033  -2.653  0.00  0.00     0.013 C 
ATOM     10  C3' I4B d   1       0.390  -5.148  -3.328  0.00  0.00     0.013 C 
ENDBRANCH   7   8
ENDBRANCH   1   7
TORSDOF 2
ENDMDL
