MODEL 1
REMARK minimizedAffinity 20.2595997
REMARK minimizedRMSD -1
REMARK  2 active torsions:
REMARK  status: ('A' for Active; 'I' for Inactive)
REMARK    1  A    between atoms: C2'_3  and  C1'_4 
REMARK    2  A    between atoms: C1'_4  and  C1_5 
ROOT
ATOM      1  C1  I4B d   1       1.438   1.384   0.420  0.00  0.00    -0.075 A 
ATOM      2  C2  I4B d   1       2.748   1.749   0.610  0.00  0.00     0.003 A 
ATOM      3  C3  I4B d   1       3.683   0.812   1.111  0.00  0.00     0.002 A 
ATOM      4  C4  I4B d   1       3.258  -0.455   1.455  0.00  0.00    -0.004 A 
ATOM      5  C5  I4B d   1       1.935  -0.830   1.241  0.00  0.00     0.002 A 
ATOM      6  C6  I4B d   1       1.022   0.091   0.708  0.00  0.00     0.003 A 
ENDROOT
BRANCH   1   7
ATOM      7  C1' I4B d   1       0.470   2.409  -0.081  0.00  0.00     0.060 C 
BRANCH   7   8
ATOM      8  C2' I4B d   1       0.847   2.750  -1.508  0.00  0.00    -0.013 C 
ATOM      9  C4' I4B d   1      -0.289   2.468  -2.455  0.00  0.00     0.013 C 
ATOM     10  C3' I4B d   1       1.240   4.197  -1.549  0.00  0.00     0.013 C 
ENDBRANCH   7   8
ENDBRANCH   1   7
TORSDOF 2
ENDMDL
