MODEL 1
REMARK minimizedAffinity 15.3712301
REMARK minimizedRMSD -1
REMARK  2 active torsions:
REMARK  status: ('A' for Active; 'I' for Inactive)
REMARK    1  A    between atoms: C2'_3  and  C1'_4 
REMARK    2  A    between atoms: C1'_4  and  C1_5 
ROOT
ATOM      1  C1  I4B d   1      -4.102  -4.489   4.034  0.00  0.00    -0.075 A 
ATOM      2  C2  I4B d   1      -4.705  -5.721   4.078  0.00  0.00     0.003 A 
ATOM      3  C3  I4B d   1      -5.688  -5.999   5.059  0.00  0.00     0.002 A 
ATOM      4  C4  I4B d   1      -5.999  -5.039   6.000  0.00  0.00    -0.004 A 
ATOM      5  C5  I4B d   1      -5.404  -3.782   5.939  0.00  0.00     0.002 A 
ATOM      6  C6  I4B d   1      -4.459  -3.501   4.942  0.00  0.00     0.003 A 
ENDROOT
BRANCH   1   7
ATOM      7  C1' I4B d   1      -3.045  -4.240   3.006  0.00  0.00     0.060 C 
BRANCH   7   8
ATOM      8  C2' I4B d   1      -3.223  -2.829   2.484  0.00  0.00    -0.013 C 
ATOM      9  C4' I4B d   1      -1.899  -2.210   2.121  0.00  0.00     0.013 C 
ATOM     10  C3' I4B d   1      -4.138  -2.887   1.296  0.00  0.00     0.013 C 
ENDBRANCH   7   8
ENDBRANCH   1   7
TORSDOF 2
ENDMDL
