MODEL 1
REMARK minimizedAffinity 18.5097733
REMARK minimizedRMSD -1
REMARK  2 active torsions:
REMARK  status: ('A' for Active; 'I' for Inactive)
REMARK    1  A    between atoms: C2'_3  and  C1'_4 
REMARK    2  A    between atoms: C1'_4  and  C1_5 
ROOT
ATOM      1  C1  I4B d   1       0.272  -2.935   1.709  0.00  0.00    -0.075 A 
ATOM      2  C2  I4B d   1      -0.901  -2.746   2.395  0.00  0.00     0.003 A 
ATOM      3  C3  I4B d   1      -1.371  -1.435   2.655  0.00  0.00     0.002 A 
ATOM      4  C4  I4B d   1      -0.616  -0.351   2.257  0.00  0.00    -0.004 A 
ATOM      5  C5  I4B d   1       0.562  -0.545   1.542  0.00  0.00     0.002 A 
ATOM      6  C6  I4B d   1       1.003  -1.845   1.254  0.00  0.00     0.003 A 
ENDROOT
BRANCH   1   7
ATOM      7  C1' I4B d   1       0.756  -4.332   1.480  0.00  0.00     0.060 C 
BRANCH   7   8
ATOM      8  C2' I4B d   1       0.412  -5.152   2.707  0.00  0.00    -0.013 C 
ATOM      9  C4' I4B d   1      -0.811  -5.999   2.471  0.00  0.00     0.013 C 
ATOM     10  C3' I4B d   1       1.601  -6.000   3.046  0.00  0.00     0.013 C 
ENDBRANCH   7   8
ENDBRANCH   1   7
TORSDOF 2
ENDMDL
