MODEL 1
REMARK minimizedAffinity 18.2621059
REMARK minimizedRMSD -1
REMARK  2 active torsions:
REMARK  status: ('A' for Active; 'I' for Inactive)
REMARK    1  A    between atoms: C2'_3  and  C1'_4 
REMARK    2  A    between atoms: C1'_4  and  C1_5 
ROOT
ATOM      1  C1  I4B d   1      -0.278   3.773  -1.903  0.00  0.00    -0.075 A 
ATOM      2  C2  I4B d   1       0.152   2.996  -0.857  0.00  0.00     0.003 A 
ATOM      3  C3  I4B d   1       0.855   3.581   0.224  0.00  0.00     0.002 A 
ATOM      4  C4  I4B d   1       1.148   4.929   0.194  0.00  0.00    -0.004 A 
ATOM      5  C5  I4B d   1       0.691   5.720  -0.856  0.00  0.00     0.002 A 
ATOM      6  C6  I4B d   1      -0.038   5.141  -1.906  0.00  0.00     0.003 A 
ENDROOT
BRANCH   1   7
ATOM      7  C1' I4B d   1      -0.989   3.117  -3.044  0.00  0.00     0.060 C 
BRANCH   7   8
ATOM      8  C2' I4B d   1      -2.065   4.066  -3.532  0.00  0.00    -0.013 C 
ATOM      9  C4' I4B d   1      -1.953   4.301  -5.015  0.00  0.00     0.013 C 
ATOM     10  C3' I4B d   1      -3.397   3.478  -3.176  0.00  0.00     0.013 C 
ENDBRANCH   7   8
ENDBRANCH   1   7
TORSDOF 2
ENDMDL
