MODEL 1
REMARK minimizedAffinity 21.3324795
REMARK minimizedRMSD -1
REMARK  2 active torsions:
REMARK  status: ('A' for Active; 'I' for Inactive)
REMARK    1  A    between atoms: C2'_3  and  C1'_4 
REMARK    2  A    between atoms: C1'_4  and  C1_5 
ROOT
ATOM      1  C1  I4B d   1       0.779  -1.412   1.850  0.00  0.00    -0.075 A 
ATOM      2  C2  I4B d   1      -0.034  -0.390   2.273  0.00  0.00     0.003 A 
ATOM      3  C3  I4B d   1      -1.346  -0.665   2.727  0.00  0.00     0.002 A 
ATOM      4  C4  I4B d   1      -1.819  -1.961   2.694  0.00  0.00    -0.004 A 
ATOM      5  C5  I4B d   1      -0.986  -2.999   2.287  0.00  0.00     0.002 A 
ATOM      6  C6  I4B d   1       0.326  -2.725   1.874  0.00  0.00     0.003 A 
ENDROOT
BRANCH   1   7
ATOM      7  C1' I4B d   1       2.149  -1.083   1.346  0.00  0.00     0.060 C 
BRANCH   7   8
ATOM      8  C2' I4B d   1       2.560   0.246   1.947  0.00  0.00    -0.013 C 
ATOM      9  C4' I4B d   1       3.715   0.079   2.900  0.00  0.00     0.013 C 
ATOM     10  C3' I4B d   1       2.916   1.173   0.823  0.00  0.00     0.013 C 
ENDBRANCH   7   8
ENDBRANCH   1   7
TORSDOF 2
ENDMDL
