MODEL 1
REMARK minimizedAffinity 14.905057
REMARK minimizedRMSD -1
REMARK  2 active torsions:
REMARK  status: ('A' for Active; 'I' for Inactive)
REMARK    1  A    between atoms: C2'_3  and  C1'_4 
REMARK    2  A    between atoms: C1'_4  and  C1_5 
ROOT
ATOM      1  C1  I4B d   1       0.070  -3.300   2.483  0.00  0.00    -0.075 A 
ATOM      2  C2  I4B d   1      -0.769  -2.396   3.085  0.00  0.00     0.003 A 
ATOM      3  C3  I4B d   1      -0.727  -1.029   2.716  0.00  0.00     0.002 A 
ATOM      4  C4  I4B d   1       0.198  -0.605   1.784  0.00  0.00    -0.004 A 
ATOM      5  C5  I4B d   1       1.032  -1.527   1.158  0.00  0.00     0.002 A 
ATOM      6  C6  I4B d   1       0.960  -2.885   1.501  0.00  0.00     0.003 A 
ENDROOT
BRANCH   1   7
ATOM      7  C1' I4B d   1       0.022  -4.730   2.921  0.00  0.00     0.060 C 
BRANCH   7   8
ATOM      8  C2' I4B d   1       1.445  -5.195   3.154  0.00  0.00    -0.013 C 
ATOM      9  C4' I4B d   1       1.555  -6.000   4.422  0.00  0.00     0.013 C 
ATOM     10  C3' I4B d   1       1.870  -6.000   1.963  0.00  0.00     0.013 C 
ENDBRANCH   7   8
ENDBRANCH   1   7
TORSDOF 2
ENDMDL
