MODEL 1
REMARK minimizedAffinity 16.3723183
REMARK minimizedRMSD -1
REMARK  2 active torsions:
REMARK  status: ('A' for Active; 'I' for Inactive)
REMARK    1  A    between atoms: C2'_3  and  C1'_4 
REMARK    2  A    between atoms: C1'_4  and  C1_5 
ROOT
ATOM      1  C1  I4B d   1      -1.356   3.308  -2.490  0.00  0.00    -0.075 A 
ATOM      2  C2  I4B d   1      -0.158   3.037  -3.102  0.00  0.00     0.003 A 
ATOM      3  C3  I4B d   1       0.992   2.754  -2.325  0.00  0.00     0.002 A 
ATOM      4  C4  I4B d   1       0.910   2.802  -0.948  0.00  0.00    -0.004 A 
ATOM      5  C5  I4B d   1      -0.311   3.054  -0.329  0.00  0.00     0.002 A 
ATOM      6  C6  I4B d   1      -1.454   3.297  -1.104  0.00  0.00     0.003 A 
ENDROOT
BRANCH   1   7
ATOM      7  C1' I4B d   1      -2.542   3.635  -3.340  0.00  0.00     0.060 C 
BRANCH   7   8
ATOM      8  C2' I4B d   1      -2.068   4.501  -4.489  0.00  0.00    -0.013 C 
ATOM      9  C4' I4B d   1      -2.935   4.315  -5.706  0.00  0.00     0.013 C 
ATOM     10  C3' I4B d   1      -2.080   5.929  -4.029  0.00  0.00     0.013 C 
ENDBRANCH   7   8
ENDBRANCH   1   7
TORSDOF 2
ENDMDL
