MODEL 1
REMARK minimizedAffinity 14.2411318
REMARK minimizedRMSD -1
REMARK  2 active torsions:
REMARK  status: ('A' for Active; 'I' for Inactive)
REMARK    1  A    between atoms: C2'_3  and  C1'_4 
REMARK    2  A    between atoms: C1'_4  and  C1_5 
ROOT
ATOM      1  C1  I4B d   1      -2.426   4.354  -3.320  0.00  0.00    -0.075 A 
ATOM      2  C2  I4B d   1      -3.421   3.494  -2.928  0.00  0.00     0.003 A 
ATOM      3  C3  I4B d   1      -4.316   3.864  -1.894  0.00  0.00     0.002 A 
ATOM      4  C4  I4B d   1      -4.148   5.072  -1.250  0.00  0.00    -0.004 A 
ATOM      5  C5  I4B d   1      -3.152   5.952  -1.664  0.00  0.00     0.002 A 
ATOM      6  C6  I4B d   1      -2.293   5.596  -2.714  0.00  0.00     0.003 A 
ENDROOT
BRANCH   1   7
ATOM      7  C1' I4B d   1      -1.479   3.918  -4.393  0.00  0.00     0.060 C 
BRANCH   7   8
ATOM      8  C2' I4B d   1      -1.955   4.509  -5.704  0.00  0.00    -0.013 C 
ATOM      9  C4' I4B d   1      -3.376   4.107  -6.000  0.00  0.00     0.013 C 
ATOM     10  C3' I4B d   1      -1.821   6.000  -5.616  0.00  0.00     0.013 C 
ENDBRANCH   7   8
ENDBRANCH   1   7
TORSDOF 2
ENDMDL
