MODEL 1
REMARK minimizedAffinity 6.38246536
REMARK minimizedRMSD -1
REMARK  2 active torsions:
REMARK  status: ('A' for Active; 'I' for Inactive)
REMARK    1  A    between atoms: C2'_3  and  C1'_4 
REMARK    2  A    between atoms: C1'_4  and  C1_5 
ROOT
ATOM      1  C1  I4B d   1      -3.189  -3.151   2.554  0.00  0.00    -0.075 A 
ATOM      2  C2  I4B d   1      -3.580  -4.001   3.558  0.00  0.00     0.003 A 
ATOM      3  C3  I4B d   1      -4.210  -5.230   3.247  0.00  0.00     0.002 A 
ATOM      4  C4  I4B d   1      -4.471  -5.546   1.930  0.00  0.00    -0.004 A 
ATOM      5  C5  I4B d   1      -4.053  -4.694   0.911  0.00  0.00     0.002 A 
ATOM      6  C6  I4B d   1      -3.396  -3.495   1.224  0.00  0.00     0.003 A 
ENDROOT
BRANCH   1   7
ATOM      7  C1' I4B d   1      -2.557  -1.846   2.919  0.00  0.00     0.060 C 
BRANCH   7   8
ATOM      8  C2' I4B d   1      -1.073  -2.084   3.113  0.00  0.00    -0.013 C 
ATOM      9  C4' I4B d   1      -0.339  -2.054   1.798  0.00  0.00     0.013 C 
ATOM     10  C3' I4B d   1      -0.553  -1.031   4.046  0.00  0.00     0.013 C 
ENDBRANCH   7   8
ENDBRANCH   1   7
TORSDOF 2
ENDMDL
