MODEL 1
REMARK minimizedAffinity 5.48553419
REMARK minimizedRMSD -1
REMARK  2 active torsions:
REMARK  status: ('A' for Active; 'I' for Inactive)
REMARK    1  A    between atoms: C2'_3  and  C1'_4 
REMARK    2  A    between atoms: C1'_4  and  C1_5 
ROOT
ATOM      1  C1  I4B d   1      -4.545  -5.406   1.549  0.00  0.00    -0.075 A 
ATOM      2  C2  I4B d   1      -3.562  -5.898   0.727  0.00  0.00     0.003 A 
ATOM      3  C3  I4B d   1      -3.784  -5.999  -0.668  0.00  0.00     0.002 A 
ATOM      4  C4  I4B d   1      -5.012  -5.647  -1.188  0.00  0.00    -0.004 A 
ATOM      5  C5  I4B d   1      -6.000  -5.127  -0.356  0.00  0.00     0.002 A 
ATOM      6  C6  I4B d   1      -5.761  -4.994   1.019  0.00  0.00     0.003 A 
ENDROOT
BRANCH   1   7
ATOM      7  C1' I4B d   1      -4.290  -5.344   3.022  0.00  0.00     0.060 C 
BRANCH   7   8
ATOM      8  C2' I4B d   1      -4.062  -3.893   3.395  0.00  0.00    -0.013 C 
ATOM      9  C4' I4B d   1      -4.930  -3.487   4.557  0.00  0.00     0.013 C 
ATOM     10  C3' I4B d   1      -2.608  -3.721   3.719  0.00  0.00     0.013 C 
ENDBRANCH   7   8
ENDBRANCH   1   7
TORSDOF 2
ENDMDL
