MODEL 1
REMARK minimizedAffinity 3.01818967
REMARK minimizedRMSD -1
REMARK  0 active torsions:
REMARK  status: ('A' for Active; 'I' for Inactive)
ROOT
ATOM      1  C   UNL d   1       0.200  -2.339  -0.163  0.00  0.00     0.023 A 
ATOM      2  C1  UNL d   1       0.441  -2.454  -1.533  0.00  0.00     0.003 A 
ATOM      3  C2  UNL d   1      -0.547  -2.090  -2.450  0.00  0.00     0.048 A 
ATOM      4  C3  UNL d   1      -1.773  -1.609  -1.990  0.00  0.00     0.023 A 
ATOM      5  C4  UNL d   1      -2.018  -1.492  -0.621  0.00  0.00     0.048 A 
ATOM      6  C5  UNL d   1      -1.028  -1.859   0.292  0.00  0.00     0.003 A 
ATOM      7  I   UNL d   1      -3.245  -1.065  -3.353  0.00  0.00    -0.146 I 
ENDROOT
TORSDOF 0
ENDMDL
