MODEL 1
REMARK minimizedAffinity 7.97516966
REMARK minimizedRMSD -1
REMARK  0 active torsions:
REMARK  status: ('A' for Active; 'I' for Inactive)
ROOT
ATOM      1  C   UNL d   1      -4.208  -2.035  -3.256  0.00  0.00     0.023 A 
ATOM      2  C1  UNL d   1      -3.247  -1.074  -3.571  0.00  0.00     0.003 A 
ATOM      3  C2  UNL d   1      -1.915  -1.268  -3.200  0.00  0.00     0.048 A 
ATOM      4  C3  UNL d   1      -1.550  -2.427  -2.515  0.00  0.00     0.023 A 
ATOM      5  C4  UNL d   1      -2.507  -3.392  -2.199  0.00  0.00     0.048 A 
ATOM      6  C5  UNL d   1      -3.838  -3.193  -2.571  0.00  0.00     0.003 A 
ATOM      7  I   UNL d   1       0.432  -2.718  -1.963  0.00  0.00    -0.146 I 
ENDROOT
TORSDOF 0
ENDMDL
