MODEL 1
REMARK minimizedAffinity -1.64051235
REMARK minimizedRMSD -1
REMARK  0 active torsions:
REMARK  status: ('A' for Active; 'I' for Inactive)
ROOT
ATOM      1  C   UNL d   1       1.009   0.043   1.153  0.00  0.00     0.023 A 
ATOM      2  C1  UNL d   1       0.239  -1.118   1.206  0.00  0.00     0.003 A 
ATOM      3  C2  UNL d   1       0.339  -1.975   2.304  0.00  0.00     0.048 A 
ATOM      4  C3  UNL d   1       1.211  -1.663   3.346  0.00  0.00     0.023 A 
ATOM      5  C4  UNL d   1       1.983  -0.501   3.298  0.00  0.00     0.048 A 
ATOM      6  C5  UNL d   1       1.880   0.351   2.197  0.00  0.00     0.003 A 
ATOM      7  I   UNL d   1       1.362  -2.936   4.982  0.00  0.00    -0.146 I 
ENDROOT
TORSDOF 0
ENDMDL
