MODEL 1
REMARK minimizedAffinity 11.0898018
REMARK minimizedRMSD -1
REMARK  1 active torsions:
REMARK  status: ('A' for Active; 'I' for Inactive)
REMARK    1  A    between atoms: C1_2  and  C2_3 
ROOT
ATOM      1  C2  UNL d   1       2.726  -3.564  -0.702  0.00  0.00    -0.077 A 
ATOM      2  C3  UNL d   1       1.706  -3.977  -1.571  0.00  0.00     0.002 A 
ATOM      3  C4  UNL d   1       0.901  -3.034  -2.213  0.00  0.00     0.002 A 
ATOM      4  C5  UNL d   1       1.109  -1.674  -1.996  0.00  0.00    -0.004 A 
ATOM      5  C6  UNL d   1       2.120  -1.253  -1.132  0.00  0.00     0.002 A 
ATOM      6  C7  UNL d   1       2.925  -2.194  -0.489  0.00  0.00     0.002 A 
ENDROOT
BRANCH   1   7
ATOM      7  C1  UNL d   1       3.628  -4.578  -0.048  0.00  0.00     0.055 C 
ATOM      8  C   UNL d   1       3.175  -5.999  -0.350  0.00  0.00     0.019 C 
ENDBRANCH   1   7
TORSDOF 1
ENDMDL
