MODEL 1
REMARK minimizedAffinity 15.7314053
REMARK minimizedRMSD -1
REMARK  1 active torsions:
REMARK  status: ('A' for Active; 'I' for Inactive)
REMARK    1  A    between atoms: C1_2  and  C2_3 
ROOT
ATOM      1  C2  UNL d   1       1.871   3.203   0.737  0.00  0.00    -0.077 A 
ATOM      2  C3  UNL d   1       2.321   2.328   1.736  0.00  0.00     0.002 A 
ATOM      3  C4  UNL d   1       3.353   1.426   1.472  0.00  0.00     0.002 A 
ATOM      4  C5  UNL d   1       3.947   1.393   0.212  0.00  0.00    -0.004 A 
ATOM      5  C6  UNL d   1       3.505   2.257  -0.788  0.00  0.00     0.002 A 
ATOM      6  C7  UNL d   1       2.473   3.159  -0.527  0.00  0.00     0.002 A 
ENDROOT
BRANCH   1   7
ATOM      7  C1  UNL d   1       0.791   4.211   1.034  0.00  0.00     0.055 C 
ATOM      8  C   UNL d   1       0.844   5.381   0.063  0.00  0.00     0.019 C 
ENDBRANCH   1   7
TORSDOF 1
ENDMDL
