MODEL 1
REMARK minimizedAffinity 2.34012151
REMARK minimizedRMSD -1
REMARK  1 active torsions:
REMARK  status: ('A' for Active; 'I' for Inactive)
REMARK    1  A    between atoms: C1_2  and  C2_3 
ROOT
ATOM      1  C2  UNL d   1      -3.428  -2.544  -5.306  0.00  0.00    -0.077 A 
ATOM      2  C3  UNL d   1      -3.239  -3.750  -5.995  0.00  0.00     0.002 A 
ATOM      3  C4  UNL d   1      -2.707  -4.862  -5.339  0.00  0.00     0.002 A 
ATOM      4  C5  UNL d   1      -2.364  -4.780  -3.991  0.00  0.00    -0.004 A 
ATOM      5  C6  UNL d   1      -2.547  -3.584  -3.298  0.00  0.00     0.002 A 
ATOM      6  C7  UNL d   1      -3.078  -2.471  -3.952  0.00  0.00     0.002 A 
ENDROOT
BRANCH   1   7
ATOM      7  C1  UNL d   1      -4.048  -1.359  -5.999  0.00  0.00     0.055 C 
ATOM      8  C   UNL d   1      -5.567  -1.424  -5.955  0.00  0.00     0.019 C 
ENDBRANCH   1   7
TORSDOF 1
ENDMDL
