MODEL 1
REMARK minimizedAffinity 7.62616348
REMARK minimizedRMSD -1
REMARK  1 active torsions:
REMARK  status: ('A' for Active; 'I' for Inactive)
REMARK    1  A    between atoms: C1_2  and  C2_3 
ROOT
ATOM      1  C2  UNL d   1       2.135  -1.356  -1.105  0.00  0.00    -0.077 A 
ATOM      2  C3  UNL d   1       1.542  -0.925  -2.300  0.00  0.00     0.002 A 
ATOM      3  C4  UNL d   1       1.654   0.407  -2.704  0.00  0.00     0.002 A 
ATOM      4  C5  UNL d   1       2.361   1.317  -1.921  0.00  0.00    -0.004 A 
ATOM      5  C6  UNL d   1       2.952   0.899  -0.730  0.00  0.00     0.002 A 
ATOM      6  C7  UNL d   1       2.841  -0.432  -0.324  0.00  0.00     0.002 A 
ENDROOT
BRANCH   1   7
ATOM      7  C1  UNL d   1       2.058  -2.803  -0.693  0.00  0.00     0.055 C 
ATOM      8  C   UNL d   1       3.439  -3.367  -0.391  0.00  0.00     0.019 C 
ENDBRANCH   1   7
TORSDOF 1
ENDMDL
