MODEL 1
REMARK minimizedAffinity 12.4876251
REMARK minimizedRMSD -1
REMARK  1 active torsions:
REMARK  status: ('A' for Active; 'I' for Inactive)
REMARK    1  A    between atoms: C1_2  and  C2_3 
ROOT
ATOM      1  C2  UNL d   1      -2.923  -3.981  -4.116  0.00  0.00    -0.077 A 
ATOM      2  C3  UNL d   1      -1.697  -3.353  -4.375  0.00  0.00     0.002 A 
ATOM      3  C4  UNL d   1      -0.587  -3.609  -3.569  0.00  0.00     0.002 A 
ATOM      4  C5  UNL d   1      -0.690  -4.498  -2.500  0.00  0.00    -0.004 A 
ATOM      5  C6  UNL d   1      -1.905  -5.127  -2.233  0.00  0.00     0.002 A 
ATOM      6  C7  UNL d   1      -3.016  -4.870  -3.037  0.00  0.00     0.002 A 
ENDROOT
BRANCH   1   7
ATOM      7  C1  UNL d   1      -4.108  -3.744  -5.015  0.00  0.00     0.055 C 
ATOM      8  C   UNL d   1      -3.839  -2.614  -5.998  0.00  0.00     0.019 C 
ENDBRANCH   1   7
TORSDOF 1
ENDMDL
