MODEL 1
REMARK minimizedAffinity 14.9376898
REMARK minimizedRMSD -1
REMARK  1 active torsions:
REMARK  status: ('A' for Active; 'I' for Inactive)
REMARK    1  A    between atoms: C1_2  and  C2_3 
ROOT
ATOM      1  C2  UNL d   1      -1.858   1.062   2.301  0.00  0.00    -0.077 A 
ATOM      2  C3  UNL d   1      -0.821   0.119   2.268  0.00  0.00     0.002 A 
ATOM      3  C4  UNL d   1       0.511   0.535   2.216  0.00  0.00     0.002 A 
ATOM      4  C5  UNL d   1       0.817   1.894   2.201  0.00  0.00    -0.004 A 
ATOM      5  C6  UNL d   1      -0.207   2.840   2.231  0.00  0.00     0.002 A 
ATOM      6  C7  UNL d   1      -1.538   2.426   2.282  0.00  0.00     0.002 A 
ENDROOT
BRANCH   1   7
ATOM      7  C1  UNL d   1      -3.293   0.616   2.407  0.00  0.00     0.055 C 
ATOM      8  C   UNL d   1      -3.393  -0.805   2.943  0.00  0.00     0.019 C 
ENDBRANCH   1   7
TORSDOF 1
ENDMDL
