MODEL 1
REMARK minimizedAffinity 13.9802094
REMARK minimizedRMSD -1
REMARK  1 active torsions:
REMARK  status: ('A' for Active; 'I' for Inactive)
REMARK    1  A    between atoms: C1_2  and  C2_3 
ROOT
ATOM      1  C2  UNL d   1       1.816   3.623  -1.184  0.00  0.00    -0.077 A 
ATOM      2  C3  UNL d   1       1.439   3.608   0.166  0.00  0.00     0.002 A 
ATOM      3  C4  UNL d   1       1.013   4.781   0.793  0.00  0.00     0.002 A 
ATOM      4  C5  UNL d   1       0.956   5.975   0.077  0.00  0.00    -0.004 A 
ATOM      5  C6  UNL d   1       1.330   6.000  -1.266  0.00  0.00     0.002 A 
ATOM      6  C7  UNL d   1       1.758   4.829  -1.894  0.00  0.00     0.002 A 
ENDROOT
BRANCH   1   7
ATOM      7  C1  UNL d   1       2.229   2.350  -1.876  0.00  0.00     0.055 C 
ATOM      8  C   UNL d   1       2.715   1.310  -0.877  0.00  0.00     0.019 C 
ENDBRANCH   1   7
TORSDOF 1
ENDMDL
