MODEL 1
REMARK minimizedAffinity 1.59044015
REMARK minimizedRMSD -1
REMARK  1 active torsions:
REMARK  status: ('A' for Active; 'I' for Inactive)
REMARK    1  A    between atoms: C1_2  and  C2_3 
ROOT
ATOM      1  C2  UNL d   1      -2.985  -4.124  -5.717  0.00  0.00    -0.077 A 
ATOM      2  C3  UNL d   1      -3.379  -2.779  -5.720  0.00  0.00     0.002 A 
ATOM      3  C4  UNL d   1      -4.725  -2.437  -5.863  0.00  0.00     0.002 A 
ATOM      4  C5  UNL d   1      -5.688  -3.435  -6.000  0.00  0.00    -0.004 A 
ATOM      5  C6  UNL d   1      -5.306  -4.776  -6.000  0.00  0.00     0.002 A 
ATOM      6  C7  UNL d   1      -3.961  -5.119  -5.858  0.00  0.00     0.002 A 
ENDROOT
BRANCH   1   7
ATOM      7  C1  UNL d   1      -1.539  -4.496  -5.513  0.00  0.00     0.055 C 
ATOM      8  C   UNL d   1      -1.256  -4.839  -4.058  0.00  0.00     0.019 C 
ENDBRANCH   1   7
TORSDOF 1
ENDMDL
