MODEL 1
REMARK minimizedAffinity 2.97242975
REMARK minimizedRMSD -1
REMARK  1 active torsions:
REMARK  status: ('A' for Active; 'I' for Inactive)
REMARK    1  A    between atoms: C1_2  and  C2_3 
ROOT
ATOM      1  C2  UNL d   1       2.203  -3.367  -1.622  0.00  0.00    -0.077 A 
ATOM      2  C3  UNL d   1       3.273  -4.034  -1.008  0.00  0.00     0.002 A 
ATOM      3  C4  UNL d   1       3.613  -5.331  -1.396  0.00  0.00     0.002 A 
ATOM      4  C5  UNL d   1       2.890  -5.972  -2.401  0.00  0.00    -0.004 A 
ATOM      5  C6  UNL d   1       1.823  -5.318  -3.016  0.00  0.00     0.002 A 
ATOM      6  C7  UNL d   1       1.482  -4.022  -2.629  0.00  0.00     0.002 A 
ENDROOT
BRANCH   1   7
ATOM      7  C1  UNL d   1       1.866  -1.950  -1.240  0.00  0.00     0.055 C 
ATOM      8  C   UNL d   1       1.572  -1.101  -2.468  0.00  0.00     0.019 C 
ENDBRANCH   1   7
TORSDOF 1
ENDMDL
