MODEL 1
REMARK minimizedAffinity 12.0992785
REMARK minimizedRMSD -1
REMARK  1 active torsions:
REMARK  status: ('A' for Active; 'I' for Inactive)
REMARK    1  A    between atoms: C1_2  and  C2_3 
ROOT
ATOM      1  C2  UNL d   1       3.633   2.352   0.751  0.00  0.00    -0.077 A 
ATOM      2  C3  UNL d   1       2.661   2.387  -0.258  0.00  0.00     0.002 A 
ATOM      3  C4  UNL d   1       3.023   2.200  -1.594  0.00  0.00     0.002 A 
ATOM      4  C5  UNL d   1       4.356   1.973  -1.931  0.00  0.00    -0.004 A 
ATOM      5  C6  UNL d   1       5.330   1.938  -0.934  0.00  0.00     0.002 A 
ATOM      6  C7  UNL d   1       4.971   2.126   0.401  0.00  0.00     0.002 A 
ENDROOT
BRANCH   1   7
ATOM      7  C1  UNL d   1       3.238   2.505   2.197  0.00  0.00     0.055 C 
ATOM      8  C   UNL d   1       2.042   1.628   2.539  0.00  0.00     0.019 C 
ENDBRANCH   1   7
TORSDOF 1
ENDMDL
