MODEL 1
REMARK minimizedAffinity 17.6880684
REMARK minimizedRMSD -1
REMARK  1 active torsions:
REMARK  status: ('A' for Active; 'I' for Inactive)
REMARK    1  A    between atoms: C1_2  and  C2_3 
ROOT
ATOM      1  C2  UNL d   1      -4.087  -0.871   2.730  0.00  0.00    -0.077 A 
ATOM      2  C3  UNL d   1      -4.039  -0.138   3.924  0.00  0.00     0.002 A 
ATOM      3  C4  UNL d   1      -3.274   1.027   4.007  0.00  0.00     0.002 A 
ATOM      4  C5  UNL d   1      -2.556   1.472   2.899  0.00  0.00    -0.004 A 
ATOM      5  C6  UNL d   1      -2.595   0.749   1.708  0.00  0.00     0.002 A 
ATOM      6  C7  UNL d   1      -3.358  -0.417   1.623  0.00  0.00     0.002 A 
ENDROOT
BRANCH   1   7
ATOM      7  C1  UNL d   1      -4.950  -2.101   2.623  0.00  0.00     0.055 C 
ATOM      8  C   UNL d   1      -5.997  -1.949   1.529  0.00  0.00     0.019 C 
ENDBRANCH   1   7
TORSDOF 1
ENDMDL
