MODEL 1
REMARK minimizedAffinity -1.89168084
REMARK minimizedRMSD -1
REMARK  3 active torsions:
REMARK  status: ('A' for Active; 'I' for Inactive)
REMARK    1  A    between atoms: C3'_2  and  C2'_3 
REMARK    2  A    between atoms: C2'_3  and  C1'_4 
REMARK    3  A    between atoms: C1'_4  and  C1_5 
ROOT
ATOM      1  C1  N4B d   1       1.844  -3.005   0.030  0.00  0.00    -0.075 A 
ATOM      2  C2  N4B d   1       0.480  -2.833   0.352  0.00  0.00     0.002 A 
ATOM      3  C3  N4B d   1       0.029  -1.616   0.802  0.00  0.00     0.002 A 
ATOM      4  C4  N4B d   1       0.923  -0.568   0.957  0.00  0.00    -0.004 A 
ATOM      5  C5  N4B d   1       2.235  -0.735   0.620  0.00  0.00     0.002 A 
ATOM      6  C6  N4B d   1       2.701  -1.951   0.162  0.00  0.00     0.002 A 
ENDROOT
BRANCH   1   7
ATOM      7  C1' N4B d   1       2.400  -4.340  -0.384  0.00  0.00     0.057 C 
BRANCH   7   8
ATOM      8  C2' N4B d   1       3.922  -4.301  -0.288  0.00  0.00     0.009 C 
BRANCH   8   9
ATOM      9  C3' N4B d   1       4.532  -5.690  -0.367  0.00  0.00     0.004 C 
ATOM     10  C4' N4B d   1       5.789  -5.819   0.440  0.00  0.00     0.003 C 
ENDBRANCH   8   9
ENDBRANCH   7   8
ENDBRANCH   1   7
TORSDOF 3
ENDMDL
