MODEL 1
REMARK minimizedAffinity 0.199602634
REMARK minimizedRMSD -1
REMARK  3 active torsions:
REMARK  status: ('A' for Active; 'I' for Inactive)
REMARK    1  A    between atoms: C3'_2  and  C2'_3 
REMARK    2  A    between atoms: C2'_3  and  C1'_4 
REMARK    3  A    between atoms: C1'_4  and  C1_5 
ROOT
ATOM      1  C1  N4B d   1      -1.180  -1.818   1.124  0.00  0.00    -0.075 A 
ATOM      2  C2  N4B d   1      -0.687  -2.966   0.465  0.00  0.00     0.002 A 
ATOM      3  C3  N4B d   1       0.635  -3.034   0.100  0.00  0.00     0.002 A 
ATOM      4  C4  N4B d   1       1.475  -1.963   0.364  0.00  0.00    -0.004 A 
ATOM      5  C5  N4B d   1       0.998  -0.869   1.023  0.00  0.00     0.002 A 
ATOM      6  C6  N4B d   1      -0.328  -0.788   1.400  0.00  0.00     0.002 A 
ENDROOT
BRANCH   1   7
ATOM      7  C1' N4B d   1      -2.636  -1.662   1.466  0.00  0.00     0.057 C 
BRANCH   7   8
ATOM      8  C2' N4B d   1      -3.314  -3.027   1.403  0.00  0.00     0.009 C 
BRANCH   8   9
ATOM      9  C3' N4B d   1      -4.643  -3.036   2.139  0.00  0.00     0.004 C 
ATOM     10  C4' N4B d   1      -5.583  -4.087   1.628  0.00  0.00     0.003 C 
ENDBRANCH   8   9
ENDBRANCH   7   8
ENDBRANCH   1   7
TORSDOF 3
ENDMDL
