MODEL 1
REMARK minimizedAffinity -1.79089606
REMARK minimizedRMSD -1
REMARK  3 active torsions:
REMARK  status: ('A' for Active; 'I' for Inactive)
REMARK    1  A    between atoms: C3'_2  and  C2'_3 
REMARK    2  A    between atoms: C2'_3  and  C1'_4 
REMARK    3  A    between atoms: C1'_4  and  C1_5 
ROOT
ATOM      1  C1  N4B d   1      -1.125  -1.715   0.570  0.00  0.00    -0.075 A 
ATOM      2  C2  N4B d   1      -0.263  -0.658   0.937  0.00  0.00     0.002 A 
ATOM      3  C3  N4B d   1       1.088  -0.766   0.716  0.00  0.00     0.002 A 
ATOM      4  C4  N4B d   1       1.601  -1.925   0.151  0.00  0.00    -0.004 A 
ATOM      5  C5  N4B d   1       0.758  -2.930  -0.224  0.00  0.00     0.002 A 
ATOM      6  C6  N4B d   1      -0.602  -2.834  -0.012  0.00  0.00     0.002 A 
ENDROOT
BRANCH   1   7
ATOM      7  C1' N4B d   1      -2.598  -1.678   0.869  0.00  0.00     0.057 C 
BRANCH   7   8
ATOM      8  C2' N4B d   1      -3.084  -3.093   1.171  0.00  0.00     0.009 C 
BRANCH   8   9
ATOM      9  C3' N4B d   1      -4.319  -3.094   2.055  0.00  0.00     0.004 C 
ATOM     10  C4' N4B d   1      -4.920  -4.459   2.212  0.00  0.00     0.003 C 
ENDBRANCH   8   9
ENDBRANCH   7   8
ENDBRANCH   1   7
TORSDOF 3
ENDMDL
