MODEL 1
REMARK minimizedAffinity -0.513629377
REMARK minimizedRMSD -1
REMARK  3 active torsions:
REMARK  status: ('A' for Active; 'I' for Inactive)
REMARK    1  A    between atoms: C3'_2  and  C2'_3 
REMARK    2  A    between atoms: C2'_3  and  C1'_4 
REMARK    3  A    between atoms: C1'_4  and  C1_5 
ROOT
ATOM      1  C1  N4B d   1       1.300  -1.660   0.178  0.00  0.00    -0.075 A 
ATOM      2  C2  N4B d   1       1.362  -3.037  -0.129  0.00  0.00     0.002 A 
ATOM      3  C3  N4B d   1       0.205  -3.750  -0.322  0.00  0.00     0.002 A 
ATOM      4  C4  N4B d   1      -1.022  -3.115  -0.195  0.00  0.00    -0.004 A 
ATOM      5  C5  N4B d   1      -1.072  -1.779   0.076  0.00  0.00     0.002 A 
ATOM      6  C6  N4B d   1       0.083  -1.049   0.268  0.00  0.00     0.002 A 
ENDROOT
BRANCH   1   7
ATOM      7  C1' N4B d   1       2.536  -0.858   0.482  0.00  0.00     0.057 C 
BRANCH   7   8
ATOM      8  C2' N4B d   1       2.241   0.100   1.632  0.00  0.00     0.009 C 
BRANCH   8   9
ATOM      9  C3' N4B d   1       2.556  -0.520   2.983  0.00  0.00     0.004 C 
ATOM     10  C4' N4B d   1       1.325  -0.850   3.773  0.00  0.00     0.003 C 
ENDBRANCH   8   9
ENDBRANCH   7   8
ENDBRANCH   1   7
TORSDOF 3
ENDMDL
