MODEL 1
REMARK minimizedAffinity -1.90004468
REMARK minimizedRMSD -1
REMARK  3 active torsions:
REMARK  status: ('A' for Active; 'I' for Inactive)
REMARK    1  A    between atoms: C3'_2  and  C2'_3 
REMARK    2  A    between atoms: C2'_3  and  C1'_4 
REMARK    3  A    between atoms: C1'_4  and  C1_5 
ROOT
ATOM      1  C1  N4B d   1       1.444  -2.784  -0.143  0.00  0.00    -0.075 A 
ATOM      2  C2  N4B d   1       1.973  -1.479  -0.041  0.00  0.00     0.002 A 
ATOM      3  C3  N4B d   1       1.268  -0.501   0.616  0.00  0.00     0.002 A 
ATOM      4  C4  N4B d   1       0.028  -0.799   1.162  0.00  0.00    -0.004 A 
ATOM      5  C5  N4B d   1      -0.465  -2.069   1.082  0.00  0.00     0.002 A 
ATOM      6  C6  N4B d   1       0.235  -3.062   0.427  0.00  0.00     0.002 A 
ENDROOT
BRANCH   1   7
ATOM      7  C1' N4B d   1       2.138  -3.865  -0.926  0.00  0.00     0.057 C 
BRANCH   7   8
ATOM      8  C2' N4B d   1       3.562  -4.026  -0.402  0.00  0.00     0.009 C 
BRANCH   8   9
ATOM      9  C3' N4B d   1       4.180  -5.345  -0.835  0.00  0.00     0.004 C 
ATOM     10  C4' N4B d   1       4.976  -5.998   0.255  0.00  0.00     0.003 C 
ENDBRANCH   8   9
ENDBRANCH   7   8
ENDBRANCH   1   7
TORSDOF 3
ENDMDL
