MODEL 1
REMARK minimizedAffinity 3.48607755
REMARK minimizedRMSD -1
REMARK  3 active torsions:
REMARK  status: ('A' for Active; 'I' for Inactive)
REMARK    1  A    between atoms: C3'_2  and  C2'_3 
REMARK    2  A    between atoms: C2'_3  and  C1'_4 
REMARK    3  A    between atoms: C1'_4  and  C1_5 
ROOT
ATOM      1  C1  N4B d   1       1.241  -2.619  -0.159  0.00  0.00    -0.075 A 
ATOM      2  C2  N4B d   1       1.774  -1.316  -0.270  0.00  0.00     0.002 A 
ATOM      3  C3  N4B d   1       1.068  -0.242   0.214  0.00  0.00     0.002 A 
ATOM      4  C4  N4B d   1      -0.177  -0.444   0.792  0.00  0.00    -0.004 A 
ATOM      5  C5  N4B d   1      -0.673  -1.709   0.918  0.00  0.00     0.002 A 
ATOM      6  C6  N4B d   1       0.028  -2.798   0.440  0.00  0.00     0.002 A 
ENDROOT
BRANCH   1   7
ATOM      7  C1' N4B d   1       1.938  -3.815  -0.750  0.00  0.00     0.057 C 
BRANCH   7   8
ATOM      8  C2' N4B d   1       3.416  -3.769  -0.375  0.00  0.00     0.009 C 
BRANCH   8   9
ATOM      9  C3' N4B d   1       4.177  -4.967  -0.917  0.00  0.00     0.004 C 
ATOM     10  C4' N4B d   1       4.642  -5.897   0.164  0.00  0.00     0.003 C 
ENDBRANCH   8   9
ENDBRANCH   7   8
ENDBRANCH   1   7
TORSDOF 3
ENDMDL
