MODEL 1
REMARK minimizedAffinity 6.51961279
REMARK minimizedRMSD -1
REMARK  0 active torsions:
REMARK  status: ('A' for Active; 'I' for Inactive)
ROOT
ATOM      1  C   UNL d   1       5.183  -3.465   3.305  0.00  0.00     0.077 C 
ATOM      2  C1  UNL d   1       3.716  -3.173   3.420  0.00  0.00    -0.074 A 
ATOM      3  C2  UNL d   1       2.900  -3.920   4.277  0.00  0.00    -0.005 A 
ATOM      4  C3  UNL d   1       1.539  -3.631   4.381  0.00  0.00     0.006 A 
ATOM      5  C4  UNL d   1       0.981  -2.595   3.630  0.00  0.00    -0.005 A 
ATOM      6  C5  UNL d   1       1.782  -1.838   2.769  0.00  0.00    -0.074 A 
ATOM      7  C6  UNL d   1       1.200  -0.715   1.963  0.00  0.00     0.077 C 
ATOM      8  C7  UNL d   1       3.149  -2.129   2.676  0.00  0.00    -0.001 A 
ENDROOT
TORSDOF 0
ENDMDL
