MODEL 1
REMARK minimizedAffinity 1.96831834
REMARK minimizedRMSD -1
REMARK  0 active torsions:
REMARK  status: ('A' for Active; 'I' for Inactive)
ROOT
ATOM      1  C   UNL d   1      -3.789   3.016   1.073  0.00  0.00     0.077 C 
ATOM      2  C1  UNL d   1      -3.322   2.050   0.025  0.00  0.00    -0.074 A 
ATOM      3  C2  UNL d   1      -2.523   0.954   0.363  0.00  0.00    -0.005 A 
ATOM      4  C3  UNL d   1      -2.104   0.059  -0.621  0.00  0.00     0.006 A 
ATOM      5  C4  UNL d   1      -2.480   0.251  -1.951  0.00  0.00    -0.005 A 
ATOM      6  C5  UNL d   1      -3.280   1.341  -2.308  0.00  0.00    -0.074 A 
ATOM      7  C6  UNL d   1      -3.701   1.557  -3.731  0.00  0.00     0.077 C 
ATOM      8  C7  UNL d   1      -3.702   2.232  -1.312  0.00  0.00    -0.001 A 
ENDROOT
TORSDOF 0
ENDMDL
