MODEL 1
REMARK minimizedAffinity -0.0619757026
REMARK minimizedRMSD -1
REMARK  0 active torsions:
REMARK  status: ('A' for Active; 'I' for Inactive)
ROOT
ATOM      1  C   UNL d   1       5.897  -5.997  -5.029  0.00  0.00     0.077 C 
ATOM      2  C1  UNL d   1       4.907  -5.979  -3.902  0.00  0.00    -0.074 A 
ATOM      3  C2  UNL d   1       3.531  -5.976  -4.154  0.00  0.00    -0.005 A 
ATOM      4  C3  UNL d   1       2.622  -5.969  -3.096  0.00  0.00     0.006 A 
ATOM      5  C4  UNL d   1       3.079  -5.963  -1.778  0.00  0.00    -0.005 A 
ATOM      6  C5  UNL d   1       4.451  -5.966  -1.506  0.00  0.00    -0.074 A 
ATOM      7  C6  UNL d   1       4.959  -5.970  -0.095  0.00  0.00     0.077 C 
ATOM      8  C7  UNL d   1       5.358  -5.981  -2.575  0.00  0.00    -0.001 A 
ENDROOT
TORSDOF 0
ENDMDL
