MODEL 1
REMARK minimizedAffinity 2.20761657
REMARK minimizedRMSD -1
REMARK  0 active torsions:
REMARK  status: ('A' for Active; 'I' for Inactive)
ROOT
ATOM      1  C   UNL d   1       5.644  -2.938   4.555  0.00  0.00     0.077 C 
ATOM      2  C1  UNL d   1       4.184  -3.092   4.246  0.00  0.00    -0.074 A 
ATOM      3  C2  UNL d   1       3.488  -4.245   4.622  0.00  0.00    -0.005 A 
ATOM      4  C3  UNL d   1       2.129  -4.370   4.335  0.00  0.00     0.006 A 
ATOM      5  C4  UNL d   1       1.453  -3.346   3.671  0.00  0.00    -0.005 A 
ATOM      6  C5  UNL d   1       2.133  -2.185   3.288  0.00  0.00    -0.074 A 
ATOM      7  C6  UNL d   1       1.420  -1.071   2.582  0.00  0.00     0.077 C 
ATOM      8  C7  UNL d   1       3.497  -2.064   3.585  0.00  0.00    -0.001 A 
ENDROOT
TORSDOF 0
ENDMDL
