MODEL 1
REMARK minimizedAffinity 5.11275005
REMARK minimizedRMSD -1
REMARK  0 active torsions:
REMARK  status: ('A' for Active; 'I' for Inactive)
ROOT
ATOM      1  C   UNL d   1       2.248  -4.478   2.883  0.00  0.00     0.077 C 
ATOM      2  C1  UNL d   1       1.658  -3.203   2.359  0.00  0.00    -0.074 A 
ATOM      3  C2  UNL d   1       2.135  -1.960   2.791  0.00  0.00    -0.005 A 
ATOM      4  C3  UNL d   1       1.583  -0.782   2.288  0.00  0.00     0.006 A 
ATOM      5  C4  UNL d   1       0.551  -0.834   1.350  0.00  0.00    -0.005 A 
ATOM      6  C5  UNL d   1       0.062  -2.067   0.906  0.00  0.00    -0.074 A 
ATOM      7  C6  UNL d   1      -1.039  -2.141  -0.109  0.00  0.00     0.077 C 
ATOM      8  C7  UNL d   1       0.627  -3.246   1.411  0.00  0.00    -0.001 A 
ENDROOT
TORSDOF 0
ENDMDL
