MODEL 1
REMARK minimizedAffinity -1.69824708
REMARK minimizedRMSD -1
REMARK  0 active torsions:
REMARK  status: ('A' for Active; 'I' for Inactive)
ROOT
ATOM      1  C   UNL d   1       4.735  -5.992  -1.662  0.00  0.00     0.077 C 
ATOM      2  C1  UNL d   1       4.721  -5.987  -3.162  0.00  0.00    -0.074 A 
ATOM      3  C2  UNL d   1       5.914  -5.993  -3.892  0.00  0.00    -0.005 A 
ATOM      4  C3  UNL d   1       5.885  -5.997  -5.287  0.00  0.00     0.006 A 
ATOM      5  C4  UNL d   1       4.665  -5.996  -5.964  0.00  0.00    -0.005 A 
ATOM      6  C5  UNL d   1       3.462  -5.991  -5.251  0.00  0.00    -0.074 A 
ATOM      7  C6  UNL d   1       2.142  -6.000  -5.964  0.00  0.00     0.077 C 
ATOM      8  C7  UNL d   1       3.499  -5.993  -3.850  0.00  0.00    -0.001 A 
ENDROOT
TORSDOF 0
ENDMDL
