MODEL 1
REMARK minimizedAffinity -2.58221054
REMARK minimizedRMSD -1
REMARK  0 active torsions:
REMARK  status: ('A' for Active; 'I' for Inactive)
ROOT
ATOM      1  C   UNL d   1       3.248  -5.998  -1.269  0.00  0.00     0.077 C 
ATOM      2  C1  UNL d   1       3.504  -5.991  -2.747  0.00  0.00    -0.074 A 
ATOM      3  C2  UNL d   1       4.808  -5.997  -3.251  0.00  0.00    -0.005 A 
ATOM      4  C3  UNL d   1       5.030  -6.000  -4.628  0.00  0.00     0.006 A 
ATOM      5  C4  UNL d   1       3.952  -5.997  -5.513  0.00  0.00    -0.005 A 
ATOM      6  C5  UNL d   1       2.640  -5.992  -5.028  0.00  0.00    -0.074 A 
ATOM      7  C6  UNL d   1       1.470  -5.999  -5.966  0.00  0.00     0.077 C 
ATOM      8  C7  UNL d   1       2.426  -5.996  -3.643  0.00  0.00    -0.001 A 
ENDROOT
TORSDOF 0
ENDMDL
