MODEL 1
REMARK minimizedAffinity 8.64753056
REMARK minimizedRMSD -1
REMARK  0 active torsions:
REMARK  status: ('A' for Active; 'I' for Inactive)
ROOT
ATOM      1  C   UNL d   1      -1.852   2.187   0.312  0.00  0.00     0.077 C 
ATOM      2  C1  UNL d   1      -2.199   1.484  -0.966  0.00  0.00    -0.074 A 
ATOM      3  C2  UNL d   1      -1.584   0.276  -1.311  0.00  0.00    -0.005 A 
ATOM      4  C3  UNL d   1      -1.924  -0.372  -2.499  0.00  0.00     0.006 A 
ATOM      5  C4  UNL d   1      -2.879   0.181  -3.353  0.00  0.00    -0.005 A 
ATOM      6  C5  UNL d   1      -3.505   1.388  -3.024  0.00  0.00    -0.074 A 
ATOM      7  C6  UNL d   1      -4.541   1.991  -3.925  0.00  0.00     0.077 C 
ATOM      8  C7  UNL d   1      -3.163   2.029  -1.825  0.00  0.00    -0.001 A 
ENDROOT
TORSDOF 0
ENDMDL
