MODEL 1
REMARK minimizedAffinity 4.27639198
REMARK minimizedRMSD -1
REMARK  0 active torsions:
REMARK  status: ('A' for Active; 'I' for Inactive)
ROOT
ATOM      1  C   UNL d   1       2.756  -1.483  -1.108  0.00  0.00     0.077 C 
ATOM      2  C1  UNL d   1       2.620  -1.294   0.373  0.00  0.00    -0.074 A 
ATOM      3  C2  UNL d   1       2.725  -0.024   0.949  0.00  0.00    -0.005 A 
ATOM      4  C3  UNL d   1       2.586   0.138   2.327  0.00  0.00     0.006 A 
ATOM      5  C4  UNL d   1       2.342  -0.968   3.143  0.00  0.00    -0.005 A 
ATOM      6  C5  UNL d   1       2.232  -2.246   2.585  0.00  0.00    -0.074 A 
ATOM      7  C6  UNL d   1       1.960  -3.443   3.446  0.00  0.00     0.077 C 
ATOM      8  C7  UNL d   1       2.366  -2.399   1.198  0.00  0.00    -0.001 A 
ENDROOT
TORSDOF 0
ENDMDL
