MODEL 1
REMARK minimizedAffinity 6.97220182
REMARK minimizedRMSD -1
REMARK  0 active torsions:
REMARK  status: ('A' for Active; 'I' for Inactive)
ROOT
ATOM      1  C   UNL d   1       1.963  -5.552   5.997  0.00  0.00     0.077 C 
ATOM      2  C1  UNL d   1       1.946  -4.668   4.786  0.00  0.00    -0.074 A 
ATOM      3  C2  UNL d   1       2.048  -5.209   3.500  0.00  0.00    -0.005 A 
ATOM      4  C3  UNL d   1       2.022  -4.375   2.382  0.00  0.00     0.006 A 
ATOM      5  C4  UNL d   1       1.894  -2.994   2.538  0.00  0.00    -0.005 A 
ATOM      6  C5  UNL d   1       1.791  -2.436   3.816  0.00  0.00    -0.074 A 
ATOM      7  C6  UNL d   1       1.643  -0.955   4.002  0.00  0.00     0.077 C 
ATOM      8  C7  UNL d   1       1.811  -3.281   4.934  0.00  0.00    -0.001 A 
ENDROOT
TORSDOF 0
ENDMDL
