MODEL 1
REMARK minimizedAffinity 3.62880397
REMARK minimizedRMSD -1
REMARK  0 active torsions:
REMARK  status: ('A' for Active; 'I' for Inactive)
ROOT
ATOM      1  C   UNL d   1       1.187  -1.471   2.552  0.00  0.00     0.077 C 
ATOM      2  C1  UNL d   1       2.062  -2.421   3.316  0.00  0.00    -0.074 A 
ATOM      3  C2  UNL d   1       1.616  -3.707   3.639  0.00  0.00    -0.005 A 
ATOM      4  C3  UNL d   1       2.444  -4.582   4.341  0.00  0.00     0.006 A 
ATOM      5  C4  UNL d   1       3.724  -4.181   4.728  0.00  0.00    -0.005 A 
ATOM      6  C5  UNL d   1       4.187  -2.899   4.413  0.00  0.00    -0.074 A 
ATOM      7  C6  UNL d   1       5.563  -2.456   4.813  0.00  0.00     0.077 C 
ATOM      8  C7  UNL d   1       3.351  -2.028   3.701  0.00  0.00    -0.001 A 
ENDROOT
TORSDOF 0
ENDMDL
