MODEL 1
REMARK minimizedAffinity 0.828746378
REMARK minimizedRMSD -1
REMARK  0 active torsions:
REMARK  status: ('A' for Active; 'I' for Inactive)
ROOT
ATOM      1  C   UNL d   1      -5.988   2.618  -4.865  0.00  0.00     0.077 C 
ATOM      2  C1  UNL d   1      -5.154   1.389  -4.657  0.00  0.00    -0.074 A 
ATOM      3  C2  UNL d   1      -4.107   1.379  -3.729  0.00  0.00    -0.005 A 
ATOM      4  C3  UNL d   1      -3.346   0.226  -3.539  0.00  0.00     0.006 A 
ATOM      5  C4  UNL d   1      -3.624  -0.927  -4.274  0.00  0.00    -0.005 A 
ATOM      6  C5  UNL d   1      -4.666  -0.937  -5.206  0.00  0.00    -0.074 A 
ATOM      7  C6  UNL d   1      -4.984  -2.171  -5.997  0.00  0.00     0.077 C 
ATOM      8  C7  UNL d   1      -5.431   0.224  -5.386  0.00  0.00    -0.001 A 
ENDROOT
TORSDOF 0
ENDMDL
