MODEL 1
REMARK minimizedAffinity 7.34970379
REMARK minimizedRMSD -1
REMARK  0 active torsions:
REMARK  status: ('A' for Active; 'I' for Inactive)
ROOT
ATOM      1  C   UNL d   1      -4.800   1.871  -3.570  0.00  0.00     0.077 C 
ATOM      2  C1  UNL d   1      -4.800   1.906  -2.071  0.00  0.00    -0.074 A 
ATOM      3  C2  UNL d   1      -5.999   1.906  -1.352  0.00  0.00    -0.005 A 
ATOM      4  C3  UNL d   1      -5.983   1.929   0.043  0.00  0.00     0.006 A 
ATOM      5  C4  UNL d   1      -4.770   1.952   0.731  0.00  0.00    -0.005 A 
ATOM      6  C5  UNL d   1      -3.560   1.951   0.029  0.00  0.00    -0.074 A 
ATOM      7  C6  UNL d   1      -2.247   1.966   0.753  0.00  0.00     0.077 C 
ATOM      8  C7  UNL d   1      -3.585   1.921  -1.372  0.00  0.00    -0.001 A 
ENDROOT
TORSDOF 0
ENDMDL
