MODEL 1
REMARK minimizedAffinity 7.8299017
REMARK minimizedRMSD -1
REMARK  1 active torsions:
REMARK  status: ('A' for Active; 'I' for Inactive)
REMARK    1  A    between atoms: N_2  and  C1_3 
ROOT
ATOM      1  C1  UNL d   1       4.851   1.229  -1.217  0.00  0.00     0.143 A 
ATOM      2  C2  UNL d   1       3.713   0.421  -1.118  0.00  0.00    -0.057 A 
ATOM      3  C3  UNL d   1       3.705  -0.725  -0.313  0.00  0.00     0.033 A 
ATOM      4  C4  UNL d   1       4.848  -1.100   0.385  0.00  0.00    -0.042 A 
ATOM      5  C5  UNL d   1       5.998  -0.326   0.281  0.00  0.00     0.033 A 
ATOM      6  C6  UNL d   1       5.998   0.821  -0.518  0.00  0.00    -0.057 A 
ENDROOT
BRANCH   1   7
ATOM      7  N   UNL d   1       4.953   2.326  -2.077  0.00  0.00    -0.732 N 
ATOM      8  C   UNL d   1       5.206   3.651  -1.554  0.00  0.00     0.284 C 
ATOM      9  H3  UNL d   1       5.471   2.107  -2.925  0.00  0.00     0.395 HD
ENDBRANCH   1   7
TORSDOF 1
ENDMDL
