MODEL 1
REMARK minimizedAffinity 6.23843431
REMARK minimizedRMSD -1
REMARK  1 active torsions:
REMARK  status: ('A' for Active; 'I' for Inactive)
REMARK    1  A    between atoms: N_2  and  C1_3 
ROOT
ATOM      1  C1  UNL d   1       3.507  -1.184  -1.442  0.00  0.00     0.143 A 
ATOM      2  C2  UNL d   1       3.138  -0.675  -0.192  0.00  0.00    -0.057 A 
ATOM      3  C3  UNL d   1       3.571   0.586   0.235  0.00  0.00     0.033 A 
ATOM      4  C4  UNL d   1       4.407   1.351  -0.572  0.00  0.00    -0.042 A 
ATOM      5  C5  UNL d   1       4.807   0.855  -1.808  0.00  0.00     0.033 A 
ATOM      6  C6  UNL d   1       4.366  -0.403  -2.231  0.00  0.00    -0.057 A 
ENDROOT
BRANCH   1   7
ATOM      7  N   UNL d   1       3.190  -2.472  -1.882  0.00  0.00    -0.732 N 
ATOM      8  C   UNL d   1       3.510  -2.890  -3.230  0.00  0.00     0.284 C 
ATOM      9  H3  UNL d   1       3.370  -3.179  -1.173  0.00  0.00     0.395 HD
ENDBRANCH   1   7
TORSDOF 1
ENDMDL
