MODEL 1
REMARK minimizedAffinity 4.45334959
REMARK minimizedRMSD -1
REMARK  1 active torsions:
REMARK  status: ('A' for Active; 'I' for Inactive)
REMARK    1  A    between atoms: N_2  and  C1_3 
ROOT
ATOM      1  C1  UNL d   1       4.675   2.501  -1.046  0.00  0.00     0.143 A 
ATOM      2  C2  UNL d   1       5.370   2.598   0.164  0.00  0.00    -0.057 A 
ATOM      3  C3  UNL d   1       5.999   3.789   0.547  0.00  0.00     0.033 A 
ATOM      4  C4  UNL d   1       5.969   4.899  -0.291  0.00  0.00    -0.042 A 
ATOM      5  C5  UNL d   1       5.305   4.818  -1.510  0.00  0.00     0.033 A 
ATOM      6  C6  UNL d   1       4.673   3.628  -1.883  0.00  0.00    -0.057 A 
ENDROOT
BRANCH   1   7
ATOM      7  N   UNL d   1       4.112   1.317  -1.528  0.00  0.00    -0.732 N 
ATOM      8  C   UNL d   1       3.748   0.251  -0.619  0.00  0.00     0.284 C 
ATOM      9  H3  UNL d   1       3.434   1.481  -2.268  0.00  0.00     0.395 HD
ENDBRANCH   1   7
TORSDOF 1
ENDMDL
