MODEL 1
REMARK minimizedAffinity 6.51235867
REMARK minimizedRMSD -1
REMARK  1 active torsions:
REMARK  status: ('A' for Active; 'I' for Inactive)
REMARK    1  A    between atoms: N_2  and  C1_3 
ROOT
ATOM      1  C1  UNL d   1       3.288  -1.513  -0.717  0.00  0.00     0.143 A 
ATOM      2  C2  UNL d   1       2.980  -2.009  -1.988  0.00  0.00    -0.057 A 
ATOM      3  C3  UNL d   1       2.012  -3.006  -2.164  0.00  0.00     0.033 A 
ATOM      4  C4  UNL d   1       1.354  -3.546  -1.064  0.00  0.00    -0.042 A 
ATOM      5  C5  UNL d   1       1.662  -3.086   0.211  0.00  0.00     0.033 A 
ATOM      6  C6  UNL d   1       2.625  -2.086   0.379  0.00  0.00    -0.057 A 
ENDROOT
BRANCH   1   7
ATOM      7  N   UNL d   1       4.309  -0.593  -0.468  0.00  0.00    -0.732 N 
ATOM      8  C   UNL d   1       4.200   0.774  -0.931  0.00  0.00     0.284 C 
ATOM      9  H3  UNL d   1       4.694  -0.685   0.470  0.00  0.00     0.395 HD
ENDBRANCH   1   7
TORSDOF 1
ENDMDL
