MODEL 1
REMARK minimizedAffinity 6.03182745
REMARK minimizedRMSD -1
REMARK  1 active torsions:
REMARK  status: ('A' for Active; 'I' for Inactive)
REMARK    1  A    between atoms: N_2  and  C1_3 
ROOT
ATOM      1  C1  UNL d   1       5.453   3.120  -1.252  0.00  0.00     0.143 A 
ATOM      2  C2  UNL d   1       4.813   2.114  -1.983  0.00  0.00    -0.057 A 
ATOM      3  C3  UNL d   1       4.404   0.921  -1.374  0.00  0.00     0.033 A 
ATOM      4  C4  UNL d   1       4.655   0.701  -0.024  0.00  0.00    -0.042 A 
ATOM      5  C5  UNL d   1       5.313   1.677   0.717  0.00  0.00     0.033 A 
ATOM      6  C6  UNL d   1       5.713   2.868   0.104  0.00  0.00    -0.057 A 
ENDROOT
BRANCH   1   7
ATOM      7  N   UNL d   1       5.972   4.285  -1.821  0.00  0.00    -0.732 N 
ATOM      8  C   UNL d   1       6.000   5.523  -1.072  0.00  0.00     0.284 C 
ATOM      9  H3  UNL d   1       6.813   4.110  -2.366  0.00  0.00     0.395 HD
ENDBRANCH   1   7
TORSDOF 1
ENDMDL
