MODEL 1
REMARK minimizedAffinity 7.12003708
REMARK minimizedRMSD -1
REMARK  1 active torsions:
REMARK  status: ('A' for Active; 'I' for Inactive)
REMARK    1  A    between atoms: N_2  and  C1_3 
ROOT
ATOM      1  C1  UNL d   1       3.293   0.209  -0.708  0.00  0.00     0.143 A 
ATOM      2  C2  UNL d   1       3.729   1.448  -1.191  0.00  0.00    -0.057 A 
ATOM      3  C3  UNL d   1       5.070   1.836  -1.088  0.00  0.00     0.033 A 
ATOM      4  C4  UNL d   1       5.997   1.002  -0.471  0.00  0.00    -0.042 A 
ATOM      5  C5  UNL d   1       5.581  -0.223   0.039  0.00  0.00     0.033 A 
ATOM      6  C6  UNL d   1       4.242  -0.608  -0.073  0.00  0.00    -0.057 A 
ENDROOT
BRANCH   1   7
ATOM      7  N   UNL d   1       1.955  -0.193  -0.692  0.00  0.00    -0.732 N 
ATOM      8  C   UNL d   1       0.896   0.779  -0.529  0.00  0.00     0.284 C 
ATOM      9  H3  UNL d   1       1.758  -0.911  -1.385  0.00  0.00     0.395 HD
ENDBRANCH   1   7
TORSDOF 1
ENDMDL
