MODEL 1
REMARK minimizedAffinity 5.17153502
REMARK minimizedRMSD -1
REMARK  1 active torsions:
REMARK  status: ('A' for Active; 'I' for Inactive)
REMARK    1  A    between atoms: N_2  and  C1_3 
ROOT
ATOM      1  C1  UNL d   1       4.087  -1.188  -2.678  0.00  0.00     0.143 A 
ATOM      2  C2  UNL d   1       3.080  -1.538  -1.773  0.00  0.00    -0.057 A 
ATOM      3  C3  UNL d   1       2.906  -0.837  -0.573  0.00  0.00     0.033 A 
ATOM      4  C4  UNL d   1       3.757   0.212  -0.244  0.00  0.00    -0.042 A 
ATOM      5  C5  UNL d   1       4.781   0.562  -1.117  0.00  0.00     0.033 A 
ATOM      6  C6  UNL d   1       4.946  -0.138  -2.316  0.00  0.00    -0.057 A 
ENDROOT
BRANCH   1   7
ATOM      7  N   UNL d   1       4.374  -1.908  -3.840  0.00  0.00    -0.732 N 
ATOM      8  C   UNL d   1       5.692  -2.464  -4.057  0.00  0.00     0.284 C 
ATOM      9  H3  UNL d   1       3.612  -2.526  -4.112  0.00  0.00     0.395 HD
ENDBRANCH   1   7
TORSDOF 1
ENDMDL
