MODEL 1
REMARK minimizedAffinity -4.35552406
REMARK minimizedRMSD -1
REMARK  2 active torsions:
REMARK  status: ('A' for Active; 'I' for Inactive)
REMARK    1  A    between atoms: C1_2  and  C2_3 
REMARK    2  A    between atoms: C2_3  and  C3_4 
ROOT
ATOM      1  C3  UNL d   1      -2.585  -0.346  -3.731  0.00  0.00    -0.075 A 
ATOM      2  C4  UNL d   1      -2.617   0.222  -2.450  0.00  0.00     0.002 A 
ATOM      3  C5  UNL d   1      -2.417   1.592  -2.277  0.00  0.00     0.002 A 
ATOM      4  C6  UNL d   1      -2.174   2.408  -3.380  0.00  0.00    -0.004 A 
ATOM      5  C7  UNL d   1      -2.123   1.851  -4.656  0.00  0.00     0.002 A 
ATOM      6  C8  UNL d   1      -2.327   0.482  -4.832  0.00  0.00     0.002 A 
ENDROOT
BRANCH   1   7
ATOM      7  C2  UNL d   1      -2.830  -1.823  -3.928  0.00  0.00     0.056 C 
BRANCH   7   8
ATOM      8  C1  UNL d   1      -4.220  -2.290  -3.483  0.00  0.00     0.007 C 
ATOM      9  C   UNL d   1      -5.348  -1.431  -4.040  0.00  0.00     0.009 C 
ENDBRANCH   7   8
ENDBRANCH   1   7
TORSDOF 2
ENDMDL
