MODEL 1
REMARK minimizedAffinity 10.4528437
REMARK minimizedRMSD -1
REMARK  2 active torsions:
REMARK  status: ('A' for Active; 'I' for Inactive)
REMARK    1  A    between atoms: C1_2  and  C2_3 
REMARK    2  A    between atoms: C2_3  and  C3_4 
ROOT
ATOM      1  C3  UNL d   1       4.859  -4.151   2.661  0.00  0.00    -0.075 A 
ATOM      2  C4  UNL d   1       3.540  -3.774   2.371  0.00  0.00     0.002 A 
ATOM      3  C5  UNL d   1       3.193  -3.332   1.094  0.00  0.00     0.002 A 
ATOM      4  C6  UNL d   1       4.161  -3.251   0.095  0.00  0.00    -0.004 A 
ATOM      5  C7  UNL d   1       5.479  -3.608   0.376  0.00  0.00     0.002 A 
ATOM      6  C8  UNL d   1       5.827  -4.054   1.652  0.00  0.00     0.002 A 
ENDROOT
BRANCH   1   7
ATOM      7  C2  UNL d   1       5.234  -4.658   4.033  0.00  0.00     0.056 C 
BRANCH   7   8
ATOM      8  C1  UNL d   1       4.896  -3.688   5.170  0.00  0.00     0.007 C 
ATOM      9  C   UNL d   1       5.999  -2.674   5.443  0.00  0.00     0.009 C 
ENDBRANCH   7   8
ENDBRANCH   1   7
TORSDOF 2
ENDMDL
