MODEL 1
REMARK minimizedAffinity 4.29901075
REMARK minimizedRMSD -1
REMARK  2 active torsions:
REMARK  status: ('A' for Active; 'I' for Inactive)
REMARK    1  A    between atoms: C1_2  and  C2_3 
REMARK    2  A    between atoms: C2_3  and  C3_4 
ROOT
ATOM      1  C3  UNL d   1      -3.492  -0.841  -3.173  0.00  0.00    -0.075 A 
ATOM      2  C4  UNL d   1      -2.422  -1.124  -4.034  0.00  0.00     0.002 A 
ATOM      3  C5  UNL d   1      -2.659  -1.551  -5.341  0.00  0.00     0.002 A 
ATOM      4  C6  UNL d   1      -3.965  -1.709  -5.799  0.00  0.00    -0.004 A 
ATOM      5  C7  UNL d   1      -5.035  -1.446  -4.947  0.00  0.00     0.002 A 
ATOM      6  C8  UNL d   1      -4.801  -1.015  -3.640  0.00  0.00     0.002 A 
ENDROOT
BRANCH   1   7
ATOM      7  C2  UNL d   1      -3.242  -0.350  -1.766  0.00  0.00     0.056 C 
BRANCH   7   8
ATOM      8  C1  UNL d   1      -3.779   1.059  -1.493  0.00  0.00     0.007 C 
ATOM      9  C   UNL d   1      -2.992   2.150  -2.205  0.00  0.00     0.009 C 
ENDBRANCH   7   8
ENDBRANCH   1   7
TORSDOF 2
ENDMDL
