MODEL 1
REMARK minimizedAffinity -4.81411457
REMARK minimizedRMSD -1
REMARK  2 active torsions:
REMARK  status: ('A' for Active; 'I' for Inactive)
REMARK    1  A    between atoms: C1_2  and  C2_3 
REMARK    2  A    between atoms: C2_3  and  C3_4 
ROOT
ATOM      1  C3  UNL d   1      -3.064   0.160  -4.832  0.00  0.00    -0.075 A 
ATOM      2  C4  UNL d   1      -4.279   0.484  -5.453  0.00  0.00     0.002 A 
ATOM      3  C5  UNL d   1      -5.466  -0.130  -5.050  0.00  0.00     0.002 A 
ATOM      4  C6  UNL d   1      -5.452  -1.080  -4.031  0.00  0.00    -0.004 A 
ATOM      5  C7  UNL d   1      -4.248  -1.422  -3.419  0.00  0.00     0.002 A 
ATOM      6  C8  UNL d   1      -3.060  -0.806  -3.817  0.00  0.00     0.002 A 
ENDROOT
BRANCH   1   7
ATOM      7  C2  UNL d   1      -1.781   0.842  -5.243  0.00  0.00     0.056 C 
BRANCH   7   8
ATOM      8  C1  UNL d   1      -1.588   2.232  -4.627  0.00  0.00     0.007 C 
ATOM      9  C   UNL d   1      -1.749   2.245  -3.112  0.00  0.00     0.009 C 
ENDBRANCH   7   8
ENDBRANCH   1   7
TORSDOF 2
ENDMDL
