MODEL 1
REMARK minimizedAffinity 1.87035048
REMARK minimizedRMSD -1
REMARK  2 active torsions:
REMARK  status: ('A' for Active; 'I' for Inactive)
REMARK    1  A    between atoms: C1_2  and  C2_3 
REMARK    2  A    between atoms: C2_3  and  C3_4 
ROOT
ATOM      1  C3  UNL d   1      -3.777  -0.378  -3.770  0.00  0.00    -0.075 A 
ATOM      2  C4  UNL d   1      -5.168  -0.200  -3.787  0.00  0.00     0.002 A 
ATOM      3  C5  UNL d   1      -5.796   0.364  -4.898  0.00  0.00     0.002 A 
ATOM      4  C6  UNL d   1      -5.043   0.765  -5.999  0.00  0.00    -0.004 A 
ATOM      5  C7  UNL d   1      -3.658   0.608  -5.986  0.00  0.00     0.002 A 
ATOM      6  C8  UNL d   1      -3.028   0.040  -4.878  0.00  0.00     0.002 A 
ENDROOT
BRANCH   1   7
ATOM      7  C2  UNL d   1      -3.095  -1.015  -2.583  0.00  0.00     0.056 C 
BRANCH   7   8
ATOM      8  C1  UNL d   1      -2.719  -0.025  -1.475  0.00  0.00     0.007 C 
ATOM      9  C   UNL d   1      -3.141   1.406  -1.780  0.00  0.00     0.009 C 
ENDBRANCH   7   8
ENDBRANCH   1   7
TORSDOF 2
ENDMDL
