MODEL 1
REMARK minimizedAffinity -0.0353194736
REMARK minimizedRMSD -1
REMARK  0 active torsions:
REMARK  status: ('A' for Active; 'I' for Inactive)
ROOT
ATOM      1  C   UNL d   1       5.550  -2.748   2.567  0.00  0.00     0.077 C 
ATOM      2  C1  UNL d   1       4.152  -2.257   2.331  0.00  0.00    -0.074 A 
ATOM      3  C2  UNL d   1       3.052  -2.942   2.857  0.00  0.00    -0.005 A 
ATOM      4  C3  UNL d   1       1.758  -2.468   2.638  0.00  0.00     0.006 A 
ATOM      5  C4  UNL d   1       1.552  -1.307   1.892  0.00  0.00    -0.005 A 
ATOM      6  C5  UNL d   1       2.640  -0.609   1.359  0.00  0.00    -0.074 A 
ATOM      7  C6  UNL d   1       2.437   0.646   0.563  0.00  0.00     0.077 C 
ATOM      8  C7  UNL d   1       3.937  -1.087   1.590  0.00  0.00    -0.001 A 
ENDROOT
TORSDOF 0
ENDMDL
