MODEL 1
REMARK minimizedAffinity -3.6344595
REMARK minimizedRMSD -1
REMARK  0 active torsions:
REMARK  status: ('A' for Active; 'I' for Inactive)
ROOT
ATOM      1  C   UNL d   1      -0.441  -1.838   0.873  0.00  0.00     0.077 C 
ATOM      2  C1  UNL d   1       0.951  -1.887   1.428  0.00  0.00    -0.074 A 
ATOM      3  C2  UNL d   1       1.979  -1.128   0.859  0.00  0.00    -0.005 A 
ATOM      4  C3  UNL d   1       3.267  -1.177   1.391  0.00  0.00     0.006 A 
ATOM      5  C4  UNL d   1       3.540  -1.983   2.497  0.00  0.00    -0.005 A 
ATOM      6  C5  UNL d   1       2.525  -2.749   3.080  0.00  0.00    -0.074 A 
ATOM      7  C6  UNL d   1       2.800  -3.613   4.274  0.00  0.00     0.077 C 
ATOM      8  C7  UNL d   1       1.232  -2.689   2.543  0.00  0.00    -0.001 A 
ENDROOT
TORSDOF 0
ENDMDL
