MODEL 1
REMARK minimizedAffinity -3.09838247
REMARK minimizedRMSD -1
REMARK  0 active torsions:
REMARK  status: ('A' for Active; 'I' for Inactive)
ROOT
ATOM      1  C   UNL d   1       2.857   0.173   0.828  0.00  0.00     0.077 C 
ATOM      2  C1  UNL d   1       2.176  -0.986   1.496  0.00  0.00    -0.074 A 
ATOM      3  C2  UNL d   1       0.884  -1.372   1.125  0.00  0.00    -0.005 A 
ATOM      4  C3  UNL d   1       0.268  -2.457   1.748  0.00  0.00     0.006 A 
ATOM      5  C4  UNL d   1       0.937  -3.166   2.747  0.00  0.00    -0.005 A 
ATOM      6  C5  UNL d   1       2.230  -2.795   3.130  0.00  0.00    -0.074 A 
ATOM      7  C6  UNL d   1       2.966  -3.553   4.195  0.00  0.00     0.077 C 
ATOM      8  C7  UNL d   1       2.845  -1.708   2.495  0.00  0.00    -0.001 A 
ENDROOT
TORSDOF 0
ENDMDL
