MODEL 1
REMARK minimizedAffinity -0.0557721481
REMARK minimizedRMSD -1
REMARK  0 active torsions:
REMARK  status: ('A' for Active; 'I' for Inactive)
ROOT
ATOM      1  C   UNL d   1       3.196   0.424   0.734  0.00  0.00     0.077 C 
ATOM      2  C1  UNL d   1       2.456  -0.763   1.277  0.00  0.00    -0.074 A 
ATOM      3  C2  UNL d   1       3.059  -1.626   2.197  0.00  0.00    -0.005 A 
ATOM      4  C3  UNL d   1       2.355  -2.720   2.701  0.00  0.00     0.006 A 
ATOM      5  C4  UNL d   1       1.044  -2.961   2.290  0.00  0.00    -0.005 A 
ATOM      6  C5  UNL d   1       0.424  -2.108   1.371  0.00  0.00    -0.074 A 
ATOM      7  C6  UNL d   1      -0.988  -2.348   0.926  0.00  0.00     0.077 C 
ATOM      8  C7  UNL d   1       1.135  -1.007   0.875  0.00  0.00    -0.001 A 
ENDROOT
TORSDOF 0
ENDMDL
