MODEL 1
REMARK minimizedAffinity -2.45942569
REMARK minimizedRMSD -1
REMARK  0 active torsions:
REMARK  status: ('A' for Active; 'I' for Inactive)
ROOT
ATOM      1  C   UNL d   1      -1.406  -1.176  -0.087  0.00  0.00     0.077 C 
ATOM      2  C1  UNL d   1      -0.479  -1.820   0.901  0.00  0.00    -0.074 A 
ATOM      3  C2  UNL d   1      -0.957  -2.736   1.844  0.00  0.00    -0.005 A 
ATOM      4  C3  UNL d   1      -0.082  -3.333   2.751  0.00  0.00     0.006 A 
ATOM      5  C4  UNL d   1       1.278  -3.021   2.724  0.00  0.00    -0.005 A 
ATOM      6  C5  UNL d   1       1.774  -2.108   1.788  0.00  0.00    -0.074 A 
ATOM      7  C6  UNL d   1       3.235  -1.770   1.740  0.00  0.00     0.077 C 
ATOM      8  C7  UNL d   1       0.890  -1.517   0.876  0.00  0.00    -0.001 A 
ENDROOT
TORSDOF 0
ENDMDL
