MODEL 1
REMARK minimizedAffinity -0.261135131
REMARK minimizedRMSD -1
REMARK  0 active torsions:
REMARK  status: ('A' for Active; 'I' for Inactive)
ROOT
ATOM      1  C   UNL d   1       1.414  -2.177   1.950  0.00  0.00     0.077 C 
ATOM      2  C1  UNL d   1       0.886  -2.159   0.546  0.00  0.00    -0.074 A 
ATOM      3  C2  UNL d   1      -0.468  -1.919   0.291  0.00  0.00    -0.005 A 
ATOM      4  C3  UNL d   1      -0.943  -1.895  -1.020  0.00  0.00     0.006 A 
ATOM      5  C4  UNL d   1      -0.070  -2.111  -2.088  0.00  0.00    -0.005 A 
ATOM      6  C5  UNL d   1       1.287  -2.352  -1.852  0.00  0.00    -0.074 A 
ATOM      7  C6  UNL d   1       2.240  -2.577  -2.988  0.00  0.00     0.077 C 
ATOM      8  C7  UNL d   1       1.758  -2.367  -0.532  0.00  0.00    -0.001 A 
ENDROOT
TORSDOF 0
ENDMDL
