MODEL 1
REMARK minimizedAffinity 1.29231501
REMARK minimizedRMSD -1
REMARK  0 active torsions:
REMARK  status: ('A' for Active; 'I' for Inactive)
ROOT
ATOM      1  C   UNL d   1      -1.547   0.724   0.809  0.00  0.00     0.077 C 
ATOM      2  C1  UNL d   1      -0.174   0.148   0.987  0.00  0.00    -0.074 A 
ATOM      3  C2  UNL d   1       0.966   0.933   0.787  0.00  0.00    -0.005 A 
ATOM      4  C3  UNL d   1       2.237   0.386   0.966  0.00  0.00     0.006 A 
ATOM      5  C4  UNL d   1       2.380  -0.949   1.347  0.00  0.00    -0.005 A 
ATOM      6  C5  UNL d   1       1.251  -1.749   1.552  0.00  0.00    -0.074 A 
ATOM      7  C6  UNL d   1       1.387  -3.183   1.971  0.00  0.00     0.077 C 
ATOM      8  C7  UNL d   1      -0.022  -1.190   1.377  0.00  0.00    -0.001 A 
ENDROOT
TORSDOF 0
ENDMDL
