MODEL 1
REMARK minimizedAffinity 4.99539423
REMARK minimizedRMSD -1
REMARK  0 active torsions:
REMARK  status: ('A' for Active; 'I' for Inactive)
ROOT
ATOM      1  C   UNL d   1       1.045  -2.044   0.095  0.00  0.00     0.077 C 
ATOM      2  C1  UNL d   1       1.819  -2.560  -1.081  0.00  0.00    -0.074 A 
ATOM      3  C2  UNL d   1       2.125  -3.920  -1.199  0.00  0.00    -0.005 A 
ATOM      4  C3  UNL d   1       2.838  -4.387  -2.303  0.00  0.00     0.006 A 
ATOM      5  C4  UNL d   1       3.252  -3.500  -3.299  0.00  0.00    -0.005 A 
ATOM      6  C5  UNL d   1       2.954  -2.138  -3.198  0.00  0.00    -0.074 A 
ATOM      7  C6  UNL d   1       3.382  -1.173  -4.264  0.00  0.00     0.077 C 
ATOM      8  C7  UNL d   1       2.231  -1.677  -2.089  0.00  0.00    -0.001 A 
ENDROOT
TORSDOF 0
ENDMDL
