MODEL 1
REMARK minimizedAffinity 7.30793667
REMARK minimizedRMSD -1
REMARK  0 active torsions:
REMARK  status: ('A' for Active; 'I' for Inactive)
ROOT
ATOM      1  C   UNL d   1       4.495   0.852   0.053  0.00  0.00     0.077 C 
ATOM      2  C1  UNL d   1       3.233   1.556   0.455  0.00  0.00    -0.074 A 
ATOM      3  C2  UNL d   1       2.471   1.103   1.538  0.00  0.00    -0.005 A 
ATOM      4  C3  UNL d   1       1.305   1.773   1.906  0.00  0.00     0.006 A 
ATOM      5  C4  UNL d   1       0.888   2.900   1.197  0.00  0.00    -0.005 A 
ATOM      6  C5  UNL d   1       1.637   3.368   0.112  0.00  0.00    -0.074 A 
ATOM      7  C6  UNL d   1       1.209   4.584  -0.654  0.00  0.00     0.077 C 
ATOM      8  C7  UNL d   1       2.812   2.694  -0.247  0.00  0.00    -0.001 A 
ENDROOT
TORSDOF 0
ENDMDL
