MODEL 1
REMARK minimizedAffinity -0.165499613
REMARK minimizedRMSD -1
REMARK  0 active torsions:
REMARK  status: ('A' for Active; 'I' for Inactive)
ROOT
ATOM      1  C   UNL d   1       1.266   0.479   1.389  0.00  0.00     0.077 C 
ATOM      2  C1  UNL d   1       0.904  -0.409   0.236  0.00  0.00    -0.074 A 
ATOM      3  C2  UNL d   1      -0.374  -0.368  -0.330  0.00  0.00    -0.005 A 
ATOM      4  C3  UNL d   1      -0.692  -1.193  -1.409  0.00  0.00     0.006 A 
ATOM      5  C4  UNL d   1       0.263  -2.065  -1.932  0.00  0.00    -0.005 A 
ATOM      6  C5  UNL d   1       1.546  -2.120  -1.380  0.00  0.00    -0.074 A 
ATOM      7  C6  UNL d   1       2.587  -3.045  -1.936  0.00  0.00     0.077 C 
ATOM      8  C7  UNL d   1       1.861  -1.283  -0.300  0.00  0.00    -0.001 A 
ENDROOT
TORSDOF 0
ENDMDL
