MODEL 1
REMARK minimizedAffinity -2.7291491
REMARK minimizedRMSD -1
REMARK  0 active torsions:
REMARK  status: ('A' for Active; 'I' for Inactive)
ROOT
ATOM      1  N1  IND d   1       0.319  -0.566  -0.459  0.00  0.00    -0.196 N 
ATOM      2  C2  IND d   1      -0.886  -0.337   0.145  0.00  0.00     0.054 A 
ATOM      3  C3  IND d   1      -0.741   0.541   1.164  0.00  0.00    -0.031 A 
ATOM      4  C4  IND d   1       1.360   1.803   1.950  0.00  0.00     0.051 A 
ATOM      5  C5  IND d   1       2.706   1.896   1.731  0.00  0.00    -0.031 A 
ATOM      6  C6  IND d   1       3.337   1.160   0.749  0.00  0.00     0.015 A 
ATOM      7  C7  IND d   1       2.641   0.308  -0.061  0.00  0.00    -0.016 A 
ATOM      8  C8  IND d   1       1.275   0.206   0.163  0.00  0.00    -0.047 A 
ATOM      9  C9  IND d   1       0.636   0.919   1.186  0.00  0.00    -0.096 A 
ATOM     10  HN1 IND d   1       0.456  -1.103  -1.116  0.00  0.00     0.298 HD
ENDROOT
TORSDOF 0
ENDMDL
