MODEL 1
REMARK minimizedAffinity 2.35669589
REMARK minimizedRMSD -1
REMARK  0 active torsions:
REMARK  status: ('A' for Active; 'I' for Inactive)
ROOT
ATOM      1  N1  IND d   1       3.017   0.058  -0.189  0.00  0.00    -0.196 N 
ATOM      2  C2  IND d   1       3.994   0.652   0.560  0.00  0.00     0.054 A 
ATOM      3  C3  IND d   1       3.445   1.393   1.548  0.00  0.00    -0.031 A 
ATOM      4  C4  IND d   1       0.968   1.694   2.182  0.00  0.00     0.051 A 
ATOM      5  C5  IND d   1      -0.296   1.379   1.768  0.00  0.00    -0.031 A 
ATOM      6  C6  IND d   1      -0.525   0.589   0.660  0.00  0.00     0.015 A 
ATOM      7  C7  IND d   1       0.507   0.073  -0.072  0.00  0.00    -0.016 A 
ATOM      8  C8  IND d   1       1.792   0.397   0.341  0.00  0.00    -0.047 A 
ATOM      9  C9  IND d   1       2.029   1.233   1.439  0.00  0.00    -0.096 A 
ATOM     10  HN1 IND d   1       3.146  -0.442  -0.877  0.00  0.00     0.298 HD
ENDROOT
TORSDOF 0
ENDMDL
