MODEL 1
REMARK minimizedAffinity -4.00918674
REMARK minimizedRMSD -1
REMARK  0 active torsions:
REMARK  status: ('A' for Active; 'I' for Inactive)
ROOT
ATOM      1  N1  IND d   1       0.448  -0.157  -1.078  0.00  0.00    -0.196 N 
ATOM      2  C2  IND d   1      -0.465  -1.174  -1.057  0.00  0.00     0.054 A 
ATOM      3  C3  IND d   1      -1.079  -1.230   0.146  0.00  0.00    -0.031 A 
ATOM      4  C4  IND d   1      -0.816   0.313   2.190  0.00  0.00     0.051 A 
ATOM      5  C5  IND d   1      -0.075   1.361   2.660  0.00  0.00    -0.031 A 
ATOM      6  C6  IND d   1       0.895   1.970   1.892  0.00  0.00     0.015 A 
ATOM      7  C7  IND d   1       1.155   1.560   0.615  0.00  0.00    -0.016 A 
ATOM      8  C8  IND d   1       0.410   0.492   0.137  0.00  0.00    -0.047 A 
ATOM      9  C9  IND d   1      -0.547  -0.158   0.927  0.00  0.00    -0.096 A 
ATOM     10  HN1 IND d   1       0.961   0.044  -1.739  0.00  0.00     0.298 HD
ENDROOT
TORSDOF 0
ENDMDL
