MODEL 1
REMARK minimizedAffinity -3.51859212
REMARK minimizedRMSD -1
REMARK  0 active torsions:
REMARK  status: ('A' for Active; 'I' for Inactive)
ROOT
ATOM      1  N1  IND d   1      -0.104   1.559   0.768  0.00  0.00    -0.196 N 
ATOM      2  C2  IND d   1       1.041   2.161   0.325  0.00  0.00     0.054 A 
ATOM      3  C3  IND d   1       1.689   1.356  -0.546  0.00  0.00    -0.031 A 
ATOM      4  C4  IND d   1       1.001  -0.947  -1.468  0.00  0.00     0.051 A 
ATOM      5  C5  IND d   1       0.054  -1.922  -1.332  0.00  0.00    -0.031 A 
ATOM      6  C6  IND d   1      -1.017  -1.783  -0.473  0.00  0.00     0.015 A 
ATOM      7  C7  IND d   1      -1.188  -0.654   0.276  0.00  0.00    -0.016 A 
ATOM      8  C8  IND d   1      -0.225   0.336   0.145  0.00  0.00    -0.047 A 
ATOM      9  C9  IND d   1       0.888   0.183  -0.693  0.00  0.00    -0.096 A 
ATOM     10  HN1 IND d   1      -0.656   1.889   1.339  0.00  0.00     0.298 HD
ENDROOT
TORSDOF 0
ENDMDL
