MODEL 1
REMARK minimizedAffinity -3.81396627
REMARK minimizedRMSD -1
REMARK  0 active torsions:
REMARK  status: ('A' for Active; 'I' for Inactive)
ROOT
ATOM      1  N1  IND d   1       0.067   0.431  -1.343  0.00  0.00    -0.196 N 
ATOM      2  C2  IND d   1      -0.370  -0.859  -1.217  0.00  0.00     0.054 A 
ATOM      3  C3  IND d   1      -0.643  -1.139   0.077  0.00  0.00    -0.031 A 
ATOM      4  C4  IND d   1      -0.543   0.399   2.139  0.00  0.00     0.051 A 
ATOM      5  C5  IND d   1      -0.167   1.653   2.530  0.00  0.00    -0.031 A 
ATOM      6  C6  IND d   1       0.314   2.584   1.632  0.00  0.00     0.015 A 
ATOM      7  C7  IND d   1       0.426   2.297   0.301  0.00  0.00    -0.016 A 
ATOM      8  C8  IND d   1       0.052   1.022  -0.099  0.00  0.00    -0.047 A 
ATOM      9  C9  IND d   1      -0.397   0.059   0.815  0.00  0.00    -0.096 A 
ATOM     10  HN1 IND d   1       0.311   0.808  -2.076  0.00  0.00     0.298 HD
ENDROOT
TORSDOF 0
ENDMDL
