MODEL 1
REMARK minimizedAffinity -5.65156364
REMARK minimizedRMSD -1
REMARK  0 active torsions:
REMARK  status: ('A' for Active; 'I' for Inactive)
ROOT
ATOM      1  N1  IND d   1       0.347   0.337  -1.340  0.00  0.00    -0.196 N 
ATOM      2  C2  IND d   1      -0.509  -0.727  -1.399  0.00  0.00     0.054 A 
ATOM      3  C3  IND d   1      -1.000  -1.006  -0.170  0.00  0.00    -0.031 A 
ATOM      4  C4  IND d   1      -0.613   0.219   2.061  0.00  0.00     0.051 A 
ATOM      5  C5  IND d   1       0.118   1.227   2.624  0.00  0.00    -0.031 A 
ATOM      6  C6  IND d   1       0.978   2.008   1.879  0.00  0.00     0.015 A 
ATOM      7  C7  IND d   1       1.131   1.815   0.535  0.00  0.00    -0.016 A 
ATOM      8  C8  IND d   1       0.396   0.788  -0.039  0.00  0.00    -0.047 A 
ATOM      9  C9  IND d   1      -0.446  -0.035   0.720  0.00  0.00    -0.096 A 
ATOM     10  HN1 IND d   1       0.782   0.669  -2.003  0.00  0.00     0.298 HD
ENDROOT
TORSDOF 0
ENDMDL
