MODEL 1
REMARK minimizedAffinity -3.91794753
REMARK minimizedRMSD -1
REMARK  0 active torsions:
REMARK  status: ('A' for Active; 'I' for Inactive)
ROOT
ATOM      1  N1  IND d   1      -5.438  -2.580  -2.012  0.00  0.00    -0.196 N 
ATOM      2  C2  IND d   1      -5.452  -3.268  -0.830  0.00  0.00     0.054 A 
ATOM      3  C3  IND d   1      -4.213  -3.301  -0.291  0.00  0.00    -0.031 A 
ATOM      4  C4  IND d   1      -2.037  -2.207  -1.125  0.00  0.00     0.051 A 
ATOM      5  C5  IND d   1      -1.518  -1.506  -2.177  0.00  0.00    -0.031 A 
ATOM      6  C6  IND d   1      -2.295  -1.118  -3.249  0.00  0.00     0.015 A 
ATOM      7  C7  IND d   1      -3.630  -1.407  -3.302  0.00  0.00    -0.016 A 
ATOM      8  C8  IND d   1      -4.158  -2.124  -2.239  0.00  0.00    -0.047 A 
ATOM      9  C9  IND d   1      -3.365  -2.558  -1.169  0.00  0.00    -0.096 A 
ATOM     10  HN1 IND d   1      -6.115  -2.454  -2.527  0.00  0.00     0.298 HD
ENDROOT
TORSDOF 0
ENDMDL
