MODEL 1
REMARK minimizedAffinity -5.79841709
REMARK minimizedRMSD -1
REMARK  0 active torsions:
REMARK  status: ('A' for Active; 'I' for Inactive)
ROOT
ATOM      1  N1  IND d   1      -1.357   1.904   3.165  0.00  0.00    -0.196 N 
ATOM      2  C2  IND d   1      -2.121   0.793   2.945  0.00  0.00     0.054 A 
ATOM      3  C3  IND d   1      -1.628   0.081   1.906  0.00  0.00    -0.031 A 
ATOM      4  C4  IND d   1       0.480   0.501   0.490  0.00  0.00     0.051 A 
ATOM      5  C5  IND d   1       1.481   1.410   0.292  0.00  0.00    -0.031 A 
ATOM      6  C6  IND d   1       1.591   2.552   1.059  0.00  0.00     0.015 A 
ATOM      7  C7  IND d   1       0.707   2.823   2.064  0.00  0.00    -0.016 A 
ATOM      8  C8  IND d   1      -0.315   1.906   2.264  0.00  0.00    -0.047 A 
ATOM      9  C9  IND d   1      -0.457   0.767   1.461  0.00  0.00    -0.096 A 
ATOM     10  HN1 IND d   1      -1.502   2.502   3.766  0.00  0.00     0.298 HD
ENDROOT
TORSDOF 0
ENDMDL
