MODEL 1
REMARK minimizedAffinity -1.05987883
REMARK minimizedRMSD -1
REMARK  0 active torsions:
REMARK  status: ('A' for Active; 'I' for Inactive)
ROOT
ATOM      1  N1  IND d   1      -0.995  -1.714   0.004  0.00  0.00    -0.196 N 
ATOM      2  C2  IND d   1      -0.314  -0.541   0.167  0.00  0.00     0.054 A 
ATOM      3  C3  IND d   1      -0.412   0.219  -0.947  0.00  0.00    -0.031 A 
ATOM      4  C4  IND d   1      -1.726  -0.222  -3.117  0.00  0.00     0.051 A 
ATOM      5  C5  IND d   1      -2.474  -1.176  -3.748  0.00  0.00    -0.031 A 
ATOM      6  C6  IND d   1      -2.776  -2.381  -3.147  0.00  0.00     0.015 A 
ATOM      7  C7  IND d   1      -2.348  -2.674  -1.883  0.00  0.00    -0.016 A 
ATOM      8  C8  IND d   1      -1.583  -1.711  -1.242  0.00  0.00    -0.047 A 
ATOM      9  C9  IND d   1      -1.237  -0.503  -1.863  0.00  0.00    -0.096 A 
ATOM     10  HN1 IND d   1      -1.048  -2.348   0.583  0.00  0.00     0.298 HD
ENDROOT
TORSDOF 0
ENDMDL
