MODEL 1
REMARK minimizedAffinity -3.61308336
REMARK minimizedRMSD -1
REMARK  0 active torsions:
REMARK  status: ('A' for Active; 'I' for Inactive)
ROOT
ATOM      1  N1  IND d   1       0.428  -0.179  -0.535  0.00  0.00    -0.196 N 
ATOM      2  C2  IND d   1      -0.137   0.055   0.687  0.00  0.00     0.054 A 
ATOM      3  C3  IND d   1      -1.391  -0.449   0.730  0.00  0.00    -0.031 A 
ATOM      4  C4  IND d   1      -2.678  -1.785  -1.054  0.00  0.00     0.051 A 
ATOM      5  C5  IND d   1      -2.590  -2.219  -2.348  0.00  0.00    -0.031 A 
ATOM      6  C6  IND d   1      -1.467  -1.992  -3.117  0.00  0.00     0.015 A 
ATOM      7  C7  IND d   1      -0.382  -1.330  -2.617  0.00  0.00    -0.016 A 
ATOM      8  C8  IND d   1      -0.471  -0.883  -1.306  0.00  0.00    -0.047 A 
ATOM      9  C9  IND d   1      -1.624  -1.073  -0.534  0.00  0.00    -0.096 A 
ATOM     10  HN1 IND d   1       1.213   0.072  -0.782  0.00  0.00     0.298 HD
ENDROOT
TORSDOF 0
ENDMDL
