MODEL 1
REMARK minimizedAffinity -3.43582153
REMARK minimizedRMSD -1
REMARK  0 active torsions:
REMARK  status: ('A' for Active; 'I' for Inactive)
ROOT
ATOM      1  N1  IND d   1       0.128  -0.361  -1.432  0.00  0.00    -0.196 N 
ATOM      2  C2  IND d   1      -0.889  -1.233  -1.158  0.00  0.00     0.054 A 
ATOM      3  C3  IND d   1      -1.427  -0.964   0.053  0.00  0.00    -0.031 A 
ATOM      4  C4  IND d   1      -0.862   0.924   1.709  0.00  0.00     0.051 A 
ATOM      5  C5  IND d   1       0.019   1.948   1.916  0.00  0.00    -0.031 A 
ATOM      6  C6  IND d   1       1.000   2.263   0.997  0.00  0.00     0.015 A 
ATOM      7  C7  IND d   1       1.129   1.569  -0.173  0.00  0.00    -0.016 A 
ATOM      8  C8  IND d   1       0.240   0.524  -0.382  0.00  0.00    -0.047 A 
ATOM      9  C9  IND d   1      -0.730   0.173   0.565  0.00  0.00    -0.096 A 
ATOM     10  HN1 IND d   1       0.615  -0.366  -2.140  0.00  0.00     0.298 HD
ENDROOT
TORSDOF 0
ENDMDL
