MODEL 1
REMARK minimizedAffinity -4.90391207
REMARK minimizedRMSD -1
REMARK  0 active torsions:
REMARK  status: ('A' for Active; 'I' for Inactive)
ROOT
ATOM      1  N1  IND d   1       0.742   2.022   1.455  0.00  0.00    -0.196 N 
ATOM      2  C2  IND d   1       1.808   2.369   0.673  0.00  0.00     0.054 A 
ATOM      3  C3  IND d   1       2.000   1.446  -0.296  0.00  0.00    -0.031 A 
ATOM      4  C4  IND d   1       0.622  -0.658  -0.847  0.00  0.00     0.051 A 
ATOM      5  C5  IND d   1      -0.423  -1.411  -0.391  0.00  0.00    -0.031 A 
ATOM      6  C6  IND d   1      -1.150  -1.050   0.725  0.00  0.00     0.015 A 
ATOM      7  C7  IND d   1      -0.864   0.090   1.423  0.00  0.00    -0.016 A 
ATOM      8  C8  IND d   1       0.201   0.853   0.966  0.00  0.00    -0.047 A 
ATOM      9  C9  IND d   1       0.969   0.469  -0.140  0.00  0.00    -0.096 A 
ATOM     10  HN1 IND d   1       0.457   2.461   2.138  0.00  0.00     0.298 HD
ENDROOT
TORSDOF 0
ENDMDL
