MODEL 1
REMARK minimizedAffinity -3.99374366
REMARK minimizedRMSD -1
REMARK  0 active torsions:
REMARK  status: ('A' for Active; 'I' for Inactive)
ROOT
ATOM      1  N1  IND d   1       1.040  -0.799  -0.658  0.00  0.00    -0.196 N 
ATOM      2  C2  IND d   1      -0.322  -0.744  -0.553  0.00  0.00     0.054 A 
ATOM      3  C3  IND d   1      -0.697   0.366   0.121  0.00  0.00    -0.031 A 
ATOM      4  C4  IND d   1       0.749   2.281   1.054  0.00  0.00     0.051 A 
ATOM      5  C5  IND d   1       2.050   2.659   1.233  0.00  0.00    -0.031 A 
ATOM      6  C6  IND d   1       3.102   1.890   0.780  0.00  0.00     0.015 A 
ATOM      7  C7  IND d   1       2.891   0.714   0.117  0.00  0.00    -0.016 A 
ATOM      8  C8  IND d   1       1.571   0.323  -0.061  0.00  0.00    -0.047 A 
ATOM      9  C9  IND d   1       0.501   1.079   0.435  0.00  0.00    -0.096 A 
ATOM     10  HN1 IND d   1       1.489  -1.428  -1.034  0.00  0.00     0.298 HD
ENDROOT
TORSDOF 0
ENDMDL
