MODEL 1
REMARK minimizedAffinity -3.48598456
REMARK minimizedRMSD -1
REMARK  0 active torsions:
REMARK  status: ('A' for Active; 'I' for Inactive)
ROOT
ATOM      1  N1  IND d   1       2.380   0.838  -0.427  0.00  0.00    -0.196 N 
ATOM      2  C2  IND d   1       3.287   1.630   0.221  0.00  0.00     0.054 A 
ATOM      3  C3  IND d   1       2.695   2.279   1.249  0.00  0.00    -0.031 A 
ATOM      4  C4  IND d   1       0.275   2.112   2.111  0.00  0.00     0.051 A 
ATOM      5  C5  IND d   1      -0.935   1.547   1.822  0.00  0.00    -0.031 A 
ATOM      6  C6  IND d   1      -1.105   0.697   0.749  0.00  0.00     0.015 A 
ATOM      7  C7  IND d   1      -0.063   0.370  -0.073  0.00  0.00    -0.016 A 
ATOM      8  C8  IND d   1       1.166   0.948   0.213  0.00  0.00    -0.047 A 
ATOM      9  C9  IND d   1       1.334   1.845   1.276  0.00  0.00    -0.096 A 
ATOM     10  HN1 IND d   1       2.542   0.352  -1.118  0.00  0.00     0.298 HD
ENDROOT
TORSDOF 0
ENDMDL
