MODEL 1
REMARK minimizedAffinity -6.45341015
REMARK minimizedRMSD -1
REMARK  0 active torsions:
REMARK  status: ('A' for Active; 'I' for Inactive)
ROOT
ATOM      1  N1  IND d   1       0.687  -1.133  -0.251  0.00  0.00    -0.196 N 
ATOM      2  C2  IND d   1      -0.547  -1.097   0.337  0.00  0.00     0.054 A 
ATOM      3  C3  IND d   1      -0.714   0.066   1.006  0.00  0.00    -0.031 A 
ATOM      4  C4  IND d   1       0.864   2.092   1.185  0.00  0.00     0.051 A 
ATOM      5  C5  IND d   1       2.119   2.513   0.847  0.00  0.00    -0.031 A 
ATOM      6  C6  IND d   1       2.978   1.725   0.107  0.00  0.00     0.015 A 
ATOM      7  C7  IND d   1       2.607   0.486  -0.332  0.00  0.00    -0.016 A 
ATOM      8  C8  IND d   1       1.335   0.052   0.016  0.00  0.00    -0.047 A 
ATOM      9  C9  IND d   1       0.476   0.830   0.802  0.00  0.00    -0.096 A 
ATOM     10  HN1 IND d   1       1.004  -1.787  -0.711  0.00  0.00     0.298 HD
ENDROOT
TORSDOF 0
ENDMDL
