MODEL 1
REMARK minimizedAffinity -1.27021337
REMARK minimizedRMSD -1
REMARK  0 active torsions:
REMARK  status: ('A' for Active; 'I' for Inactive)
ROOT
ATOM      1  N1  IND d   1      -0.373  -0.798  -0.535  0.00  0.00    -0.196 N 
ATOM      2  C2  IND d   1       0.642  -0.431  -1.374  0.00  0.00     0.054 A 
ATOM      3  C3  IND d   1       1.379   0.557  -0.817  0.00  0.00    -0.031 A 
ATOM      4  C4  IND d   1       1.159   1.652   1.502  0.00  0.00     0.051 A 
ATOM      5  C5  IND d   1       0.361   1.675   2.611  0.00  0.00    -0.031 A 
ATOM      6  C6  IND d   1      -0.743   0.857   2.732  0.00  0.00     0.015 A 
ATOM      7  C7  IND d   1      -1.086  -0.028   1.748  0.00  0.00    -0.016 A 
ATOM      8  C8  IND d   1      -0.282  -0.049   0.618  0.00  0.00    -0.047 A 
ATOM      9  C9  IND d   1       0.816   0.810   0.471  0.00  0.00    -0.096 A 
ATOM     10  HN1 IND d   1      -0.968  -1.396  -0.699  0.00  0.00     0.298 HD
ENDROOT
TORSDOF 0
ENDMDL
