MODEL 1
REMARK minimizedAffinity -3.03106952
REMARK minimizedRMSD -1
REMARK  0 active torsions:
REMARK  status: ('A' for Active; 'I' for Inactive)
ROOT
ATOM      1  N1  IND d   1      -0.073  -0.796   0.486  0.00  0.00    -0.196 N 
ATOM      2  C2  IND d   1       0.517  -1.165  -0.691  0.00  0.00     0.054 A 
ATOM      3  C3  IND d   1       1.274  -0.154  -1.174  0.00  0.00    -0.031 A 
ATOM      4  C4  IND d   1       1.770   2.153  -0.146  0.00  0.00     0.051 A 
ATOM      5  C5  IND d   1       1.430   2.961   0.902  0.00  0.00    -0.031 A 
ATOM      6  C6  IND d   1       0.556   2.549   1.887  0.00  0.00     0.015 A 
ATOM      7  C7  IND d   1      -0.004   1.303   1.866  0.00  0.00    -0.016 A 
ATOM      8  C8  IND d   1       0.333   0.482   0.799  0.00  0.00    -0.047 A 
ATOM      9  C9  IND d   1       1.187   0.911  -0.226  0.00  0.00    -0.096 A 
ATOM     10  HN1 IND d   1      -0.608  -1.282   0.953  0.00  0.00     0.298 HD
ENDROOT
TORSDOF 0
ENDMDL
