MODEL 1
REMARK minimizedAffinity -2.26371026
REMARK minimizedRMSD -1
REMARK  0 active torsions:
REMARK  status: ('A' for Active; 'I' for Inactive)
ROOT
ATOM      1  N1  IND d   1       0.994   0.361  -0.818  0.00  0.00    -0.196 N 
ATOM      2  C2  IND d   1       0.143  -0.659  -1.140  0.00  0.00     0.054 A 
ATOM      3  C3  IND d   1      -0.789  -0.817  -0.173  0.00  0.00    -0.031 A 
ATOM      4  C4  IND d   1      -1.166   0.551   1.975  0.00  0.00     0.051 A 
ATOM      5  C5  IND d   1      -0.621   1.560   2.719  0.00  0.00    -0.031 A 
ATOM      6  C6  IND d   1       0.511   2.236   2.312  0.00  0.00     0.015 A 
ATOM      7  C7  IND d   1       1.137   1.935   1.136  0.00  0.00    -0.016 A 
ATOM      8  C8  IND d   1       0.591   0.906   0.381  0.00  0.00    -0.047 A 
ATOM      9  C9  IND d   1      -0.533   0.188   0.809  0.00  0.00    -0.096 A 
ATOM     10  HN1 IND d   1       1.668   0.619  -1.286  0.00  0.00     0.298 HD
ENDROOT
TORSDOF 0
ENDMDL
