MODEL 1
REMARK minimizedAffinity 7.95911837
REMARK minimizedRMSD -1
REMARK  1 active torsions:
REMARK  status: ('A' for Active; 'I' for Inactive)
REMARK    1  A    between atoms: N_2  and  C1_3 
ROOT
ATOM      1  C1  UNL d   1       3.179  -5.579  -0.498  0.00  0.00     0.143 A 
ATOM      2  C2  UNL d   1       1.909  -6.000  -0.090  0.00  0.00    -0.057 A 
ATOM      3  C3  UNL d   1       0.748  -5.467  -0.665  0.00  0.00     0.033 A 
ATOM      4  C4  UNL d   1       0.838  -4.479  -1.640  0.00  0.00    -0.042 A 
ATOM      5  C5  UNL d   1       2.090  -4.028  -2.043  0.00  0.00     0.033 A 
ATOM      6  C6  UNL d   1       3.245  -4.569  -1.471  0.00  0.00    -0.057 A 
ENDROOT
BRANCH   1   7
ATOM      7  N   UNL d   1       4.368  -5.999   0.103  0.00  0.00    -0.732 N 
ATOM      8  C   UNL d   1       4.505  -6.000   1.544  0.00  0.00     0.284 C 
ATOM      9  H3  UNL d   1       4.766  -6.817  -0.353  0.00  0.00     0.395 HD
ENDBRANCH   1   7
TORSDOF 1
ENDMDL
