MODEL 1
REMARK minimizedAffinity 1.43968332
REMARK minimizedRMSD -1
REMARK  1 active torsions:
REMARK  status: ('A' for Active; 'I' for Inactive)
REMARK    1  A    between atoms: N_2  and  C1_3 
ROOT
ATOM      1  C1  UNL d   1      -0.423   1.273  -0.538  0.00  0.00     0.143 A 
ATOM      2  C2  UNL d   1      -0.435   1.353   0.859  0.00  0.00    -0.057 A 
ATOM      3  C3  UNL d   1       0.422   0.567   1.638  0.00  0.00     0.033 A 
ATOM      4  C4  UNL d   1       1.288  -0.338   1.034  0.00  0.00    -0.042 A 
ATOM      5  C5  UNL d   1       1.299  -0.453  -0.352  0.00  0.00     0.033 A 
ATOM      6  C6  UNL d   1       0.446   0.340  -1.125  0.00  0.00    -0.057 A 
ENDROOT
BRANCH   1   7
ATOM      7  N   UNL d   1      -1.319   1.956  -1.364  0.00  0.00    -0.732 N 
ATOM      8  C   UNL d   1      -2.574   1.350  -1.751  0.00  0.00     0.284 C 
ATOM      9  H3  UNL d   1      -1.390   2.943  -1.127  0.00  0.00     0.395 HD
ENDBRANCH   1   7
TORSDOF 1
ENDMDL
