MODEL 1
REMARK minimizedAffinity 2.20823479
REMARK minimizedRMSD -1
REMARK  1 active torsions:
REMARK  status: ('A' for Active; 'I' for Inactive)
REMARK    1  A    between atoms: N_2  and  C1_3 
ROOT
ATOM      1  C1  UNL d   1      -4.111   2.074  -4.519  0.00  0.00     0.143 A 
ATOM      2  C2  UNL d   1      -3.525   2.043  -3.249  0.00  0.00    -0.057 A 
ATOM      3  C3  UNL d   1      -3.173   0.831  -2.641  0.00  0.00     0.033 A 
ATOM      4  C4  UNL d   1      -3.429  -0.376  -3.283  0.00  0.00    -0.042 A 
ATOM      5  C5  UNL d   1      -4.033  -0.370  -4.535  0.00  0.00     0.033 A 
ATOM      6  C6  UNL d   1      -4.376   0.843  -5.140  0.00  0.00    -0.057 A 
ENDROOT
BRANCH   1   7
ATOM      7  N   UNL d   1      -4.573   3.240  -5.135  0.00  0.00    -0.732 N 
ATOM      8  C   UNL d   1      -5.506   4.112  -4.454  0.00  0.00     0.284 C 
ATOM      9  H3  UNL d   1      -3.838   3.730  -5.640  0.00  0.00     0.395 HD
ENDBRANCH   1   7
TORSDOF 1
ENDMDL
