MODEL 1
REMARK minimizedAffinity 6.0065341
REMARK minimizedRMSD -1
REMARK  1 active torsions:
REMARK  status: ('A' for Active; 'I' for Inactive)
REMARK    1  A    between atoms: N_2  and  C1_3 
ROOT
ATOM      1  C1  UNL d   1       0.351  -1.979   0.257  0.00  0.00     0.143 A 
ATOM      2  C2  UNL d   1       1.540  -1.456   0.775  0.00  0.00    -0.057 A 
ATOM      3  C3  UNL d   1       1.599  -0.153   1.285  0.00  0.00     0.033 A 
ATOM      4  C4  UNL d   1       0.472   0.662   1.258  0.00  0.00    -0.042 A 
ATOM      5  C5  UNL d   1      -0.714   0.171   0.724  0.00  0.00     0.033 A 
ATOM      6  C6  UNL d   1      -0.768  -1.133   0.224  0.00  0.00    -0.057 A 
ENDROOT
BRANCH   1   7
ATOM      7  N   UNL d   1       0.254  -3.232  -0.353  0.00  0.00    -0.732 N 
ATOM      8  C   UNL d   1      -0.858  -3.542  -1.227  0.00  0.00     0.284 C 
ATOM      9  H3  UNL d   1       1.153  -3.572  -0.688  0.00  0.00     0.395 HD
ENDBRANCH   1   7
TORSDOF 1
ENDMDL
