MODEL 1
REMARK minimizedAffinity 11.3117809
REMARK minimizedRMSD -1
REMARK  1 active torsions:
REMARK  status: ('A' for Active; 'I' for Inactive)
REMARK    1  A    between atoms: N_2  and  C1_3 
ROOT
ATOM      1  C1  UNL d   1       0.246   0.673   0.749  0.00  0.00     0.143 A 
ATOM      2  C2  UNL d   1      -0.729  -0.189   1.261  0.00  0.00    -0.057 A 
ATOM      3  C3  UNL d   1      -0.409  -1.161   2.217  0.00  0.00     0.033 A 
ATOM      4  C4  UNL d   1       0.903  -1.307   2.657  0.00  0.00    -0.042 A 
ATOM      5  C5  UNL d   1       1.893  -0.477   2.143  0.00  0.00     0.033 A 
ATOM      6  C6  UNL d   1       1.566   0.496   1.193  0.00  0.00    -0.057 A 
ENDROOT
BRANCH   1   7
ATOM      7  N   UNL d   1       0.010   1.594  -0.276  0.00  0.00    -0.732 N 
ATOM      8  C   UNL d   1      -1.261   1.617  -0.967  0.00  0.00     0.284 C 
ATOM      9  H3  UNL d   1       0.384   2.516  -0.063  0.00  0.00     0.395 HD
ENDBRANCH   1   7
TORSDOF 1
ENDMDL
