MODEL 1
REMARK minimizedAffinity 2.59946465
REMARK minimizedRMSD -1
REMARK  1 active torsions:
REMARK  status: ('A' for Active; 'I' for Inactive)
REMARK    1  A    between atoms: N_2  and  C1_3 
ROOT
ATOM      1  C1  UNL d   1       0.652   0.306   0.291  0.00  0.00     0.143 A 
ATOM      2  C2  UNL d   1       1.728  -0.571   0.466  0.00  0.00    -0.057 A 
ATOM      3  C3  UNL d   1       2.160  -0.944   1.745  0.00  0.00     0.033 A 
ATOM      4  C4  UNL d   1       1.540  -0.422   2.875  0.00  0.00    -0.042 A 
ATOM      5  C5  UNL d   1       0.485   0.471   2.725  0.00  0.00     0.033 A 
ATOM      6  C6  UNL d   1       0.053   0.834   1.446  0.00  0.00    -0.057 A 
ENDROOT
BRANCH   1   7
ATOM      7  N   UNL d   1       0.239   0.791  -0.952  0.00  0.00    -0.732 N 
ATOM      8  C   UNL d   1      -0.427   2.071  -1.058  0.00  0.00     0.284 C 
ATOM      9  H3  UNL d   1       0.923   0.616  -1.684  0.00  0.00     0.395 HD
ENDBRANCH   1   7
TORSDOF 1
ENDMDL
