MODEL 1
REMARK minimizedAffinity 0.610040307
REMARK minimizedRMSD -1
REMARK  1 active torsions:
REMARK  status: ('A' for Active; 'I' for Inactive)
REMARK    1  A    between atoms: N_2  and  C1_3 
ROOT
ATOM      1  C1  UNL d   1       0.619   0.786   0.181  0.00  0.00     0.143 A 
ATOM      2  C2  UNL d   1       1.316  -0.357   0.587  0.00  0.00    -0.057 A 
ATOM      3  C3  UNL d   1       1.676  -0.551   1.926  0.00  0.00     0.033 A 
ATOM      4  C4  UNL d   1       1.371   0.412   2.881  0.00  0.00    -0.042 A 
ATOM      5  C5  UNL d   1       0.701   1.568   2.497  0.00  0.00     0.033 A 
ATOM      6  C6  UNL d   1       0.338   1.753   1.159  0.00  0.00    -0.057 A 
ENDROOT
BRANCH   1   7
ATOM      7  N   UNL d   1       0.320   1.084  -1.150  0.00  0.00    -0.732 N 
ATOM      8  C   UNL d   1      -0.780   0.425  -1.823  0.00  0.00     0.284 C 
ATOM      9  H3  UNL d   1       0.396   2.078  -1.353  0.00  0.00     0.395 HD
ENDBRANCH   1   7
TORSDOF 1
ENDMDL
