MODEL 1
REMARK minimizedAffinity 3.60734582
REMARK minimizedRMSD -1
REMARK  1 active torsions:
REMARK  status: ('A' for Active; 'I' for Inactive)
REMARK    1  A    between atoms: C1_2  and  C2_3 
ROOT
ATOM      1  C2  UNL d   1       0.317  -2.544  -0.781  0.00  0.00    -0.073 A 
ATOM      2  C3  UNL d   1       1.457  -3.336  -0.606  0.00  0.00    -0.002 A 
ATOM      3  C4  UNL d   1       2.663  -2.756  -0.208  0.00  0.00     0.004 A 
ATOM      4  C5  UNL d   1       2.739  -1.383   0.025  0.00  0.00    -0.004 A 
ATOM      5  C6  UNL d   1       1.607  -0.577  -0.134  0.00  0.00    -0.075 A 
ATOM      6  C7  UNL d   1       1.672   0.902   0.110  0.00  0.00     0.076 C 
ATOM      7  C8  UNL d   1       0.400  -1.166  -0.536  0.00  0.00     0.001 A 
ENDROOT
BRANCH   1   8
ATOM      8  C1  UNL d   1      -0.989  -3.166  -1.205  0.00  0.00     0.053 C 
ATOM      9  C   UNL d   1      -0.886  -4.678  -1.328  0.00  0.00     0.018 C 
ENDBRANCH   1   8
TORSDOF 1
ENDMDL
