MODEL 1
REMARK minimizedAffinity 4.99375772
REMARK minimizedRMSD -1
REMARK  1 active torsions:
REMARK  status: ('A' for Active; 'I' for Inactive)
REMARK    1  A    between atoms: C1_2  and  C2_3 
ROOT
ATOM      1  C2  UNL d   1       3.035   0.777   0.965  0.00  0.00    -0.073 A 
ATOM      2  C3  UNL d   1       4.274   0.674   1.609  0.00  0.00    -0.002 A 
ATOM      3  C4  UNL d   1       4.863  -0.575   1.809  0.00  0.00     0.004 A 
ATOM      4  C5  UNL d   1       4.224  -1.732   1.363  0.00  0.00    -0.004 A 
ATOM      5  C6  UNL d   1       2.992  -1.649   0.707  0.00  0.00    -0.075 A 
ATOM      6  C7  UNL d   1       2.291  -2.885   0.222  0.00  0.00     0.076 C 
ATOM      7  C8  UNL d   1       2.406  -0.391   0.511  0.00  0.00     0.001 A 
ENDROOT
BRANCH   1   8
ATOM      8  C1  UNL d   1       2.399   2.124   0.740  0.00  0.00     0.053 C 
ATOM      9  C   UNL d   1       0.935   2.004   0.345  0.00  0.00     0.018 C 
ENDBRANCH   1   8
TORSDOF 1
ENDMDL
