MODEL 1
REMARK minimizedAffinity 2.63284898
REMARK minimizedRMSD -1
REMARK  1 active torsions:
REMARK  status: ('A' for Active; 'I' for Inactive)
REMARK    1  A    between atoms: C1_2  and  C2_3 
ROOT
ATOM      1  C2  UNL d   1       1.921   0.094   0.232  0.00  0.00    -0.073 A 
ATOM      2  C3  UNL d   1       1.566  -0.836   1.216  0.00  0.00    -0.002 A 
ATOM      3  C4  UNL d   1       1.803  -2.197   1.018  0.00  0.00     0.004 A 
ATOM      4  C5  UNL d   1       2.402  -2.640  -0.161  0.00  0.00    -0.004 A 
ATOM      5  C6  UNL d   1       2.775  -1.725  -1.151  0.00  0.00    -0.075 A 
ATOM      6  C7  UNL d   1       3.418  -2.187  -2.426  0.00  0.00     0.076 C 
ATOM      7  C8  UNL d   1       2.531  -0.361  -0.945  0.00  0.00     0.001 A 
ENDROOT
BRANCH   1   8
ATOM      8  C1  UNL d   1       1.674   1.565   0.445  0.00  0.00     0.053 C 
ATOM      9  C   UNL d   1       0.291   1.985  -0.028  0.00  0.00     0.018 C 
ENDBRANCH   1   8
TORSDOF 1
ENDMDL
