MODEL 1
REMARK minimizedAffinity -3.50549436
REMARK minimizedRMSD -1
REMARK  1 active torsions:
REMARK  status: ('A' for Active; 'I' for Inactive)
REMARK    1  A    between atoms: C1_2  and  C2_3 
ROOT
ATOM      1  C2  UNL d   1       1.344  -0.895  -0.065  0.00  0.00    -0.073 A 
ATOM      2  C3  UNL d   1       0.027  -1.223  -0.408  0.00  0.00    -0.002 A 
ATOM      3  C4  UNL d   1      -0.974  -0.251  -0.370  0.00  0.00     0.004 A 
ATOM      4  C5  UNL d   1      -0.669   1.058   0.004  0.00  0.00    -0.004 A 
ATOM      5  C6  UNL d   1       0.643   1.408   0.338  0.00  0.00    -0.075 A 
ATOM      6  C7  UNL d   1       0.988   2.810   0.744  0.00  0.00     0.076 C 
ATOM      7  C8  UNL d   1       1.643   0.426   0.300  0.00  0.00     0.001 A 
ENDROOT
BRANCH   1   8
ATOM      8  C1  UNL d   1       2.429  -1.939  -0.111  0.00  0.00     0.053 C 
ATOM      9  C   UNL d   1       3.598  -1.586   0.796  0.00  0.00     0.018 C 
ENDBRANCH   1   8
TORSDOF 1
ENDMDL
