MODEL 1
REMARK minimizedAffinity 0.623563826
REMARK minimizedRMSD -1
REMARK  1 active torsions:
REMARK  status: ('A' for Active; 'I' for Inactive)
REMARK    1  A    between atoms: C1_2  and  C2_3 
ROOT
ATOM      1  C2  UNL d   1       0.056  -2.627  -1.283  0.00  0.00    -0.073 A 
ATOM      2  C3  UNL d   1       0.281  -3.539  -0.246  0.00  0.00    -0.002 A 
ATOM      3  C4  UNL d   1       1.305  -3.319   0.676  0.00  0.00     0.004 A 
ATOM      4  C5  UNL d   1       2.108  -2.184   0.576  0.00  0.00    -0.004 A 
ATOM      5  C6  UNL d   1       1.891  -1.254  -0.447  0.00  0.00    -0.075 A 
ATOM      6  C7  UNL d   1       2.749  -0.029  -0.570  0.00  0.00     0.076 C 
ATOM      7  C8  UNL d   1       0.863  -1.483  -1.371  0.00  0.00     0.001 A 
ENDROOT
BRANCH   1   8
ATOM      8  C1  UNL d   1      -1.053  -2.856  -2.278  0.00  0.00     0.053 C 
ATOM      9  C   UNL d   1      -1.469  -4.317  -2.341  0.00  0.00     0.018 C 
ENDBRANCH   1   8
TORSDOF 1
ENDMDL
