MODEL 1
REMARK minimizedAffinity 6.43018389
REMARK minimizedRMSD -1
REMARK  1 active torsions:
REMARK  status: ('A' for Active; 'I' for Inactive)
REMARK    1  A    between atoms: C1_2  and  C2_3 
ROOT
ATOM      1  C2  UNL d   1      -1.652   1.920   2.234  0.00  0.00    -0.073 A 
ATOM      2  C3  UNL d   1      -0.973   1.530   3.394  0.00  0.00    -0.002 A 
ATOM      3  C4  UNL d   1       0.417   1.412   3.390  0.00  0.00     0.004 A 
ATOM      4  C5  UNL d   1       1.143   1.689   2.232  0.00  0.00    -0.004 A 
ATOM      5  C6  UNL d   1       0.483   2.092   1.066  0.00  0.00    -0.075 A 
ATOM      6  C7  UNL d   1       1.248   2.391  -0.189  0.00  0.00     0.076 C 
ATOM      7  C8  UNL d   1      -0.914   2.205   1.076  0.00  0.00     0.001 A 
ENDROOT
BRANCH   1   8
ATOM      8  C1  UNL d   1      -3.153   2.056   2.235  0.00  0.00     0.053 C 
ATOM      9  C   UNL d   1      -3.600   3.444   2.663  0.00  0.00     0.018 C 
ENDBRANCH   1   8
TORSDOF 1
ENDMDL
