MODEL 1
REMARK minimizedAffinity 6.54575968
REMARK minimizedRMSD -1
REMARK  1 active torsions:
REMARK  status: ('A' for Active; 'I' for Inactive)
REMARK    1  A    between atoms: C1_2  and  C2_3 
ROOT
ATOM      1  C2  UNL d   1       0.815  -1.265  -0.337  0.00  0.00    -0.073 A 
ATOM      2  C3  UNL d   1       0.362   0.057  -0.416  0.00  0.00    -0.002 A 
ATOM      3  C4  UNL d   1      -0.547   0.433  -1.406  0.00  0.00     0.004 A 
ATOM      4  C5  UNL d   1      -1.017  -0.509  -2.321  0.00  0.00    -0.004 A 
ATOM      5  C6  UNL d   1      -0.586  -1.838  -2.251  0.00  0.00    -0.075 A 
ATOM      6  C7  UNL d   1      -1.080  -2.862  -3.230  0.00  0.00     0.076 C 
ATOM      7  C8  UNL d   1       0.329  -2.206  -1.256  0.00  0.00     0.001 A 
ENDROOT
BRANCH   1   8
ATOM      8  C1  UNL d   1       1.791  -1.677   0.734  0.00  0.00     0.053 C 
ATOM      9  C   UNL d   1       1.353  -1.212   2.114  0.00  0.00     0.018 C 
ENDBRANCH   1   8
TORSDOF 1
ENDMDL
