MODEL 1
REMARK minimizedAffinity -2.12631798
REMARK minimizedRMSD -1
REMARK  1 active torsions:
REMARK  status: ('A' for Active; 'I' for Inactive)
REMARK    1  A    between atoms: C1_2  and  C2_3 
ROOT
ATOM      1  C2  UNL d   1       0.669   0.440  -0.819  0.00  0.00    -0.073 A 
ATOM      2  C3  UNL d   1       2.002   0.097  -0.567  0.00  0.00    -0.002 A 
ATOM      3  C4  UNL d   1       2.423  -1.228  -0.684  0.00  0.00     0.004 A 
ATOM      4  C5  UNL d   1       1.519  -2.221  -1.062  0.00  0.00    -0.004 A 
ATOM      5  C6  UNL d   1       0.185  -1.896  -1.329  0.00  0.00    -0.075 A 
ATOM      6  C7  UNL d   1      -0.801  -2.953  -1.734  0.00  0.00     0.076 C 
ATOM      7  C8  UNL d   1      -0.231  -0.563  -1.206  0.00  0.00     0.001 A 
ENDROOT
BRANCH   1   8
ATOM      8  C1  UNL d   1       0.211   1.871  -0.699  0.00  0.00     0.053 C 
ATOM      9  C   UNL d   1      -0.120   2.246   0.737  0.00  0.00     0.018 C 
ENDBRANCH   1   8
TORSDOF 1
ENDMDL
