MODEL 1
REMARK minimizedAffinity 3.76306963
REMARK minimizedRMSD -1
REMARK  1 active torsions:
REMARK  status: ('A' for Active; 'I' for Inactive)
REMARK    1  A    between atoms: C1_2  and  C2_3 
ROOT
ATOM      1  C2  UNL d   1      -2.785   2.168   2.562  0.00  0.00    -0.073 A 
ATOM      2  C3  UNL d   1      -2.579   2.820   3.783  0.00  0.00    -0.002 A 
ATOM      3  C4  UNL d   1      -1.305   3.264   4.139  0.00  0.00     0.004 A 
ATOM      4  C5  UNL d   1      -0.226   3.067   3.276  0.00  0.00    -0.004 A 
ATOM      5  C6  UNL d   1      -0.414   2.429   2.047  0.00  0.00    -0.075 A 
ATOM      6  C7  UNL d   1       0.736   2.208   1.108  0.00  0.00     0.076 C 
ATOM      7  C8  UNL d   1      -1.696   1.983   1.697  0.00  0.00     0.001 A 
ENDROOT
BRANCH   1   8
ATOM      8  C1  UNL d   1      -4.160   1.692   2.170  0.00  0.00     0.053 C 
ATOM      9  C   UNL d   1      -4.106   0.613   1.101  0.00  0.00     0.018 C 
ENDBRANCH   1   8
TORSDOF 1
ENDMDL
