MODEL 1
REMARK minimizedAffinity 15.4177551
REMARK minimizedRMSD -1
REMARK  0 active torsions:
REMARK  status: ('A' for Active; 'I' for Inactive)
ROOT
ATOM      1  C   UNL d   1       3.336   1.923   0.903  0.00  0.00     0.124 A 
ATOM      2  C1  UNL d   1       3.123   2.817   1.943  0.00  0.00     0.062 A 
ATOM      3  C2  UNL d   1       3.881   3.981   2.031  0.00  0.00     0.162 A 
ATOM      4  C3  UNL d   1       4.859   4.258   1.075  0.00  0.00    -0.034 A 
ATOM      5  C4  UNL d   1       5.067   3.354   0.033  0.00  0.00     0.162 A 
ATOM      6  C5  UNL d   1       4.307   2.192  -0.051  0.00  0.00     0.062 A 
ATOM      7  F   UNL d   1       4.514   1.329  -1.057  0.00  0.00    -0.097 F 
ATOM      8  F1  UNL d   1       5.999   3.590  -0.903  0.00  0.00    -0.096 F 
ATOM      9  I   UNL d   1       5.994   5.998   1.204  0.00  0.00    -0.060 I 
ATOM     10  F2  UNL d   1       3.654   4.827   3.047  0.00  0.00    -0.096 F 
ATOM     11  F3  UNL d   1       2.186   2.559   2.866  0.00  0.00    -0.097 F 
ATOM     12  F4  UNL d   1       2.606   0.803   0.821  0.00  0.00    -0.092 F 
ENDROOT
TORSDOF 0
ENDMDL
