MODEL 1
REMARK minimizedAffinity 4.00509262
REMARK minimizedRMSD -1
REMARK  0 active torsions:
REMARK  status: ('A' for Active; 'I' for Inactive)
ROOT
ATOM      1  C   UNL d   1       1.287  -0.246  -1.635  0.00  0.00     0.124 A 
ATOM      2  C1  UNL d   1       0.379   0.784  -1.433  0.00  0.00     0.062 A 
ATOM      3  C2  UNL d   1      -0.581   0.685  -0.429  0.00  0.00     0.162 A 
ATOM      4  C3  UNL d   1      -0.636  -0.449   0.381  0.00  0.00    -0.034 A 
ATOM      5  C4  UNL d   1       0.280  -1.481   0.171  0.00  0.00     0.162 A 
ATOM      6  C5  UNL d   1       1.236  -1.377  -0.833  0.00  0.00     0.062 A 
ATOM      7  F   UNL d   1       2.113  -2.373  -1.027  0.00  0.00    -0.097 F 
ATOM      8  F1  UNL d   1       0.254  -2.585   0.932  0.00  0.00    -0.096 F 
ATOM      9  I   UNL d   1      -2.069  -0.601   1.883  0.00  0.00    -0.060 I 
ATOM     10  F2  UNL d   1      -1.445   1.696  -0.256  0.00  0.00    -0.096 F 
ATOM     11  F3  UNL d   1       0.424   1.878  -2.207  0.00  0.00    -0.097 F 
ATOM     12  F4  UNL d   1       2.208  -0.148  -2.602  0.00  0.00    -0.092 F 
ENDROOT
TORSDOF 0
ENDMDL
