MODEL 1
REMARK minimizedAffinity -2.82664967
REMARK minimizedRMSD -1
REMARK  0 active torsions:
REMARK  status: ('A' for Active; 'I' for Inactive)
ROOT
ATOM      1  C   UNL d   1       1.785  -0.415  -1.631  0.00  0.00     0.124 A 
ATOM      2  C1  UNL d   1       0.926   0.671  -1.719  0.00  0.00     0.062 A 
ATOM      3  C2  UNL d   1      -0.018   0.899  -0.721  0.00  0.00     0.162 A 
ATOM      4  C3  UNL d   1      -0.107   0.038   0.373  0.00  0.00    -0.034 A 
ATOM      5  C4  UNL d   1       0.761  -1.053   0.453  0.00  0.00     0.162 A 
ATOM      6  C5  UNL d   1       1.702  -1.276  -0.546  0.00  0.00     0.062 A 
ATOM      7  F   UNL d   1       2.532  -2.326  -0.460  0.00  0.00    -0.097 F 
ATOM      8  F1  UNL d   1       0.702  -1.900   1.492  0.00  0.00    -0.096 F 
ATOM      9  I   UNL d   1      -1.517   0.375   1.867  0.00  0.00    -0.060 I 
ATOM     10  F2  UNL d   1      -0.836   1.956  -0.832  0.00  0.00    -0.096 F 
ATOM     11  F3  UNL d   1       1.004   1.503  -2.767  0.00  0.00    -0.097 F 
ATOM     12  F4  UNL d   1       2.692  -0.633  -2.593  0.00  0.00    -0.092 F 
ENDROOT
TORSDOF 0
ENDMDL
