MODEL 1
REMARK minimizedAffinity 1.92928052
REMARK minimizedRMSD -1
REMARK  0 active torsions:
REMARK  status: ('A' for Active; 'I' for Inactive)
ROOT
ATOM      1  C   UNL d   1       2.709  -0.887  -1.315  0.00  0.00     0.124 A 
ATOM      2  C1  UNL d   1       2.447   0.416  -0.913  0.00  0.00     0.062 A 
ATOM      3  C2  UNL d   1       1.264   0.717  -0.245  0.00  0.00     0.162 A 
ATOM      4  C3  UNL d   1       0.334  -0.286   0.027  0.00  0.00    -0.034 A 
ATOM      5  C4  UNL d   1       0.604  -1.593  -0.380  0.00  0.00     0.162 A 
ATOM      6  C5  UNL d   1       1.788  -1.890  -1.048  0.00  0.00     0.062 A 
ATOM      7  F   UNL d   1       2.039  -3.149  -1.435  0.00  0.00    -0.097 F 
ATOM      8  F1  UNL d   1      -0.268  -2.582  -0.135  0.00  0.00    -0.096 F 
ATOM      9  I   UNL d   1      -1.436   0.161   1.027  0.00  0.00    -0.060 I 
ATOM     10  F2  UNL d   1       1.037   1.985   0.131  0.00  0.00    -0.096 F 
ATOM     11  F3  UNL d   1       3.335   1.387  -1.171  0.00  0.00    -0.097 F 
ATOM     12  F4  UNL d   1       3.848  -1.174  -1.959  0.00  0.00    -0.092 F 
ENDROOT
TORSDOF 0
ENDMDL
