MODEL 1
REMARK minimizedAffinity 5.42670631
REMARK minimizedRMSD -1
REMARK  0 active torsions:
REMARK  status: ('A' for Active; 'I' for Inactive)
ROOT
ATOM      1  C   UNL d   1       1.219  -1.116  -1.274  0.00  0.00     0.124 A 
ATOM      2  C1  UNL d   1       1.802  -0.084  -0.552  0.00  0.00     0.062 A 
ATOM      3  C2  UNL d   1       1.142   0.466   0.543  0.00  0.00     0.162 A 
ATOM      4  C3  UNL d   1      -0.111  -0.017   0.924  0.00  0.00    -0.034 A 
ATOM      5  C4  UNL d   1      -0.692  -1.054   0.192  0.00  0.00     0.162 A 
ATOM      6  C5  UNL d   1      -0.027  -1.600  -0.901  0.00  0.00     0.062 A 
ATOM      7  F   UNL d   1      -0.592  -2.597  -1.597  0.00  0.00    -0.097 F 
ATOM      8  F1  UNL d   1      -1.894  -1.542   0.531  0.00  0.00    -0.096 F 
ATOM      9  I   UNL d   1      -1.102   0.802   2.560  0.00  0.00    -0.060 I 
ATOM     10  F2  UNL d   1       1.729   1.462   1.222  0.00  0.00    -0.096 F 
ATOM     11  F3  UNL d   1       3.006   0.387  -0.910  0.00  0.00    -0.097 F 
ATOM     12  F4  UNL d   1       1.857  -1.642  -2.327  0.00  0.00    -0.092 F 
ENDROOT
TORSDOF 0
ENDMDL
