MODEL 1
REMARK minimizedAffinity -1.41083908
REMARK minimizedRMSD -1
REMARK  0 active torsions:
REMARK  status: ('A' for Active; 'I' for Inactive)
ROOT
ATOM      1  C   UNL d   1       1.555  -2.001  -0.235  0.00  0.00     0.124 A 
ATOM      2  C1  UNL d   1       2.376  -0.930  -0.561  0.00  0.00     0.062 A 
ATOM      3  C2  UNL d   1       1.820   0.305  -0.879  0.00  0.00     0.162 A 
ATOM      4  C3  UNL d   1       0.436   0.478  -0.872  0.00  0.00    -0.034 A 
ATOM      5  C4  UNL d   1      -0.383  -0.604  -0.543  0.00  0.00     0.162 A 
ATOM      6  C5  UNL d   1       0.177  -1.838  -0.226  0.00  0.00     0.062 A 
ATOM      7  F   UNL d   1      -0.617  -2.871   0.089  0.00  0.00    -0.097 F 
ATOM      8  F1  UNL d   1      -1.718  -0.474  -0.526  0.00  0.00    -0.096 F 
ATOM      9  I   UNL d   1      -0.399   2.324  -1.347  0.00  0.00    -0.060 I 
ATOM     10  F2  UNL d   1       2.637   1.323  -1.191  0.00  0.00    -0.096 F 
ATOM     11  F3  UNL d   1       3.707  -1.086  -0.571  0.00  0.00    -0.097 F 
ATOM     12  F4  UNL d   1       2.093  -3.190   0.070  0.00  0.00    -0.092 F 
ENDROOT
TORSDOF 0
ENDMDL
