MODEL 1
REMARK minimizedAffinity -3.96522617
REMARK minimizedRMSD -1
REMARK  0 active torsions:
REMARK  status: ('A' for Active; 'I' for Inactive)
ROOT
ATOM      1  C   UNL d   1      -2.929  -0.554   3.730  0.00  0.00     0.124 A 
ATOM      2  C1  UNL d   1      -2.348   0.705   3.663  0.00  0.00     0.062 A 
ATOM      3  C2  UNL d   1      -1.649   1.094   2.525  0.00  0.00     0.162 A 
ATOM      4  C3  UNL d   1      -1.527   0.223   1.442  0.00  0.00    -0.034 A 
ATOM      5  C4  UNL d   1      -2.113  -1.042   1.517  0.00  0.00     0.162 A 
ATOM      6  C5  UNL d   1      -2.811  -1.426   2.657  0.00  0.00     0.062 A 
ATOM      7  F   UNL d   1      -3.372  -2.642   2.719  0.00  0.00    -0.097 F 
ATOM      8  F1  UNL d   1      -2.015  -1.904   0.494  0.00  0.00    -0.096 F 
ATOM      9  I   UNL d   1      -0.481   0.801  -0.262  0.00  0.00    -0.060 I 
ATOM     10  F2  UNL d   1      -1.098   2.316   2.488  0.00  0.00    -0.096 F 
ATOM     11  F3  UNL d   1      -2.460   1.549   4.699  0.00  0.00    -0.097 F 
ATOM     12  F4  UNL d   1      -3.601  -0.925   4.827  0.00  0.00    -0.092 F 
ENDROOT
TORSDOF 0
ENDMDL
