MODEL 1
REMARK minimizedAffinity 0.899618149
REMARK minimizedRMSD -1
REMARK  0 active torsions:
REMARK  status: ('A' for Active; 'I' for Inactive)
ROOT
ATOM      1  C   UNL d   1       2.219  -0.863  -0.950  0.00  0.00     0.124 A 
ATOM      2  C1  UNL d   1       1.650  -2.085  -0.619  0.00  0.00     0.062 A 
ATOM      3  C2  UNL d   1       0.411  -2.132   0.013  0.00  0.00     0.162 A 
ATOM      4  C3  UNL d   1      -0.269  -0.953   0.317  0.00  0.00    -0.034 A 
ATOM      5  C4  UNL d   1       0.310   0.272  -0.018  0.00  0.00     0.162 A 
ATOM      6  C5  UNL d   1       1.549   0.314  -0.649  0.00  0.00     0.062 A 
ATOM      7  F   UNL d   1       2.097   1.496  -0.968  0.00  0.00    -0.097 F 
ATOM      8  F1  UNL d   1      -0.316   1.425   0.261  0.00  0.00    -0.096 F 
ATOM      9  I   UNL d   1      -2.122  -1.019   1.262  0.00  0.00    -0.060 I 
ATOM     10  F2  UNL d   1      -0.115  -3.327   0.321  0.00  0.00    -0.096 F 
ATOM     11  F3  UNL d   1       2.296  -3.224  -0.908  0.00  0.00    -0.097 F 
ATOM     12  F4  UNL d   1       3.412  -0.821  -1.557  0.00  0.00    -0.092 F 
ENDROOT
TORSDOF 0
ENDMDL
