MODEL 1
REMARK minimizedAffinity -2.90866852
REMARK minimizedRMSD -1
REMARK  0 active torsions:
REMARK  status: ('A' for Active; 'I' for Inactive)
ROOT
ATOM      1  C   UNL d   1      -1.539   0.750   0.650  0.00  0.00     0.124 A 
ATOM      2  C1  UNL d   1      -0.739  -0.164   1.322  0.00  0.00     0.062 A 
ATOM      3  C2  UNL d   1       0.460  -0.592   0.759  0.00  0.00     0.162 A 
ATOM      4  C3  UNL d   1       0.868  -0.104  -0.482  0.00  0.00    -0.034 A 
ATOM      5  C4  UNL d   1       0.058   0.814  -1.153  0.00  0.00     0.162 A 
ATOM      6  C5  UNL d   1      -1.140   1.238  -0.586  0.00  0.00     0.062 A 
ATOM      7  F   UNL d   1      -1.911   2.121  -1.237  0.00  0.00    -0.097 F 
ATOM      8  F1  UNL d   1       0.420   1.303  -2.348  0.00  0.00    -0.096 F 
ATOM      9  I   UNL d   1       2.660  -0.741  -1.327  0.00  0.00    -0.060 I 
ATOM     10  F2  UNL d   1       1.213  -1.476   1.431  0.00  0.00    -0.096 F 
ATOM     11  F3  UNL d   1      -1.123  -0.638   2.516  0.00  0.00    -0.097 F 
ATOM     12  F4  UNL d   1      -2.693   1.158   1.194  0.00  0.00    -0.092 F 
ENDROOT
TORSDOF 0
ENDMDL
