MODEL 1
REMARK minimizedAffinity -1.7326268
REMARK minimizedRMSD -1
REMARK  0 active torsions:
REMARK  status: ('A' for Active; 'I' for Inactive)
ROOT
ATOM      1  C   UNL d   1       0.358  -1.945  -0.416  0.00  0.00     0.124 A 
ATOM      2  C1  UNL d   1      -0.341  -0.855   0.085  0.00  0.00     0.062 A 
ATOM      3  C2  UNL d   1      -0.036   0.432  -0.348  0.00  0.00     0.162 A 
ATOM      4  C3  UNL d   1       0.973   0.636  -1.290  0.00  0.00    -0.034 A 
ATOM      5  C4  UNL d   1       1.672  -0.464  -1.788  0.00  0.00     0.162 A 
ATOM      6  C5  UNL d   1       1.363  -1.748  -1.352  0.00  0.00     0.062 A 
ATOM      7  F   UNL d   1       2.040  -2.800  -1.837  0.00  0.00    -0.097 F 
ATOM      8  F1  UNL d   1       2.648  -0.303  -2.694  0.00  0.00    -0.096 F 
ATOM      9  I   UNL d   1       1.433   2.559  -1.941  0.00  0.00    -0.060 I 
ATOM     10  F2  UNL d   1      -0.727   1.466   0.153  0.00  0.00    -0.096 F 
ATOM     11  F3  UNL d   1      -1.313  -1.042   0.990  0.00  0.00    -0.097 F 
ATOM     12  F4  UNL d   1       0.063  -3.182   0.004  0.00  0.00    -0.092 F 
ENDROOT
TORSDOF 0
ENDMDL
