MODEL 1
REMARK minimizedAffinity -3.7042768
REMARK minimizedRMSD -1
REMARK  0 active torsions:
REMARK  status: ('A' for Active; 'I' for Inactive)
ROOT
ATOM      1  C   UNL d   1       1.615  -0.772  -2.060  0.00  0.00     0.124 A 
ATOM      2  C1  UNL d   1       1.572   0.488  -1.479  0.00  0.00     0.062 A 
ATOM      3  C2  UNL d   1       0.766   0.719  -0.367  0.00  0.00     0.162 A 
ATOM      4  C3  UNL d   1      -0.003  -0.313   0.171  0.00  0.00    -0.034 A 
ATOM      5  C4  UNL d   1       0.045  -1.577  -0.419  0.00  0.00     0.162 A 
ATOM      6  C5  UNL d   1       0.852  -1.803  -1.530  0.00  0.00     0.062 A 
ATOM      7  F   UNL d   1       0.892  -3.021  -2.090  0.00  0.00    -0.097 F 
ATOM      8  F1  UNL d   1      -0.682  -2.591   0.073  0.00  0.00    -0.096 F 
ATOM      9  I   UNL d   1      -1.209   0.029   1.833  0.00  0.00    -0.060 I 
ATOM     10  F2  UNL d   1       0.744   1.946   0.174  0.00  0.00    -0.096 F 
ATOM     11  F3  UNL d   1       2.308   1.486  -1.989  0.00  0.00    -0.097 F 
ATOM     12  F4  UNL d   1       2.390  -0.991  -3.129  0.00  0.00    -0.092 F 
ENDROOT
TORSDOF 0
ENDMDL
