MODEL 1
REMARK minimizedAffinity -2.13789892
REMARK minimizedRMSD -1
REMARK  0 active torsions:
REMARK  status: ('A' for Active; 'I' for Inactive)
ROOT
ATOM      1  C   UNL d   1       3.264  -0.086  -1.983  0.00  0.00     0.124 A 
ATOM      2  C1  UNL d   1       2.467   1.041  -2.126  0.00  0.00     0.062 A 
ATOM      3  C2  UNL d   1       1.251   1.127  -1.454  0.00  0.00     0.162 A 
ATOM      4  C3  UNL d   1       0.824   0.084  -0.633  0.00  0.00    -0.034 A 
ATOM      5  C4  UNL d   1       1.632  -1.047  -0.494  0.00  0.00     0.162 A 
ATOM      6  C5  UNL d   1       2.846  -1.128  -1.167  0.00  0.00     0.062 A 
ATOM      7  F   UNL d   1       3.616  -2.218  -1.028  0.00  0.00    -0.097 F 
ATOM      8  F1  UNL d   1       1.252  -2.068   0.288  0.00  0.00    -0.096 F 
ATOM      9  I   UNL d   1      -0.993   0.209   0.373  0.00  0.00    -0.060 I 
ATOM     10  F2  UNL d   1       0.500   2.228  -1.611  0.00  0.00    -0.096 F 
ATOM     11  F3  UNL d   1       2.868   2.049  -2.913  0.00  0.00    -0.097 F 
ATOM     12  F4  UNL d   1       4.434  -0.167  -2.630  0.00  0.00    -0.092 F 
ENDROOT
TORSDOF 0
ENDMDL
