MODEL 1
REMARK minimizedAffinity -3.00463057
REMARK minimizedRMSD -1
REMARK  0 active torsions:
REMARK  status: ('A' for Active; 'I' for Inactive)
ROOT
ATOM      1  C   UNL d   1       1.201   0.719  -0.988  0.00  0.00     0.124 A 
ATOM      2  C1  UNL d   1       1.675  -0.413  -1.636  0.00  0.00     0.062 A 
ATOM      3  C2  UNL d   1       1.107  -1.657  -1.379  0.00  0.00     0.162 A 
ATOM      4  C3  UNL d   1       0.057  -1.777  -0.468  0.00  0.00    -0.034 A 
ATOM      5  C4  UNL d   1      -0.415  -0.634   0.180  0.00  0.00     0.162 A 
ATOM      6  C5  UNL d   1       0.157   0.607  -0.081  0.00  0.00     0.062 A 
ATOM      7  F   UNL d   1      -0.303   1.700   0.547  0.00  0.00    -0.097 F 
ATOM      8  F1  UNL d   1      -1.423  -0.713   1.061  0.00  0.00    -0.096 F 
ATOM      9  I   UNL d   1      -0.795  -3.635  -0.080  0.00  0.00    -0.060 I 
ATOM     10  F2  UNL d   1       1.586  -2.734  -2.019  0.00  0.00    -0.096 F 
ATOM     11  F3  UNL d   1       2.684  -0.308  -2.513  0.00  0.00    -0.097 F 
ATOM     12  F4  UNL d   1       1.750   1.915  -1.237  0.00  0.00    -0.092 F 
ENDROOT
TORSDOF 0
ENDMDL
