MODEL 1
REMARK minimizedAffinity 5.6615591
REMARK minimizedRMSD -1
REMARK  0 active torsions:
REMARK  status: ('A' for Active; 'I' for Inactive)
ROOT
ATOM      1  C   UNL d   1      -3.443  -0.564   4.384  0.00  0.00     0.124 A 
ATOM      2  C1  UNL d   1      -2.920   0.704   4.171  0.00  0.00     0.062 A 
ATOM      3  C2  UNL d   1      -2.224   0.986   2.999  0.00  0.00     0.162 A 
ATOM      4  C3  UNL d   1      -2.047  -0.001   2.030  0.00  0.00    -0.034 A 
ATOM      5  C4  UNL d   1      -2.575  -1.274   2.252  0.00  0.00     0.162 A 
ATOM      6  C5  UNL d   1      -3.270  -1.552   3.425  0.00  0.00     0.062 A 
ATOM      7  F   UNL d   1      -3.774  -2.777   3.629  0.00  0.00    -0.097 F 
ATOM      8  F1  UNL d   1      -2.423  -2.247   1.341  0.00  0.00    -0.096 F 
ATOM      9  I   UNL d   1      -1.007   0.417   0.277  0.00  0.00    -0.060 I 
ATOM     10  F2  UNL d   1      -1.730   2.221   2.820  0.00  0.00    -0.096 F 
ATOM     11  F3  UNL d   1      -3.085   1.660   5.097  0.00  0.00    -0.097 F 
ATOM     12  F4  UNL d   1      -4.111  -0.833   5.513  0.00  0.00    -0.092 F 
ENDROOT
TORSDOF 0
ENDMDL
