MODEL 1
REMARK minimizedAffinity -1.77482891
REMARK minimizedRMSD -1
REMARK  0 active torsions:
REMARK  status: ('A' for Active; 'I' for Inactive)
ROOT
ATOM      1  C   UNL d   1       1.794   0.572  -0.495  0.00  0.00     0.124 A 
ATOM      2  C1  UNL d   1       2.386  -0.645  -0.803  0.00  0.00     0.062 A 
ATOM      3  C2  UNL d   1       1.608  -1.795  -0.907  0.00  0.00     0.162 A 
ATOM      4  C3  UNL d   1       0.230  -1.733  -0.705  0.00  0.00    -0.034 A 
ATOM      5  C4  UNL d   1      -0.358  -0.506  -0.395  0.00  0.00     0.162 A 
ATOM      6  C5  UNL d   1       0.423   0.641  -0.291  0.00  0.00     0.062 A 
ATOM      7  F   UNL d   1      -0.151   1.816   0.006  0.00  0.00    -0.097 F 
ATOM      8  F1  UNL d   1      -1.681  -0.410  -0.194  0.00  0.00    -0.096 F 
ATOM      9  I   UNL d   1      -0.936  -3.450  -0.860  0.00  0.00    -0.060 I 
ATOM     10  F2  UNL d   1       2.207  -2.958  -1.206  0.00  0.00    -0.096 F 
ATOM     11  F3  UNL d   1       3.710  -0.715  -0.999  0.00  0.00    -0.097 F 
ATOM     12  F4  UNL d   1       2.545   1.676  -0.394  0.00  0.00    -0.092 F 
ENDROOT
TORSDOF 0
ENDMDL
