MODEL 1
REMARK minimizedAffinity -5.37362766
REMARK minimizedRMSD -1
REMARK  0 active torsions:
REMARK  status: ('A' for Active; 'I' for Inactive)
ROOT
ATOM      1  C   UNL d   1       0.643  -0.292   1.116  0.00  0.00     0.078 C 
ATOM      2  C1  UNL d   1       0.026   1.037   0.795  0.00  0.00    -0.077 A 
ATOM      3  C2  UNL d   1      -0.051   2.048   1.761  0.00  0.00    -0.001 A 
ATOM      4  C3  UNL d   1      -0.636   3.277   1.451  0.00  0.00     0.003 A 
ATOM      5  C4  UNL d   1      -1.150   3.506   0.176  0.00  0.00    -0.005 A 
ATOM      6  C5  UNL d   1      -1.079   2.505  -0.791  0.00  0.00     0.003 A 
ATOM      7  C6  UNL d   1      -0.495   1.276  -0.483  0.00  0.00    -0.001 A 
ENDROOT
TORSDOF 0
ENDMDL
