MODEL 1
REMARK minimizedAffinity -3.55718064
REMARK minimizedRMSD -1
REMARK  0 active torsions:
REMARK  status: ('A' for Active; 'I' for Inactive)
ROOT
ATOM      1  C   UNL d   1      -0.442   3.076  -0.950  0.00  0.00     0.078 C 
ATOM      2  C1  UNL d   1      -0.184   1.862  -0.110  0.00  0.00    -0.077 A 
ATOM      3  C2  UNL d   1       0.236   0.659  -0.691  0.00  0.00    -0.001 A 
ATOM      4  C3  UNL d   1       0.463  -0.467   0.103  0.00  0.00     0.003 A 
ATOM      5  C4  UNL d   1       0.271  -0.401   1.481  0.00  0.00    -0.005 A 
ATOM      6  C5  UNL d   1      -0.148   0.791   2.068  0.00  0.00     0.003 A 
ATOM      7  C6  UNL d   1      -0.376   1.917   1.276  0.00  0.00    -0.001 A 
ENDROOT
TORSDOF 0
ENDMDL
