MODEL 1
REMARK minimizedAffinity -2.80414152
REMARK minimizedRMSD -1
REMARK  0 active torsions:
REMARK  status: ('A' for Active; 'I' for Inactive)
ROOT
ATOM      1  C   UNL d   1      -0.415   3.406  -1.418  0.00  0.00     0.078 C 
ATOM      2  C1  UNL d   1      -0.242   2.324  -0.394  0.00  0.00    -0.077 A 
ATOM      3  C2  UNL d   1      -0.222   0.975  -0.767  0.00  0.00    -0.001 A 
ATOM      4  C3  UNL d   1      -0.070  -0.022   0.199  0.00  0.00     0.003 A 
ATOM      5  C4  UNL d   1       0.060   0.320   1.543  0.00  0.00    -0.005 A 
ATOM      6  C5  UNL d   1       0.039   1.660   1.924  0.00  0.00     0.003 A 
ATOM      7  C6  UNL d   1      -0.112   2.658   0.960  0.00  0.00    -0.001 A 
ENDROOT
TORSDOF 0
ENDMDL
