MODEL 1
REMARK minimizedAffinity -1.73574579
REMARK minimizedRMSD -1
REMARK  0 active torsions:
REMARK  status: ('A' for Active; 'I' for Inactive)
ROOT
ATOM      1  O1  BZF d   1      -5.770   5.999  -2.638  0.00  0.00    -0.204 OA
ATOM      2  C2  BZF d   1      -5.556   5.939  -4.001  0.00  0.00     0.174 A 
ATOM      3  C3  BZF d   1      -5.414   4.661  -4.408  0.00  0.00    -0.012 A 
ATOM      4  C3A BZF d   1      -5.639   3.867  -3.239  0.00  0.00    -0.107 A 
ATOM      5  C4  BZF d   1      -5.649   2.522  -3.006  0.00  0.00     0.055 A 
ATOM      6  C5  BZF d   1      -5.830   2.073  -1.736  0.00  0.00    -0.016 A 
ATOM      7  C6  BZF d   1      -5.997   2.941  -0.676  0.00  0.00     0.022 A 
ATOM      8  C7  BZF d   1      -5.998   4.283  -0.859  0.00  0.00     0.029 A 
ATOM      9  C7A BZF d   1      -5.849   4.739  -2.146  0.00  0.00     0.058 A 
ENDROOT
TORSDOF 0
ENDMDL
