MODEL 1
REMARK minimizedAffinity 0.761138856
REMARK minimizedRMSD -1
REMARK  0 active torsions:
REMARK  status: ('A' for Active; 'I' for Inactive)
ROOT
ATOM      1  O1  BZF d   1       2.223   1.042   0.519  0.00  0.00    -0.204 OA
ATOM      2  C2  BZF d   1       2.197   2.004   1.510  0.00  0.00     0.174 A 
ATOM      3  C3  BZF d   1       0.932   2.390   1.770  0.00  0.00    -0.012 A 
ATOM      4  C3A BZF d   1       0.108   1.555   0.951  0.00  0.00    -0.107 A 
ATOM      5  C4  BZF d   1      -1.242   1.449   0.777  0.00  0.00     0.055 A 
ATOM      6  C5  BZF d   1      -1.722   0.583  -0.154  0.00  0.00    -0.016 A 
ATOM      7  C6  BZF d   1      -0.882  -0.188  -0.930  0.00  0.00     0.022 A 
ATOM      8  C7  BZF d   1       0.464  -0.121  -0.790  0.00  0.00     0.029 A 
ATOM      9  C7A BZF d   1       0.951   0.729   0.172  0.00  0.00     0.058 A 
ENDROOT
TORSDOF 0
ENDMDL
