MODEL 1
REMARK minimizedAffinity 1.36072505
REMARK minimizedRMSD -1
REMARK  0 active torsions:
REMARK  status: ('A' for Active; 'I' for Inactive)
ROOT
ATOM      1  O1  BZF d   1      -0.548   1.952  -0.628  0.00  0.00    -0.204 OA
ATOM      2  C2  BZF d   1      -0.765   2.493   0.625  0.00  0.00     0.174 A 
ATOM      3  C3  BZF d   1      -0.724   1.535   1.573  0.00  0.00    -0.012 A 
ATOM      4  C3A BZF d   1      -0.375   0.333   0.879  0.00  0.00    -0.107 A 
ATOM      5  C4  BZF d   1      -0.166  -0.955   1.280  0.00  0.00     0.055 A 
ATOM      6  C5  BZF d   1       0.090  -1.905   0.343  0.00  0.00    -0.016 A 
ATOM      7  C6  BZF d   1       0.140  -1.603  -1.002  0.00  0.00     0.022 A 
ATOM      8  C7  BZF d   1      -0.055  -0.338  -1.447  0.00  0.00     0.029 A 
ATOM      9  C7A BZF d   1      -0.282   0.630  -0.500  0.00  0.00     0.058 A 
ENDROOT
TORSDOF 0
ENDMDL
