MODEL 1
REMARK minimizedAffinity 10.7811232
REMARK minimizedRMSD -1
REMARK  0 active torsions:
REMARK  status: ('A' for Active; 'I' for Inactive)
ROOT
ATOM      1  O1  BZF d   1       3.618   4.731   0.656  0.00  0.00    -0.204 OA
ATOM      2  C2  BZF d   1       3.219   3.559   0.044  0.00  0.00     0.174 A 
ATOM      3  C3  BZF d   1       3.810   2.493   0.621  0.00  0.00    -0.012 A 
ATOM      4  C3A BZF d   1       4.559   3.026   1.718  0.00  0.00    -0.107 A 
ATOM      5  C4  BZF d   1       5.347   2.461   2.679  0.00  0.00     0.055 A 
ATOM      6  C5  BZF d   1       5.994   3.267   3.561  0.00  0.00    -0.016 A 
ATOM      7  C6  BZF d   1       5.880   4.641   3.507  0.00  0.00     0.022 A 
ATOM      8  C7  BZF d   1       5.105   5.247   2.575  0.00  0.00     0.029 A 
ATOM      9  C7A BZF d   1       4.424   4.433   1.703  0.00  0.00     0.058 A 
ENDROOT
TORSDOF 0
ENDMDL
