MODEL 1
REMARK minimizedAffinity 8.80030346
REMARK minimizedRMSD -1
REMARK  0 active torsions:
REMARK  status: ('A' for Active; 'I' for Inactive)
ROOT
ATOM      1  O1  BZF d   1       0.315   1.147  -5.290  0.00  0.00    -0.204 OA
ATOM      2  C2  BZF d   1      -1.018   1.464  -5.107  0.00  0.00     0.174 A 
ATOM      3  C3  BZF d   1      -1.261   1.781  -3.820  0.00  0.00    -0.012 A 
ATOM      4  C3A BZF d   1       0.015   1.745  -3.175  0.00  0.00    -0.107 A 
ATOM      5  C4  BZF d   1       0.428   1.984  -1.895  0.00  0.00     0.055 A 
ATOM      6  C5  BZF d   1       1.734   1.790  -1.575  0.00  0.00    -0.016 A 
ATOM      7  C6  BZF d   1       2.653   1.353  -2.507  0.00  0.00     0.022 A 
ATOM      8  C7  BZF d   1       2.292   1.107  -3.790  0.00  0.00     0.029 A 
ATOM      9  C7A BZF d   1       0.979   1.334  -4.125  0.00  0.00     0.058 A 
ENDROOT
TORSDOF 0
ENDMDL
