MODEL 1
REMARK minimizedAffinity 11.2606602
REMARK minimizedRMSD -1
REMARK  0 active torsions:
REMARK  status: ('A' for Active; 'I' for Inactive)
ROOT
ATOM      1  O1  BZF d   1      -2.284  -0.901   2.601  0.00  0.00    -0.204 OA
ATOM      2  C2  BZF d   1      -2.922   0.117   1.918  0.00  0.00     0.174 A 
ATOM      3  C3  BZF d   1      -3.221  -0.266   0.660  0.00  0.00    -0.012 A 
ATOM      4  C3A BZF d   1      -2.824  -1.638   0.580  0.00  0.00    -0.107 A 
ATOM      5  C4  BZF d   1      -2.880  -2.575  -0.412  0.00  0.00     0.055 A 
ATOM      6  C5  BZF d   1      -2.340  -3.802  -0.193  0.00  0.00    -0.016 A 
ATOM      7  C6  BZF d   1      -1.732  -4.125   1.003  0.00  0.00     0.022 A 
ATOM      8  C7  BZF d   1      -1.657  -3.230   2.018  0.00  0.00     0.029 A 
ATOM      9  C7A BZF d   1      -2.231  -2.000   1.811  0.00  0.00     0.058 A 
ENDROOT
TORSDOF 0
ENDMDL
