MODEL 1
REMARK minimizedAffinity 4.75278902
REMARK minimizedRMSD -1
REMARK  0 active torsions:
REMARK  status: ('A' for Active; 'I' for Inactive)
ROOT
ATOM      1  O1  BZF d   1      -3.340  -2.844  -1.447  0.00  0.00    -0.204 OA
ATOM      2  C2  BZF d   1      -3.567  -4.204  -1.537  0.00  0.00     0.174 A 
ATOM      3  C3  BZF d   1      -2.786  -4.878  -0.668  0.00  0.00    -0.012 A 
ATOM      4  C3A BZF d   1      -2.091  -3.870   0.073  0.00  0.00    -0.107 A 
ATOM      5  C4  BZF d   1      -1.183  -3.912   1.092  0.00  0.00     0.055 A 
ATOM      6  C5  BZF d   1      -0.642  -2.750   1.543  0.00  0.00    -0.016 A 
ATOM      7  C6  BZF d   1      -0.982  -1.530   0.995  0.00  0.00     0.022 A 
ATOM      8  C7  BZF d   1      -1.882  -1.437  -0.014  0.00  0.00     0.029 A 
ATOM      9  C7A BZF d   1      -2.455  -2.607  -0.449  0.00  0.00     0.058 A 
ENDROOT
TORSDOF 0
ENDMDL
