MODEL 1
REMARK minimizedAffinity 15.4040403
REMARK minimizedRMSD -1
REMARK  0 active torsions:
REMARK  status: ('A' for Active; 'I' for Inactive)
ROOT
ATOM      1  O1  BZF d   1      -3.863  -4.594  -2.112  0.00  0.00    -0.204 OA
ATOM      2  C2  BZF d   1      -5.189  -4.489  -1.741  0.00  0.00     0.174 A 
ATOM      3  C3  BZF d   1      -5.297  -4.090  -0.457  0.00  0.00    -0.012 A 
ATOM      4  C3A BZF d   1      -3.955  -3.847  -0.025  0.00  0.00    -0.107 A 
ATOM      5  C4  BZF d   1      -3.411  -3.415   1.150  0.00  0.00     0.055 A 
ATOM      6  C5  BZF d   1      -2.059  -3.353   1.269  0.00  0.00    -0.016 A 
ATOM      7  C6  BZF d   1      -1.221  -3.721   0.236  0.00  0.00     0.022 A 
ATOM      8  C7  BZF d   1      -1.715  -4.150  -0.951  0.00  0.00     0.029 A 
ATOM      9  C7A BZF d   1      -3.081  -4.182  -1.085  0.00  0.00     0.058 A 
ENDROOT
TORSDOF 0
ENDMDL
