MODEL 1
REMARK minimizedAffinity 4.63144541
REMARK minimizedRMSD -1
REMARK  0 active torsions:
REMARK  status: ('A' for Active; 'I' for Inactive)
ROOT
ATOM      1  O1  BZF d   1       2.300   5.551  -5.973  0.00  0.00    -0.204 OA
ATOM      2  C2  BZF d   1       1.378   4.522  -5.954  0.00  0.00     0.174 A 
ATOM      3  C3  BZF d   1       1.996   3.324  -5.990  0.00  0.00    -0.012 A 
ATOM      4  C3A BZF d   1       3.395   3.621  -5.940  0.00  0.00    -0.107 A 
ATOM      5  C4  BZF d   1       4.520   2.847  -5.929  0.00  0.00     0.055 A 
ATOM      6  C5  BZF d   1       5.737   3.450  -5.951  0.00  0.00    -0.016 A 
ATOM      7  C6  BZF d   1       5.867   4.822  -5.989  0.00  0.00     0.022 A 
ATOM      8  C7  BZF d   1       4.781   5.633  -5.996  0.00  0.00     0.029 A 
ATOM      9  C7A BZF d   1       3.549   5.027  -5.940  0.00  0.00     0.058 A 
ENDROOT
TORSDOF 0
ENDMDL
