MODEL 1
REMARK minimizedAffinity 6.6610384
REMARK minimizedRMSD -1
REMARK  0 active torsions:
REMARK  status: ('A' for Active; 'I' for Inactive)
ROOT
ATOM      1  O1  BZF d   1      -1.323   2.037   2.045  0.00  0.00    -0.204 OA
ATOM      2  C2  BZF d   1      -1.104   3.067   2.940  0.00  0.00     0.174 A 
ATOM      3  C3  BZF d   1       0.212   3.349   3.031  0.00  0.00    -0.012 A 
ATOM      4  C3A BZF d   1       0.846   2.501   2.070  0.00  0.00    -0.107 A 
ATOM      5  C4  BZF d   1       2.144   2.330   1.680  0.00  0.00     0.055 A 
ATOM      6  C5  BZF d   1       2.438   1.367   0.767  0.00  0.00    -0.016 A 
ATOM      7  C6  BZF d   1       1.462   0.555   0.228  0.00  0.00     0.022 A 
ATOM      8  C7  BZF d   1       0.160   0.690   0.580  0.00  0.00     0.029 A 
ATOM      9  C7A BZF d   1      -0.145   1.684   1.477  0.00  0.00     0.058 A 
ENDROOT
TORSDOF 0
ENDMDL
