MODEL 1
REMARK minimizedAffinity 4.66768169
REMARK minimizedRMSD -1
REMARK  0 active torsions:
REMARK  status: ('A' for Active; 'I' for Inactive)
ROOT
ATOM      1  O1  BZF d   1       3.753   2.131   1.449  0.00  0.00    -0.204 OA
ATOM      2  C2  BZF d   1       3.822   3.355   2.086  0.00  0.00     0.174 A 
ATOM      3  C3  BZF d   1       2.586   3.835   2.336  0.00  0.00    -0.012 A 
ATOM      4  C3A BZF d   1       1.689   2.806   1.906  0.00  0.00    -0.107 A 
ATOM      5  C4  BZF d   1       0.329   2.685   1.909  0.00  0.00     0.055 A 
ATOM      6  C5  BZF d   1      -0.237   1.584   1.349  0.00  0.00    -0.016 A 
ATOM      7  C6  BZF d   1       0.525   0.588   0.774  0.00  0.00     0.022 A 
ATOM      8  C7  BZF d   1       1.878   0.662   0.752  0.00  0.00     0.029 A 
ATOM      9  C7A BZF d   1       2.455   1.758   1.346  0.00  0.00     0.058 A 
ENDROOT
TORSDOF 0
ENDMDL
