MODEL 1
REMARK minimizedAffinity 6.75453472
REMARK minimizedRMSD -1
REMARK  0 active torsions:
REMARK  status: ('A' for Active; 'I' for Inactive)
ROOT
ATOM      1  O1  BZF d   1       2.594   5.977   3.346  0.00  0.00    -0.204 OA
ATOM      2  C2  BZF d   1       3.173   5.950   4.599  0.00  0.00     0.174 A 
ATOM      3  C3  BZF d   1       4.516   5.872   4.504  0.00  0.00    -0.012 A 
ATOM      4  C3A BZF d   1       4.799   5.943   3.103  0.00  0.00    -0.107 A 
ATOM      5  C4  BZF d   1       5.956   5.932   2.377  0.00  0.00     0.055 A 
ATOM      6  C5  BZF d   1       5.883   5.942   1.020  0.00  0.00    -0.016 A 
ATOM      7  C6  BZF d   1       4.674   5.958   0.357  0.00  0.00     0.022 A 
ATOM      8  C7  BZF d   1       3.500   5.975   1.035  0.00  0.00     0.029 A 
ATOM      9  C7A BZF d   1       3.570   5.998   2.406  0.00  0.00     0.058 A 
ENDROOT
TORSDOF 0
ENDMDL
