MODEL 1
REMARK minimizedAffinity 11.6657915
REMARK minimizedRMSD -1
REMARK  0 active torsions:
REMARK  status: ('A' for Active; 'I' for Inactive)
ROOT
ATOM      1  O1  BZF d   1      -1.440  -3.670   3.241  0.00  0.00    -0.204 OA
ATOM      2  C2  BZF d   1      -1.059  -3.798   1.919  0.00  0.00     0.174 A 
ATOM      3  C3  BZF d   1      -1.817  -3.015   1.124  0.00  0.00    -0.012 A 
ATOM      4  C3A BZF d   1      -2.667  -2.286   2.015  0.00  0.00    -0.107 A 
ATOM      5  C4  BZF d   1      -3.632  -1.338   1.826  0.00  0.00     0.055 A 
ATOM      6  C5  BZF d   1      -4.327  -0.881   2.901  0.00  0.00    -0.016 A 
ATOM      7  C6  BZF d   1      -4.088  -1.353   4.175  0.00  0.00     0.022 A 
ATOM      8  C7  BZF d   1      -3.138  -2.289   4.412  0.00  0.00     0.029 A 
ATOM      9  C7A BZF d   1      -2.411  -2.729   3.333  0.00  0.00     0.058 A 
ENDROOT
TORSDOF 0
ENDMDL
