MODEL 1
REMARK minimizedAffinity 4.80822229
REMARK minimizedRMSD -1
REMARK  0 active torsions:
REMARK  status: ('A' for Active; 'I' for Inactive)
ROOT
ATOM      1  O1  BZF d   1       0.487   2.705   3.909  0.00  0.00    -0.204 OA
ATOM      2  C2  BZF d   1      -0.587   3.259   4.577  0.00  0.00     0.174 A 
ATOM      3  C3  BZF d   1      -1.727   3.089   3.877  0.00  0.00    -0.012 A 
ATOM      4  C3A BZF d   1      -1.355   2.302   2.740  0.00  0.00    -0.107 A 
ATOM      5  C4  BZF d   1      -2.053   1.792   1.683  0.00  0.00     0.055 A 
ATOM      6  C5  BZF d   1      -1.381   1.130   0.706  0.00  0.00    -0.016 A 
ATOM      7  C6  BZF d   1      -0.012   0.964   0.750  0.00  0.00     0.022 A 
ATOM      8  C7  BZF d   1       0.723   1.448   1.782  0.00  0.00     0.029 A 
ATOM      9  C7A BZF d   1       0.042   2.089   2.788  0.00  0.00     0.058 A 
ENDROOT
TORSDOF 0
ENDMDL
