MODEL 1
REMARK minimizedAffinity 5.70315123
REMARK minimizedRMSD -1
REMARK  0 active torsions:
REMARK  status: ('A' for Active; 'I' for Inactive)
ROOT
ATOM      1  O1  BZF d   1       0.716   0.000   1.377  0.00  0.00    -0.204 OA
ATOM      2  C2  BZF d   1       0.922   1.133   0.614  0.00  0.00     0.174 A 
ATOM      3  C3  BZF d   1      -0.200   1.471  -0.054  0.00  0.00    -0.012 A 
ATOM      4  C3A BZF d   1      -1.194   0.542   0.387  0.00  0.00    -0.107 A 
ATOM      5  C4  BZF d   1      -2.518   0.374   0.095  0.00  0.00     0.055 A 
ATOM      6  C5  BZF d   1      -3.187  -0.675   0.641  0.00  0.00    -0.016 A 
ATOM      7  C6  BZF d   1      -2.563  -1.578   1.477  0.00  0.00     0.022 A 
ATOM      8  C7  BZF d   1      -1.253  -1.451   1.799  0.00  0.00     0.029 A 
ATOM      9  C7A BZF d   1      -0.583  -0.372   1.276  0.00  0.00     0.058 A 
ENDROOT
TORSDOF 0
ENDMDL
