MODEL 1
REMARK minimizedAffinity -0.815573692
REMARK minimizedRMSD -1
REMARK  0 active torsions:
REMARK  status: ('A' for Active; 'I' for Inactive)
ROOT
ATOM      1  O1  BZF d   1      -2.982  -2.916  -2.253  0.00  0.00    -0.204 OA
ATOM      2  C2  BZF d   1      -3.147  -4.249  -2.575  0.00  0.00     0.174 A 
ATOM      3  C3  BZF d   1      -2.858  -5.036  -1.518  0.00  0.00    -0.012 A 
ATOM      4  C3A BZF d   1      -2.579  -4.135  -0.443  0.00  0.00    -0.107 A 
ATOM      5  C4  BZF d   1      -2.242  -4.313   0.868  0.00  0.00     0.055 A 
ATOM      6  C5  BZF d   1      -1.965  -3.225   1.633  0.00  0.00    -0.016 A 
ATOM      7  C6  BZF d   1      -2.009  -1.946   1.119  0.00  0.00     0.022 A 
ATOM      8  C7  BZF d   1      -2.343  -1.718  -0.175  0.00  0.00     0.029 A 
ATOM      9  C7A BZF d   1      -2.656  -2.814  -0.942  0.00  0.00     0.058 A 
ENDROOT
TORSDOF 0
ENDMDL
