MODEL 1
REMARK minimizedAffinity 8.98641586
REMARK minimizedRMSD -1
REMARK  0 active torsions:
REMARK  status: ('A' for Active; 'I' for Inactive)
ROOT
ATOM      1  O1  BZF d   1       2.832   3.854  -6.000  0.00  0.00    -0.204 OA
ATOM      2  C2  BZF d   1       3.788   2.897  -5.719  0.00  0.00     0.174 A 
ATOM      3  C3  BZF d   1       3.245   1.860  -5.049  0.00  0.00    -0.012 A 
ATOM      4  C3A BZF d   1       1.845   2.147  -4.982  0.00  0.00    -0.107 A 
ATOM      5  C4  BZF d   1       0.775   1.484  -4.453  0.00  0.00     0.055 A 
ATOM      6  C5  BZF d   1      -0.450   2.071  -4.491  0.00  0.00    -0.016 A 
ATOM      7  C6  BZF d   1      -0.640   3.320  -5.045  0.00  0.00     0.022 A 
ATOM      8  C7  BZF d   1       0.390   4.014  -5.587  0.00  0.00     0.029 A 
ATOM      9  C7A BZF d   1       1.624   3.409  -5.580  0.00  0.00     0.058 A 
ENDROOT
TORSDOF 0
ENDMDL
