MODEL 1
REMARK minimizedAffinity 19.9532738
REMARK minimizedRMSD -1
REMARK  0 active torsions:
REMARK  status: ('A' for Active; 'I' for Inactive)
ROOT
ATOM      1  O1  BZF d   1      -2.683   3.787  -5.669  0.00  0.00    -0.204 OA
ATOM      2  C2  BZF d   1      -3.241   5.048  -5.582  0.00  0.00     0.174 A 
ATOM      3  C3  BZF d   1      -2.282   5.996  -5.588  0.00  0.00    -0.012 A 
ATOM      4  C3A BZF d   1      -1.053   5.288  -5.777  0.00  0.00    -0.107 A 
ATOM      5  C4  BZF d   1       0.250   5.682  -5.885  0.00  0.00     0.055 A 
ATOM      6  C5  BZF d   1       1.219   4.736  -5.991  0.00  0.00    -0.016 A 
ATOM      7  C6  BZF d   1       0.922   3.388  -5.987  0.00  0.00     0.022 A 
ATOM      8  C7  BZF d   1      -0.357   2.950  -5.888  0.00  0.00     0.029 A 
ATOM      9  C7A BZF d   1      -1.341   3.904  -5.814  0.00  0.00     0.058 A 
ENDROOT
TORSDOF 0
ENDMDL
