MODEL 1
REMARK minimizedAffinity 12.7397633
REMARK minimizedRMSD -1
REMARK  0 active torsions:
REMARK  status: ('A' for Active; 'I' for Inactive)
ROOT
ATOM      1  O1  BZF d   1       5.999   2.687  -0.740  0.00  0.00    -0.204 OA
ATOM      2  C2  BZF d   1       5.536   3.433  -1.807  0.00  0.00     0.174 A 
ATOM      3  C3  BZF d   1       4.933   4.560  -1.376  0.00  0.00    -0.012 A 
ATOM      4  C3A BZF d   1       5.107   4.561   0.044  0.00  0.00    -0.107 A 
ATOM      5  C4  BZF d   1       4.741   5.427   1.034  0.00  0.00     0.055 A 
ATOM      6  C5  BZF d   1       4.999   5.099   2.328  0.00  0.00    -0.016 A 
ATOM      7  C6  BZF d   1       5.614   3.912   2.667  0.00  0.00     0.022 A 
ATOM      8  C7  BZF d   1       6.000   3.023   1.719  0.00  0.00     0.029 A 
ATOM      9  C7A BZF d   1       5.771   3.367   0.409  0.00  0.00     0.058 A 
ENDROOT
TORSDOF 0
ENDMDL
