MODEL 1
REMARK minimizedAffinity -1.4201653
REMARK minimizedRMSD -1
REMARK  0 active torsions:
REMARK  status: ('A' for Active; 'I' for Inactive)
ROOT
ATOM      1  C   UNL d   1      -0.811  -1.114  -0.580  0.00  0.00     0.023 A 
ATOM      2  C1  UNL d   1      -0.768  -0.622   0.724  0.00  0.00     0.003 A 
ATOM      3  C2  UNL d   1      -0.051   0.541   1.011  0.00  0.00     0.048 A 
ATOM      4  C3  UNL d   1       0.621   1.209  -0.013  0.00  0.00     0.023 A 
ATOM      5  C4  UNL d   1       0.581   0.721  -1.320  0.00  0.00     0.048 A 
ATOM      6  C5  UNL d   1      -0.137  -0.443  -1.601  0.00  0.00     0.003 A 
ATOM      7  I   UNL d   1       1.689   2.940   0.411  0.00  0.00    -0.146 I 
ENDROOT
TORSDOF 0
ENDMDL
