MODEL 1
REMARK minimizedAffinity -4.00975037
REMARK minimizedRMSD -1
REMARK  0 active torsions:
REMARK  status: ('A' for Active; 'I' for Inactive)
ROOT
ATOM      1  C   UNL d   1      -0.349  -3.016   0.740  0.00  0.00     0.023 A 
ATOM      2  C1  UNL d   1       0.408  -2.579  -0.347  0.00  0.00     0.003 A 
ATOM      3  C2  UNL d   1       0.553  -1.213  -0.595  0.00  0.00     0.048 A 
ATOM      4  C3  UNL d   1      -0.060  -0.288   0.250  0.00  0.00     0.023 A 
ATOM      5  C4  UNL d   1      -0.818  -0.720   1.339  0.00  0.00     0.048 A 
ATOM      6  C5  UNL d   1      -0.962  -2.087   1.582  0.00  0.00     0.003 A 
ATOM      7  I   UNL d   1       0.155   1.747  -0.117  0.00  0.00    -0.146 I 
ENDROOT
TORSDOF 0
ENDMDL
