MODEL 1
REMARK minimizedAffinity -2.11263871
REMARK minimizedRMSD -1
REMARK  0 active torsions:
REMARK  status: ('A' for Active; 'I' for Inactive)
ROOT
ATOM      1  C   UNL d   1       0.596  -3.785  -0.877  0.00  0.00     0.023 A 
ATOM      2  C1  UNL d   1       1.382  -2.632  -0.898  0.00  0.00     0.003 A 
ATOM      3  C2  UNL d   1       0.914  -1.456  -0.309  0.00  0.00     0.048 A 
ATOM      4  C3  UNL d   1      -0.340  -1.439   0.301  0.00  0.00     0.023 A 
ATOM      5  C4  UNL d   1      -1.129  -2.591   0.325  0.00  0.00     0.048 A 
ATOM      6  C5  UNL d   1      -0.658  -3.764  -0.266  0.00  0.00     0.003 A 
ATOM      7  I   UNL d   1      -1.039   0.310   1.179  0.00  0.00    -0.146 I 
ENDROOT
TORSDOF 0
ENDMDL
