MODEL 1
REMARK minimizedAffinity -1.33848631
REMARK minimizedRMSD -1
REMARK  0 active torsions:
REMARK  status: ('A' for Active; 'I' for Inactive)
ROOT
ATOM      1  C   UNL d   1      -0.928  -1.906   1.831  0.00  0.00     0.023 A 
ATOM      2  C1  UNL d   1      -1.388  -0.718   1.263  0.00  0.00     0.003 A 
ATOM      3  C2  UNL d   1      -0.970  -0.347  -0.017  0.00  0.00     0.048 A 
ATOM      4  C3  UNL d   1      -0.092  -1.168  -0.723  0.00  0.00     0.023 A 
ATOM      5  C4  UNL d   1       0.370  -2.358  -0.159  0.00  0.00     0.048 A 
ATOM      6  C5  UNL d   1      -0.050  -2.725   1.121  0.00  0.00     0.003 A 
ATOM      7  I   UNL d   1       0.531  -0.618  -2.628  0.00  0.00    -0.146 I 
ENDROOT
TORSDOF 0
ENDMDL
