MODEL 1
REMARK minimizedAffinity -2.28271317
REMARK minimizedRMSD -1
REMARK  0 active torsions:
REMARK  status: ('A' for Active; 'I' for Inactive)
ROOT
ATOM      1  C   UNL d   1      -0.296  -2.571   0.970  0.00  0.00     0.023 A 
ATOM      2  C1  UNL d   1       0.540  -2.168  -0.072  0.00  0.00     0.003 A 
ATOM      3  C2  UNL d   1       0.798  -0.811  -0.277  0.00  0.00     0.048 A 
ATOM      4  C3  UNL d   1       0.217   0.138   0.565  0.00  0.00     0.023 A 
ATOM      5  C4  UNL d   1      -0.619  -0.261   1.609  0.00  0.00     0.048 A 
ATOM      6  C5  UNL d   1      -0.874  -1.619   1.809  0.00  0.00     0.003 A 
ATOM      7  I   UNL d   1       0.600   2.158   0.262  0.00  0.00    -0.146 I 
ENDROOT
TORSDOF 0
ENDMDL
