MODEL 1
REMARK minimizedAffinity -1.40998697
REMARK minimizedRMSD -1
REMARK  0 active torsions:
REMARK  status: ('A' for Active; 'I' for Inactive)
ROOT
ATOM      1  C   UNL d   1      -0.281  -2.804   0.296  0.00  0.00     0.023 A 
ATOM      2  C1  UNL d   1      -1.122  -2.086   1.146  0.00  0.00     0.003 A 
ATOM      3  C2  UNL d   1      -0.928  -0.715   1.328  0.00  0.00     0.048 A 
ATOM      4  C3  UNL d   1       0.108  -0.068   0.655  0.00  0.00     0.023 A 
ATOM      5  C4  UNL d   1       0.951  -0.782  -0.197  0.00  0.00     0.048 A 
ATOM      6  C5  UNL d   1       0.754  -2.153  -0.375  0.00  0.00     0.003 A 
ATOM      7  I   UNL d   1       0.398   1.972   0.924  0.00  0.00    -0.146 I 
ENDROOT
TORSDOF 0
ENDMDL
