MODEL 1
REMARK minimizedAffinity -2.97304487
REMARK minimizedRMSD -1
REMARK  0 active torsions:
REMARK  status: ('A' for Active; 'I' for Inactive)
ROOT
ATOM      1  C   UNL d   1      -0.437   0.887  -2.196  0.00  0.00     0.023 A 
ATOM      2  C1  UNL d   1      -0.819   0.989  -0.858  0.00  0.00     0.003 A 
ATOM      3  C2  UNL d   1      -0.602  -0.080   0.015  0.00  0.00     0.048 A 
ATOM      4  C3  UNL d   1      -0.003  -1.247  -0.457  0.00  0.00     0.023 A 
ATOM      5  C4  UNL d   1       0.381  -1.353  -1.795  0.00  0.00     0.048 A 
ATOM      6  C5  UNL d   1       0.162  -0.283  -2.664  0.00  0.00     0.003 A 
ATOM      7  I   UNL d   1       0.321  -2.839   0.839  0.00  0.00    -0.146 I 
ENDROOT
TORSDOF 0
ENDMDL
