MODEL 1
REMARK minimizedAffinity -4.85596609
REMARK minimizedRMSD -1
REMARK  0 active torsions:
REMARK  status: ('A' for Active; 'I' for Inactive)
ROOT
ATOM      1  C   UNL d   1      -0.382  -2.956   0.334  0.00  0.00     0.023 A 
ATOM      2  C1  UNL d   1       0.171  -2.519  -0.870  0.00  0.00     0.003 A 
ATOM      3  C2  UNL d   1       0.384  -1.157  -1.088  0.00  0.00     0.048 A 
ATOM      4  C3  UNL d   1       0.043  -0.236  -0.097  0.00  0.00     0.023 A 
ATOM      5  C4  UNL d   1      -0.509  -0.669   1.109  0.00  0.00     0.048 A 
ATOM      6  C5  UNL d   1      -0.721  -2.032   1.322  0.00  0.00     0.003 A 
ATOM      7  I   UNL d   1       0.360   1.792  -0.419  0.00  0.00    -0.146 I 
ENDROOT
TORSDOF 0
ENDMDL
