MODEL 1
REMARK minimizedAffinity -3.0769372
REMARK minimizedRMSD -1
REMARK  0 active torsions:
REMARK  status: ('A' for Active; 'I' for Inactive)
ROOT
ATOM      1  C   UNL d   1      -0.845  -3.125   0.257  0.00  0.00     0.023 A 
ATOM      2  C1  UNL d   1       0.329  -2.723  -0.381  0.00  0.00     0.003 A 
ATOM      3  C2  UNL d   1       0.686  -1.373  -0.403  0.00  0.00     0.048 A 
ATOM      4  C3  UNL d   1      -0.135  -0.431   0.216  0.00  0.00     0.023 A 
ATOM      5  C4  UNL d   1      -1.309  -0.828   0.857  0.00  0.00     0.048 A 
ATOM      6  C5  UNL d   1      -1.663  -2.179   0.875  0.00  0.00     0.003 A 
ATOM      7  I   UNL d   1       0.395   1.579   0.185  0.00  0.00    -0.146 I 
ENDROOT
TORSDOF 0
ENDMDL
