MODEL 1
REMARK minimizedAffinity -3.33121657
REMARK minimizedRMSD -1
REMARK  0 active torsions:
REMARK  status: ('A' for Active; 'I' for Inactive)
ROOT
ATOM      1  C   UNL d   1      -0.306  -2.903   0.397  0.00  0.00     0.023 A 
ATOM      2  C1  UNL d   1      -1.160  -1.980   1.001  0.00  0.00     0.003 A 
ATOM      3  C2  UNL d   1      -0.857  -0.618   0.962  0.00  0.00     0.048 A 
ATOM      4  C3  UNL d   1       0.301  -0.185   0.318  0.00  0.00     0.023 A 
ATOM      5  C4  UNL d   1       1.158  -1.105  -0.289  0.00  0.00     0.048 A 
ATOM      6  C5  UNL d   1       0.851  -2.466  -0.247  0.00  0.00     0.003 A 
ATOM      7  I   UNL d   1       0.755   1.842   0.259  0.00  0.00    -0.146 I 
ENDROOT
TORSDOF 0
ENDMDL
