MODEL 1
REMARK minimizedAffinity -2.82286334
REMARK minimizedRMSD -1
REMARK  0 active torsions:
REMARK  status: ('A' for Active; 'I' for Inactive)
ROOT
ATOM      1  C   UNL d   1      -0.277  -3.787  -1.259  0.00  0.00     0.023 A 
ATOM      2  C1  UNL d   1       0.127  -2.797  -2.154  0.00  0.00     0.003 A 
ATOM      3  C2  UNL d   1       0.199  -1.466  -1.740  0.00  0.00     0.048 A 
ATOM      4  C3  UNL d   1      -0.134  -1.131  -0.428  0.00  0.00     0.023 A 
ATOM      5  C4  UNL d   1      -0.539  -2.118   0.472  0.00  0.00     0.048 A 
ATOM      6  C5  UNL d   1      -0.610  -3.448   0.053  0.00  0.00     0.003 A 
ATOM      7  I   UNL d   1      -0.028   0.850   0.192  0.00  0.00    -0.146 I 
ENDROOT
TORSDOF 0
ENDMDL
