MODEL 1
REMARK minimizedAffinity 0.0383220054
REMARK minimizedRMSD -1
REMARK  0 active torsions:
REMARK  status: ('A' for Active; 'I' for Inactive)
ROOT
ATOM      1  C   UNL d   1      -0.088   1.210  -0.281  0.00  0.00     0.023 A 
ATOM      2  C1  UNL d   1      -0.675   0.662   0.859  0.00  0.00     0.003 A 
ATOM      3  C2  UNL d   1      -0.719  -0.724   1.026  0.00  0.00     0.048 A 
ATOM      4  C3  UNL d   1      -0.173  -1.555   0.049  0.00  0.00     0.023 A 
ATOM      5  C4  UNL d   1       0.416  -1.011  -1.093  0.00  0.00     0.048 A 
ATOM      6  C5  UNL d   1       0.457   0.375  -1.256  0.00  0.00     0.003 A 
ATOM      7  I   UNL d   1      -0.237  -3.618   0.295  0.00  0.00    -0.146 I 
ENDROOT
TORSDOF 0
ENDMDL
