MODEL 1
REMARK minimizedAffinity -2.51019549
REMARK minimizedRMSD -1
REMARK  0 active torsions:
REMARK  status: ('A' for Active; 'I' for Inactive)
ROOT
ATOM      1  C   UNL d   1       0.411  -3.087   0.079  0.00  0.00     0.023 A 
ATOM      2  C1  UNL d   1       1.042  -2.359  -0.930  0.00  0.00     0.003 A 
ATOM      3  C2  UNL d   1       0.785  -0.994  -1.073  0.00  0.00     0.048 A 
ATOM      4  C3  UNL d   1      -0.103  -0.363  -0.203  0.00  0.00     0.023 A 
ATOM      5  C4  UNL d   1      -0.737  -1.087   0.808  0.00  0.00     0.048 A 
ATOM      6  C5  UNL d   1      -0.478  -2.451   0.947  0.00  0.00     0.003 A 
ATOM      7  I   UNL d   1      -0.487   1.669  -0.414  0.00  0.00    -0.146 I 
ENDROOT
TORSDOF 0
ENDMDL
