MODEL 1
REMARK minimizedAffinity 2.1769886
REMARK minimizedRMSD -1
REMARK  0 active torsions:
REMARK  status: ('A' for Active; 'I' for Inactive)
ROOT
ATOM      1  C4' PXY d   1      -3.051  -0.090   4.516  0.00  0.00     0.077 C 
ATOM      2  C1' PXY d   1       2.233  -2.270   5.375  0.00  0.00     0.077 C 
ATOM      3  C1  PXY d   1       0.842  -1.709   5.153  0.00  0.00    -0.082 A 
ATOM      4  C2  PXY d   1       0.674  -0.680   4.339  0.00  0.00     0.003 A 
ATOM      5  C3  PXY d   1      -0.573  -0.141   4.152  0.00  0.00     0.003 A 
ATOM      6  C4  PXY d   1      -1.666  -0.694   4.763  0.00  0.00    -0.082 A 
ATOM      7  C5  PXY d   1      -1.504  -1.751   5.587  0.00  0.00     0.003 A 
ATOM      8  C6  PXY d   1      -0.224  -2.258   5.796  0.00  0.00     0.003 A 
ENDROOT
TORSDOF 0
ENDMDL
