MODEL 1
REMARK minimizedAffinity 2.13454819
REMARK minimizedRMSD -1
REMARK  0 active torsions:
REMARK  status: ('A' for Active; 'I' for Inactive)
ROOT
ATOM      1  C4' PXY d   1       2.220  -2.628   5.254  0.00  0.00     0.077 C 
ATOM      2  C1' PXY d   1      -3.359  -1.118   5.345  0.00  0.00     0.077 C 
ATOM      3  C1  PXY d   1      -1.895  -1.508   5.310  0.00  0.00    -0.082 A 
ATOM      4  C2  PXY d   1      -1.482  -2.562   5.995  0.00  0.00     0.003 A 
ATOM      5  C3  PXY d   1      -0.155  -2.910   6.000  0.00  0.00     0.003 A 
ATOM      6  C4  PXY d   1       0.749  -2.203   5.253  0.00  0.00    -0.082 A 
ATOM      7  C5  PXY d   1       0.333  -1.133   4.543  0.00  0.00     0.003 A 
ATOM      8  C6  PXY d   1      -1.010  -0.772   4.584  0.00  0.00     0.003 A 
ENDROOT
TORSDOF 0
ENDMDL
