MODEL 1
REMARK minimizedAffinity -3.17950511
REMARK minimizedRMSD -1
REMARK  0 active torsions:
REMARK  status: ('A' for Active; 'I' for Inactive)
ROOT
ATOM      1  C4' PXY d   1       0.115  -1.164   0.205  0.00  0.00     0.077 C 
ATOM      2  C1' PXY d   1       2.908   3.886   0.543  0.00  0.00     0.077 C 
ATOM      3  C1  PXY d   1       2.164   2.568   0.453  0.00  0.00    -0.082 A 
ATOM      4  C2  PXY d   1       2.699   1.478   0.980  0.00  0.00     0.003 A 
ATOM      5  C3  PXY d   1       2.055   0.272   0.880  0.00  0.00     0.003 A 
ATOM      6  C4  PXY d   1       0.826   0.190   0.281  0.00  0.00    -0.082 A 
ATOM      7  C5  PXY d   1       0.270   1.299  -0.250  0.00  0.00     0.003 A 
ATOM      8  C6  PXY d   1       0.958   2.506  -0.174  0.00  0.00     0.003 A 
ENDROOT
TORSDOF 0
ENDMDL
