MODEL 1
REMARK minimizedAffinity -3.60144711
REMARK minimizedRMSD -1
REMARK  0 active torsions:
REMARK  status: ('A' for Active; 'I' for Inactive)
ROOT
ATOM      1  C4' PXY d   1       1.084   0.736   0.321  0.00  0.00     0.077 C 
ATOM      2  C1' PXY d   1      -3.570  -2.572   1.221  0.00  0.00     0.077 C 
ATOM      3  C1  PXY d   1      -2.342  -1.714   0.989  0.00  0.00    -0.082 A 
ATOM      4  C2  PXY d   1      -2.454  -0.396   0.992  0.00  0.00     0.003 A 
ATOM      5  C3  PXY d   1      -1.360   0.394   0.753  0.00  0.00     0.003 A 
ATOM      6  C4  PXY d   1      -0.127  -0.170   0.560  0.00  0.00    -0.082 A 
ATOM      7  C5  PXY d   1      -0.002  -1.514   0.566  0.00  0.00     0.003 A 
ATOM      8  C6  PXY d   1      -1.133  -2.299   0.770  0.00  0.00     0.003 A 
ENDROOT
TORSDOF 0
ENDMDL
