MODEL 1
REMARK minimizedAffinity -4.98502827
REMARK minimizedRMSD -1
REMARK  0 active torsions:
REMARK  status: ('A' for Active; 'I' for Inactive)
ROOT
ATOM      1  C4' PXY d   1      -0.069  -1.693   1.631  0.00  0.00     0.077 C 
ATOM      2  C1' PXY d   1       1.797   3.530   0.004  0.00  0.00     0.077 C 
ATOM      3  C1  PXY d   1       1.296   2.164   0.427  0.00  0.00    -0.082 A 
ATOM      4  C2  PXY d   1       1.961   1.477   1.342  0.00  0.00     0.003 A 
ATOM      5  C3  PXY d   1       1.540   0.226   1.712  0.00  0.00     0.003 A 
ATOM      6  C4  PXY d   1       0.395  -0.305   1.181  0.00  0.00    -0.082 A 
ATOM      7  C5  PXY d   1      -0.295   0.394   0.255  0.00  0.00     0.003 A 
ATOM      8  C6  PXY d   1       0.172   1.644  -0.138  0.00  0.00     0.003 A 
ENDROOT
TORSDOF 0
ENDMDL
