MODEL 1
REMARK minimizedAffinity -1.46070492
REMARK minimizedRMSD -1
REMARK  0 active torsions:
REMARK  status: ('A' for Active; 'I' for Inactive)
ROOT
ATOM      1  C4' PXY d   1       0.757   2.538  -0.307  0.00  0.00     0.077 C 
ATOM      2  C1' PXY d   1      -0.728  -2.933   0.825  0.00  0.00     0.077 C 
ATOM      3  C1  PXY d   1      -0.330  -1.502   0.520  0.00  0.00    -0.082 A 
ATOM      4  C2  PXY d   1      -0.545  -0.557   1.420  0.00  0.00     0.003 A 
ATOM      5  C3  PXY d   1      -0.221   0.747   1.147  0.00  0.00     0.003 A 
ATOM      6  C4  PXY d   1       0.380   1.078  -0.038  0.00  0.00    -0.082 A 
ATOM      7  C5  PXY d   1       0.613   0.118  -0.957  0.00  0.00     0.003 A 
ATOM      8  C6  PXY d   1       0.238  -1.193  -0.678  0.00  0.00     0.003 A 
ENDROOT
TORSDOF 0
ENDMDL
