MODEL 1
REMARK minimizedAffinity -5.52766275
REMARK minimizedRMSD -1
REMARK  0 active torsions:
REMARK  status: ('A' for Active; 'I' for Inactive)
ROOT
ATOM      1  C4' PXY d   1      -0.443  -2.904   0.489  0.00  0.00     0.077 C 
ATOM      2  C1' PXY d   1       1.335   2.592   0.267  0.00  0.00     0.077 C 
ATOM      3  C1  PXY d   1       0.863   1.152   0.314  0.00  0.00    -0.082 A 
ATOM      4  C2  PXY d   1       0.779   0.528   1.478  0.00  0.00     0.003 A 
ATOM      5  C3  PXY d   1       0.384  -0.783   1.535  0.00  0.00     0.003 A 
ATOM      6  C4  PXY d   1       0.020  -1.448   0.395  0.00  0.00    -0.082 A 
ATOM      7  C5  PXY d   1       0.093  -0.815  -0.796  0.00  0.00     0.003 A 
ATOM      8  C6  PXY d   1       0.536   0.504  -0.837  0.00  0.00     0.003 A 
ENDROOT
TORSDOF 0
ENDMDL
