MODEL 1
REMARK minimizedAffinity -3.60827684
REMARK minimizedRMSD -1
REMARK  0 active torsions:
REMARK  status: ('A' for Active; 'I' for Inactive)
ROOT
ATOM      1  C4' PXY d   1      -2.549   0.099   2.955  0.00  0.00     0.077 C 
ATOM      2  C1' PXY d   1       1.023  -1.879  -1.137  0.00  0.00     0.077 C 
ATOM      3  C1  PXY d   1       0.077  -1.368  -0.068  0.00  0.00    -0.082 A 
ATOM      4  C2  PXY d   1       0.299  -0.191   0.494  0.00  0.00     0.003 A 
ATOM      5  C3  PXY d   1      -0.528   0.272   1.484  0.00  0.00     0.003 A 
ATOM      6  C4  PXY d   1      -1.625  -0.453   1.866  0.00  0.00    -0.082 A 
ATOM      7  C5  PXY d   1      -1.865  -1.650   1.289  0.00  0.00     0.003 A 
ATOM      8  C6  PXY d   1      -0.990  -2.121   0.315  0.00  0.00     0.003 A 
ENDROOT
TORSDOF 0
ENDMDL
