MODEL 1
REMARK minimizedAffinity -4.36377335
REMARK minimizedRMSD -1
REMARK  0 active torsions:
REMARK  status: ('A' for Active; 'I' for Inactive)
ROOT
ATOM      1  C4' PXY d   1      -2.134  -2.412   1.050  0.00  0.00     0.077 C 
ATOM      2  C1' PXY d   1       2.021   1.561   0.446  0.00  0.00     0.077 C 
ATOM      3  C1  PXY d   1       0.932   0.516   0.592  0.00  0.00    -0.082 A 
ATOM      4  C2  PXY d   1       0.058   0.616   1.580  0.00  0.00     0.003 A 
ATOM      5  C3  PXY d   1      -0.914  -0.337   1.745  0.00  0.00     0.003 A 
ATOM      6  C4  PXY d   1      -1.024  -1.375   0.859  0.00  0.00    -0.082 A 
ATOM      7  C5  PXY d   1      -0.142  -1.478  -0.158  0.00  0.00     0.003 A 
ATOM      8  C6  PXY d   1       0.862  -0.522  -0.284  0.00  0.00     0.003 A 
ENDROOT
TORSDOF 0
ENDMDL
