MODEL 1
REMARK minimizedAffinity -3.89121771
REMARK minimizedRMSD -1
REMARK  0 active torsions:
REMARK  status: ('A' for Active; 'I' for Inactive)
ROOT
ATOM      1  C4' PXY d   1      -2.682  -0.715   2.106  0.00  0.00     0.077 C 
ATOM      2  C1' PXY d   1       1.672  -1.799  -1.539  0.00  0.00     0.077 C 
ATOM      3  C1  PXY d   1       0.527  -1.527  -0.583  0.00  0.00    -0.082 A 
ATOM      4  C2  PXY d   1       0.030  -0.305  -0.489  0.00  0.00     0.003 A 
ATOM      5  C3  PXY d   1      -0.985  -0.034   0.393  0.00  0.00     0.003 A 
ATOM      6  C4  PXY d   1      -1.532  -1.037   1.148  0.00  0.00    -0.082 A 
ATOM      7  C5  PXY d   1      -1.037  -2.289   1.050  0.00  0.00     0.003 A 
ATOM      8  C6  PXY d   1       0.020  -2.535   0.178  0.00  0.00     0.003 A 
ENDROOT
TORSDOF 0
ENDMDL
