MODEL 1
REMARK minimizedAffinity -4.39676666
REMARK minimizedRMSD -1
REMARK  0 active torsions:
REMARK  status: ('A' for Active; 'I' for Inactive)
ROOT
ATOM      1  C4' PXY d   1      -0.572   1.524   0.015  0.00  0.00     0.077 C 
ATOM      2  C1' PXY d   1       0.491  -4.123  -0.613  0.00  0.00     0.077 C 
ATOM      3  C1  PXY d   1       0.221  -2.639  -0.457  0.00  0.00    -0.082 A 
ATOM      4  C2  PXY d   1      -0.327  -2.188   0.660  0.00  0.00     0.003 A 
ATOM      5  C3  PXY d   1      -0.607  -0.853   0.804  0.00  0.00     0.003 A 
ATOM      6  C4  PXY d   1      -0.274   0.035  -0.183  0.00  0.00    -0.082 A 
ATOM      7  C5  PXY d   1       0.295  -0.416  -1.320  0.00  0.00     0.003 A 
ATOM      8  C6  PXY d   1       0.533  -1.780  -1.464  0.00  0.00     0.003 A 
ENDROOT
TORSDOF 0
ENDMDL
