MODEL 1
REMARK minimizedAffinity 0.076551199
REMARK minimizedRMSD -1
REMARK  0 active torsions:
REMARK  status: ('A' for Active; 'I' for Inactive)
ROOT
ATOM      1  C4' PXY d   1      -2.528  -3.013   1.169  0.00  0.00     0.077 C 
ATOM      2  C1' PXY d   1       0.601   1.742   0.161  0.00  0.00     0.077 C 
ATOM      3  C1  PXY d   1      -0.224   0.500   0.437  0.00  0.00    -0.082 A 
ATOM      4  C2  PXY d   1       0.115  -0.648  -0.127  0.00  0.00     0.003 A 
ATOM      5  C3  PXY d   1      -0.639  -1.774   0.086  0.00  0.00     0.003 A 
ATOM      6  C4  PXY d   1      -1.719  -1.736   0.926  0.00  0.00    -0.082 A 
ATOM      7  C5  PXY d   1      -2.064  -0.571   1.514  0.00  0.00     0.003 A 
ATOM      8  C6  PXY d   1      -1.310   0.570   1.252  0.00  0.00     0.003 A 
ENDROOT
TORSDOF 0
ENDMDL
