MODEL 1
REMARK minimizedAffinity -6.22789288
REMARK minimizedRMSD -1
REMARK  0 active torsions:
REMARK  status: ('A' for Active; 'I' for Inactive)
ROOT
ATOM      1  C4' PXY d   1       1.455   2.433   0.553  0.00  0.00     0.077 C 
ATOM      2  C1' PXY d   1      -1.298  -2.611   1.180  0.00  0.00     0.077 C 
ATOM      3  C1  PXY d   1      -0.577  -1.286   1.028  0.00  0.00    -0.082 A 
ATOM      4  C2  PXY d   1      -0.575  -0.673  -0.144  0.00  0.00     0.003 A 
ATOM      5  C3  PXY d   1       0.099   0.510  -0.307  0.00  0.00     0.003 A 
ATOM      6  C4  PXY d   1       0.733   1.098   0.755  0.00  0.00    -0.082 A 
ATOM      7  C5  PXY d   1       0.726   0.484   1.957  0.00  0.00     0.003 A 
ATOM      8  C6  PXY d   1       0.072  -0.737   2.091  0.00  0.00     0.003 A 
ENDROOT
TORSDOF 0
ENDMDL
