MODEL 1
REMARK minimizedAffinity -3.5945065
REMARK minimizedRMSD -1
REMARK  0 active torsions:
REMARK  status: ('A' for Active; 'I' for Inactive)
ROOT
ATOM      1  C4' PXY d   1       1.663   3.407   0.191  0.00  0.00     0.077 C 
ATOM      2  C1' PXY d   1      -1.078  -1.590   1.156  0.00  0.00     0.077 C 
ATOM      3  C1  PXY d   1      -0.361  -0.281   0.890  0.00  0.00    -0.082 A 
ATOM      4  C2  PXY d   1       0.510   0.179   1.773  0.00  0.00     0.003 A 
ATOM      5  C3  PXY d   1       1.143   1.377   1.564  0.00  0.00     0.003 A 
ATOM      6  C4  PXY d   1       0.923   2.085   0.413  0.00  0.00    -0.082 A 
ATOM      7  C5  PXY d   1       0.044   1.617  -0.498  0.00  0.00     0.003 A 
ATOM      8  C6  PXY d   1      -0.620   0.420  -0.248  0.00  0.00     0.003 A 
ENDROOT
TORSDOF 0
ENDMDL
