MODEL 1
REMARK minimizedAffinity -2.1979003
REMARK minimizedRMSD -1
REMARK  0 active torsions:
REMARK  status: ('A' for Active; 'I' for Inactive)
ROOT
ATOM      1  C4' PXY d   1       1.324   3.333   0.211  0.00  0.00     0.077 C 
ATOM      2  C1' PXY d   1      -1.200  -1.820   0.909  0.00  0.00     0.077 C 
ATOM      3  C1  PXY d   1      -0.536  -0.471   0.713  0.00  0.00    -0.082 A 
ATOM      4  C2  PXY d   1      -0.014   0.158   1.754  0.00  0.00     0.003 A 
ATOM      5  C3  PXY d   1       0.562   1.393   1.600  0.00  0.00     0.003 A 
ATOM      6  C4  PXY d   1       0.652   1.966   0.360  0.00  0.00    -0.082 A 
ATOM      7  C5  PXY d   1       0.131   1.325  -0.708  0.00  0.00     0.003 A 
ATOM      8  C6  PXY d   1      -0.486   0.091  -0.524  0.00  0.00     0.003 A 
ENDROOT
TORSDOF 0
ENDMDL
