MODEL 1
REMARK minimizedAffinity -4.19286108
REMARK minimizedRMSD -1
REMARK  0 active torsions:
REMARK  status: ('A' for Active; 'I' for Inactive)
ROOT
ATOM      1  C4' PXY d   1      -3.693  -2.858   0.287  0.00  0.00     0.077 C 
ATOM      2  C1' PXY d   1       1.028  -0.154   2.240  0.00  0.00     0.077 C 
ATOM      3  C1  PXY d   1      -0.203  -0.870   1.720  0.00  0.00    -0.082 A 
ATOM      4  C2  PXY d   1      -1.379  -0.265   1.762  0.00  0.00     0.003 A 
ATOM      5  C3  PXY d   1      -2.507  -0.911   1.325  0.00  0.00     0.003 A 
ATOM      6  C4  PXY d   1      -2.423  -2.169   0.792  0.00  0.00    -0.082 A 
ATOM      7  C5  PXY d   1      -1.225  -2.789   0.736  0.00  0.00     0.003 A 
ATOM      8  C6  PXY d   1      -0.098  -2.132   1.222  0.00  0.00     0.003 A 
ENDROOT
TORSDOF 0
ENDMDL
