MODEL 1
REMARK minimizedAffinity -3.75411391
REMARK minimizedRMSD -1
REMARK  0 active torsions:
REMARK  status: ('A' for Active; 'I' for Inactive)
ROOT
ATOM      1  C4' PXY d   1       0.099  -1.682  -2.884  0.00  0.00     0.077 C 
ATOM      2  C1' PXY d   1      -1.590  -1.072   2.611  0.00  0.00     0.077 C 
ATOM      3  C1  PXY d   1      -1.148  -1.220   1.168  0.00  0.00    -0.082 A 
ATOM      4  C2  PXY d   1      -1.299  -2.381   0.553  0.00  0.00     0.003 A 
ATOM      5  C3  PXY d   1      -0.876  -2.541  -0.741  0.00  0.00     0.003 A 
ATOM      6  C4  PXY d   1      -0.342  -1.485  -1.431  0.00  0.00    -0.082 A 
ATOM      7  C5  PXY d   1      -0.194  -0.294  -0.814  0.00  0.00     0.003 A 
ATOM      8  C6  PXY d   1      -0.592  -0.164   0.514  0.00  0.00     0.003 A 
ENDROOT
TORSDOF 0
ENDMDL
