MODEL 1
REMARK minimizedAffinity -1.5145179
REMARK minimizedRMSD -1
REMARK  0 active torsions:
REMARK  status: ('A' for Active; 'I' for Inactive)
ROOT
ATOM      1  C4' PXY d   1       0.418  -1.126  -2.652  0.00  0.00     0.077 C 
ATOM      2  C1' PXY d   1      -1.406  -0.815   2.825  0.00  0.00     0.077 C 
ATOM      3  C1  PXY d   1      -0.926  -0.884   1.388  0.00  0.00    -0.082 A 
ATOM      4  C2  PXY d   1      -1.251  -1.925   0.639  0.00  0.00     0.003 A 
ATOM      5  C3  PXY d   1      -0.799  -2.019  -0.652  0.00  0.00     0.003 A 
ATOM      6  C4  PXY d   1      -0.051  -1.011  -1.199  0.00  0.00    -0.082 A 
ATOM      7  C5  PXY d   1       0.275   0.060  -0.445  0.00  0.00     0.003 A 
ATOM      8  C6  PXY d   1      -0.159   0.116   0.877  0.00  0.00     0.003 A 
ENDROOT
TORSDOF 0
ENDMDL
