MODEL 1
REMARK minimizedAffinity -2.19329643
REMARK minimizedRMSD -1
REMARK  0 active torsions:
REMARK  status: ('A' for Active; 'I' for Inactive)
ROOT
ATOM      1  C4' PXY d   1      -1.009  -3.097  -2.284  0.00  0.00     0.077 C 
ATOM      2  C1' PXY d   1      -0.241  -0.304   2.718  0.00  0.00     0.077 C 
ATOM      3  C1  PXY d   1      -0.444  -1.048   1.413  0.00  0.00    -0.082 A 
ATOM      4  C2  PXY d   1      -0.005  -0.517   0.283  0.00  0.00     0.003 A 
ATOM      5  C3  PXY d   1      -0.207  -1.161  -0.911  0.00  0.00     0.003 A 
ATOM      6  C4  PXY d   1      -0.818  -2.386  -0.942  0.00  0.00    -0.082 A 
ATOM      7  C5  PXY d   1      -1.260  -2.939   0.208  0.00  0.00     0.003 A 
ATOM      8  C6  PXY d   1      -1.081  -2.250   1.404  0.00  0.00     0.003 A 
ENDROOT
TORSDOF 0
ENDMDL
