MODEL 1
REMARK minimizedAffinity -4.41732216
REMARK minimizedRMSD -1
REMARK  0 active torsions:
REMARK  status: ('A' for Active; 'I' for Inactive)
ROOT
ATOM      1  C4' PXY d   1       1.053   2.401  -0.234  0.00  0.00     0.077 C 
ATOM      2  C1' PXY d   1      -1.151  -2.814   0.934  0.00  0.00     0.077 C 
ATOM      3  C1  PXY d   1      -0.566  -1.451   0.618  0.00  0.00    -0.082 A 
ATOM      4  C2  PXY d   1      -0.446  -0.551   1.580  0.00  0.00     0.003 A 
ATOM      5  C3  PXY d   1       0.050   0.697   1.305  0.00  0.00     0.003 A 
ATOM      6  C4  PXY d   1       0.478   1.009   0.042  0.00  0.00    -0.082 A 
ATOM      7  C5  PXY d   1       0.368   0.093  -0.943  0.00  0.00     0.003 A 
ATOM      8  C6  PXY d   1      -0.177  -1.154  -0.652  0.00  0.00     0.003 A 
ENDROOT
TORSDOF 0
ENDMDL
