MODEL 1
REMARK minimizedAffinity -4.90176105
REMARK minimizedRMSD -1
REMARK  1 active torsions:
REMARK  status: ('A' for Active; 'I' for Inactive)
REMARK    1  A    between atoms: C3_4  and  O_7 
ROOT
ATOM      1  C   UNL d   1       1.163  -0.023  -4.075  0.00  0.00    -0.033 A 
ATOM      2  C1  UNL d   1       2.511   0.340  -4.031  0.00  0.00     0.039 A 
ATOM      3  C2  UNL d   1       3.418  -0.429  -3.300  0.00  0.00    -0.080 A 
ATOM      4  C3  UNL d   1       2.967  -1.556  -2.619  0.00  0.00     0.150 A 
ATOM      5  C4  UNL d   1       1.626  -1.925  -2.661  0.00  0.00    -0.007 A 
ATOM      6  C5  UNL d   1       0.721  -1.156  -3.391  0.00  0.00     0.039 A 
ENDROOT
BRANCH   4   7
ATOM      7  O   UNL d   1       3.815  -2.334  -1.888  0.00  0.00    -0.526 OA
ATOM      8  H5  UNL d   1       4.703  -1.942  -1.926  0.00  0.00     0.418 HD
ENDBRANCH   4   7
TORSDOF 1
ENDMDL
