MODEL 1
REMARK minimizedAffinity -1.6854651
REMARK minimizedRMSD -1
REMARK  1 active torsions:
REMARK  status: ('A' for Active; 'I' for Inactive)
REMARK    1  A    between atoms: C3_4  and  O_7 
ROOT
ATOM      1  C   UNL d   1      -3.826  -1.649   1.226  0.00  0.00    -0.033 A 
ATOM      2  C1  UNL d   1      -2.670  -0.962   0.852  0.00  0.00     0.039 A 
ATOM      3  C2  UNL d   1      -1.992  -0.173   1.783  0.00  0.00    -0.080 A 
ATOM      4  C3  UNL d   1      -2.480  -0.080   3.084  0.00  0.00     0.150 A 
ATOM      5  C4  UNL d   1      -3.629  -0.765   3.464  0.00  0.00    -0.007 A 
ATOM      6  C5  UNL d   1      -4.305  -1.551   2.533  0.00  0.00     0.039 A 
ENDROOT
BRANCH   4   7
ATOM      7  O   UNL d   1      -1.856   0.681   4.027  0.00  0.00    -0.526 OA
ATOM      8  H5  UNL d   1      -1.093   1.119   3.613  0.00  0.00     0.418 HD
ENDBRANCH   4   7
TORSDOF 1
ENDMDL
