MODEL 1
REMARK minimizedAffinity -1.75702202
REMARK minimizedRMSD -1
REMARK  1 active torsions:
REMARK  status: ('A' for Active; 'I' for Inactive)
REMARK    1  A    between atoms: C3_4  and  O_7 
ROOT
ATOM      1  C   UNL d   1      -2.046  -0.787   1.983  0.00  0.00    -0.033 A 
ATOM      2  C1  UNL d   1      -2.356  -1.261   0.707  0.00  0.00     0.039 A 
ATOM      3  C2  UNL d   1      -3.666  -1.630   0.396  0.00  0.00    -0.080 A 
ATOM      4  C3  UNL d   1      -4.655  -1.521   1.369  0.00  0.00     0.150 A 
ATOM      5  C4  UNL d   1      -4.355  -1.046   2.642  0.00  0.00    -0.007 A 
ATOM      6  C5  UNL d   1      -3.046  -0.679   2.950  0.00  0.00     0.039 A 
ENDROOT
BRANCH   4   7
ATOM      7  O   UNL d   1      -5.947  -1.874   1.114  0.00  0.00    -0.526 OA
ATOM      8  H5  UNL d   1      -6.001  -2.210   0.204  0.00  0.00     0.418 HD
ENDBRANCH   4   7
TORSDOF 1
ENDMDL
