MODEL 1
REMARK minimizedAffinity -1.86824763
REMARK minimizedRMSD -1
REMARK  1 active torsions:
REMARK  status: ('A' for Active; 'I' for Inactive)
REMARK    1  A    between atoms: C3_4  and  O_7 
ROOT
ATOM      1  C   UNL d   1       4.210   0.284  -5.447  0.00  0.00    -0.033 A 
ATOM      2  C1  UNL d   1       5.380   0.368  -4.690  0.00  0.00     0.039 A 
ATOM      3  C2  UNL d   1       5.995   1.604  -4.488  0.00  0.00    -0.080 A 
ATOM      4  C3  UNL d   1       5.431   2.748  -5.045  0.00  0.00     0.150 A 
ATOM      5  C4  UNL d   1       4.263   2.673  -5.797  0.00  0.00    -0.007 A 
ATOM      6  C5  UNL d   1       3.650   1.436  -5.999  0.00  0.00     0.039 A 
ENDROOT
BRANCH   4   7
ATOM      7  O   UNL d   1       5.998   3.977  -4.879  0.00  0.00    -0.526 OA
ATOM      8  H5  UNL d   1       6.814   3.871  -4.362  0.00  0.00     0.418 HD
ENDBRANCH   4   7
TORSDOF 1
ENDMDL
