MODEL 1
REMARK minimizedAffinity 1.65549934
REMARK minimizedRMSD -1
REMARK  1 active torsions:
REMARK  status: ('A' for Active; 'I' for Inactive)
REMARK    1  A    between atoms: C3_4  and  O_7 
ROOT
ATOM      1  C   UNL d   1      -2.812  -0.791   3.403  0.00  0.00    -0.033 A 
ATOM      2  C1  UNL d   1      -2.863  -1.647   2.301  0.00  0.00     0.039 A 
ATOM      3  C2  UNL d   1      -2.790  -1.127   1.007  0.00  0.00    -0.080 A 
ATOM      4  C3  UNL d   1      -2.665   0.248   0.829  0.00  0.00     0.150 A 
ATOM      5  C4  UNL d   1      -2.610   1.106   1.923  0.00  0.00    -0.007 A 
ATOM      6  C5  UNL d   1      -2.684   0.585   3.214  0.00  0.00     0.039 A 
ENDROOT
BRANCH   4   7
ATOM      7  O   UNL d   1      -2.596   0.802  -0.414  0.00  0.00    -0.526 OA
ATOM      8  H5  UNL d   1      -2.675   0.092  -1.073  0.00  0.00     0.418 HD
ENDBRANCH   4   7
TORSDOF 1
ENDMDL
