MODEL 1
REMARK minimizedAffinity 0.556241155
REMARK minimizedRMSD -1
REMARK  1 active torsions:
REMARK  status: ('A' for Active; 'I' for Inactive)
REMARK    1  A    between atoms: C3_4  and  O_7 
ROOT
ATOM      1  C   UNL d   1      -3.213  -0.019   1.469  0.00  0.00    -0.033 A 
ATOM      2  C1  UNL d   1      -2.577   1.110   1.989  0.00  0.00     0.039 A 
ATOM      3  C2  UNL d   1      -2.362   2.227   1.180  0.00  0.00    -0.080 A 
ATOM      4  C3  UNL d   1      -2.789   2.204  -0.145  0.00  0.00     0.150 A 
ATOM      5  C4  UNL d   1      -3.427   1.084  -0.668  0.00  0.00    -0.007 A 
ATOM      6  C5  UNL d   1      -3.639  -0.031   0.140  0.00  0.00     0.039 A 
ENDROOT
BRANCH   4   7
ATOM      7  O   UNL d   1      -2.597   3.269  -0.974  0.00  0.00    -0.526 OA
ATOM      8  H5  UNL d   1      -2.119   3.958  -0.484  0.00  0.00     0.418 HD
ENDBRANCH   4   7
TORSDOF 1
ENDMDL
