MODEL 1
REMARK minimizedAffinity -1.17903852
REMARK minimizedRMSD -1
REMARK  1 active torsions:
REMARK  status: ('A' for Active; 'I' for Inactive)
REMARK    1  A    between atoms: C3_4  and  O_7 
ROOT
ATOM      1  C   UNL d   1       5.804   1.629   4.001  0.00  0.00    -0.033 A 
ATOM      2  C1  UNL d   1       5.999   0.743   5.062  0.00  0.00     0.039 A 
ATOM      3  C2  UNL d   1       5.258  -0.438   5.133  0.00  0.00    -0.080 A 
ATOM      4  C3  UNL d   1       4.327  -0.722   4.137  0.00  0.00     0.150 A 
ATOM      5  C4  UNL d   1       4.131   0.154   3.075  0.00  0.00    -0.007 A 
ATOM      6  C5  UNL d   1       4.871   1.334   3.006  0.00  0.00     0.039 A 
ENDROOT
BRANCH   4   7
ATOM      7  O   UNL d   1       3.577  -1.860   4.166  0.00  0.00    -0.526 OA
ATOM      8  H5  UNL d   1       3.800  -2.355   4.972  0.00  0.00     0.418 HD
ENDBRANCH   4   7
TORSDOF 1
ENDMDL
