MODEL 1
REMARK minimizedAffinity -0.0150908325
REMARK minimizedRMSD -1
REMARK  1 active torsions:
REMARK  status: ('A' for Active; 'I' for Inactive)
REMARK    1  A    between atoms: C3_4  and  O_7 
ROOT
ATOM      1  C   UNL d   1       3.507   0.027   1.922  0.00  0.00    -0.033 A 
ATOM      2  C1  UNL d   1       3.721  -0.974   2.872  0.00  0.00     0.039 A 
ATOM      3  C2  UNL d   1       4.557  -0.736   3.964  0.00  0.00    -0.080 A 
ATOM      4  C3  UNL d   1       5.171   0.507   4.096  0.00  0.00     0.150 A 
ATOM      5  C4  UNL d   1       4.960   1.510   3.156  0.00  0.00    -0.007 A 
ATOM      6  C5  UNL d   1       4.125   1.269   2.065  0.00  0.00     0.039 A 
ENDROOT
BRANCH   4   7
ATOM      7  O   UNL d   1       6.000   0.785   5.142  0.00  0.00    -0.526 OA
ATOM      8  H5  UNL d   1       6.074  -0.011   5.696  0.00  0.00     0.418 HD
ENDBRANCH   4   7
TORSDOF 1
ENDMDL
