MODEL 1
REMARK minimizedAffinity -2.85018158
REMARK minimizedRMSD -1
REMARK  1 active torsions:
REMARK  status: ('A' for Active; 'I' for Inactive)
REMARK    1  A    between atoms: C3_4  and  O_7 
ROOT
ATOM      1  C   UNL d   1      -2.997  -0.653   0.933  0.00  0.00    -0.033 A 
ATOM      2  C1  UNL d   1      -2.546   0.652   0.724  0.00  0.00     0.039 A 
ATOM      3  C2  UNL d   1      -2.452   1.540   1.797  0.00  0.00    -0.080 A 
ATOM      4  C3  UNL d   1      -2.810   1.112   3.072  0.00  0.00     0.150 A 
ATOM      5  C4  UNL d   1      -3.256  -0.188   3.288  0.00  0.00    -0.007 A 
ATOM      6  C5  UNL d   1      -3.351  -1.073   2.216  0.00  0.00     0.039 A 
ENDROOT
BRANCH   4   7
ATOM      7  O   UNL d   1      -2.739   1.944   4.150  0.00  0.00    -0.526 OA
ATOM      8  H5  UNL d   1      -2.442   2.817   3.845  0.00  0.00     0.418 HD
ENDBRANCH   4   7
TORSDOF 1
ENDMDL
