MODEL 1
REMARK minimizedAffinity -4.91323233
REMARK minimizedRMSD -1
REMARK  1 active torsions:
REMARK  status: ('A' for Active; 'I' for Inactive)
REMARK    1  A    between atoms: C3_4  and  O_7 
ROOT
ATOM      1  C   UNL d   1      -3.100  -0.728   2.275  0.00  0.00    -0.033 A 
ATOM      2  C1  UNL d   1      -2.986  -0.077   3.504  0.00  0.00     0.039 A 
ATOM      3  C2  UNL d   1      -2.736   1.296   3.549  0.00  0.00    -0.080 A 
ATOM      4  C3  UNL d   1      -2.602   2.005   2.358  0.00  0.00     0.150 A 
ATOM      5  C4  UNL d   1      -2.718   1.363   1.130  0.00  0.00    -0.007 A 
ATOM      6  C5  UNL d   1      -2.968  -0.008   1.087  0.00  0.00     0.039 A 
ENDROOT
BRANCH   4   7
ATOM      7  O   UNL d   1      -2.353   3.345   2.351  0.00  0.00    -0.526 OA
ATOM      8  H5  UNL d   1      -2.269   3.648   3.271  0.00  0.00     0.418 HD
ENDBRANCH   4   7
TORSDOF 1
ENDMDL
