MODEL 1
REMARK minimizedAffinity 3.12671709
REMARK minimizedRMSD -1
REMARK  1 active torsions:
REMARK  status: ('A' for Active; 'I' for Inactive)
REMARK    1  A    between atoms: C3_4  and  O_7 
ROOT
ATOM      1  C   UNL d   1       5.978   0.245   3.747  0.00  0.00    -0.033 A 
ATOM      2  C1  UNL d   1       5.039  -0.043   2.754  0.00  0.00     0.039 A 
ATOM      3  C2  UNL d   1       4.118   0.929   2.360  0.00  0.00    -0.080 A 
ATOM      4  C3  UNL d   1       4.146   2.183   2.964  0.00  0.00     0.150 A 
ATOM      5  C4  UNL d   1       5.081   2.478   3.950  0.00  0.00    -0.007 A 
ATOM      6  C5  UNL d   1       6.000   1.506   4.344  0.00  0.00     0.039 A 
ENDROOT
BRANCH   4   7
ATOM      7  O   UNL d   1       3.264   3.162   2.615  0.00  0.00    -0.526 OA
ATOM      8  H5  UNL d   1       2.660   2.806   1.942  0.00  0.00     0.418 HD
ENDBRANCH   4   7
TORSDOF 1
ENDMDL
