MODEL 1
REMARK minimizedAffinity 1.7107811
REMARK minimizedRMSD -1
REMARK  1 active torsions:
REMARK  status: ('A' for Active; 'I' for Inactive)
REMARK    1  A    between atoms: C3_4  and  O_7 
ROOT
ATOM      1  C   UNL d   1      -3.387  -1.359   2.457  0.00  0.00    -0.033 A 
ATOM      2  C1  UNL d   1      -2.289  -0.655   2.954  0.00  0.00     0.039 A 
ATOM      3  C2  UNL d   1      -2.474   0.352   3.903  0.00  0.00    -0.080 A 
ATOM      4  C3  UNL d   1      -3.760   0.644   4.348  0.00  0.00     0.150 A 
ATOM      5  C4  UNL d   1      -4.859  -0.056   3.860  0.00  0.00    -0.007 A 
ATOM      6  C5  UNL d   1      -4.672  -1.061   2.911  0.00  0.00     0.039 A 
ENDROOT
BRANCH   4   7
ATOM      7  O   UNL d   1      -3.991   1.621   5.270  0.00  0.00    -0.526 OA
ATOM      8  H5  UNL d   1      -3.143   2.039   5.495  0.00  0.00     0.418 HD
ENDBRANCH   4   7
TORSDOF 1
ENDMDL
