MODEL 1
REMARK minimizedAffinity -4.83726883
REMARK minimizedRMSD -1
REMARK  1 active torsions:
REMARK  status: ('A' for Active; 'I' for Inactive)
REMARK    1  A    between atoms: C3_4  and  O_7 
ROOT
ATOM      1  C   UNL d   1      -2.509  -0.327   0.904  0.00  0.00    -0.033 A 
ATOM      2  C1  UNL d   1      -3.351  -1.115   1.691  0.00  0.00     0.039 A 
ATOM      3  C2  UNL d   1      -3.757  -0.665   2.949  0.00  0.00    -0.080 A 
ATOM      4  C3  UNL d   1      -3.315   0.573   3.407  0.00  0.00     0.150 A 
ATOM      5  C4  UNL d   1      -2.480   1.365   2.626  0.00  0.00    -0.007 A 
ATOM      6  C5  UNL d   1      -2.075   0.914   1.371  0.00  0.00     0.039 A 
ENDROOT
BRANCH   4   7
ATOM      7  O   UNL d   1      -3.681   1.052   4.630  0.00  0.00    -0.526 OA
ATOM      8  H5  UNL d   1      -4.235   0.385   5.068  0.00  0.00     0.418 HD
ENDBRANCH   4   7
TORSDOF 1
ENDMDL
