MODEL 1
REMARK minimizedAffinity -0.719395041
REMARK minimizedRMSD -1
REMARK  1 active torsions:
REMARK  status: ('A' for Active; 'I' for Inactive)
REMARK    1  A    between atoms: C3_4  and  O_7 
ROOT
ATOM      1  C   UNL d   1       4.925   0.125  -4.949  0.00  0.00    -0.033 A 
ATOM      2  C1  UNL d   1       5.993   0.934  -4.559  0.00  0.00     0.039 A 
ATOM      3  C2  UNL d   1       6.000   2.291  -4.887  0.00  0.00    -0.080 A 
ATOM      4  C3  UNL d   1       4.933   2.826  -5.604  0.00  0.00     0.150 A 
ATOM      5  C4  UNL d   1       3.863   2.026  -5.993  0.00  0.00    -0.007 A 
ATOM      6  C5  UNL d   1       3.859   0.671  -5.665  0.00  0.00     0.039 A 
ENDROOT
BRANCH   4   7
ATOM      7  O   UNL d   1       4.897   4.144  -5.952  0.00  0.00    -0.526 OA
ATOM      8  H5  UNL d   1       5.715   4.566  -5.642  0.00  0.00     0.418 HD
ENDBRANCH   4   7
TORSDOF 1
ENDMDL
