MODEL 1
REMARK minimizedAffinity 1.26128459
REMARK minimizedRMSD -1
REMARK  1 active torsions:
REMARK  status: ('A' for Active; 'I' for Inactive)
REMARK    1  A    between atoms: C3_4  and  O_7 
ROOT
ATOM      1  C   UNL d   1       5.210  -0.405   4.929  0.00  0.00    -0.033 A 
ATOM      2  C1  UNL d   1       5.990   0.751   4.996  0.00  0.00     0.039 A 
ATOM      3  C2  UNL d   1       5.569   1.917   4.353  0.00  0.00    -0.080 A 
ATOM      4  C3  UNL d   1       4.368   1.914   3.650  0.00  0.00     0.150 A 
ATOM      5  C4  UNL d   1       3.584   0.767   3.582  0.00  0.00    -0.007 A 
ATOM      6  C5  UNL d   1       4.006  -0.397   4.223  0.00  0.00     0.039 A 
ENDROOT
BRANCH   4   7
ATOM      7  O   UNL d   1       3.918   3.027   3.003  0.00  0.00    -0.526 OA
ATOM      8  H5  UNL d   1       4.576   3.733   3.112  0.00  0.00     0.418 HD
ENDBRANCH   4   7
TORSDOF 1
ENDMDL
