MODEL 1
REMARK minimizedAffinity -2.5069015
REMARK minimizedRMSD -1
REMARK  1 active torsions:
REMARK  status: ('A' for Active; 'I' for Inactive)
REMARK    1  A    between atoms: C3_4  and  O_7 
ROOT
ATOM      1  C   UNL d   1      -3.727   4.264   1.117  0.00  0.00    -0.033 A 
ATOM      2  C1  UNL d   1      -3.239   3.081   1.674  0.00  0.00     0.039 A 
ATOM      3  C2  UNL d   1      -2.371   2.269   0.942  0.00  0.00    -0.080 A 
ATOM      4  C3  UNL d   1      -1.999   2.651  -0.344  0.00  0.00     0.150 A 
ATOM      5  C4  UNL d   1      -2.479   3.830  -0.904  0.00  0.00    -0.007 A 
ATOM      6  C5  UNL d   1      -3.346   4.639  -0.172  0.00  0.00     0.039 A 
ENDROOT
BRANCH   4   7
ATOM      7  O   UNL d   1      -1.158   1.888  -1.099  0.00  0.00    -0.526 OA
ATOM      8  H5  UNL d   1      -0.930   1.090  -0.594  0.00  0.00     0.418 HD
ENDBRANCH   4   7
TORSDOF 1
ENDMDL
