MODEL 1
REMARK minimizedAffinity -0.622877717
REMARK minimizedRMSD -1
REMARK  1 active torsions:
REMARK  status: ('A' for Active; 'I' for Inactive)
REMARK    1  A    between atoms: C3_4  and  O_7 
ROOT
ATOM      1  C   UNL d   1      -2.976   0.737   1.542  0.00  0.00    -0.033 A 
ATOM      2  C1  UNL d   1      -2.653   2.026   1.971  0.00  0.00     0.039 A 
ATOM      3  C2  UNL d   1      -2.595   3.076   1.053  0.00  0.00    -0.080 A 
ATOM      4  C3  UNL d   1      -2.863   2.825  -0.290  0.00  0.00     0.150 A 
ATOM      5  C4  UNL d   1      -3.190   1.544  -0.724  0.00  0.00    -0.007 A 
ATOM      6  C5  UNL d   1      -3.246   0.497   0.194  0.00  0.00     0.039 A 
ENDROOT
BRANCH   4   7
ATOM      7  O   UNL d   1      -2.815   3.817  -1.224  0.00  0.00    -0.526 OA
ATOM      8  H5  UNL d   1      -2.548   4.641  -0.784  0.00  0.00     0.418 HD
ENDBRANCH   4   7
TORSDOF 1
ENDMDL
