MODEL 1
REMARK minimizedAffinity -5.87427616
REMARK minimizedRMSD -1
REMARK  1 active torsions:
REMARK  status: ('A' for Active; 'I' for Inactive)
REMARK    1  A    between atoms: C1_2  and  C2_3 
ROOT
ATOM      1  C2  UNL d   1       0.005  -0.131  -0.176  0.00  0.00    -0.073 A 
ATOM      2  C3  UNL d   1      -1.243   0.449   0.076  0.00  0.00    -0.002 A 
ATOM      3  C4  UNL d   1      -1.549   0.939   1.346  0.00  0.00     0.004 A 
ATOM      4  C5  UNL d   1      -0.609   0.861   2.374  0.00  0.00    -0.004 A 
ATOM      5  C6  UNL d   1       0.648   0.297   2.138  0.00  0.00    -0.075 A 
ATOM      6  C7  UNL d   1       1.670   0.204   3.234  0.00  0.00     0.076 C 
ATOM      7  C8  UNL d   1       0.947  -0.196   0.861  0.00  0.00     0.001 A 
ENDROOT
BRANCH   1   8
ATOM      8  C1  UNL d   1       0.343  -0.656  -1.548  0.00  0.00     0.053 C 
ATOM      9  C   UNL d   1       0.749   0.457  -2.500  0.00  0.00     0.018 C 
ENDBRANCH   1   8
TORSDOF 1
ENDMDL
