MODEL 1
REMARK minimizedAffinity -4.03935909
REMARK minimizedRMSD -1
REMARK  1 active torsions:
REMARK  status: ('A' for Active; 'I' for Inactive)
REMARK    1  A    between atoms: C1_2  and  C2_3 
ROOT
ATOM      1  C2  UNL d   1       0.305  -0.541  -0.197  0.00  0.00    -0.073 A 
ATOM      2  C3  UNL d   1      -1.039  -0.649  -0.571  0.00  0.00    -0.002 A 
ATOM      3  C4  UNL d   1      -2.043  -0.135   0.252  0.00  0.00     0.004 A 
ATOM      4  C5  UNL d   1      -1.713   0.495   1.451  0.00  0.00    -0.004 A 
ATOM      5  C6  UNL d   1      -0.374   0.623   1.836  0.00  0.00    -0.075 A 
ATOM      6  C7  UNL d   1      -0.003   1.296   3.125  0.00  0.00     0.076 C 
ATOM      7  C8  UNL d   1       0.628   0.102   1.006  0.00  0.00     0.001 A 
ENDROOT
BRANCH   1   8
ATOM      8  C1  UNL d   1       1.392  -1.088  -1.086  0.00  0.00     0.053 C 
ATOM      9  C   UNL d   1       1.148  -0.764  -2.551  0.00  0.00     0.018 C 
ENDBRANCH   1   8
TORSDOF 1
ENDMDL
