MODEL 1
REMARK minimizedAffinity -6.80800533
REMARK minimizedRMSD -1
REMARK  1 active torsions:
REMARK  status: ('A' for Active; 'I' for Inactive)
REMARK    1  A    between atoms: C1_2  and  C2_3 
ROOT
ATOM      1  C2  UNL d   1      -0.169   0.258   1.842  0.00  0.00    -0.073 A 
ATOM      2  C3  UNL d   1      -1.549   0.490   1.826  0.00  0.00    -0.002 A 
ATOM      3  C4  UNL d   1      -2.284   0.289   0.656  0.00  0.00     0.004 A 
ATOM      4  C5  UNL d   1      -1.649  -0.151  -0.505  0.00  0.00    -0.004 A 
ATOM      5  C6  UNL d   1      -0.273  -0.399  -0.506  0.00  0.00    -0.075 A 
ATOM      6  C7  UNL d   1       0.426  -0.871  -1.747  0.00  0.00     0.076 C 
ATOM      7  C8  UNL d   1       0.459  -0.193   0.672  0.00  0.00     0.001 A 
ENDROOT
BRANCH   1   8
ATOM      8  C1  UNL d   1       0.627   0.467   3.104  0.00  0.00     0.053 C 
ATOM      9  C   UNL d   1       1.972  -0.240   3.053  0.00  0.00     0.018 C 
ENDBRANCH   1   8
TORSDOF 1
ENDMDL
