MODEL 1
REMARK minimizedAffinity -4.84631872
REMARK minimizedRMSD -1
REMARK  1 active torsions:
REMARK  status: ('A' for Active; 'I' for Inactive)
REMARK    1  A    between atoms: C1_2  and  C2_3 
ROOT
ATOM      1  C2  UNL d   1       0.054  -0.343  -0.057  0.00  0.00    -0.073 A 
ATOM      2  C3  UNL d   1      -1.234   0.016  -0.468  0.00  0.00    -0.002 A 
ATOM      3  C4  UNL d   1      -2.122   0.608   0.431  0.00  0.00     0.004 A 
ATOM      4  C5  UNL d   1      -1.729   0.852   1.747  0.00  0.00    -0.004 A 
ATOM      5  C6  UNL d   1      -0.442   0.511   2.174  0.00  0.00    -0.075 A 
ATOM      6  C7  UNL d   1      -0.005   0.765   3.587  0.00  0.00     0.076 C 
ATOM      7  C8  UNL d   1       0.443  -0.085   1.265  0.00  0.00     0.001 A 
ENDROOT
BRANCH   1   8
ATOM      8  C1  UNL d   1       1.019  -0.975  -1.027  0.00  0.00     0.053 C 
ATOM      9  C   UNL d   1       0.769  -0.521  -2.457  0.00  0.00     0.018 C 
ENDBRANCH   1   8
TORSDOF 1
ENDMDL
