MODEL 1
REMARK minimizedAffinity -3.40741873
REMARK minimizedRMSD -1
REMARK  0 active torsions:
REMARK  status: ('A' for Active; 'I' for Inactive)
ROOT
ATOM      1  N1  IND d   1      -3.516   5.903  -5.643  0.00  0.00    -0.196 N 
ATOM      2  C2  IND d   1      -4.770   5.988  -5.104  0.00  0.00     0.054 A 
ATOM      3  C3  IND d   1      -4.702   6.000  -3.754  0.00  0.00    -0.031 A 
ATOM      4  C4  IND d   1      -2.635   5.990  -2.220  0.00  0.00     0.051 A 
ATOM      5  C5  IND d   1      -1.273   5.882  -2.249  0.00  0.00    -0.031 A 
ATOM      6  C6  IND d   1      -0.575   5.776  -3.435  0.00  0.00     0.015 A 
ATOM      7  C7  IND d   1      -1.215   5.785  -4.642  0.00  0.00    -0.016 A 
ATOM      8  C8  IND d   1      -2.598   5.888  -4.616  0.00  0.00    -0.047 A 
ATOM      9  C9  IND d   1      -3.315   5.953  -3.414  0.00  0.00    -0.096 A 
ATOM     10  HN1 IND d   1      -3.332   5.865  -6.482  0.00  0.00     0.298 HD
ENDROOT
TORSDOF 0
ENDMDL
