MODEL 1
REMARK minimizedAffinity 10.5400658
REMARK minimizedRMSD -1
REMARK  0 active torsions:
REMARK  status: ('A' for Active; 'I' for Inactive)
ROOT
ATOM      1  N1  IND d   1      -3.043   0.611   5.167  0.00  0.00    -0.196 N 
ATOM      2  C2  IND d   1      -4.272   0.287   5.670  0.00  0.00     0.054 A 
ATOM      3  C3  IND d   1      -4.937  -0.512   4.807  0.00  0.00    -0.031 A 
ATOM      4  C4  IND d   1      -4.162  -1.495   2.557  0.00  0.00     0.051 A 
ATOM      5  C5  IND d   1      -3.130  -1.454   1.662  0.00  0.00    -0.031 A 
ATOM      6  C6  IND d   1      -1.991  -0.710   1.896  0.00  0.00     0.015 A 
ATOM      7  C7  IND d   1      -1.838   0.016   3.044  0.00  0.00    -0.016 A 
ATOM      8  C8  IND d   1      -2.887  -0.018   3.951  0.00  0.00    -0.047 A 
ATOM      9  C9  IND d   1      -4.062  -0.737   3.700  0.00  0.00    -0.096 A 
ATOM     10  HN1 IND d   1      -2.464   1.122   5.546  0.00  0.00     0.298 HD
ENDROOT
TORSDOF 0
ENDMDL
