MODEL 1
REMARK minimizedAffinity 6.88932133
REMARK minimizedRMSD -1
REMARK  0 active torsions:
REMARK  status: ('A' for Active; 'I' for Inactive)
ROOT
ATOM      1  N1  IND d   1      -1.039  -0.256   3.438  0.00  0.00    -0.196 N 
ATOM      2  C2  IND d   1      -2.378  -0.016   3.304  0.00  0.00     0.054 A 
ATOM      3  C3  IND d   1      -2.901  -0.799   2.334  0.00  0.00    -0.031 A 
ATOM      4  C4  IND d   1      -1.764  -2.618   0.909  0.00  0.00     0.051 A 
ATOM      5  C5  IND d   1      -0.544  -3.174   0.646  0.00  0.00    -0.031 A 
ATOM      6  C6  IND d   1       0.597  -2.780   1.316  0.00  0.00     0.015 A 
ATOM      7  C7  IND d   1       0.557  -1.819   2.286  0.00  0.00    -0.016 A 
ATOM      8  C8  IND d   1      -0.679  -1.247   2.551  0.00  0.00    -0.047 A 
ATOM      9  C9  IND d   1      -1.833  -1.612   1.845  0.00  0.00    -0.096 A 
ATOM     10  HN1 IND d   1      -0.510   0.144   3.985  0.00  0.00     0.298 HD
ENDROOT
TORSDOF 0
ENDMDL
