MODEL 1
REMARK minimizedAffinity 12.4280405
REMARK minimizedRMSD -1
REMARK  0 active torsions:
REMARK  status: ('A' for Active; 'I' for Inactive)
ROOT
ATOM      1  N1  IND d   1      -3.506  -4.523  -5.046  0.00  0.00    -0.196 N 
ATOM      2  C2  IND d   1      -3.414  -5.588  -5.899  0.00  0.00     0.054 A 
ATOM      3  C3  IND d   1      -2.130  -6.000  -5.999  0.00  0.00    -0.031 A 
ATOM      4  C4  IND d   1      -0.035  -5.137  -4.776  0.00  0.00     0.051 A 
ATOM      5  C5  IND d   1       0.387  -4.155  -3.925  0.00  0.00    -0.031 A 
ATOM      6  C6  IND d   1      -0.485  -3.228  -3.391  0.00  0.00     0.015 A 
ATOM      7  C7  IND d   1      -1.820  -3.256  -3.681  0.00  0.00    -0.016 A 
ATOM      8  C8  IND d   1      -2.251  -4.248  -4.550  0.00  0.00    -0.047 A 
ATOM      9  C9  IND d   1      -1.364  -5.165  -5.129  0.00  0.00    -0.096 A 
ATOM     10  HN1 IND d   1      -4.228  -4.097  -4.852  0.00  0.00     0.298 HD
ENDROOT
TORSDOF 0
ENDMDL
