MODEL 1
REMARK minimizedAffinity 12.6072979
REMARK minimizedRMSD -1
REMARK  0 active torsions:
REMARK  status: ('A' for Active; 'I' for Inactive)
ROOT
ATOM      1  N1  IND d   1      -0.226  -2.793   1.619  0.00  0.00    -0.196 N 
ATOM      2  C2  IND d   1       0.656  -2.554   2.635  0.00  0.00     0.054 A 
ATOM      3  C3  IND d   1       0.368  -1.380   3.241  0.00  0.00    -0.031 A 
ATOM      4  C4  IND d   1      -1.566   0.260   2.797  0.00  0.00     0.051 A 
ATOM      5  C5  IND d   1      -2.609   0.488   1.944  0.00  0.00    -0.031 A 
ATOM      6  C6  IND d   1      -2.920  -0.384   0.921  0.00  0.00     0.015 A 
ATOM      7  C7  IND d   1      -2.202  -1.528   0.718  0.00  0.00    -0.016 A 
ATOM      8  C8  IND d   1      -1.137  -1.760   1.577  0.00  0.00    -0.047 A 
ATOM      9  C9  IND d   1      -0.791  -0.858   2.591  0.00  0.00    -0.096 A 
ATOM     10  HN1 IND d   1      -0.214  -3.474   1.094  0.00  0.00     0.298 HD
ENDROOT
TORSDOF 0
ENDMDL
