MODEL 1
REMARK minimizedAffinity 5.15625668
REMARK minimizedRMSD -1
REMARK  0 active torsions:
REMARK  status: ('A' for Active; 'I' for Inactive)
ROOT
ATOM      1  N1  IND d   1      -5.870  -5.982   5.058  0.00  0.00    -0.196 N 
ATOM      2  C2  IND d   1      -5.955  -4.982   5.986  0.00  0.00     0.054 A 
ATOM      3  C3  IND d   1      -5.859  -3.774   5.386  0.00  0.00    -0.031 A 
ATOM      4  C4  IND d   1      -5.660  -3.203   2.883  0.00  0.00     0.051 A 
ATOM      5  C5  IND d   1      -5.508  -3.783   1.655  0.00  0.00    -0.031 A 
ATOM      6  C6  IND d   1      -5.471  -5.153   1.495  0.00  0.00     0.015 A 
ATOM      7  C7  IND d   1      -5.597  -5.998   2.560  0.00  0.00    -0.016 A 
ATOM      8  C8  IND d   1      -5.744  -5.413   3.810  0.00  0.00    -0.047 A 
ATOM      9  C9  IND d   1      -5.739  -4.023   3.984  0.00  0.00    -0.096 A 
ATOM     10  HN1 IND d   1      -5.891  -6.825   5.226  0.00  0.00     0.298 HD
ENDROOT
TORSDOF 0
ENDMDL
