MODEL 1
REMARK minimizedAffinity 9.97529125
REMARK minimizedRMSD -1
REMARK  0 active torsions:
REMARK  status: ('A' for Active; 'I' for Inactive)
ROOT
ATOM      1  N1  IND d   1       3.285   1.377   2.226  0.00  0.00    -0.196 N 
ATOM      2  C2  IND d   1       2.904   0.640   1.140  0.00  0.00     0.054 A 
ATOM      3  C3  IND d   1       3.549   1.068   0.031  0.00  0.00    -0.031 A 
ATOM      4  C4  IND d   1       5.347   2.893  -0.212  0.00  0.00     0.051 A 
ATOM      5  C5  IND d   1       5.998   3.866   0.494  0.00  0.00    -0.031 A 
ATOM      6  C6  IND d   1       5.775   4.060   1.842  0.00  0.00     0.015 A 
ATOM      7  C7  IND d   1       4.897   3.279   2.539  0.00  0.00    -0.016 A 
ATOM      8  C8  IND d   1       4.230   2.295   1.823  0.00  0.00    -0.047 A 
ATOM      9  C9  IND d   1       4.420   2.121   0.447  0.00  0.00    -0.096 A 
ATOM     10  HN1 IND d   1       2.985   1.283   3.027  0.00  0.00     0.298 HD
ENDROOT
TORSDOF 0
ENDMDL
