MODEL 1
REMARK minimizedAffinity 6.92350578
REMARK minimizedRMSD -1
REMARK  0 active torsions:
REMARK  status: ('A' for Active; 'I' for Inactive)
ROOT
ATOM      1  N1  IND d   1      -4.101   5.992  -5.593  0.00  0.00    -0.196 N 
ATOM      2  C2  IND d   1      -2.797   5.917  -5.996  0.00  0.00     0.054 A 
ATOM      3  C3  IND d   1      -1.980   5.802  -4.925  0.00  0.00    -0.031 A 
ATOM      4  C4  IND d   1      -2.573   5.613  -2.427  0.00  0.00     0.051 A 
ATOM      5  C5  IND d   1      -3.632   5.668  -1.564  0.00  0.00    -0.031 A 
ATOM      6  C6  IND d   1      -4.928   5.835  -2.010  0.00  0.00     0.015 A 
ATOM      7  C7  IND d   1      -5.215   5.941  -3.341  0.00  0.00    -0.016 A 
ATOM      8  C8  IND d   1      -4.142   5.893  -4.219  0.00  0.00    -0.047 A 
ATOM      9  C9  IND d   1      -2.821   5.767  -3.771  0.00  0.00    -0.096 A 
ATOM     10  HN1 IND d   1      -4.781   6.085  -6.110  0.00  0.00     0.298 HD
ENDROOT
TORSDOF 0
ENDMDL
