MODEL 1
REMARK minimizedAffinity 11.599721
REMARK minimizedRMSD -1
REMARK  0 active torsions:
REMARK  status: ('A' for Active; 'I' for Inactive)
ROOT
ATOM      1  N1  IND d   1       4.092   3.044  -4.846  0.00  0.00    -0.196 N 
ATOM      2  C2  IND d   1       2.951   2.586  -4.247  0.00  0.00     0.054 A 
ATOM      3  C3  IND d   1       2.712   3.271  -3.106  0.00  0.00    -0.031 A 
ATOM      4  C4  IND d   1       4.002   5.250  -2.085  0.00  0.00     0.051 A 
ATOM      5  C5  IND d   1       5.133   6.000  -2.252  0.00  0.00    -0.031 A 
ATOM      6  C6  IND d   1       5.990   5.800  -3.314  0.00  0.00     0.015 A 
ATOM      7  C7  IND d   1       5.742   4.846  -4.260  0.00  0.00    -0.016 A 
ATOM      8  C8  IND d   1       4.598   4.079  -4.091  0.00  0.00    -0.047 A 
ATOM      9  C9  IND d   1       3.747   4.249  -2.991  0.00  0.00    -0.096 A 
ATOM     10  HN1 IND d   1       4.435   2.736  -5.572  0.00  0.00     0.298 HD
ENDROOT
TORSDOF 0
ENDMDL
