MODEL 1
REMARK minimizedAffinity 13.4411936
REMARK minimizedRMSD -1
REMARK  0 active torsions:
REMARK  status: ('A' for Active; 'I' for Inactive)
ROOT
ATOM      1  N1  IND d   1      -5.052   2.150   1.195  0.00  0.00    -0.196 N 
ATOM      2  C2  IND d   1      -5.518   1.623   0.022  0.00  0.00     0.054 A 
ATOM      3  C3  IND d   1      -4.802   0.529  -0.319  0.00  0.00    -0.031 A 
ATOM      4  C4  IND d   1      -2.888  -0.635   0.950  0.00  0.00     0.051 A 
ATOM      5  C5  IND d   1      -2.088  -0.503   2.050  0.00  0.00    -0.031 A 
ATOM      6  C6  IND d   1      -2.240   0.540   2.941  0.00  0.00     0.015 A 
ATOM      7  C7  IND d   1      -3.210   1.487   2.770  0.00  0.00    -0.016 A 
ATOM      8  C8  IND d   1      -4.019   1.360   1.650  0.00  0.00    -0.047 A 
ATOM      9  C9  IND d   1      -3.842   0.328   0.720  0.00  0.00    -0.096 A 
ATOM     10  HN1 IND d   1      -5.354   2.855   1.583  0.00  0.00     0.298 HD
ENDROOT
TORSDOF 0
ENDMDL
