MODEL 1
REMARK minimizedAffinity 3.79142785
REMARK minimizedRMSD -1
REMARK  0 active torsions:
REMARK  status: ('A' for Active; 'I' for Inactive)
ROOT
ATOM      1  N1  IND d   1      -1.103  -0.932   2.235  0.00  0.00    -0.196 N 
ATOM      2  C2  IND d   1      -1.695  -0.630   3.429  0.00  0.00     0.054 A 
ATOM      3  C3  IND d   1      -2.863   0.019   3.225  0.00  0.00    -0.031 A 
ATOM      4  C4  IND d   1      -4.045   0.601   1.013  0.00  0.00     0.051 A 
ATOM      5  C5  IND d   1      -3.875   0.561  -0.342  0.00  0.00    -0.031 A 
ATOM      6  C6  IND d   1      -2.750   0.007  -0.920  0.00  0.00     0.015 A 
ATOM      7  C7  IND d   1      -1.755  -0.539  -0.160  0.00  0.00    -0.016 A 
ATOM      8  C8  IND d   1      -1.921  -0.494   1.217  0.00  0.00    -0.047 A 
ATOM      9  C9  IND d   1      -3.040   0.105   1.810  0.00  0.00    -0.096 A 
ATOM     10  HN1 IND d   1      -0.346  -1.328   2.136  0.00  0.00     0.298 HD
ENDROOT
TORSDOF 0
ENDMDL
