MODEL 1
REMARK minimizedAffinity 7.66044235
REMARK minimizedRMSD -1
REMARK  0 active torsions:
REMARK  status: ('A' for Active; 'I' for Inactive)
ROOT
ATOM      1  N1  IND d   1       2.168   2.438   1.108  0.00  0.00    -0.196 N 
ATOM      2  C2  IND d   1       1.886   1.772  -0.052  0.00  0.00     0.054 A 
ATOM      3  C3  IND d   1       2.945   1.820  -0.891  0.00  0.00    -0.031 A 
ATOM      4  C4  IND d   1       5.277   2.848  -0.525  0.00  0.00     0.051 A 
ATOM      5  C5  IND d   1       5.997   3.596   0.364  0.00  0.00    -0.031 A 
ATOM      6  C6  IND d   1       5.468   4.002   1.572  0.00  0.00     0.015 A 
ATOM      7  C7  IND d   1       4.197   3.664   1.942  0.00  0.00    -0.016 A 
ATOM      8  C8  IND d   1       3.460   2.911   1.039  0.00  0.00    -0.047 A 
ATOM      9  C9  IND d   1       3.977   2.532  -0.207  0.00  0.00    -0.096 A 
ATOM     10  HN1 IND d   1       1.629   2.544   1.769  0.00  0.00     0.298 HD
ENDROOT
TORSDOF 0
ENDMDL
