MODEL 1
REMARK minimizedAffinity 12.5950556
REMARK minimizedRMSD -1
REMARK  0 active torsions:
REMARK  status: ('A' for Active; 'I' for Inactive)
ROOT
ATOM      1  N1  IND d   1       2.514   2.954  -4.249  0.00  0.00    -0.196 N 
ATOM      2  C2  IND d   1       2.095   3.294  -2.993  0.00  0.00     0.054 A 
ATOM      3  C3  IND d   1       2.977   4.141  -2.416  0.00  0.00    -0.031 A 
ATOM      4  C4  IND d   1       5.123   5.180  -3.388  0.00  0.00     0.051 A 
ATOM      5  C5  IND d   1       5.936   5.142  -4.485  0.00  0.00    -0.031 A 
ATOM      6  C6  IND d   1       5.644   4.359  -5.583  0.00  0.00     0.015 A 
ATOM      7  C7  IND d   1       4.515   3.590  -5.629  0.00  0.00    -0.016 A 
ATOM      8  C8  IND d   1       3.690   3.621  -4.514  0.00  0.00    -0.047 A 
ATOM      9  C9  IND d   1       4.004   4.381  -3.380  0.00  0.00    -0.096 A 
ATOM     10  HN1 IND d   1       2.111   2.415  -4.783  0.00  0.00     0.298 HD
ENDROOT
TORSDOF 0
ENDMDL
