MODEL 1
REMARK minimizedAffinity 9.59241009
REMARK minimizedRMSD -1
REMARK  0 active torsions:
REMARK  status: ('A' for Active; 'I' for Inactive)
ROOT
ATOM      1  N1  IND d   1      -2.114   0.973   3.455  0.00  0.00    -0.196 N 
ATOM      2  C2  IND d   1      -3.393   1.357   3.166  0.00  0.00     0.054 A 
ATOM      3  C3  IND d   1      -3.956   0.496   2.289  0.00  0.00    -0.031 A 
ATOM      4  C4  IND d   1      -2.997  -1.667   1.276  0.00  0.00     0.051 A 
ATOM      5  C5  IND d   1      -1.853  -2.412   1.213  0.00  0.00    -0.031 A 
ATOM      6  C6  IND d   1      -0.716  -2.062   1.911  0.00  0.00     0.015 A 
ATOM      7  C7  IND d   1      -0.683  -0.954   2.709  0.00  0.00    -0.016 A 
ATOM      8  C8  IND d   1      -1.841  -0.191   2.770  0.00  0.00    -0.047 A 
ATOM      9  C9  IND d   1      -2.985  -0.518   2.031  0.00  0.00    -0.096 A 
ATOM     10  HN1 IND d   1      -1.571   1.388   3.976  0.00  0.00     0.298 HD
ENDROOT
TORSDOF 0
ENDMDL
