MODEL 1
REMARK minimizedAffinity 6.42123795
REMARK minimizedRMSD -1
REMARK  0 active torsions:
REMARK  status: ('A' for Active; 'I' for Inactive)
ROOT
ATOM      1  N1  IND d   1       2.355   3.694  -3.122  0.00  0.00    -0.196 N 
ATOM      2  C2  IND d   1       1.376   4.602  -2.830  0.00  0.00     0.054 A 
ATOM      3  C3  IND d   1       0.839   4.341  -1.617  0.00  0.00    -0.031 A 
ATOM      4  C4  IND d   1       1.482   2.536   0.102  0.00  0.00     0.051 A 
ATOM      5  C5  IND d   1       2.293   1.449   0.271  0.00  0.00    -0.031 A 
ATOM      6  C6  IND d   1       3.186   1.048  -0.702  0.00  0.00     0.015 A 
ATOM      7  C7  IND d   1       3.310   1.729  -1.880  0.00  0.00    -0.016 A 
ATOM      8  C8  IND d   1       2.483   2.829  -2.057  0.00  0.00    -0.047 A 
ATOM      9  C9  IND d   1       1.545   3.216  -1.091  0.00  0.00    -0.096 A 
ATOM     10  HN1 IND d   1       2.814   3.666  -3.849  0.00  0.00     0.298 HD
ENDROOT
TORSDOF 0
ENDMDL
