MODEL 1
REMARK minimizedAffinity -4.60702515
REMARK minimizedRMSD -1
REMARK  0 active torsions:
REMARK  status: ('A' for Active; 'I' for Inactive)
ROOT
ATOM      1  N1  IND d   1       0.407   4.561   0.619  0.00  0.00    -0.196 N 
ATOM      2  C2  IND d   1      -0.522   5.118  -0.215  0.00  0.00     0.054 A 
ATOM      3  C3  IND d   1      -0.328   4.696  -1.485  0.00  0.00    -0.031 A 
ATOM      4  C4  IND d   1       1.387   3.010  -2.404  0.00  0.00     0.051 A 
ATOM      5  C5  IND d   1       2.468   2.262  -2.031  0.00  0.00    -0.031 A 
ATOM      6  C6  IND d   1       2.925   2.239  -0.729  0.00  0.00     0.015 A 
ATOM      7  C7  IND d   1       2.308   2.958   0.255  0.00  0.00    -0.016 A 
ATOM      8  C8  IND d   1       1.214   3.725  -0.121  0.00  0.00    -0.047 A 
ATOM      9  C9  IND d   1       0.772   3.785  -1.449  0.00  0.00    -0.096 A 
ATOM     10  HN1 IND d   1       0.475   4.707   1.463  0.00  0.00     0.298 HD
ENDROOT
TORSDOF 0
ENDMDL
