MODEL 1
REMARK minimizedAffinity 3.60272408
REMARK minimizedRMSD -1
REMARK  3 active torsions:
REMARK  status: ('A' for Active; 'I' for Inactive)
REMARK    1  A    between atoms: C3'_2  and  C2'_3 
REMARK    2  A    between atoms: C2'_3  and  C1'_4 
REMARK    3  A    between atoms: C1'_4  and  C1_5 
ROOT
ATOM      1  C1  N4B d   1      -1.512  -1.436   0.597  0.00  0.00    -0.075 A 
ATOM      2  C2  N4B d   1      -1.148  -0.192   1.158  0.00  0.00     0.002 A 
ATOM      3  C3  N4B d   1      -1.801   0.277   2.271  0.00  0.00     0.002 A 
ATOM      4  C4  N4B d   1      -2.830  -0.469   2.827  0.00  0.00    -0.004 A 
ATOM      5  C5  N4B d   1      -3.158  -1.681   2.295  0.00  0.00     0.002 A 
ATOM      6  C6  N4B d   1      -2.507  -2.167   1.179  0.00  0.00     0.002 A 
ENDROOT
BRANCH   1   7
ATOM      7  C1' N4B d   1      -0.884  -1.950  -0.670  0.00  0.00     0.057 C 
BRANCH   7   8
ATOM      8  C2' N4B d   1      -1.937  -1.980  -1.774  0.00  0.00     0.009 C 
BRANCH   8   9
ATOM      9  C3' N4B d   1      -1.350  -2.408  -3.108  0.00  0.00     0.004 C 
ATOM     10  C4' N4B d   1      -1.431  -3.889  -3.329  0.00  0.00     0.003 C 
ENDBRANCH   8   9
ENDBRANCH   7   8
ENDBRANCH   1   7
TORSDOF 3
ENDMDL
