MODEL 1
REMARK minimizedAffinity 1.84950995
REMARK minimizedRMSD -1
REMARK  3 active torsions:
REMARK  status: ('A' for Active; 'I' for Inactive)
REMARK    1  A    between atoms: C3'_2  and  C2'_3 
REMARK    2  A    between atoms: C2'_3  and  C1'_4 
REMARK    3  A    between atoms: C1'_4  and  C1_5 
ROOT
ATOM      1  C1  N4B d   1      -1.648   0.540   1.615  0.00  0.00    -0.075 A 
ATOM      2  C2  N4B d   1      -2.031   1.894   1.490  0.00  0.00     0.002 A 
ATOM      3  C3  N4B d   1      -3.073   2.238   0.664  0.00  0.00     0.002 A 
ATOM      4  C4  N4B d   1      -3.731   1.254  -0.058  0.00  0.00    -0.004 A 
ATOM      5  C5  N4B d   1      -3.371  -0.054   0.088  0.00  0.00     0.002 A 
ATOM      6  C6  N4B d   1      -2.329  -0.415   0.918  0.00  0.00     0.002 A 
ENDROOT
BRANCH   1   7
ATOM      7  C1' N4B d   1      -0.460   0.124   2.439  0.00  0.00     0.057 C 
BRANCH   7   8
ATOM      8  C2' N4B d   1       0.819   0.450   1.673  0.00  0.00     0.009 C 
BRANCH   8   9
ATOM      9  C3' N4B d   1       1.879  -0.623   1.855  0.00  0.00     0.004 C 
ATOM     10  C4' N4B d   1       2.535  -1.015   0.565  0.00  0.00     0.003 C 
ENDBRANCH   8   9
ENDBRANCH   7   8
ENDBRANCH   1   7
TORSDOF 3
ENDMDL
