MODEL 1
REMARK minimizedAffinity 6.37543106
REMARK minimizedRMSD -1
REMARK  3 active torsions:
REMARK  status: ('A' for Active; 'I' for Inactive)
REMARK    1  A    between atoms: C3'_2  and  C2'_3 
REMARK    2  A    between atoms: C2'_3  and  C1'_4 
REMARK    3  A    between atoms: C1'_4  and  C1_5 
ROOT
ATOM      1  C1  N4B d   1       0.423  -0.003   2.204  0.00  0.00    -0.075 A 
ATOM      2  C2  N4B d   1       1.671  -0.118   2.854  0.00  0.00     0.002 A 
ATOM      3  C3  N4B d   1       2.770  -0.561   2.158  0.00  0.00     0.002 A 
ATOM      4  C4  N4B d   1       2.640  -0.910   0.822  0.00  0.00    -0.004 A 
ATOM      5  C5  N4B d   1       1.436  -0.772   0.195  0.00  0.00     0.002 A 
ATOM      6  C6  N4B d   1       0.325  -0.325   0.881  0.00  0.00     0.002 A 
ENDROOT
BRANCH   1   7
ATOM      7  C1' N4B d   1      -0.825   0.394   2.945  0.00  0.00     0.057 C 
BRANCH   7   8
ATOM      8  C2' N4B d   1      -2.023   0.273   2.008  0.00  0.00     0.009 C 
BRANCH   8   9
ATOM      9  C3' N4B d   1      -2.755   1.595   1.850  0.00  0.00     0.004 C 
ATOM     10  C4' N4B d   1      -3.752   1.576   0.729  0.00  0.00     0.003 C 
ENDBRANCH   8   9
ENDBRANCH   7   8
ENDBRANCH   1   7
TORSDOF 3
ENDMDL
