MODEL 1
REMARK minimizedAffinity -2.61986756
REMARK minimizedRMSD -1
REMARK  0 active torsions:
REMARK  status: ('A' for Active; 'I' for Inactive)
ROOT
ATOM      1  N1  IND d   1       2.397   0.630   0.748  0.00  0.00    -0.196 N 
ATOM      2  C2  IND d   1       2.321  -0.691   0.405  0.00  0.00     0.054 A 
ATOM      3  C3  IND d   1       1.030  -1.060   0.241  0.00  0.00    -0.031 A 
ATOM      4  C4  IND d   1      -1.110   0.363   0.386  0.00  0.00     0.051 A 
ATOM      5  C5  IND d   1      -1.550   1.616   0.707  0.00  0.00    -0.031 A 
ATOM      6  C6  IND d   1      -0.679   2.626   1.062  0.00  0.00     0.015 A 
ATOM      7  C7  IND d   1       0.671   2.422   1.100  0.00  0.00    -0.016 A 
ATOM      8  C8  IND d   1       1.121   1.149   0.781  0.00  0.00    -0.047 A 
ATOM      9  C9  IND d   1       0.239   0.109   0.461  0.00  0.00    -0.096 A 
ATOM     10  HN1 IND d   1       3.120   1.064   0.915  0.00  0.00     0.298 HD
ENDROOT
TORSDOF 0
ENDMDL
