MODEL 1
REMARK minimizedAffinity -2.97952533
REMARK minimizedRMSD -1
REMARK  0 active torsions:
REMARK  status: ('A' for Active; 'I' for Inactive)
ROOT
ATOM      1  N1  IND d   1       2.371   0.904   1.042  0.00  0.00    -0.196 N 
ATOM      2  C2  IND d   1       2.467   2.216   1.414  0.00  0.00     0.054 A 
ATOM      3  C3  IND d   1       1.253   2.810   1.363  0.00  0.00    -0.031 A 
ATOM      4  C4  IND d   1      -1.042   1.792   0.795  0.00  0.00     0.051 A 
ATOM      5  C5  IND d   1      -1.631   0.639   0.357  0.00  0.00    -0.031 A 
ATOM      6  C6  IND d   1      -0.901  -0.509   0.123  0.00  0.00     0.015 A 
ATOM      7  C7  IND d   1       0.449  -0.549   0.330  0.00  0.00    -0.016 A 
ATOM      8  C8  IND d   1       1.051   0.622   0.767  0.00  0.00    -0.047 A 
ATOM      9  C9  IND d   1       0.322   1.801   0.966  0.00  0.00    -0.096 A 
ATOM     10  HN1 IND d   1       3.025   0.349   0.988  0.00  0.00     0.298 HD
ENDROOT
TORSDOF 0
ENDMDL
