MODEL 1
REMARK minimizedAffinity 0.895560384
REMARK minimizedRMSD -1
REMARK  0 active torsions:
REMARK  status: ('A' for Active; 'I' for Inactive)
ROOT
ATOM      1  N1  IND d   1       1.944   0.624   0.783  0.00  0.00    -0.196 N 
ATOM      2  C2  IND d   1       2.585   1.684   1.362  0.00  0.00     0.054 A 
ATOM      3  C3  IND d   1       1.717   2.698   1.578  0.00  0.00    -0.031 A 
ATOM      4  C4  IND d   1      -0.820   2.798   1.151  0.00  0.00     0.051 A 
ATOM      5  C5  IND d   1      -1.849   2.086   0.601  0.00  0.00    -0.031 A 
ATOM      6  C6  IND d   1      -1.663   0.824   0.075  0.00  0.00     0.015 A 
ATOM      7  C7  IND d   1      -0.437   0.220   0.090  0.00  0.00    -0.016 A 
ATOM      8  C8  IND d   1       0.611   0.942   0.642  0.00  0.00    -0.047 A 
ATOM      9  C9  IND d   1       0.437   2.240   1.139  0.00  0.00    -0.096 A 
ATOM     10  HN1 IND d   1       2.311  -0.116   0.546  0.00  0.00     0.298 HD
ENDROOT
TORSDOF 0
ENDMDL
