MODEL 1
REMARK minimizedAffinity -5.97275639
REMARK minimizedRMSD -1
REMARK  0 active torsions:
REMARK  status: ('A' for Active; 'I' for Inactive)
ROOT
ATOM      1  N1  IND d   1       0.618  -0.586   0.022  0.00  0.00    -0.196 N 
ATOM      2  C2  IND d   1      -0.748  -0.566   0.067  0.00  0.00     0.054 A 
ATOM      3  C3  IND d   1      -1.197   0.706   0.154  0.00  0.00    -0.031 A 
ATOM      4  C4  IND d   1       0.128   2.913   0.135  0.00  0.00     0.051 A 
ATOM      5  C5  IND d   1       1.403   3.404   0.144  0.00  0.00    -0.031 A 
ATOM      6  C6  IND d   1       2.504   2.573   0.110  0.00  0.00     0.015 A 
ATOM      7  C7  IND d   1       2.370   1.215   0.053  0.00  0.00    -0.016 A 
ATOM      8  C8  IND d   1       1.077   0.713   0.051  0.00  0.00    -0.047 A 
ATOM      9  C9  IND d   1      -0.044   1.549   0.129  0.00  0.00    -0.096 A 
ATOM     10  HN1 IND d   1       1.109  -1.291  -0.017  0.00  0.00     0.298 HD
ENDROOT
TORSDOF 0
ENDMDL
