MODEL 1
REMARK minimizedAffinity -4.64459085
REMARK minimizedRMSD -1
REMARK  0 active torsions:
REMARK  status: ('A' for Active; 'I' for Inactive)
ROOT
ATOM      1  N1  IND d   1      -0.763   0.236   0.602  0.00  0.00    -0.196 N 
ATOM      2  C2  IND d   1      -1.805   1.050   0.950  0.00  0.00     0.054 A 
ATOM      3  C3  IND d   1      -1.384   2.329   1.068  0.00  0.00    -0.031 A 
ATOM      4  C4  IND d   1       0.949   3.329   0.635  0.00  0.00     0.051 A 
ATOM      5  C5  IND d   1       2.233   2.975   0.332  0.00  0.00    -0.031 A 
ATOM      6  C6  IND d   1       2.592   1.664   0.097  0.00  0.00     0.015 A 
ATOM      7  C7  IND d   1       1.672   0.654   0.144  0.00  0.00    -0.016 A 
ATOM      8  C8  IND d   1       0.368   1.010   0.458  0.00  0.00    -0.047 A 
ATOM      9  C9  IND d   1       0.007   2.333   0.740  0.00  0.00    -0.096 A 
ATOM     10  HN1 IND d   1      -0.806  -0.615   0.491  0.00  0.00     0.298 HD
ENDROOT
TORSDOF 0
ENDMDL
