MODEL 1
REMARK minimizedAffinity -2.32852793
REMARK minimizedRMSD -1
REMARK  0 active torsions:
REMARK  status: ('A' for Active; 'I' for Inactive)
ROOT
ATOM      1  N1  IND d   1       1.525  -0.248   0.700  0.00  0.00    -0.196 N 
ATOM      2  C2  IND d   1       0.283  -0.818   0.666  0.00  0.00     0.054 A 
ATOM      3  C3  IND d   1      -0.664   0.128   0.477  0.00  0.00    -0.031 A 
ATOM      4  C4  IND d   1      -0.393   2.660   0.097  0.00  0.00     0.051 A 
ATOM      5  C5  IND d   1       0.546   3.652   0.079  0.00  0.00    -0.031 A 
ATOM      6  C6  IND d   1       1.888   3.389   0.267  0.00  0.00     0.015 A 
ATOM      7  C7  IND d   1       2.343   2.117   0.471  0.00  0.00    -0.016 A 
ATOM      8  C8  IND d   1       1.390   1.108   0.498  0.00  0.00    -0.047 A 
ATOM      9  C9  IND d   1       0.023   1.374   0.349  0.00  0.00    -0.096 A 
ATOM     10  HN1 IND d   1       2.265  -0.666   0.826  0.00  0.00     0.298 HD
ENDROOT
TORSDOF 0
ENDMDL
