MODEL 1
REMARK minimizedAffinity -3.08932185
REMARK minimizedRMSD -1
REMARK  0 active torsions:
REMARK  status: ('A' for Active; 'I' for Inactive)
ROOT
ATOM      1  N1  IND d   1       1.594  -0.964   0.753  0.00  0.00    -0.196 N 
ATOM      2  C2  IND d   1       0.865  -2.025   0.293  0.00  0.00     0.054 A 
ATOM      3  C3  IND d   1      -0.367  -1.619  -0.088  0.00  0.00    -0.031 A 
ATOM      4  C4  IND d   1      -1.364   0.754  -0.138  0.00  0.00     0.051 A 
ATOM      5  C5  IND d   1      -1.092   2.045   0.219  0.00  0.00    -0.031 A 
ATOM      6  C6  IND d   1       0.116   2.406   0.781  0.00  0.00     0.015 A 
ATOM      7  C7  IND d   1       1.104   1.488   0.997  0.00  0.00    -0.016 A 
ATOM      8  C8  IND d   1       0.828   0.175   0.643  0.00  0.00    -0.047 A 
ATOM      9  C9  IND d   1      -0.411  -0.205   0.111  0.00  0.00    -0.096 A 
ATOM     10  HN1 IND d   1       2.397  -1.003   1.059  0.00  0.00     0.298 HD
ENDROOT
TORSDOF 0
ENDMDL
