MODEL 1
REMARK minimizedAffinity -2.98315573
REMARK minimizedRMSD -1
REMARK  0 active torsions:
REMARK  status: ('A' for Active; 'I' for Inactive)
ROOT
ATOM      1  N1  IND d   1       2.336  -0.841   0.889  0.00  0.00    -0.196 N 
ATOM      2  C2  IND d   1       2.972   0.348   0.665  0.00  0.00     0.054 A 
ATOM      3  C3  IND d   1       2.070   1.342   0.508  0.00  0.00    -0.031 A 
ATOM      4  C4  IND d   1      -0.498   1.263   0.681  0.00  0.00     0.051 A 
ATOM      5  C5  IND d   1      -1.541   0.394   0.834  0.00  0.00    -0.031 A 
ATOM      6  C6  IND d   1      -1.341  -0.959   1.021  0.00  0.00     0.015 A 
ATOM      7  C7  IND d   1      -0.084  -1.493   1.072  0.00  0.00    -0.016 A 
ATOM      8  C8  IND d   1       0.977  -0.614   0.909  0.00  0.00    -0.047 A 
ATOM      9  C9  IND d   1       0.779   0.753   0.677  0.00  0.00    -0.096 A 
ATOM     10  HN1 IND d   1       2.719  -1.603   0.999  0.00  0.00     0.298 HD
ENDROOT
TORSDOF 0
ENDMDL
