MODEL 1
REMARK minimizedAffinity -4.76823759
REMARK minimizedRMSD -1
REMARK  0 active torsions:
REMARK  status: ('A' for Active; 'I' for Inactive)
ROOT
ATOM      1  N1  IND d   1       1.803   2.515   0.894  0.00  0.00    -0.196 N 
ATOM      2  C2  IND d   1       0.825   3.466   0.987  0.00  0.00     0.054 A 
ATOM      3  C3  IND d   1      -0.396   2.896   0.883  0.00  0.00    -0.031 A 
ATOM      4  C4  IND d   1      -1.028   0.411   0.657  0.00  0.00     0.051 A 
ATOM      5  C5  IND d   1      -0.479  -0.830   0.493  0.00  0.00    -0.031 A 
ATOM      6  C6  IND d   1       0.887  -1.023   0.457  0.00  0.00     0.015 A 
ATOM      7  C7  IND d   1       1.758   0.020   0.595  0.00  0.00    -0.016 A 
ATOM      8  C8  IND d   1       1.204   1.282   0.754  0.00  0.00    -0.047 A 
ATOM      9  C9  IND d   1      -0.181   1.490   0.749  0.00  0.00    -0.096 A 
ATOM     10  HN1 IND d   1       2.650   2.662   0.918  0.00  0.00     0.298 HD
ENDROOT
TORSDOF 0
ENDMDL
