MODEL 1
REMARK minimizedAffinity 2.82961679
REMARK minimizedRMSD -1
REMARK  0 active torsions:
REMARK  status: ('A' for Active; 'I' for Inactive)
ROOT
ATOM      1  N1  IND d   1      -0.467  -3.180  -2.232  0.00  0.00    -0.196 N 
ATOM      2  C2  IND d   1      -1.624  -3.404  -1.539  0.00  0.00     0.054 A 
ATOM      3  C3  IND d   1      -1.667  -2.631  -0.431  0.00  0.00    -0.031 A 
ATOM      4  C4  IND d   1       0.005  -0.853   0.388  0.00  0.00     0.051 A 
ATOM      5  C5  IND d   1       1.231  -0.317   0.109  0.00  0.00    -0.031 A 
ATOM      6  C6  IND d   1       1.968  -0.715  -0.988  0.00  0.00     0.015 A 
ATOM      7  C7  IND d   1       1.498  -1.659  -1.857  0.00  0.00    -0.016 A 
ATOM      8  C8  IND d   1       0.257  -2.210  -1.573  0.00  0.00    -0.047 A 
ATOM      9  C9  IND d   1      -0.477  -1.841  -0.438  0.00  0.00    -0.096 A 
ATOM     10  HN1 IND d   1      -0.231  -3.578  -2.956  0.00  0.00     0.298 HD
ENDROOT
TORSDOF 0
ENDMDL
