MODEL 1
REMARK minimizedAffinity -6.22471619
REMARK minimizedRMSD -1
REMARK  0 active torsions:
REMARK  status: ('A' for Active; 'I' for Inactive)
ROOT
ATOM      1  N1  IND d   1       0.411  -0.806   0.306  0.00  0.00    -0.196 N 
ATOM      2  C2  IND d   1       1.681  -1.306   0.229  0.00  0.00     0.054 A 
ATOM      3  C3  IND d   1       2.580  -0.298   0.166  0.00  0.00    -0.031 A 
ATOM      4  C4  IND d   1       2.197   2.245   0.277  0.00  0.00     0.051 A 
ATOM      5  C5  IND d   1       1.205   3.184   0.313  0.00  0.00    -0.031 A 
ATOM      6  C6  IND d   1      -0.129   2.835   0.351  0.00  0.00     0.015 A 
ATOM      7  C7  IND d   1      -0.523   1.526   0.367  0.00  0.00    -0.016 A 
ATOM      8  C8  IND d   1       0.482   0.570   0.324  0.00  0.00    -0.047 A 
ATOM      9  C9  IND d   1       1.836   0.919   0.242  0.00  0.00    -0.096 A 
ATOM     10  HN1 IND d   1      -0.311  -1.272   0.338  0.00  0.00     0.298 HD
ENDROOT
TORSDOF 0
ENDMDL
