MODEL 1
REMARK minimizedAffinity -5.97992182
REMARK minimizedRMSD -1
REMARK  0 active torsions:
REMARK  status: ('A' for Active; 'I' for Inactive)
ROOT
ATOM      1  N1  IND d   1       2.125  -0.574   0.834  0.00  0.00    -0.196 N 
ATOM      2  C2  IND d   1       1.089  -1.369   0.430  0.00  0.00     0.054 A 
ATOM      3  C3  IND d   1      -0.024  -0.627   0.230  0.00  0.00    -0.031 A 
ATOM      4  C4  IND d   1      -0.344   1.921   0.407  0.00  0.00     0.051 A 
ATOM      5  C5  IND d   1       0.306   3.065   0.778  0.00  0.00    -0.031 A 
ATOM      6  C6  IND d   1       1.622   3.055   1.192  0.00  0.00     0.015 A 
ATOM      7  C7  IND d   1       2.345   1.896   1.240  0.00  0.00    -0.016 A 
ATOM      8  C8  IND d   1       1.686   0.732   0.871  0.00  0.00    -0.047 A 
ATOM      9  C9  IND d   1       0.338   0.730   0.491  0.00  0.00    -0.096 A 
ATOM     10  HN1 IND d   1       2.917  -0.844   1.031  0.00  0.00     0.298 HD
ENDROOT
TORSDOF 0
ENDMDL
