MODEL 1
REMARK minimizedAffinity -5.38166046
REMARK minimizedRMSD -1
REMARK  0 active torsions:
REMARK  status: ('A' for Active; 'I' for Inactive)
ROOT
ATOM      1  N1  IND d   1       0.678  -0.274  -0.208  0.00  0.00    -0.196 N 
ATOM      2  C2  IND d   1      -0.688  -0.210  -0.205  0.00  0.00     0.054 A 
ATOM      3  C3  IND d   1      -1.099   1.071  -0.078  0.00  0.00    -0.031 A 
ATOM      4  C4  IND d   1       0.295   3.232   0.040  0.00  0.00     0.051 A 
ATOM      5  C5  IND d   1       1.585   3.680   0.110  0.00  0.00    -0.031 A 
ATOM      6  C6  IND d   1       2.660   2.815   0.075  0.00  0.00     0.015 A 
ATOM      7  C7  IND d   1       2.484   1.465  -0.044  0.00  0.00    -0.016 A 
ATOM      8  C8  IND d   1       1.176   1.007  -0.109  0.00  0.00    -0.047 A 
ATOM      9  C9  IND d   1       0.080   1.876  -0.031  0.00  0.00    -0.096 A 
ATOM     10  HN1 IND d   1       1.147  -0.992  -0.262  0.00  0.00     0.298 HD
ENDROOT
TORSDOF 0
ENDMDL
