MODEL 1
REMARK minimizedAffinity 0.633960366
REMARK minimizedRMSD -1
REMARK  0 active torsions:
REMARK  status: ('A' for Active; 'I' for Inactive)
ROOT
ATOM      1  N1  IND d   1       1.857  -1.195  -0.716  0.00  0.00    -0.196 N 
ATOM      2  C2  IND d   1       1.145  -0.839   0.395  0.00  0.00     0.054 A 
ATOM      3  C3  IND d   1      -0.083  -1.404   0.369  0.00  0.00    -0.031 A 
ATOM      4  C4  IND d   1      -1.098  -3.030  -1.350  0.00  0.00     0.051 A 
ATOM      5  C5  IND d   1      -0.842  -3.621  -2.555  0.00  0.00    -0.031 A 
ATOM      6  C6  IND d   1       0.351  -3.432  -3.222  0.00  0.00     0.015 A 
ATOM      7  C7  IND d   1       1.343  -2.650  -2.699  0.00  0.00    -0.016 A 
ATOM      8  C8  IND d   1       1.084  -2.043  -1.479  0.00  0.00    -0.047 A 
ATOM      9  C9  IND d   1      -0.142  -2.197  -0.818  0.00  0.00    -0.096 A 
ATOM     10  HN1 IND d   1       2.654  -0.934  -0.907  0.00  0.00     0.298 HD
ENDROOT
TORSDOF 0
ENDMDL
