MODEL 1
REMARK minimizedAffinity -3.15653729
REMARK minimizedRMSD -1
REMARK  0 active torsions:
REMARK  status: ('A' for Active; 'I' for Inactive)
ROOT
ATOM      1  N1  IND d   1       2.355   0.771   0.508  0.00  0.00    -0.196 N 
ATOM      2  C2  IND d   1       2.806   2.015   0.851  0.00  0.00     0.054 A 
ATOM      3  C3  IND d   1       1.768   2.870   0.989  0.00  0.00    -0.031 A 
ATOM      4  C4  IND d   1      -0.759   2.418   0.799  0.00  0.00     0.051 A 
ATOM      5  C5  IND d   1      -1.657   1.443   0.467  0.00  0.00    -0.031 A 
ATOM      6  C6  IND d   1      -1.256   0.167   0.129  0.00  0.00     0.015 A 
ATOM      7  C7  IND d   1       0.064  -0.186   0.119  0.00  0.00    -0.016 A 
ATOM      8  C8  IND d   1       0.979   0.804   0.448  0.00  0.00    -0.047 A 
ATOM      9  C9  IND d   1       0.580   2.112   0.752  0.00  0.00    -0.096 A 
ATOM     10  HN1 IND d   1       2.848   0.083   0.355  0.00  0.00     0.298 HD
ENDROOT
TORSDOF 0
ENDMDL
