MODEL 1
REMARK minimizedAffinity -5.21978617
REMARK minimizedRMSD -1
REMARK  0 active torsions:
REMARK  status: ('A' for Active; 'I' for Inactive)
ROOT
ATOM      1  N1  IND d   1       1.962   2.322   0.108  0.00  0.00    -0.196 N 
ATOM      2  C2  IND d   1       1.144   3.413   0.200  0.00  0.00     0.054 A 
ATOM      3  C3  IND d   1      -0.138   3.026   0.385  0.00  0.00    -0.031 A 
ATOM      4  C4  IND d   1      -1.106   0.658   0.670  0.00  0.00     0.051 A 
ATOM      5  C5  IND d   1      -0.755  -0.662   0.625  0.00  0.00    -0.031 A 
ATOM      6  C6  IND d   1       0.547  -1.063   0.404  0.00  0.00     0.015 A 
ATOM      7  C7  IND d   1       1.552  -0.154   0.230  0.00  0.00    -0.016 A 
ATOM      8  C8  IND d   1       1.198   1.187   0.268  0.00  0.00    -0.047 A 
ATOM      9  C9  IND d   1      -0.128   1.599   0.449  0.00  0.00    -0.096 A 
ATOM     10  HN1 IND d   1       2.811   2.341  -0.026  0.00  0.00     0.298 HD
ENDROOT
TORSDOF 0
ENDMDL
