MODEL 1
REMARK minimizedAffinity -5.26216459
REMARK minimizedRMSD -1
REMARK  0 active torsions:
REMARK  status: ('A' for Active; 'I' for Inactive)
ROOT
ATOM      1  N1  IND d   1       1.757   3.032   0.222  0.00  0.00    -0.196 N 
ATOM      2  C2  IND d   1       0.737   3.941   0.266  0.00  0.00     0.054 A 
ATOM      3  C3  IND d   1      -0.457   3.307   0.275  0.00  0.00    -0.031 A 
ATOM      4  C4  IND d   1      -0.971   0.785   0.325  0.00  0.00     0.051 A 
ATOM      5  C5  IND d   1      -0.366  -0.439   0.260  0.00  0.00    -0.031 A 
ATOM      6  C6  IND d   1       1.006  -0.571   0.180  0.00  0.00     0.015 A 
ATOM      7  C7  IND d   1       1.827   0.521   0.174  0.00  0.00    -0.016 A 
ATOM      8  C8  IND d   1       1.216   1.765   0.233  0.00  0.00    -0.047 A 
ATOM      9  C9  IND d   1      -0.177   1.907   0.271  0.00  0.00    -0.096 A 
ATOM     10  HN1 IND d   1       2.596   3.220   0.193  0.00  0.00     0.298 HD
ENDROOT
TORSDOF 0
ENDMDL
