MODEL 1
REMARK minimizedAffinity -4.38498688
REMARK minimizedRMSD -1
REMARK  0 active torsions:
REMARK  status: ('A' for Active; 'I' for Inactive)
ROOT
ATOM      1  C4' PXY d   1      -1.082   1.598   2.915  0.00  0.00     0.077 C 
ATOM      2  C1' PXY d   1       0.744  -1.018  -1.906  0.00  0.00     0.077 C 
ATOM      3  C1  PXY d   1       0.275  -0.336  -0.635  0.00  0.00    -0.082 A 
ATOM      4  C2  PXY d   1      -1.010  -0.072  -0.470  0.00  0.00     0.003 A 
ATOM      5  C3  PXY d   1      -1.447   0.573   0.658  0.00  0.00     0.003 A 
ATOM      6  C4  PXY d   1      -0.565   0.903   1.652  0.00  0.00    -0.082 A 
ATOM      7  C5  PXY d   1       0.747   0.627   1.496  0.00  0.00     0.003 A 
ATOM      8  C6  PXY d   1       1.175   0.009   0.325  0.00  0.00     0.003 A 
ENDROOT
TORSDOF 0
ENDMDL
