MODEL 1
REMARK minimizedAffinity -4.80262804
REMARK minimizedRMSD -1
REMARK  0 active torsions:
REMARK  status: ('A' for Active; 'I' for Inactive)
ROOT
ATOM      1  C4' PXY d   1       0.997  -0.562  -2.062  0.00  0.00     0.077 C 
ATOM      2  C1' PXY d   1      -0.780   1.602   2.995  0.00  0.00     0.077 C 
ATOM      3  C1  PXY d   1      -0.302   1.041   1.670  0.00  0.00    -0.082 A 
ATOM      4  C2  PXY d   1      -1.187   0.708   0.744  0.00  0.00     0.003 A 
ATOM      5  C3  PXY d   1      -0.774   0.169  -0.447  0.00  0.00     0.003 A 
ATOM      6  C4  PXY d   1       0.560   0.018  -0.714  0.00  0.00    -0.082 A 
ATOM      7  C5  PXY d   1       1.469   0.365   0.222  0.00  0.00     0.003 A 
ATOM      8  C6  PXY d   1       1.028   0.872   1.440  0.00  0.00     0.003 A 
ENDROOT
TORSDOF 0
ENDMDL
