MODEL 1
REMARK minimizedAffinity -3.64842582
REMARK minimizedRMSD -1
REMARK  0 active torsions:
REMARK  status: ('A' for Active; 'I' for Inactive)
ROOT
ATOM      1  C4' PXY d   1      -1.050   1.317   2.838  0.00  0.00     0.077 C 
ATOM      2  C1' PXY d   1       0.887  -1.285  -1.947  0.00  0.00     0.077 C 
ATOM      3  C1  PXY d   1       0.369  -0.598  -0.699  0.00  0.00    -0.082 A 
ATOM      4  C2  PXY d   1       1.212  -0.274   0.267  0.00  0.00     0.003 A 
ATOM      5  C3  PXY d   1       0.756   0.319   1.416  0.00  0.00     0.003 A 
ATOM      6  C4  PXY d   1      -0.570   0.631   1.556  0.00  0.00    -0.082 A 
ATOM      7  C5  PXY d   1      -1.435   0.313   0.569  0.00  0.00     0.003 A 
ATOM      8  C6  PXY d   1      -0.958  -0.325  -0.572  0.00  0.00     0.003 A 
ENDROOT
TORSDOF 0
ENDMDL
