MODEL 1
REMARK minimizedAffinity -3.47353578
REMARK minimizedRMSD -1
REMARK  0 active torsions:
REMARK  status: ('A' for Active; 'I' for Inactive)
ROOT
ATOM      1  C4' PXY d   1       1.151  -0.045  -2.826  0.00  0.00     0.077 C 
ATOM      2  C1' PXY d   1      -1.634   0.288   2.229  0.00  0.00     0.077 C 
ATOM      3  C1  PXY d   1      -0.910   0.190   0.900  0.00  0.00    -0.082 A 
ATOM      4  C2  PXY d   1       0.278   0.755   0.759  0.00  0.00     0.003 A 
ATOM      5  C3  PXY d   1       0.932   0.703  -0.445  0.00  0.00     0.003 A 
ATOM      6  C4  PXY d   1       0.389   0.020  -1.500  0.00  0.00    -0.082 A 
ATOM      7  C5  PXY d   1      -0.818  -0.568  -1.361  0.00  0.00     0.003 A 
ATOM      8  C6  PXY d   1      -1.485  -0.469  -0.143  0.00  0.00     0.003 A 
ENDROOT
TORSDOF 0
ENDMDL
