MODEL 1
REMARK minimizedAffinity -5.15369368
REMARK minimizedRMSD -1
REMARK  0 active torsions:
REMARK  status: ('A' for Active; 'I' for Inactive)
ROOT
ATOM      1  C4' PXY d   1      -0.997   1.602   2.692  0.00  0.00     0.077 C 
ATOM      2  C1' PXY d   1       0.444  -1.070  -2.227  0.00  0.00     0.077 C 
ATOM      3  C1  PXY d   1       0.056  -0.364  -0.943  0.00  0.00    -0.082 A 
ATOM      4  C2  PXY d   1       0.981  -0.108  -0.031  0.00  0.00     0.003 A 
ATOM      5  C3  PXY d   1       0.641   0.501   1.149  0.00  0.00     0.003 A 
ATOM      6  C4  PXY d   1      -0.648   0.900   1.377  0.00  0.00    -0.082 A 
ATOM      7  C5  PXY d   1      -1.596   0.652   0.448  0.00  0.00     0.003 A 
ATOM      8  C6  PXY d   1      -1.238  -0.004  -0.726  0.00  0.00     0.003 A 
ENDROOT
TORSDOF 0
ENDMDL
