MODEL 1
REMARK minimizedAffinity -3.80172491
REMARK minimizedRMSD -1
REMARK  0 active torsions:
REMARK  status: ('A' for Active; 'I' for Inactive)
ROOT
ATOM      1  C4' PXY d   1      -0.651   1.594   2.767  0.00  0.00     0.077 C 
ATOM      2  C1' PXY d   1       0.705  -1.462  -1.948  0.00  0.00     0.077 C 
ATOM      3  C1  PXY d   1       0.339  -0.655  -0.718  0.00  0.00    -0.082 A 
ATOM      4  C2  PXY d   1       1.269  -0.377   0.182  0.00  0.00     0.003 A 
ATOM      5  C3  PXY d   1       0.948   0.324   1.316  0.00  0.00     0.003 A 
ATOM      6  C4  PXY d   1      -0.325   0.791   1.505  0.00  0.00    -0.082 A 
ATOM      7  C5  PXY d   1      -1.276   0.520   0.586  0.00  0.00     0.003 A 
ATOM      8  C6  PXY d   1      -0.940  -0.228  -0.538  0.00  0.00     0.003 A 
ENDROOT
TORSDOF 0
ENDMDL
