MODEL 1
REMARK minimizedAffinity -2.07556081
REMARK minimizedRMSD -1
REMARK  0 active torsions:
REMARK  status: ('A' for Active; 'I' for Inactive)
ROOT
ATOM      1  C4' PXY d   1       0.217  -1.096  -2.237  0.00  0.00     0.077 C 
ATOM      2  C1' PXY d   1      -0.883   1.584   2.765  0.00  0.00     0.077 C 
ATOM      3  C1  PXY d   1      -0.582   0.885   1.454  0.00  0.00    -0.082 A 
ATOM      4  C2  PXY d   1      -1.564   0.643   0.601  0.00  0.00     0.003 A 
ATOM      5  C3  PXY d   1      -1.315  -0.016  -0.575  0.00  0.00     0.003 A 
ATOM      6  C4  PXY d   1      -0.039  -0.384  -0.906  0.00  0.00    -0.082 A 
ATOM      7  C5  PXY d   1       0.971  -0.131  -0.046  0.00  0.00     0.003 A 
ATOM      8  C6  PXY d   1       0.691   0.503   1.161  0.00  0.00     0.003 A 
ENDROOT
TORSDOF 0
ENDMDL
