MODEL 1
REMARK minimizedAffinity -2.32406402
REMARK minimizedRMSD -1
REMARK  0 active torsions:
REMARK  status: ('A' for Active; 'I' for Inactive)
ROOT
ATOM      1  C4' PXY d   1      -0.728   1.795   2.885  0.00  0.00     0.077 C 
ATOM      2  C1' PXY d   1       0.662  -1.096  -1.924  0.00  0.00     0.077 C 
ATOM      3  C1  PXY d   1       0.308  -0.343  -0.657  0.00  0.00    -0.082 A 
ATOM      4  C2  PXY d   1      -0.951  -0.007  -0.426  0.00  0.00     0.003 A 
ATOM      5  C3  PXY d   1      -1.283   0.703   0.700  0.00  0.00     0.003 A 
ATOM      6  C4  PXY d   1      -0.326   1.026   1.624  0.00  0.00    -0.082 A 
ATOM      7  C5  PXY d   1       0.959   0.677   1.400  0.00  0.00     0.003 A 
ATOM      8  C6  PXY d   1       1.282  -0.007   0.231  0.00  0.00     0.003 A 
ENDROOT
TORSDOF 0
ENDMDL
