MODEL 1
REMARK minimizedAffinity -3.63823843
REMARK minimizedRMSD -1
REMARK  0 active torsions:
REMARK  status: ('A' for Active; 'I' for Inactive)
ROOT
ATOM      1  C4' PXY d   1       1.135   0.303  -2.472  0.00  0.00     0.077 C 
ATOM      2  C1' PXY d   1      -1.619   0.843   2.582  0.00  0.00     0.077 C 
ATOM      3  C1  PXY d   1      -0.889   0.711   1.260  0.00  0.00    -0.082 A 
ATOM      4  C2  PXY d   1      -1.514   0.190   0.217  0.00  0.00     0.003 A 
ATOM      5  C3  PXY d   1      -0.858   0.034  -0.977  0.00  0.00     0.003 A 
ATOM      6  C4  PXY d   1       0.434   0.464  -1.120  0.00  0.00    -0.082 A 
ATOM      7  C5  PXY d   1       1.075   1.006  -0.063  0.00  0.00     0.003 A 
ATOM      8  C6  PXY d   1       0.405   1.118   1.152  0.00  0.00     0.003 A 
ENDROOT
TORSDOF 0
ENDMDL
