MODEL 1
REMARK minimizedAffinity -4.18696737
REMARK minimizedRMSD -1
REMARK  0 active torsions:
REMARK  status: ('A' for Active; 'I' for Inactive)
ROOT
ATOM      1  C4' PXY d   1       1.016  -0.132  -2.963  0.00  0.00     0.077 C 
ATOM      2  C1' PXY d   1      -1.516   0.327   2.212  0.00  0.00     0.077 C 
ATOM      3  C1  PXY d   1      -0.854   0.194   0.855  0.00  0.00    -0.082 A 
ATOM      4  C2  PXY d   1      -0.015   1.130   0.442  0.00  0.00     0.003 A 
ATOM      5  C3  PXY d   1       0.568   1.042  -0.796  0.00  0.00     0.003 A 
ATOM      6  C4  PXY d   1       0.332  -0.043  -1.597  0.00  0.00    -0.082 A 
ATOM      7  C5  PXY d   1      -0.515  -1.008  -1.178  0.00  0.00     0.003 A 
ATOM      8  C6  PXY d   1      -1.128  -0.879   0.065  0.00  0.00     0.003 A 
ENDROOT
TORSDOF 0
ENDMDL
