MODEL 1
REMARK minimizedAffinity -3.74254704
REMARK minimizedRMSD -1
REMARK  0 active torsions:
REMARK  status: ('A' for Active; 'I' for Inactive)
ROOT
ATOM      1  C4' PXY d   1       0.289  -0.748  -1.670  0.00  0.00     0.077 C 
ATOM      2  C1' PXY d   1      -0.806   1.502   3.541  0.00  0.00     0.077 C 
ATOM      3  C1  PXY d   1      -0.530   0.905   2.175  0.00  0.00    -0.082 A 
ATOM      4  C2  PXY d   1       0.716   0.816   1.739  0.00  0.00     0.003 A 
ATOM      5  C3  PXY d   1       0.981   0.309   0.493  0.00  0.00     0.003 A 
ATOM      6  C4  PXY d   1      -0.036  -0.161  -0.294  0.00  0.00    -0.082 A 
ATOM      7  C5  PXY d   1      -1.309  -0.084   0.148  0.00  0.00     0.003 A 
ATOM      8  C6  PXY d   1      -1.560   0.473   1.399  0.00  0.00     0.003 A 
ENDROOT
TORSDOF 0
ENDMDL
