MODEL 1
REMARK minimizedAffinity -2.47829509
REMARK minimizedRMSD -1
REMARK  0 active torsions:
REMARK  status: ('A' for Active; 'I' for Inactive)
ROOT
ATOM      1  C4' PXY d   1      -0.409   2.314   2.752  0.00  0.00     0.077 C 
ATOM      2  C1' PXY d   1       1.230  -0.566  -1.984  0.00  0.00     0.077 C 
ATOM      3  C1  PXY d   1       0.805   0.180  -0.735  0.00  0.00    -0.082 A 
ATOM      4  C2  PXY d   1      -0.207   1.029  -0.792  0.00  0.00     0.003 A 
ATOM      5  C3  PXY d   1      -0.584   1.736   0.320  0.00  0.00     0.003 A 
ATOM      6  C4  PXY d   1       0.048   1.532   1.518  0.00  0.00    -0.082 A 
ATOM      7  C5  PXY d   1       1.076   0.659   1.587  0.00  0.00     0.003 A 
ATOM      8  C6  PXY d   1       1.469  -0.018   0.437  0.00  0.00     0.003 A 
ENDROOT
TORSDOF 0
ENDMDL
