MODEL 1
REMARK minimizedAffinity -3.07101297
REMARK minimizedRMSD -1
REMARK  0 active torsions:
REMARK  status: ('A' for Active; 'I' for Inactive)
ROOT
ATOM      1  C1  BNZ d   1       4.929   2.587   5.037  0.00  0.00     0.000 A 
ATOM      2  C2  BNZ d   1       5.519   3.808   5.225  0.00  0.00     0.000 A 
ATOM      3  C3  BNZ d   1       4.804   4.861   5.726  0.00  0.00     0.000 A 
ATOM      4  C4  BNZ d   1       3.493   4.702   5.999  0.00  0.00     0.000 A 
ATOM      5  C5  BNZ d   1       2.882   3.479   5.806  0.00  0.00     0.000 A 
ATOM      6  C6  BNZ d   1       3.614   2.411   5.339  0.00  0.00     0.000 A 
ENDROOT
TORSDOF 0
ENDMDL
