MODEL 1
REMARK minimizedAffinity -4.32577705
REMARK minimizedRMSD -1
REMARK  0 active torsions:
REMARK  status: ('A' for Active; 'I' for Inactive)
ROOT
ATOM      1  C1  BNZ d   1       5.022   3.490   6.000  0.00  0.00     0.000 A 
ATOM      2  C2  BNZ d   1       4.114   2.471   5.891  0.00  0.00     0.000 A 
ATOM      3  C3  BNZ d   1       3.191   2.460   4.883  0.00  0.00     0.000 A 
ATOM      4  C4  BNZ d   1       3.150   3.488   4.011  0.00  0.00     0.000 A 
ATOM      5  C5  BNZ d   1       4.052   4.528   4.113  0.00  0.00     0.000 A 
ATOM      6  C6  BNZ d   1       5.005   4.516   5.106  0.00  0.00     0.000 A 
ENDROOT
TORSDOF 0
ENDMDL
