MODEL 1
REMARK minimizedAffinity -1.89777458
REMARK minimizedRMSD -1
REMARK  0 active torsions:
REMARK  status: ('A' for Active; 'I' for Inactive)
ROOT
ATOM      1  C1  BNZ d   1       4.952   4.672   5.367  0.00  0.00     0.000 A 
ATOM      2  C2  BNZ d   1       3.751   4.490   6.000  0.00  0.00     0.000 A 
ATOM      3  C3  BNZ d   1       3.005   3.367   5.776  0.00  0.00     0.000 A 
ATOM      4  C4  BNZ d   1       3.440   2.447   4.891  0.00  0.00     0.000 A 
ATOM      5  C5  BNZ d   1       4.644   2.621   4.238  0.00  0.00     0.000 A 
ATOM      6  C6  BNZ d   1       5.411   3.734   4.495  0.00  0.00     0.000 A 
ENDROOT
TORSDOF 0
ENDMDL
