MODEL 1
REMARK minimizedAffinity -4.44901943
REMARK minimizedRMSD -1
REMARK  0 active torsions:
REMARK  status: ('A' for Active; 'I' for Inactive)
ROOT
ATOM      1  C1  BNZ d   1       3.004   1.191   5.838  0.00  0.00     0.000 A 
ATOM      2  C2  BNZ d   1       4.099   1.998   5.995  0.00  0.00     0.000 A 
ATOM      3  C3  BNZ d   1       4.239   3.139   5.257  0.00  0.00     0.000 A 
ATOM      4  C4  BNZ d   1       3.305   3.452   4.335  0.00  0.00     0.000 A 
ATOM      5  C5  BNZ d   1       2.199   2.644   4.159  0.00  0.00     0.000 A 
ATOM      6  C6  BNZ d   1       2.042   1.516   4.931  0.00  0.00     0.000 A 
ENDROOT
TORSDOF 0
ENDMDL
