MODEL 1
REMARK minimizedAffinity 0.0550112613
REMARK minimizedRMSD -1
REMARK  0 active torsions:
REMARK  status: ('A' for Active; 'I' for Inactive)
ROOT
ATOM      1  C1  BNZ d   1       4.206   5.999   4.068  0.00  0.00     0.000 A 
ATOM      2  C2  BNZ d   1       3.866   4.906   3.317  0.00  0.00     0.000 A 
ATOM      3  C3  BNZ d   1       4.101   3.640   3.777  0.00  0.00     0.000 A 
ATOM      4  C4  BNZ d   1       4.712   3.470   4.967  0.00  0.00     0.000 A 
ATOM      5  C5  BNZ d   1       5.070   4.562   5.731  0.00  0.00     0.000 A 
ATOM      6  C6  BNZ d   1       4.796   5.834   5.283  0.00  0.00     0.000 A 
ENDROOT
TORSDOF 0
ENDMDL
