MODEL 1
REMARK minimizedAffinity -4.07433033
REMARK minimizedRMSD -1
REMARK  0 active torsions:
REMARK  status: ('A' for Active; 'I' for Inactive)
ROOT
ATOM      1  C1  BNZ d   1       1.559   4.933   5.729  0.00  0.00     0.000 A 
ATOM      2  C2  BNZ d   1       1.706   5.668   4.582  0.00  0.00     0.000 A 
ATOM      3  C3  BNZ d   1       2.605   5.294   3.622  0.00  0.00     0.000 A 
ATOM      4  C4  BNZ d   1       3.383   4.212   3.828  0.00  0.00     0.000 A 
ATOM      5  C5  BNZ d   1       3.253   3.467   4.983  0.00  0.00     0.000 A 
ATOM      6  C6  BNZ d   1       2.320   3.823   5.929  0.00  0.00     0.000 A 
ENDROOT
TORSDOF 0
ENDMDL
