MODEL 1
REMARK minimizedAffinity -4.59831667
REMARK minimizedRMSD -1
REMARK  0 active torsions:
REMARK  status: ('A' for Active; 'I' for Inactive)
ROOT
ATOM      1  C1  BNZ d   1       1.518   4.148   5.628  0.00  0.00     0.000 A 
ATOM      2  C2  BNZ d   1       2.217   2.990   5.839  0.00  0.00     0.000 A 
ATOM      3  C3  BNZ d   1       2.976   2.439   4.845  0.00  0.00     0.000 A 
ATOM      4  C4  BNZ d   1       3.003   3.025   3.630  0.00  0.00     0.000 A 
ATOM      5  C5  BNZ d   1       2.296   4.188   3.399  0.00  0.00     0.000 A 
ATOM      6  C6  BNZ d   1       1.564   4.760   4.414  0.00  0.00     0.000 A 
ENDROOT
TORSDOF 0
ENDMDL
