MODEL 1
REMARK minimizedAffinity -1.28064549
REMARK minimizedRMSD -1
REMARK  0 active torsions:
REMARK  status: ('A' for Active; 'I' for Inactive)
ROOT
ATOM      1  C1  BNZ d   1       4.170   4.315   5.995  0.00  0.00     0.000 A 
ATOM      2  C2  BNZ d   1       4.486   4.935   4.816  0.00  0.00     0.000 A 
ATOM      3  C3  BNZ d   1       4.433   4.256   3.631  0.00  0.00     0.000 A 
ATOM      4  C4  BNZ d   1       4.103   2.949   3.631  0.00  0.00     0.000 A 
ATOM      5  C5  BNZ d   1       3.790   2.306   4.812  0.00  0.00     0.000 A 
ATOM      6  C6  BNZ d   1       3.807   3.003   5.999  0.00  0.00     0.000 A 
ENDROOT
TORSDOF 0
ENDMDL
