MODEL 1
REMARK minimizedAffinity 2.61136246
REMARK minimizedRMSD -1
REMARK  0 active torsions:
REMARK  status: ('A' for Active; 'I' for Inactive)
ROOT
ATOM      1  O1  BZF d   1      -4.942   3.802   5.229  0.00  0.00    -0.204 OA
ATOM      2  C2  BZF d   1      -5.122   4.936   5.997  0.00  0.00     0.174 A 
ATOM      3  C3  BZF d   1      -5.492   5.981   5.229  0.00  0.00    -0.012 A 
ATOM      4  C3A BZF d   1      -5.636   5.445   3.910  0.00  0.00    -0.107 A 
ATOM      5  C4  BZF d   1      -5.999   5.989   2.710  0.00  0.00     0.055 A 
ATOM      6  C5  BZF d   1      -5.969   5.211   1.597  0.00  0.00    -0.016 A 
ATOM      7  C6  BZF d   1      -5.577   3.889   1.645  0.00  0.00     0.022 A 
ATOM      8  C7  BZF d   1      -5.213   3.304   2.812  0.00  0.00     0.029 A 
ATOM      9  C7A BZF d   1      -5.274   4.079   3.945  0.00  0.00     0.058 A 
ENDROOT
TORSDOF 0
ENDMDL
