MODEL 1
REMARK minimizedAffinity 13.495575
REMARK minimizedRMSD -1
REMARK  0 active torsions:
REMARK  status: ('A' for Active; 'I' for Inactive)
ROOT
ATOM      1  O1  BZF d   1      -3.714  -5.956  -1.560  0.00  0.00    -0.204 OA
ATOM      2  C2  BZF d   1      -3.462  -5.957  -2.919  0.00  0.00     0.174 A 
ATOM      3  C3  BZF d   1      -2.136  -5.918  -3.159  0.00  0.00    -0.012 A 
ATOM      4  C3A BZF d   1      -1.517  -5.984  -1.871  0.00  0.00    -0.107 A 
ATOM      5  C4  BZF d   1      -0.217  -5.999  -1.453  0.00  0.00     0.055 A 
ATOM      6  C5  BZF d   1       0.049  -5.995  -0.121  0.00  0.00    -0.016 A 
ATOM      7  C6  BZF d   1      -0.960  -5.970   0.821  0.00  0.00     0.022 A 
ATOM      8  C7  BZF d   1      -2.264  -5.959   0.455  0.00  0.00     0.029 A 
ATOM      9  C7A BZF d   1      -2.537  -5.996  -0.891  0.00  0.00     0.058 A 
ENDROOT
TORSDOF 0
ENDMDL
