MODEL 1
REMARK minimizedAffinity 10.0403404
REMARK minimizedRMSD -1
REMARK  0 active torsions:
REMARK  status: ('A' for Active; 'I' for Inactive)
ROOT
ATOM      1  O1  BZF d   1       3.155   2.955  -2.673  0.00  0.00    -0.204 OA
ATOM      2  C2  BZF d   1       4.386   3.477  -2.328  0.00  0.00     0.174 A 
ATOM      3  C3  BZF d   1       4.752   3.066  -1.097  0.00  0.00    -0.012 A 
ATOM      4  C3A BZF d   1       3.725   2.161  -0.681  0.00  0.00    -0.107 A 
ATOM      5  C4  BZF d   1       3.531   1.414   0.445  0.00  0.00     0.055 A 
ATOM      6  C5  BZF d   1       2.387   0.691   0.570  0.00  0.00    -0.016 A 
ATOM      7  C6  BZF d   1       1.415   0.697  -0.409  0.00  0.00     0.022 A 
ATOM      8  C7  BZF d   1       1.564   1.418  -1.546  0.00  0.00     0.029 A 
ATOM      9  C7A BZF d   1       2.734   2.124  -1.690  0.00  0.00     0.058 A 
ENDROOT
TORSDOF 0
ENDMDL
