MODEL 1
REMARK minimizedAffinity 10.33078
REMARK minimizedRMSD -1
REMARK  0 active torsions:
REMARK  status: ('A' for Active; 'I' for Inactive)
ROOT
ATOM      1  O1  BZF d   1       3.284   1.291  -1.791  0.00  0.00    -0.204 OA
ATOM      2  C2  BZF d   1       3.844   2.190  -0.905  0.00  0.00     0.174 A 
ATOM      3  C3  BZF d   1       3.773   1.723   0.359  0.00  0.00    -0.012 A 
ATOM      4  C3A BZF d   1       3.212   0.412   0.244  0.00  0.00    -0.107 A 
ATOM      5  C4  BZF d   1       2.910  -0.562   1.152  0.00  0.00     0.055 A 
ATOM      6  C5  BZF d   1       2.303  -1.700   0.723  0.00  0.00    -0.016 A 
ATOM      7  C6  BZF d   1       1.981  -1.895  -0.604  0.00  0.00     0.022 A 
ATOM      8  C7  BZF d   1       2.266  -0.959  -1.542  0.00  0.00     0.029 A 
ATOM      9  C7A BZF d   1       2.908   0.178  -1.117  0.00  0.00     0.058 A 
ENDROOT
TORSDOF 0
ENDMDL
