MODEL 1
REMARK minimizedAffinity 10.645134
REMARK minimizedRMSD -1
REMARK  0 active torsions:
REMARK  status: ('A' for Active; 'I' for Inactive)
ROOT
ATOM      1  O1  BZF d   1      -5.849   3.964   2.943  0.00  0.00    -0.204 OA
ATOM      2  C2  BZF d   1      -4.810   3.527   2.145  0.00  0.00     0.174 A 
ATOM      3  C3  BZF d   1      -3.629   3.994   2.599  0.00  0.00    -0.012 A 
ATOM      4  C3A BZF d   1      -3.941   4.694   3.808  0.00  0.00    -0.107 A 
ATOM      5  C4  BZF d   1      -3.185   5.364   4.726  0.00  0.00     0.055 A 
ATOM      6  C5  BZF d   1      -3.805   5.999   5.755  0.00  0.00    -0.016 A 
ATOM      7  C6  BZF d   1      -5.178   5.990   5.893  0.00  0.00     0.022 A 
ATOM      8  C7  BZF d   1      -5.969   5.334   5.009  0.00  0.00     0.029 A 
ATOM      9  C7A BZF d   1      -5.343   4.664   3.987  0.00  0.00     0.058 A 
ENDROOT
TORSDOF 0
ENDMDL
