MODEL 1
REMARK minimizedAffinity 14.5110455
REMARK minimizedRMSD -1
REMARK  0 active torsions:
REMARK  status: ('A' for Active; 'I' for Inactive)
ROOT
ATOM      1  O1  BZF d   1       2.766   1.338  -1.627  0.00  0.00    -0.204 OA
ATOM      2  C2  BZF d   1       3.205   2.006  -0.501  0.00  0.00     0.174 A 
ATOM      3  C3  BZF d   1       3.176   1.197   0.577  0.00  0.00    -0.012 A 
ATOM      4  C3A BZF d   1       2.778  -0.083   0.076  0.00  0.00    -0.107 A 
ATOM      5  C4  BZF d   1       2.584  -1.301   0.662  0.00  0.00     0.055 A 
ATOM      6  C5  BZF d   1       2.123  -2.332  -0.095  0.00  0.00    -0.016 A 
ATOM      7  C6  BZF d   1       1.841  -2.178  -1.437  0.00  0.00     0.022 A 
ATOM      8  C7  BZF d   1       2.022  -0.990  -2.062  0.00  0.00     0.029 A 
ATOM      9  C7A BZF d   1       2.519   0.045  -1.308  0.00  0.00     0.058 A 
ENDROOT
TORSDOF 0
ENDMDL
