MODEL 1
REMARK minimizedAffinity 3.26977682
REMARK minimizedRMSD -1
REMARK  0 active torsions:
REMARK  status: ('A' for Active; 'I' for Inactive)
ROOT
ATOM      1  O1  BZF d   1      -5.155   3.964   5.475  0.00  0.00    -0.204 OA
ATOM      2  C2  BZF d   1      -5.631   5.150   5.998  0.00  0.00     0.174 A 
ATOM      3  C3  BZF d   1      -5.985   6.000   5.012  0.00  0.00    -0.012 A 
ATOM      4  C3A BZF d   1      -5.799   5.266   3.798  0.00  0.00    -0.107 A 
ATOM      5  C4  BZF d   1      -5.996   5.565   2.481  0.00  0.00     0.055 A 
ATOM      6  C5  BZF d   1      -5.648   4.652   1.537  0.00  0.00    -0.016 A 
ATOM      7  C6  BZF d   1      -5.096   3.433   1.874  0.00  0.00     0.022 A 
ATOM      8  C7  BZF d   1      -4.887   3.089   3.168  0.00  0.00     0.029 A 
ATOM      9  C7A BZF d   1      -5.268   3.997   4.126  0.00  0.00     0.058 A 
ENDROOT
TORSDOF 0
ENDMDL
