MODEL 1
REMARK minimizedAffinity 6.47722006
REMARK minimizedRMSD -1
REMARK  0 active torsions:
REMARK  status: ('A' for Active; 'I' for Inactive)
ROOT
ATOM      1  O1  BZF d   1      -5.965   0.413  -0.984  0.00  0.00    -0.204 OA
ATOM      2  C2  BZF d   1      -4.959   0.315  -0.042  0.00  0.00     0.174 A 
ATOM      3  C3  BZF d   1      -3.752   0.235  -0.638  0.00  0.00    -0.012 A 
ATOM      4  C3A BZF d   1      -4.013   0.379  -2.037  0.00  0.00    -0.107 A 
ATOM      5  C4  BZF d   1      -3.213   0.400  -3.144  0.00  0.00     0.055 A 
ATOM      6  C5  BZF d   1      -3.787   0.483  -4.372  0.00  0.00    -0.016 A 
ATOM      7  C6  BZF d   1      -5.156   0.542  -4.531  0.00  0.00     0.022 A 
ATOM      8  C7  BZF d   1      -5.990   0.529  -3.463  0.00  0.00     0.029 A 
ATOM      9  C7A BZF d   1      -5.411   0.478  -2.219  0.00  0.00     0.058 A 
ENDROOT
TORSDOF 0
ENDMDL
