MODEL 1
REMARK minimizedAffinity 16.2605362
REMARK minimizedRMSD -1
REMARK  0 active torsions:
REMARK  status: ('A' for Active; 'I' for Inactive)
ROOT
ATOM      1  O1  BZF d   1       2.934   0.975   0.850  0.00  0.00    -0.204 OA
ATOM      2  C2  BZF d   1       1.876   0.785  -0.019  0.00  0.00     0.174 A 
ATOM      3  C3  BZF d   1       2.158   1.296  -1.235  0.00  0.00    -0.012 A 
ATOM      4  C3A BZF d   1       3.510   1.756  -1.145  0.00  0.00    -0.107 A 
ATOM      5  C4  BZF d   1       4.361   2.347  -2.034  0.00  0.00     0.055 A 
ATOM      6  C5  BZF d   1       5.591   2.740  -1.610  0.00  0.00    -0.016 A 
ATOM      7  C6  BZF d   1       6.000   2.563  -0.305  0.00  0.00     0.022 A 
ATOM      8  C7  BZF d   1       5.192   1.977   0.613  0.00  0.00     0.029 A 
ATOM      9  C7A BZF d   1       3.961   1.549   0.179  0.00  0.00     0.058 A 
ENDROOT
TORSDOF 0
ENDMDL
