MODEL 1
REMARK minimizedAffinity 17.3187275
REMARK minimizedRMSD -1
REMARK  0 active torsions:
REMARK  status: ('A' for Active; 'I' for Inactive)
ROOT
ATOM      1  O1  BZF d   1      -5.732   3.008  -3.033  0.00  0.00    -0.204 OA
ATOM      2  C2  BZF d   1      -5.999   1.888  -3.797  0.00  0.00     0.174 A 
ATOM      3  C3  BZF d   1      -5.665   0.764  -3.132  0.00  0.00    -0.012 A 
ATOM      4  C3A BZF d   1      -5.243   1.204  -1.837  0.00  0.00    -0.107 A 
ATOM      5  C4  BZF d   1      -4.805   0.552  -0.721  0.00  0.00     0.055 A 
ATOM      6  C5  BZF d   1      -4.401   1.279   0.354  0.00  0.00    -0.016 A 
ATOM      7  C6  BZF d   1      -4.417   2.659   0.344  0.00  0.00     0.022 A 
ATOM      8  C7  BZF d   1      -4.848   3.350  -0.739  0.00  0.00     0.029 A 
ATOM      9  C7A BZF d   1      -5.288   2.617  -1.814  0.00  0.00     0.058 A 
ENDROOT
TORSDOF 0
ENDMDL
