MODEL 1
REMARK minimizedAffinity 14.5265169
REMARK minimizedRMSD -1
REMARK  2 active torsions:
REMARK  status: ('A' for Active; 'I' for Inactive)
REMARK    1  A    between atoms: C1_2  and  C2_3 
REMARK    2  A    between atoms: C2_3  and  C3_4 
ROOT
ATOM      1  C3  UNL d   1      -0.988  -1.257  -0.324  0.00  0.00    -0.075 A 
ATOM      2  C4  UNL d   1      -1.405  -0.522   0.795  0.00  0.00     0.002 A 
ATOM      3  C5  UNL d   1      -1.511  -1.134   2.045  0.00  0.00     0.002 A 
ATOM      4  C6  UNL d   1      -1.212  -2.486   2.189  0.00  0.00    -0.004 A 
ATOM      5  C7  UNL d   1      -0.813  -3.230   1.080  0.00  0.00     0.002 A 
ATOM      6  C8  UNL d   1      -0.702  -2.620  -0.170  0.00  0.00     0.002 A 
ENDROOT
BRANCH   1   7
ATOM      7  C2  UNL d   1      -0.843  -0.594  -1.673  0.00  0.00     0.056 C 
BRANCH   7   8
ATOM      8  C1  UNL d   1       0.505  -0.853  -2.354  0.00  0.00     0.007 C 
ATOM      9  C   UNL d   1       1.464   0.325  -2.254  0.00  0.00     0.009 C 
ENDBRANCH   7   8
ENDBRANCH   1   7
TORSDOF 2
ENDMDL
