MODEL 1
REMARK minimizedAffinity 9.9731884
REMARK minimizedRMSD -1
REMARK  2 active torsions:
REMARK  status: ('A' for Active; 'I' for Inactive)
REMARK    1  A    between atoms: C1_2  and  C2_3 
REMARK    2  A    between atoms: C2_3  and  C3_4 
ROOT
ATOM      1  C3  UNL d   1      -0.675  -3.051   1.709  0.00  0.00    -0.075 A 
ATOM      2  C4  UNL d   1      -0.716  -2.827   0.325  0.00  0.00     0.002 A 
ATOM      3  C5  UNL d   1      -1.420  -1.741  -0.196  0.00  0.00     0.002 A 
ATOM      4  C6  UNL d   1      -2.098  -0.873   0.657  0.00  0.00    -0.004 A 
ATOM      5  C7  UNL d   1      -2.078  -1.096   2.032  0.00  0.00     0.002 A 
ATOM      6  C8  UNL d   1      -1.371  -2.179   2.557  0.00  0.00     0.002 A 
ENDROOT
BRANCH   1   7
ATOM      7  C2  UNL d   1       0.109  -4.208   2.281  0.00  0.00     0.056 C 
BRANCH   7   8
ATOM      8  C1  UNL d   1      -0.672  -5.051   3.294  0.00  0.00     0.007 C 
ATOM      9  C   UNL d   1       0.210  -6.000   4.094  0.00  0.00     0.009 C 
ENDBRANCH   7   8
ENDBRANCH   1   7
TORSDOF 2
ENDMDL
