MODEL 1
REMARK minimizedAffinity 2.57282066
REMARK minimizedRMSD -1
REMARK  2 active torsions:
REMARK  status: ('A' for Active; 'I' for Inactive)
REMARK    1  A    between atoms: C1_2  and  C2_3 
REMARK    2  A    between atoms: C2_3  and  C3_4 
ROOT
ATOM      1  C3  UNL d   1      -1.887  -2.318  -0.393  0.00  0.00    -0.075 A 
ATOM      2  C4  UNL d   1      -1.829  -1.705   0.868  0.00  0.00     0.002 A 
ATOM      3  C5  UNL d   1      -1.196  -2.341   1.936  0.00  0.00     0.002 A 
ATOM      4  C6  UNL d   1      -0.623  -3.599   1.761  0.00  0.00    -0.004 A 
ATOM      5  C7  UNL d   1      -0.689  -4.224   0.518  0.00  0.00     0.002 A 
ATOM      6  C8  UNL d   1      -1.318  -3.588  -0.554  0.00  0.00     0.002 A 
ENDROOT
BRANCH   1   7
ATOM      7  C2  UNL d   1      -2.545  -1.622  -1.560  0.00  0.00     0.056 C 
BRANCH   7   8
ATOM      8  C1  UNL d   1      -2.196  -2.228  -2.924  0.00  0.00     0.007 C 
ATOM      9  C   UNL d   1      -0.914  -1.664  -3.522  0.00  0.00     0.009 C 
ENDBRANCH   7   8
ENDBRANCH   1   7
TORSDOF 2
ENDMDL
