MODEL 1
REMARK minimizedAffinity 9.43471909
REMARK minimizedRMSD -1
REMARK  2 active torsions:
REMARK  status: ('A' for Active; 'I' for Inactive)
REMARK    1  A    between atoms: C1_2  and  C2_3 
REMARK    2  A    between atoms: C2_3  and  C3_4 
ROOT
ATOM      1  C3  UNL d   1      -2.825  -1.871   1.186  0.00  0.00    -0.075 A 
ATOM      2  C4  UNL d   1      -2.586  -3.253   1.232  0.00  0.00     0.002 A 
ATOM      3  C5  UNL d   1      -1.340  -3.743   1.621  0.00  0.00     0.002 A 
ATOM      4  C6  UNL d   1      -0.315  -2.862   1.959  0.00  0.00    -0.004 A 
ATOM      5  C7  UNL d   1      -0.536  -1.487   1.900  0.00  0.00     0.002 A 
ATOM      6  C8  UNL d   1      -1.784  -0.994   1.516  0.00  0.00     0.002 A 
ENDROOT
BRANCH   1   7
ATOM      7  C2  UNL d   1      -4.181  -1.334   0.794  0.00  0.00     0.056 C 
BRANCH   7   8
ATOM      8  C1  UNL d   1      -5.343  -1.932   1.593  0.00  0.00     0.007 C 
ATOM      9  C   UNL d   1      -6.000  -3.119   0.901  0.00  0.00     0.009 C 
ENDBRANCH   7   8
ENDBRANCH   1   7
TORSDOF 2
ENDMDL
