MODEL 1
REMARK minimizedAffinity 2.96827555
REMARK minimizedRMSD -1
REMARK  2 active torsions:
REMARK  status: ('A' for Active; 'I' for Inactive)
REMARK    1  A    between atoms: C1_2  and  C2_3 
REMARK    2  A    between atoms: C2_3  and  C3_4 
ROOT
ATOM      1  C3  UNL d   1      -1.751  -2.250   2.672  0.00  0.00    -0.075 A 
ATOM      2  C4  UNL d   1      -0.993  -3.367   2.291  0.00  0.00     0.002 A 
ATOM      3  C5  UNL d   1      -0.546  -3.505   0.977  0.00  0.00     0.002 A 
ATOM      4  C6  UNL d   1      -0.859  -2.536   0.026  0.00  0.00    -0.004 A 
ATOM      5  C7  UNL d   1      -1.625  -1.431   0.389  0.00  0.00     0.002 A 
ATOM      6  C8  UNL d   1      -2.070  -1.288   1.704  0.00  0.00     0.002 A 
ENDROOT
BRANCH   1   7
ATOM      7  C2  UNL d   1      -2.212  -2.080   4.099  0.00  0.00     0.056 C 
BRANCH   7   8
ATOM      8  C1  UNL d   1      -1.488  -0.964   4.860  0.00  0.00     0.007 C 
ATOM      9  C   UNL d   1      -0.265  -1.455   5.624  0.00  0.00     0.009 C 
ENDBRANCH   7   8
ENDBRANCH   1   7
TORSDOF 2
ENDMDL
