MODEL 1
REMARK minimizedAffinity 3.49600387
REMARK minimizedRMSD -1
REMARK  2 active torsions:
REMARK  status: ('A' for Active; 'I' for Inactive)
REMARK    1  A    between atoms: C1_2  and  C2_3 
REMARK    2  A    between atoms: C2_3  and  C3_4 
ROOT
ATOM      1  C3  UNL d   1      -1.630  -3.579   0.432  0.00  0.00    -0.075 A 
ATOM      2  C4  UNL d   1      -0.939  -4.793   0.305  0.00  0.00     0.002 A 
ATOM      3  C5  UNL d   1      -1.507  -5.983   0.762  0.00  0.00     0.002 A 
ATOM      4  C6  UNL d   1      -2.765  -5.973   1.359  0.00  0.00    -0.004 A 
ATOM      5  C7  UNL d   1      -3.454  -4.771   1.505  0.00  0.00     0.002 A 
ATOM      6  C8  UNL d   1      -2.890  -3.579   1.045  0.00  0.00     0.002 A 
ENDROOT
BRANCH   1   7
ATOM      7  C2  UNL d   1      -1.033  -2.293  -0.087  0.00  0.00     0.056 C 
BRANCH   7   8
ATOM      8  C1  UNL d   1      -1.839  -1.643  -1.217  0.00  0.00     0.007 C 
ATOM      9  C   UNL d   1      -1.608  -2.296  -2.573  0.00  0.00     0.009 C 
ENDBRANCH   7   8
ENDBRANCH   1   7
TORSDOF 2
ENDMDL
