MODEL 1
REMARK minimizedAffinity 8.51754093
REMARK minimizedRMSD -1
REMARK  2 active torsions:
REMARK  status: ('A' for Active; 'I' for Inactive)
REMARK    1  A    between atoms: C1_2  and  C2_3 
REMARK    2  A    between atoms: C2_3  and  C3_4 
ROOT
ATOM      1  C3  UNL d   1      -1.442  -1.744   2.128  0.00  0.00    -0.075 A 
ATOM      2  C4  UNL d   1      -2.440  -1.739   1.142  0.00  0.00     0.002 A 
ATOM      3  C5  UNL d   1      -2.500  -2.757   0.190  0.00  0.00     0.002 A 
ATOM      4  C6  UNL d   1      -1.559  -3.785   0.205  0.00  0.00    -0.004 A 
ATOM      5  C7  UNL d   1      -0.554  -3.791   1.169  0.00  0.00     0.002 A 
ATOM      6  C8  UNL d   1      -0.494  -2.776   2.126  0.00  0.00     0.002 A 
ENDROOT
BRANCH   1   7
ATOM      7  C2  UNL d   1      -1.390  -0.661   3.179  0.00  0.00     0.056 C 
BRANCH   7   8
ATOM      8  C1  UNL d   1      -1.425  -1.186   4.618  0.00  0.00     0.007 C 
ATOM      9  C   UNL d   1      -0.044  -1.303   5.249  0.00  0.00     0.009 C 
ENDBRANCH   7   8
ENDBRANCH   1   7
TORSDOF 2
ENDMDL
