MODEL 1
REMARK minimizedAffinity 10.0834303
REMARK minimizedRMSD -1
REMARK  2 active torsions:
REMARK  status: ('A' for Active; 'I' for Inactive)
REMARK    1  A    between atoms: C1_2  and  C2_3 
REMARK    2  A    between atoms: C2_3  and  C3_4 
ROOT
ATOM      1  C3  UNL d   1      -0.987  -1.490   2.953  0.00  0.00    -0.075 A 
ATOM      2  C4  UNL d   1      -0.703  -2.859   3.052  0.00  0.00     0.002 A 
ATOM      3  C5  UNL d   1      -0.659  -3.658   1.909  0.00  0.00     0.002 A 
ATOM      4  C6  UNL d   1      -0.908  -3.102   0.657  0.00  0.00    -0.004 A 
ATOM      5  C7  UNL d   1      -1.208  -1.746   0.548  0.00  0.00     0.002 A 
ATOM      6  C8  UNL d   1      -1.248  -0.943   1.689  0.00  0.00     0.002 A 
ENDROOT
BRANCH   1   7
ATOM      7  C2  UNL d   1      -1.007  -0.614   4.183  0.00  0.00     0.056 C 
BRANCH   7   8
ATOM      8  C1  UNL d   1      -1.892   0.630   4.048  0.00  0.00     0.007 C 
ATOM      9  C   UNL d   1      -1.424   1.585   2.958  0.00  0.00     0.009 C 
ENDBRANCH   7   8
ENDBRANCH   1   7
TORSDOF 2
ENDMDL
