MODEL 1
REMARK minimizedAffinity 12.8272915
REMARK minimizedRMSD -1
REMARK  2 active torsions:
REMARK  status: ('A' for Active; 'I' for Inactive)
REMARK    1  A    between atoms: C1_2  and  C2_3 
REMARK    2  A    between atoms: C2_3  and  C3_4 
ROOT
ATOM      1  C3  UNL d   1       3.518  -0.188  -2.695  0.00  0.00    -0.075 A 
ATOM      2  C4  UNL d   1       3.987   1.092  -3.022  0.00  0.00     0.002 A 
ATOM      3  C5  UNL d   1       5.219   1.255  -3.657  0.00  0.00     0.002 A 
ATOM      4  C6  UNL d   1       6.000   0.143  -3.964  0.00  0.00    -0.004 A 
ATOM      5  C7  UNL d   1       5.551  -1.133  -3.629  0.00  0.00     0.002 A 
ATOM      6  C8  UNL d   1       4.317  -1.299  -2.997  0.00  0.00     0.002 A 
ENDROOT
BRANCH   1   7
ATOM      7  C2  UNL d   1       2.173  -0.372  -2.034  0.00  0.00     0.056 C 
BRANCH   7   8
ATOM      8  C1  UNL d   1       1.050  -0.761  -3.002  0.00  0.00     0.007 C 
ATOM      9  C   UNL d   1      -0.124  -1.446  -2.316  0.00  0.00     0.009 C 
ENDBRANCH   7   8
ENDBRANCH   1   7
TORSDOF 2
ENDMDL
