MODEL 1
REMARK minimizedAffinity -0.576119959
REMARK minimizedRMSD -1
REMARK  2 active torsions:
REMARK  status: ('A' for Active; 'I' for Inactive)
REMARK    1  A    between atoms: C1_2  and  C2_3 
REMARK    2  A    between atoms: C2_3  and  C3_4 
ROOT
ATOM      1  C3  UNL d   1      -4.079  -0.239   5.988  0.00  0.00    -0.075 A 
ATOM      2  C4  UNL d   1      -5.467  -0.041   5.999  0.00  0.00     0.002 A 
ATOM      3  C5  UNL d   1      -5.999   1.249   5.990  0.00  0.00     0.002 A 
ATOM      4  C6  UNL d   1      -5.152   2.355   5.980  0.00  0.00    -0.004 A 
ATOM      5  C7  UNL d   1      -3.771   2.170   5.985  0.00  0.00     0.002 A 
ATOM      6  C8  UNL d   1      -3.236   0.880   5.990  0.00  0.00     0.002 A 
ENDROOT
BRANCH   1   7
ATOM      7  C2  UNL d   1      -3.498  -1.633   5.968  0.00  0.00     0.056 C 
BRANCH   7   8
ATOM      8  C1  UNL d   1      -2.067  -1.704   5.422  0.00  0.00     0.007 C 
ATOM      9  C   UNL d   1      -1.770  -3.003   4.685  0.00  0.00     0.009 C 
ENDBRANCH   7   8
ENDBRANCH   1   7
TORSDOF 2
ENDMDL
