MODEL 1
REMARK minimizedAffinity -4.30083179
REMARK minimizedRMSD -1
REMARK  0 active torsions:
REMARK  status: ('A' for Active; 'I' for Inactive)
ROOT
ATOM      1  O1  BZF d   1      -0.274   0.003  -1.287  0.00  0.00    -0.204 OA
ATOM      2  C2  BZF d   1       0.346  -1.036  -0.619  0.00  0.00     0.174 A 
ATOM      3  C3  BZF d   1       0.421  -0.778   0.702  0.00  0.00    -0.012 A 
ATOM      4  C3A BZF d   1      -0.272   0.461   0.884  0.00  0.00    -0.107 A 
ATOM      5  C4  BZF d   1      -0.551   1.229   1.978  0.00  0.00     0.055 A 
ATOM      6  C5  BZF d   1      -1.184   2.419   1.805  0.00  0.00    -0.016 A 
ATOM      7  C6  BZF d   1      -1.547   2.874   0.554  0.00  0.00     0.022 A 
ATOM      8  C7  BZF d   1      -1.296   2.145  -0.560  0.00  0.00     0.029 A 
ATOM      9  C7A BZF d   1      -0.686   0.926  -0.386  0.00  0.00     0.058 A 
ENDROOT
TORSDOF 0
ENDMDL
