MODEL 1
REMARK minimizedAffinity -5.36794186
REMARK minimizedRMSD -1
REMARK  0 active torsions:
REMARK  status: ('A' for Active; 'I' for Inactive)
ROOT
ATOM      1  O1  BZF d   1       0.248   0.181  -1.242  0.00  0.00    -0.204 OA
ATOM      2  C2  BZF d   1       0.749  -0.694  -0.297  0.00  0.00     0.174 A 
ATOM      3  C3  BZF d   1       0.516  -0.236   0.950  0.00  0.00    -0.012 A 
ATOM      4  C3A BZF d   1      -0.254   0.957   0.775  0.00  0.00    -0.107 A 
ATOM      5  C4  BZF d   1      -0.804   1.855   1.645  0.00  0.00     0.055 A 
ATOM      6  C5  BZF d   1      -1.434   2.953   1.150  0.00  0.00    -0.016 A 
ATOM      7  C6  BZF d   1      -1.529   3.186  -0.206  0.00  0.00     0.022 A 
ATOM      8  C7  BZF d   1      -1.004   2.321  -1.108  0.00  0.00     0.029 A 
ATOM      9  C7A BZF d   1      -0.395   1.194  -0.612  0.00  0.00     0.058 A 
ENDROOT
TORSDOF 0
ENDMDL
