MODEL 1
REMARK minimizedAffinity -3.140486
REMARK minimizedRMSD -1
REMARK  0 active torsions:
REMARK  status: ('A' for Active; 'I' for Inactive)
ROOT
ATOM      1  O1  BZF d   1       0.873  -1.090   0.142  0.00  0.00    -0.204 OA
ATOM      2  C2  BZF d   1       0.211  -1.281  -1.055  0.00  0.00     0.174 A 
ATOM      3  C3  BZF d   1      -0.732  -0.335  -1.236  0.00  0.00    -0.012 A 
ATOM      4  C3A BZF d   1      -0.592   0.554  -0.124  0.00  0.00    -0.107 A 
ATOM      5  C4  BZF d   1      -1.236   1.699   0.250  0.00  0.00     0.055 A 
ATOM      6  C5  BZF d   1      -0.908   2.286   1.431  0.00  0.00    -0.016 A 
ATOM      7  C6  BZF d   1       0.054   1.752   2.264  0.00  0.00     0.022 A 
ATOM      8  C7  BZF d   1       0.723   0.621   1.934  0.00  0.00     0.029 A 
ATOM      9  C7A BZF d   1       0.417   0.044   0.725  0.00  0.00     0.058 A 
ENDROOT
TORSDOF 0
ENDMDL
