MODEL 1
REMARK minimizedAffinity -5.04759598
REMARK minimizedRMSD -1
REMARK  0 active torsions:
REMARK  status: ('A' for Active; 'I' for Inactive)
ROOT
ATOM      1  O1  BZF d   1       1.274  -0.332   0.725  0.00  0.00    -0.204 OA
ATOM      2  C2  BZF d   1       1.038  -1.083  -0.410  0.00  0.00     0.174 A 
ATOM      3  C3  BZF d   1      -0.188  -0.826  -0.908  0.00  0.00    -0.012 A 
ATOM      4  C3A BZF d   1      -0.719   0.215  -0.082  0.00  0.00    -0.107 A 
ATOM      5  C4  BZF d   1      -1.896   0.908  -0.085  0.00  0.00     0.055 A 
ATOM      6  C5  BZF d   1      -2.133   1.810   0.904  0.00  0.00    -0.016 A 
ATOM      7  C6  BZF d   1      -1.220   2.040   1.911  0.00  0.00     0.022 A 
ATOM      8  C7  BZF d   1      -0.036   1.381   1.953  0.00  0.00     0.029 A 
ATOM      9  C7A BZF d   1       0.221   0.493   0.938  0.00  0.00     0.058 A 
ENDROOT
TORSDOF 0
ENDMDL
