MODEL 1
REMARK minimizedAffinity -4.07297564
REMARK minimizedRMSD -1
REMARK  0 active torsions:
REMARK  status: ('A' for Active; 'I' for Inactive)
ROOT
ATOM      1  O1  BZF d   1       0.387   0.451  -1.447  0.00  0.00    -0.204 OA
ATOM      2  C2  BZF d   1      -0.028   1.564  -2.153  0.00  0.00     0.174 A 
ATOM      3  C3  BZF d   1      -0.640   2.446  -1.337  0.00  0.00    -0.012 A 
ATOM      4  C3A BZF d   1      -0.523   1.889  -0.025  0.00  0.00    -0.107 A 
ATOM      5  C4  BZF d   1      -0.923   2.309   1.212  0.00  0.00     0.055 A 
ATOM      6  C5  BZF d   1      -0.720   1.497   2.282  0.00  0.00    -0.016 A 
ATOM      7  C6  BZF d   1      -0.127   0.258   2.152  0.00  0.00     0.022 A 
ATOM      8  C7  BZF d   1       0.290  -0.199   0.946  0.00  0.00     0.029 A 
ATOM      9  C7A BZF d   1       0.117   0.633  -0.132  0.00  0.00     0.058 A 
ENDROOT
TORSDOF 0
ENDMDL
