MODEL 1
REMARK minimizedAffinity -5.53142929
REMARK minimizedRMSD -1
REMARK  0 active torsions:
REMARK  status: ('A' for Active; 'I' for Inactive)
ROOT
ATOM      1  O1  BZF d   1      -0.074   1.630   2.539  0.00  0.00    -0.204 OA
ATOM      2  C2  BZF d   1      -1.028   2.548   2.146  0.00  0.00     0.174 A 
ATOM      3  C3  BZF d   1      -1.454   2.289   0.893  0.00  0.00    -0.012 A 
ATOM      4  C3A BZF d   1      -0.789   1.081   0.511  0.00  0.00    -0.107 A 
ATOM      5  C4  BZF d   1      -0.814   0.311  -0.616  0.00  0.00     0.055 A 
ATOM      6  C5  BZF d   1       0.010  -0.766  -0.699  0.00  0.00    -0.016 A 
ATOM      7  C6  BZF d   1       0.875  -1.099   0.324  0.00  0.00     0.022 A 
ATOM      8  C7  BZF d   1       0.932  -0.368   1.464  0.00  0.00     0.029 A 
ATOM      9  C7A BZF d   1       0.077   0.702   1.564  0.00  0.00     0.058 A 
ENDROOT
TORSDOF 0
ENDMDL
