MODEL 1
REMARK minimizedAffinity -3.64566302
REMARK minimizedRMSD -1
REMARK  0 active torsions:
REMARK  status: ('A' for Active; 'I' for Inactive)
ROOT
ATOM      1  O1  BZF d   1       0.707   0.117  -1.412  0.00  0.00    -0.204 OA
ATOM      2  C2  BZF d   1       0.167   1.079  -2.244  0.00  0.00     0.174 A 
ATOM      3  C3  BZF d   1      -0.659   1.895  -1.558  0.00  0.00    -0.012 A 
ATOM      4  C3A BZF d   1      -0.562   1.470  -0.195  0.00  0.00    -0.107 A 
ATOM      5  C4  BZF d   1      -1.135   1.902   0.966  0.00  0.00     0.055 A 
ATOM      6  C5  BZF d   1      -0.888   1.224   2.117  0.00  0.00    -0.016 A 
ATOM      7  C6  BZF d   1      -0.079   0.107   2.142  0.00  0.00     0.022 A 
ATOM      8  C7  BZF d   1       0.516  -0.357   1.016  0.00  0.00     0.029 A 
ATOM      9  C7A BZF d   1       0.295   0.346  -0.143  0.00  0.00     0.058 A 
ENDROOT
TORSDOF 0
ENDMDL
