MODEL 1
REMARK minimizedAffinity -4.64100409
REMARK minimizedRMSD -1
REMARK  0 active torsions:
REMARK  status: ('A' for Active; 'I' for Inactive)
ROOT
ATOM      1  O1  BZF d   1      -0.359  -0.398  -0.754  0.00  0.00    -0.204 OA
ATOM      2  C2  BZF d   1       0.611  -1.109  -0.076  0.00  0.00     0.174 A 
ATOM      3  C3  BZF d   1       0.967  -0.472   1.058  0.00  0.00    -0.012 A 
ATOM      4  C3A BZF d   1       0.102   0.665   1.138  0.00  0.00    -0.107 A 
ATOM      5  C4  BZF d   1      -0.041   1.674   2.047  0.00  0.00     0.055 A 
ATOM      6  C5  BZF d   1      -0.929   2.671   1.793  0.00  0.00    -0.016 A 
ATOM      7  C6  BZF d   1      -1.685   2.693   0.640  0.00  0.00     0.022 A 
ATOM      8  C7  BZF d   1      -1.582   1.712  -0.289  0.00  0.00     0.029 A 
ATOM      9  C7A BZF d   1      -0.709   0.686  -0.020  0.00  0.00     0.058 A 
ENDROOT
TORSDOF 0
ENDMDL
