MODEL 1
REMARK minimizedAffinity -3.05569696
REMARK minimizedRMSD -1
REMARK  0 active torsions:
REMARK  status: ('A' for Active; 'I' for Inactive)
ROOT
ATOM      1  O1  BZF d   1      -1.126  -0.725  -0.709  0.00  0.00    -0.204 OA
ATOM      2  C2  BZF d   1       0.067  -1.402  -0.878  0.00  0.00     0.174 A 
ATOM      3  C3  BZF d   1       1.048  -0.833  -0.148  0.00  0.00    -0.012 A 
ATOM      4  C3A BZF d   1       0.408   0.212   0.591  0.00  0.00    -0.107 A 
ATOM      5  C4  BZF d   1       0.854   1.125   1.504  0.00  0.00     0.055 A 
ATOM      6  C5  BZF d   1      -0.011   2.057   1.983  0.00  0.00    -0.016 A 
ATOM      7  C6  BZF d   1      -1.326   2.109   1.568  0.00  0.00     0.022 A 
ATOM      8  C7  BZF d   1      -1.815   1.221   0.668  0.00  0.00     0.029 A 
ATOM      9  C7A BZF d   1      -0.952   0.258   0.207  0.00  0.00     0.058 A 
ENDROOT
TORSDOF 0
ENDMDL
