MODEL 1
REMARK minimizedAffinity 5.29647493
REMARK minimizedRMSD -1
REMARK  0 active torsions:
REMARK  status: ('A' for Active; 'I' for Inactive)
ROOT
ATOM      1  C2' OXE d   1      -3.268   1.696  -3.236  0.00  0.00     0.078 C 
ATOM      2  C1' OXE d   1      -3.244   0.237  -0.838  0.00  0.00     0.078 C 
ATOM      3  C1  OXE d   1      -2.184   1.293  -1.029  0.00  0.00    -0.078 A 
ATOM      4  C2  OXE d   1      -2.175   1.970  -2.225  0.00  0.00    -0.078 A 
ATOM      5  C3  OXE d   1      -1.253   2.992  -2.432  0.00  0.00     0.003 A 
ATOM      6  C4  OXE d   1      -0.239   3.232  -1.496  0.00  0.00    -0.002 A 
ATOM      7  C5  OXE d   1      -0.206   2.526  -0.289  0.00  0.00    -0.002 A 
ATOM      8  C6  OXE d   1      -1.194   1.585  -0.022  0.00  0.00     0.003 A 
ENDROOT
TORSDOF 0
ENDMDL
