MODEL 1
REMARK minimizedAffinity 2.19999671
REMARK minimizedRMSD -1
REMARK  0 active torsions:
REMARK  status: ('A' for Active; 'I' for Inactive)
ROOT
ATOM      1  C2' OXE d   1       0.292   4.070  -3.332  0.00  0.00     0.078 C 
ATOM      2  C1' OXE d   1      -2.258   3.047  -2.758  0.00  0.00     0.078 C 
ATOM      3  C1  OXE d   1      -1.181   2.875  -1.716  0.00  0.00    -0.078 A 
ATOM      4  C2  OXE d   1       0.076   3.338  -2.025  0.00  0.00    -0.078 A 
ATOM      5  C3  OXE d   1       1.093   3.254  -1.078  0.00  0.00     0.003 A 
ATOM      6  C4  OXE d   1       0.888   2.566   0.124  0.00  0.00    -0.002 A 
ATOM      7  C5  OXE d   1      -0.374   2.053   0.441  0.00  0.00    -0.002 A 
ATOM      8  C6  OXE d   1      -1.428   2.236  -0.448  0.00  0.00     0.003 A 
ENDROOT
TORSDOF 0
ENDMDL
