MODEL 1
REMARK minimizedAffinity 10.8633928
REMARK minimizedRMSD -1
REMARK  0 active torsions:
REMARK  status: ('A' for Active; 'I' for Inactive)
ROOT
ATOM      1  C2' OXE d   1      -3.331   2.045  -2.618  0.00  0.00     0.078 C 
ATOM      2  C1' OXE d   1      -0.578   1.822  -2.118  0.00  0.00     0.078 C 
ATOM      3  C1  OXE d   1      -1.047   2.971  -2.975  0.00  0.00    -0.078 A 
ATOM      4  C2  OXE d   1      -2.391   3.046  -3.253  0.00  0.00    -0.078 A 
ATOM      5  C3  OXE d   1      -2.883   4.116  -3.994  0.00  0.00     0.003 A 
ATOM      6  C4  OXE d   1      -2.005   5.032  -4.586  0.00  0.00    -0.002 A 
ATOM      7  C5  OXE d   1      -0.629   4.952  -4.348  0.00  0.00    -0.002 A 
ATOM      8  C6  OXE d   1      -0.139   3.954  -3.512  0.00  0.00     0.003 A 
ENDROOT
TORSDOF 0
ENDMDL
