MODEL 1
REMARK minimizedAffinity 6.58709192
REMARK minimizedRMSD -1
REMARK  0 active torsions:
REMARK  status: ('A' for Active; 'I' for Inactive)
ROOT
ATOM      1  C2' OXE d   1      -1.038   2.816  -2.197  0.00  0.00     0.078 C 
ATOM      2  C1' OXE d   1      -3.705   2.029  -1.813  0.00  0.00     0.078 C 
ATOM      3  C1  OXE d   1      -2.633   0.980  -1.657  0.00  0.00    -0.078 A 
ATOM      4  C2  OXE d   1      -1.334   1.363  -1.893  0.00  0.00    -0.078 A 
ATOM      5  C3  OXE d   1      -0.301   0.448  -1.710  0.00  0.00     0.003 A 
ATOM      6  C4  OXE d   1      -0.585  -0.896  -1.439  0.00  0.00    -0.002 A 
ATOM      7  C5  OXE d   1      -1.903  -1.316  -1.234  0.00  0.00    -0.002 A 
ATOM      8  C6  OXE d   1      -2.933  -0.384  -1.298  0.00  0.00     0.003 A 
ENDROOT
TORSDOF 0
ENDMDL
