MODEL 1
REMARK minimizedAffinity 4.5486474
REMARK minimizedRMSD -1
REMARK  0 active torsions:
REMARK  status: ('A' for Active; 'I' for Inactive)
ROOT
ATOM      1  C2' OXE d   1       2.481  -0.637  -0.735  0.00  0.00     0.078 C 
ATOM      2  C1' OXE d   1       0.356   0.424  -2.230  0.00  0.00     0.078 C 
ATOM      3  C1  OXE d   1       0.522   0.899  -0.808  0.00  0.00    -0.078 A 
ATOM      4  C2  OXE d   1       1.536   0.339  -0.069  0.00  0.00    -0.078 A 
ATOM      5  C3  OXE d   1       1.767   0.782   1.230  0.00  0.00     0.003 A 
ATOM      6  C4  OXE d   1       0.882   1.678   1.842  0.00  0.00    -0.002 A 
ATOM      7  C5  OXE d   1      -0.181   2.230   1.120  0.00  0.00    -0.002 A 
ATOM      8  C6  OXE d   1      -0.350   1.884  -0.216  0.00  0.00     0.003 A 
ENDROOT
TORSDOF 0
ENDMDL
