MODEL 1
REMARK minimizedAffinity 2.97635365
REMARK minimizedRMSD -1
REMARK  0 active torsions:
REMARK  status: ('A' for Active; 'I' for Inactive)
ROOT
ATOM      1  C2' OXE d   1       1.398  -0.534  -0.374  0.00  0.00     0.078 C 
ATOM      2  C1' OXE d   1      -0.026   1.582   0.798  0.00  0.00     0.078 C 
ATOM      3  C1  OXE d   1      -0.186   1.363  -0.686  0.00  0.00    -0.078 A 
ATOM      4  C2  OXE d   1       0.550   0.354  -1.259  0.00  0.00    -0.078 A 
ATOM      5  C3  OXE d   1       0.399   0.074  -2.614  0.00  0.00     0.003 A 
ATOM      6  C4  OXE d   1      -0.379   0.907  -3.427  0.00  0.00    -0.002 A 
ATOM      7  C5  OXE d   1      -1.107   1.964  -2.870  0.00  0.00    -0.002 A 
ATOM      8  C6  OXE d   1      -1.055   2.179  -1.497  0.00  0.00     0.003 A 
ENDROOT
TORSDOF 0
ENDMDL
