MODEL 1
REMARK minimizedAffinity 13.5677862
REMARK minimizedRMSD -1
REMARK  0 active torsions:
REMARK  status: ('A' for Active; 'I' for Inactive)
ROOT
ATOM      1  C2' OXE d   1       5.642  -4.182  -0.745  0.00  0.00     0.078 C 
ATOM      2  C1' OXE d   1       3.719  -2.240  -0.107  0.00  0.00     0.078 C 
ATOM      3  C1  OXE d   1       3.233  -3.555  -0.662  0.00  0.00    -0.078 A 
ATOM      4  C2  OXE d   1       4.184  -4.482  -1.015  0.00  0.00    -0.078 A 
ATOM      5  C3  OXE d   1       3.788  -5.733  -1.481  0.00  0.00     0.003 A 
ATOM      6  C4  OXE d   1       2.437  -5.999  -1.737  0.00  0.00    -0.002 A 
ATOM      7  C5  OXE d   1       1.455  -5.053  -1.422  0.00  0.00    -0.002 A 
ATOM      8  C6  OXE d   1       1.832  -3.845  -0.846  0.00  0.00     0.003 A 
ENDROOT
TORSDOF 0
ENDMDL
