MODEL 1
REMARK minimizedAffinity 14.214366
REMARK minimizedRMSD -1
REMARK  0 active torsions:
REMARK  status: ('A' for Active; 'I' for Inactive)
ROOT
ATOM      1  C1  DEN d   1       1.832   2.718   1.848  0.00  0.00     0.130 A 
ATOM      2  C2  DEN d   1       0.722   1.920   2.364  0.00  0.00    -0.031 A 
ATOM      3  C3  DEN d   1      -0.482   2.248   1.573  0.00  0.00     0.027 A 
ATOM      4  C4  DEN d   1      -0.733   3.900  -0.391  0.00  0.00     0.027 A 
ATOM      5  C5  DEN d   1      -0.071   4.816  -1.180  0.00  0.00    -0.003 A 
ATOM      6  C6  DEN d   1       1.252   5.118  -0.994  0.00  0.00     0.001 A 
ATOM      7  C7  DEN d   1       1.968   4.467  -0.024  0.00  0.00     0.017 A 
ATOM      8  C8  DEN d   1       1.306   3.548   0.780  0.00  0.00    -0.094 A 
ATOM      9  C9  DEN d   1      -0.029   3.247   0.568  0.00  0.00    -0.072 A 
ENDROOT
TORSDOF 0
ENDMDL
