MODEL 1
REMARK minimizedAffinity 2.60787511
REMARK minimizedRMSD -1
REMARK  0 active torsions:
REMARK  status: ('A' for Active; 'I' for Inactive)
ROOT
ATOM      1  C1  DEN d   1      -2.195   5.968   0.760  0.00  0.00     0.130 A 
ATOM      2  C2  DEN d   1      -2.648   5.538   2.080  0.00  0.00    -0.031 A 
ATOM      3  C3  DEN d   1      -2.217   4.139   2.277  0.00  0.00     0.027 A 
ATOM      4  C4  DEN d   1      -0.894   2.608   0.679  0.00  0.00     0.027 A 
ATOM      5  C5  DEN d   1      -0.299   2.525  -0.561  0.00  0.00    -0.003 A 
ATOM      6  C6  DEN d   1      -0.323   3.564  -1.453  0.00  0.00     0.001 A 
ATOM      7  C7  DEN d   1      -0.917   4.747  -1.101  0.00  0.00     0.017 A 
ATOM      8  C8  DEN d   1      -1.525   4.836   0.144  0.00  0.00    -0.094 A 
ATOM      9  C9  DEN d   1      -1.480   3.778   1.037  0.00  0.00    -0.072 A 
ENDROOT
TORSDOF 0
ENDMDL
