MODEL 1
REMARK minimizedAffinity 9.00895023
REMARK minimizedRMSD -1
REMARK  0 active torsions:
REMARK  status: ('A' for Active; 'I' for Inactive)
ROOT
ATOM      1  C1  DEN d   1       6.000  -4.211  -1.712  0.00  0.00     0.130 A 
ATOM      2  C2  DEN d   1       5.138  -4.470  -0.562  0.00  0.00    -0.031 A 
ATOM      3  C3  DEN d   1       3.955  -5.216  -1.036  0.00  0.00     0.027 A 
ATOM      4  C4  DEN d   1       3.379  -5.994  -3.427  0.00  0.00     0.027 A 
ATOM      5  C5  DEN d   1       3.800  -5.997  -4.738  0.00  0.00    -0.003 A 
ATOM      6  C6  DEN d   1       4.957  -5.380  -5.135  0.00  0.00     0.001 A 
ATOM      7  C7  DEN d   1       5.757  -4.773  -4.203  0.00  0.00     0.017 A 
ATOM      8  C8  DEN d   1       5.336  -4.760  -2.880  0.00  0.00    -0.094 A 
ATOM      9  C9  DEN d   1       4.169  -5.399  -2.497  0.00  0.00    -0.072 A 
ENDROOT
TORSDOF 0
ENDMDL
