MODEL 1
REMARK minimizedAffinity 5.57198524
REMARK minimizedRMSD -1
REMARK  0 active torsions:
REMARK  status: ('A' for Active; 'I' for Inactive)
ROOT
ATOM      1  C1  DEN d   1      -0.592   0.380   3.427  0.00  0.00     0.130 A 
ATOM      2  C2  DEN d   1       0.608   0.997   2.870  0.00  0.00    -0.031 A 
ATOM      3  C3  DEN d   1       1.783   0.342   3.479  0.00  0.00     0.027 A 
ATOM      4  C4  DEN d   1       1.859  -1.562   5.217  0.00  0.00     0.027 A 
ATOM      5  C5  DEN d   1       1.095  -2.402   5.996  0.00  0.00    -0.003 A 
ATOM      6  C6  DEN d   1      -0.274  -2.351   5.999  0.00  0.00     0.001 A 
ATOM      7  C7  DEN d   1      -0.922  -1.471   5.173  0.00  0.00     0.017 A 
ATOM      8  C8  DEN d   1      -0.158  -0.616   4.390  0.00  0.00    -0.094 A 
ATOM      9  C9  DEN d   1       1.225  -0.691   4.392  0.00  0.00    -0.072 A 
ENDROOT
TORSDOF 0
ENDMDL
