MODEL 1
REMARK minimizedAffinity 9.23408508
REMARK minimizedRMSD -1
REMARK  0 active torsions:
REMARK  status: ('A' for Active; 'I' for Inactive)
ROOT
ATOM      1  C1  DEN d   1       1.906  -4.086  -0.350  0.00  0.00     0.130 A 
ATOM      2  C2  DEN d   1       1.677  -2.670  -0.076  0.00  0.00    -0.031 A 
ATOM      3  C3  DEN d   1       2.944  -1.949  -0.309  0.00  0.00     0.027 A 
ATOM      4  C4  DEN d   1       5.226  -2.882  -1.068  0.00  0.00     0.027 A 
ATOM      5  C5  DEN d   1       5.912  -4.025  -1.414  0.00  0.00    -0.003 A 
ATOM      6  C6  DEN d   1       5.326  -5.263  -1.396  0.00  0.00     0.001 A 
ATOM      7  C7  DEN d   1       4.001  -5.381  -1.068  0.00  0.00     0.017 A 
ATOM      8  C8  DEN d   1       3.304  -4.234  -0.712  0.00  0.00    -0.094 A 
ATOM      9  C9  DEN d   1       3.911  -2.990  -0.748  0.00  0.00    -0.072 A 
ENDROOT
TORSDOF 0
ENDMDL
