MODEL 1
REMARK minimizedAffinity -3.22343612
REMARK minimizedRMSD -1
REMARK  0 active torsions:
REMARK  status: ('A' for Active; 'I' for Inactive)
ROOT
ATOM      1  C   UNL d   1      -1.840   1.089  -2.246  0.00  0.00     0.172 C 
ATOM      2  N   UNL d   1      -0.777   0.529  -1.445  0.00  0.00    -0.070 N 
ATOM      3  C1  UNL d   1      -0.678   0.608  -0.082  0.00  0.00    -0.004 A 
ATOM      4  C2  UNL d   1       0.473  -0.049   0.296  0.00  0.00    -0.047 A 
ATOM      5  C3  UNL d   1       1.088  -0.537  -0.881  0.00  0.00    -0.047 A 
ATOM      6  C4  UNL d   1       0.293  -0.165  -1.944  0.00  0.00    -0.004 A 
ENDROOT
TORSDOF 0
ENDMDL
