MODEL 1
REMARK minimizedAffinity -2.99811697
REMARK minimizedRMSD -1
REMARK  0 active torsions:
REMARK  status: ('A' for Active; 'I' for Inactive)
ROOT
ATOM      1  C   UNL d   1      -0.976   0.418  -0.998  0.00  0.00     0.172 C 
ATOM      2  N   UNL d   1       0.078  -0.416  -0.470  0.00  0.00    -0.070 N 
ATOM      3  C1  UNL d   1       1.034  -1.060  -1.210  0.00  0.00    -0.004 A 
ATOM      4  C2  UNL d   1       1.851  -1.747  -0.338  0.00  0.00    -0.047 A 
ATOM      5  C3  UNL d   1       1.369  -1.508   0.971  0.00  0.00    -0.047 A 
ATOM      6  C4  UNL d   1       0.272  -0.680   0.861  0.00  0.00    -0.004 A 
ENDROOT
TORSDOF 0
ENDMDL
