MODEL 1
REMARK minimizedAffinity -2.53739524
REMARK minimizedRMSD -1
REMARK  0 active torsions:
REMARK  status: ('A' for Active; 'I' for Inactive)
ROOT
ATOM      1  C   UNL d   1       0.346  -1.808   3.318  0.00  0.00     0.172 C 
ATOM      2  N   UNL d   1       0.588  -1.138   2.062  0.00  0.00    -0.070 N 
ATOM      3  C1  UNL d   1      -0.247  -0.232   1.466  0.00  0.00    -0.004 A 
ATOM      4  C2  UNL d   1       0.341   0.174   0.288  0.00  0.00    -0.047 A 
ATOM      5  C3  UNL d   1       1.572  -0.513   0.171  0.00  0.00    -0.047 A 
ATOM      6  C4  UNL d   1       1.700  -1.319   1.283  0.00  0.00    -0.004 A 
ENDROOT
TORSDOF 0
ENDMDL
