MODEL 1
REMARK minimizedAffinity -1.92662108
REMARK minimizedRMSD -1
REMARK  0 active torsions:
REMARK  status: ('A' for Active; 'I' for Inactive)
ROOT
ATOM      1  C   UNL d   1      -1.883   1.057  -2.834  0.00  0.00     0.172 C 
ATOM      2  N   UNL d   1      -1.079   0.470  -1.788  0.00  0.00    -0.070 N 
ATOM      3  C1  UNL d   1      -1.111   0.820  -0.464  0.00  0.00    -0.004 A 
ATOM      4  C2  UNL d   1      -0.200   0.031   0.203  0.00  0.00    -0.047 A 
ATOM      5  C3  UNL d   1       0.402  -0.821  -0.752  0.00  0.00    -0.047 A 
ATOM      6  C4  UNL d   1      -0.160  -0.528  -1.977  0.00  0.00    -0.004 A 
ENDROOT
TORSDOF 0
ENDMDL
