MODEL 1
REMARK minimizedAffinity -2.44469666
REMARK minimizedRMSD -1
REMARK  0 active torsions:
REMARK  status: ('A' for Active; 'I' for Inactive)
ROOT
ATOM      1  C   UNL d   1      -0.682   0.849  -0.358  0.00  0.00     0.172 C 
ATOM      2  N   UNL d   1       0.381  -0.088  -0.079  0.00  0.00    -0.070 N 
ATOM      3  C1  UNL d   1       0.568  -0.756   1.102  0.00  0.00    -0.004 A 
ATOM      4  C2  UNL d   1       1.686  -1.550   0.965  0.00  0.00    -0.047 A 
ATOM      5  C3  UNL d   1       2.189  -1.352  -0.342  0.00  0.00    -0.047 A 
ATOM      6  C4  UNL d   1       1.363  -0.442  -0.967  0.00  0.00    -0.004 A 
ENDROOT
TORSDOF 0
ENDMDL
