MODEL 1
REMARK minimizedAffinity 4.1829958
REMARK minimizedRMSD -1
REMARK  0 active torsions:
REMARK  status: ('A' for Active; 'I' for Inactive)
ROOT
ATOM      1  C   UNL d   1      -1.845   3.718  -2.887  0.00  0.00     0.172 C 
ATOM      2  N   UNL d   1      -3.074   3.257  -2.286  0.00  0.00    -0.070 N 
ATOM      3  C1  UNL d   1      -4.038   4.054  -1.728  0.00  0.00    -0.004 A 
ATOM      4  C2  UNL d   1      -5.048   3.236  -1.268  0.00  0.00    -0.047 A 
ATOM      5  C3  UNL d   1      -4.677   1.902  -1.558  0.00  0.00    -0.047 A 
ATOM      6  C4  UNL d   1      -3.452   1.943  -2.188  0.00  0.00    -0.004 A 
ENDROOT
TORSDOF 0
ENDMDL
