MODEL 1
REMARK minimizedAffinity 1.38944674
REMARK minimizedRMSD -1
REMARK  0 active torsions:
REMARK  status: ('A' for Active; 'I' for Inactive)
ROOT
ATOM      1  C   UNL d   1      -2.529  -0.207  -1.729  0.00  0.00     0.172 C 
ATOM      2  N   UNL d   1      -2.099   1.013  -2.371  0.00  0.00    -0.070 N 
ATOM      3  C1  UNL d   1      -2.574   1.500  -3.560  0.00  0.00    -0.004 A 
ATOM      4  C2  UNL d   1      -1.913   2.680  -3.827  0.00  0.00    -0.047 A 
ATOM      5  C3  UNL d   1      -1.009   2.909  -2.763  0.00  0.00    -0.047 A 
ATOM      6  C4  UNL d   1      -1.144   1.862  -1.876  0.00  0.00    -0.004 A 
ENDROOT
TORSDOF 0
ENDMDL
