MODEL 1
REMARK minimizedAffinity -3.32957816
REMARK minimizedRMSD -1
REMARK  0 active torsions:
REMARK  status: ('A' for Active; 'I' for Inactive)
ROOT
ATOM      1  C   UNL d   1      -2.292   0.882  -2.047  0.00  0.00     0.172 C 
ATOM      2  N   UNL d   1      -1.107   0.507  -1.311  0.00  0.00    -0.070 N 
ATOM      3  C1  UNL d   1      -0.548   1.219  -0.283  0.00  0.00    -0.004 A 
ATOM      4  C2  UNL d   1       0.564   0.530   0.151  0.00  0.00    -0.047 A 
ATOM      5  C3  UNL d   1       0.677  -0.635  -0.644  0.00  0.00    -0.047 A 
ATOM      6  C4  UNL d   1      -0.370  -0.624  -1.541  0.00  0.00    -0.004 A 
ENDROOT
TORSDOF 0
ENDMDL
