MODEL 1
REMARK minimizedAffinity 2.45887542
REMARK minimizedRMSD -1
REMARK  0 active torsions:
REMARK  status: ('A' for Active; 'I' for Inactive)
ROOT
ATOM      1  C   UNL d   1       3.039   1.112  -0.524  0.00  0.00     0.172 C 
ATOM      2  N   UNL d   1       1.734   0.536  -0.298  0.00  0.00    -0.070 N 
ATOM      3  C1  UNL d   1       1.003  -0.169  -1.217  0.00  0.00    -0.004 A 
ATOM      4  C2  UNL d   1      -0.178  -0.547  -0.616  0.00  0.00    -0.047 A 
ATOM      5  C3  UNL d   1      -0.157  -0.051   0.709  0.00  0.00    -0.047 A 
ATOM      6  C4  UNL d   1       1.038   0.615   0.879  0.00  0.00    -0.004 A 
ENDROOT
TORSDOF 0
ENDMDL
