MODEL 1
REMARK minimizedAffinity -3.06139302
REMARK minimizedRMSD -1
REMARK  0 active torsions:
REMARK  status: ('A' for Active; 'I' for Inactive)
ROOT
ATOM      1  C   UNL d   1      -0.443   0.986  -0.425  0.00  0.00     0.172 C 
ATOM      2  N   UNL d   1       0.551   0.074   0.091  0.00  0.00    -0.070 N 
ATOM      3  C1  UNL d   1       1.886   0.093  -0.213  0.00  0.00    -0.004 A 
ATOM      4  C2  UNL d   1       2.491  -0.934   0.479  0.00  0.00    -0.047 A 
ATOM      5  C3  UNL d   1       1.485  -1.593   1.225  0.00  0.00    -0.047 A 
ATOM      6  C4  UNL d   1       0.294  -0.949   0.966  0.00  0.00    -0.004 A 
ENDROOT
TORSDOF 0
ENDMDL
