MODEL 1
REMARK minimizedAffinity -1.19210911
REMARK minimizedRMSD -1
REMARK  0 active torsions:
REMARK  status: ('A' for Active; 'I' for Inactive)
ROOT
ATOM      1  C   UNL d   1      -0.877   1.638  -0.926  0.00  0.00     0.172 C 
ATOM      2  N   UNL d   1       0.138   0.636  -0.699  0.00  0.00    -0.070 N 
ATOM      3  C1  UNL d   1       1.327   0.838  -0.051  0.00  0.00    -0.004 A 
ATOM      4  C2  UNL d   1       2.011  -0.358  -0.042  0.00  0.00    -0.047 A 
ATOM      5  C3  UNL d   1       1.205  -1.312  -0.707  0.00  0.00    -0.047 A 
ATOM      6  C4  UNL d   1       0.051  -0.669  -1.104  0.00  0.00    -0.004 A 
ENDROOT
TORSDOF 0
ENDMDL
