MODEL 1
REMARK minimizedAffinity -2.13725638
REMARK minimizedRMSD -1
REMARK  0 active torsions:
REMARK  status: ('A' for Active; 'I' for Inactive)
ROOT
ATOM      1  C   UNL d   1      -2.092   1.381  -2.320  0.00  0.00     0.172 C 
ATOM      2  N   UNL d   1      -0.942   0.928  -1.575  0.00  0.00    -0.070 N 
ATOM      3  C1  UNL d   1      -0.405   1.549  -0.479  0.00  0.00    -0.004 A 
ATOM      4  C2  UNL d   1       0.678   0.806  -0.061  0.00  0.00    -0.047 A 
ATOM      5  C3  UNL d   1       0.796  -0.299  -0.936  0.00  0.00    -0.047 A 
ATOM      6  C4  UNL d   1      -0.219  -0.199  -1.863  0.00  0.00    -0.004 A 
ENDROOT
TORSDOF 0
ENDMDL
