MODEL 1
REMARK minimizedAffinity -1.12408948
REMARK minimizedRMSD -1
REMARK  0 active torsions:
REMARK  status: ('A' for Active; 'I' for Inactive)
ROOT
ATOM      1  C   UNL d   1      -1.766   1.503  -2.847  0.00  0.00     0.172 C 
ATOM      2  N   UNL d   1      -0.809   0.824  -2.005  0.00  0.00    -0.070 N 
ATOM      3  C1  UNL d   1       0.012  -0.200  -2.394  0.00  0.00    -0.004 A 
ATOM      4  C2  UNL d   1       0.770  -0.571  -1.305  0.00  0.00    -0.047 A 
ATOM      5  C3  UNL d   1       0.391   0.258  -0.223  0.00  0.00    -0.047 A 
ATOM      6  C4  UNL d   1      -0.589   1.112  -0.684  0.00  0.00    -0.004 A 
ENDROOT
TORSDOF 0
ENDMDL
