MODEL 1
REMARK minimizedAffinity -1.19439399
REMARK minimizedRMSD -1
REMARK  0 active torsions:
REMARK  status: ('A' for Active; 'I' for Inactive)
ROOT
ATOM      1  C   UNL d   1       0.721  -0.470  -1.305  0.00  0.00     0.172 C 
ATOM      2  N   UNL d   1      -0.349   0.477  -1.097  0.00  0.00    -0.070 N 
ATOM      3  C1  UNL d   1      -0.954   1.225  -2.072  0.00  0.00    -0.004 A 
ATOM      4  C2  UNL d   1      -1.921   2.001  -1.470  0.00  0.00    -0.047 A 
ATOM      5  C3  UNL d   1      -1.896   1.710  -0.085  0.00  0.00    -0.047 A 
ATOM      6  C4  UNL d   1      -0.913   0.763   0.118  0.00  0.00    -0.004 A 
ENDROOT
TORSDOF 0
ENDMDL
