MODEL 1
REMARK minimizedAffinity 4.48975849
REMARK minimizedRMSD -1
REMARK  0 active torsions:
REMARK  status: ('A' for Active; 'I' for Inactive)
ROOT
ATOM      1  C   UNL d   1      -2.165  -2.116  -0.751  0.00  0.00     0.172 C 
ATOM      2  N   UNL d   1      -2.233  -0.779  -0.209  0.00  0.00    -0.070 N 
ATOM      3  C1  UNL d   1      -1.574  -0.335   0.905  0.00  0.00    -0.004 A 
ATOM      4  C2  UNL d   1      -1.899   0.992   1.087  0.00  0.00    -0.047 A 
ATOM      5  C3  UNL d   1      -2.786   1.357   0.047  0.00  0.00    -0.047 A 
ATOM      6  C4  UNL d   1      -2.975   0.242  -0.742  0.00  0.00    -0.004 A 
ENDROOT
TORSDOF 0
ENDMDL
