MODEL 1
REMARK minimizedAffinity -6.41079998
REMARK minimizedRMSD -1
REMARK  0 active torsions:
REMARK  status: ('A' for Active; 'I' for Inactive)
ROOT
ATOM      1  O1  BZF d   1      -0.433  -0.776   0.703  0.00  0.00    -0.204 OA
ATOM      2  C2  BZF d   1      -0.434   0.562   1.048  0.00  0.00     0.174 A 
ATOM      3  C3  BZF d   1       0.362   1.270   0.221  0.00  0.00    -0.012 A 
ATOM      4  C3A BZF d   1       0.821   0.330  -0.755  0.00  0.00    -0.107 A 
ATOM      5  C4  BZF d   1       1.631   0.433  -1.850  0.00  0.00     0.055 A 
ATOM      6  C5  BZF d   1       1.941  -0.689  -2.551  0.00  0.00    -0.016 A 
ATOM      7  C6  BZF d   1       1.464  -1.930  -2.182  0.00  0.00     0.022 A 
ATOM      8  C7  BZF d   1       0.653  -2.082  -1.107  0.00  0.00     0.029 A 
ATOM      9  C7A BZF d   1       0.311  -0.945  -0.416  0.00  0.00     0.058 A 
ENDROOT
TORSDOF 0
ENDMDL
