MODEL 1
REMARK minimizedAffinity -2.84221244
REMARK minimizedRMSD -1
REMARK  0 active torsions:
REMARK  status: ('A' for Active; 'I' for Inactive)
ROOT
ATOM      1  O1  BZF d   1       0.993   0.663   0.420  0.00  0.00    -0.204 OA
ATOM      2  C2  BZF d   1      -0.316   0.551   0.848  0.00  0.00     0.174 A 
ATOM      3  C3  BZF d   1      -1.118   0.160  -0.163  0.00  0.00    -0.012 A 
ATOM      4  C3A BZF d   1      -0.242  -0.070  -1.271  0.00  0.00    -0.107 A 
ATOM      5  C4  BZF d   1      -0.443  -0.490  -2.555  0.00  0.00     0.055 A 
ATOM      6  C5  BZF d   1       0.616  -0.540  -3.406  0.00  0.00    -0.016 A 
ATOM      7  C6  BZF d   1       1.885  -0.174  -3.009  0.00  0.00     0.022 A 
ATOM      8  C7  BZF d   1       2.134   0.244  -1.744  0.00  0.00     0.029 A 
ATOM      9  C7A BZF d   1       1.073   0.264  -0.872  0.00  0.00     0.058 A 
ENDROOT
TORSDOF 0
ENDMDL
