MODEL 1
REMARK minimizedAffinity 7.18012953
REMARK minimizedRMSD -1
REMARK  0 active torsions:
REMARK  status: ('A' for Active; 'I' for Inactive)
ROOT
ATOM      1  O1  BZF d   1       1.336   1.124  -3.166  0.00  0.00    -0.204 OA
ATOM      2  C2  BZF d   1       1.594  -0.222  -2.992  0.00  0.00     0.174 A 
ATOM      3  C3  BZF d   1       1.822  -0.502  -1.693  0.00  0.00    -0.012 A 
ATOM      4  C3A BZF d   1       1.608   0.731  -0.999  0.00  0.00    -0.107 A 
ATOM      5  C4  BZF d   1       1.668   1.090   0.317  0.00  0.00     0.055 A 
ATOM      6  C5  BZF d   1       1.475   2.392   0.656  0.00  0.00    -0.016 A 
ATOM      7  C6  BZF d   1       1.226   3.360  -0.295  0.00  0.00     0.022 A 
ATOM      8  C7  BZF d   1       1.153   3.051  -1.613  0.00  0.00     0.029 A 
ATOM      9  C7A BZF d   1       1.314   1.731  -1.955  0.00  0.00     0.058 A 
ENDROOT
TORSDOF 0
ENDMDL
