MODEL 1
REMARK minimizedAffinity -3.67912555
REMARK minimizedRMSD -1
REMARK  0 active torsions:
REMARK  status: ('A' for Active; 'I' for Inactive)
ROOT
ATOM      1  O1  BZF d   1       2.145   1.228  -2.164  0.00  0.00    -0.204 OA
ATOM      2  C2  BZF d   1       1.881   0.307  -3.160  0.00  0.00     0.174 A 
ATOM      3  C3  BZF d   1       0.997  -0.618  -2.734  0.00  0.00    -0.012 A 
ATOM      4  C3A BZF d   1       0.620  -0.201  -1.419  0.00  0.00    -0.107 A 
ATOM      5  C4  BZF d   1      -0.241  -0.704  -0.485  0.00  0.00     0.055 A 
ATOM      6  C5  BZF d   1      -0.325  -0.099   0.729  0.00  0.00    -0.016 A 
ATOM      7  C6  BZF d   1       0.439   1.006   1.045  0.00  0.00     0.022 A 
ATOM      8  C7  BZF d   1       1.303   1.543   0.149  0.00  0.00     0.029 A 
ATOM      9  C7A BZF d   1       1.366   0.954  -1.090  0.00  0.00     0.058 A 
ENDROOT
TORSDOF 0
ENDMDL
