MODEL 1
REMARK minimizedAffinity -4.67942667
REMARK minimizedRMSD -1
REMARK  0 active torsions:
REMARK  status: ('A' for Active; 'I' for Inactive)
ROOT
ATOM      1  O1  BZF d   1       1.110  -0.995  -2.479  0.00  0.00    -0.204 OA
ATOM      2  C2  BZF d   1       1.907   0.019  -2.974  0.00  0.00     0.174 A 
ATOM      3  C3  BZF d   1       1.765   1.141  -2.239  0.00  0.00    -0.012 A 
ATOM      4  C3A BZF d   1       0.890   0.780  -1.166  0.00  0.00    -0.107 A 
ATOM      5  C4  BZF d   1       0.385   1.463  -0.097  0.00  0.00     0.055 A 
ATOM      6  C5  BZF d   1      -0.501   0.841   0.725  0.00  0.00    -0.016 A 
ATOM      7  C6  BZF d   1      -0.907  -0.459   0.504  0.00  0.00     0.022 A 
ATOM      8  C7  BZF d   1      -0.430  -1.178  -0.540  0.00  0.00     0.029 A 
ATOM      9  C7A BZF d   1       0.491  -0.564  -1.354  0.00  0.00     0.058 A 
ENDROOT
TORSDOF 0
ENDMDL
