MODEL 1
REMARK minimizedAffinity -2.6139009
REMARK minimizedRMSD -1
REMARK  0 active torsions:
REMARK  status: ('A' for Active; 'I' for Inactive)
ROOT
ATOM      1  O1  BZF d   1       0.936   1.273   0.535  0.00  0.00    -0.204 OA
ATOM      2  C2  BZF d   1       0.010   0.570   1.280  0.00  0.00     0.174 A 
ATOM      3  C3  BZF d   1      -0.593  -0.373   0.527  0.00  0.00    -0.012 A 
ATOM      4  C3A BZF d   1       0.059  -0.312  -0.745  0.00  0.00    -0.107 A 
ATOM      5  C4  BZF d   1      -0.086  -1.011  -1.909  0.00  0.00     0.055 A 
ATOM      6  C5  BZF d   1       0.656  -0.656  -2.990  0.00  0.00    -0.016 A 
ATOM      7  C6  BZF d   1       1.548   0.396  -2.945  0.00  0.00     0.022 A 
ATOM      8  C7  BZF d   1       1.730   1.116  -1.811  0.00  0.00     0.029 A 
ATOM      9  C7A BZF d   1       1.005   0.738  -0.707  0.00  0.00     0.058 A 
ENDROOT
TORSDOF 0
ENDMDL
