MODEL 1
REMARK minimizedAffinity -5.35233593
REMARK minimizedRMSD -1
REMARK  0 active torsions:
REMARK  status: ('A' for Active; 'I' for Inactive)
ROOT
ATOM      1  O1  BZF d   1       1.278   0.876  -2.391  0.00  0.00    -0.204 OA
ATOM      2  C2  BZF d   1       0.831  -0.200  -3.132  0.00  0.00     0.174 A 
ATOM      3  C3  BZF d   1       0.099  -1.036  -2.367  0.00  0.00    -0.012 A 
ATOM      4  C3A BZF d   1       0.012  -0.399  -1.090  0.00  0.00    -0.107 A 
ATOM      5  C4  BZF d   1      -0.599  -0.731   0.086  0.00  0.00     0.055 A 
ATOM      6  C5  BZF d   1      -0.430   0.073   1.168  0.00  0.00    -0.016 A 
ATOM      7  C6  BZF d   1       0.345   1.213   1.112  0.00  0.00     0.022 A 
ATOM      8  C7  BZF d   1       0.966   1.586  -0.033  0.00  0.00     0.029 A 
ATOM      9  C7A BZF d   1       0.771   0.793  -1.137  0.00  0.00     0.058 A 
ENDROOT
TORSDOF 0
ENDMDL
