MODEL 1
REMARK minimizedAffinity -3.72048044
REMARK minimizedRMSD -1
REMARK  0 active torsions:
REMARK  status: ('A' for Active; 'I' for Inactive)
ROOT
ATOM      1  O1  BZF d   1       1.875   0.797  -2.089  0.00  0.00    -0.204 OA
ATOM      2  C2  BZF d   1       1.884  -0.281  -2.952  0.00  0.00     0.174 A 
ATOM      3  C3  BZF d   1       1.220  -1.327  -2.418  0.00  0.00    -0.012 A 
ATOM      4  C3A BZF d   1       0.687  -0.843  -1.182  0.00  0.00    -0.107 A 
ATOM      5  C4  BZF d   1      -0.080  -1.409  -0.204  0.00  0.00     0.055 A 
ATOM      6  C5  BZF d   1      -0.367  -0.688   0.911  0.00  0.00    -0.016 A 
ATOM      7  C6  BZF d   1       0.102   0.598   1.085  0.00  0.00     0.022 A 
ATOM      8  C7  BZF d   1       0.863   1.204   0.141  0.00  0.00     0.029 A 
ATOM      9  C7A BZF d   1       1.126   0.490  -1.002  0.00  0.00     0.058 A 
ENDROOT
TORSDOF 0
ENDMDL
