MODEL 1
REMARK minimizedAffinity -5.02523661
REMARK minimizedRMSD -1
REMARK  0 active torsions:
REMARK  status: ('A' for Active; 'I' for Inactive)
ROOT
ATOM      1  O1  BZF d   1      -0.327  -0.687   0.935  0.00  0.00    -0.204 OA
ATOM      2  C2  BZF d   1      -0.269  -2.050   0.722  0.00  0.00     0.174 A 
ATOM      3  C3  BZF d   1       0.244  -2.323  -0.495  0.00  0.00    -0.012 A 
ATOM      4  C3A BZF d   1       0.609  -1.052  -1.043  0.00  0.00    -0.107 A 
ATOM      5  C4  BZF d   1       1.183  -0.668  -2.220  0.00  0.00     0.055 A 
ATOM      6  C5  BZF d   1       1.337   0.657  -2.478  0.00  0.00    -0.016 A 
ATOM      7  C6  BZF d   1       0.925   1.624  -1.584  0.00  0.00     0.022 A 
ATOM      8  C7  BZF d   1       0.354   1.291  -0.401  0.00  0.00     0.029 A 
ATOM      9  C7A BZF d   1       0.227  -0.048  -0.123  0.00  0.00     0.058 A 
ENDROOT
TORSDOF 0
ENDMDL
