MODEL 1
REMARK minimizedAffinity -3.204386
REMARK minimizedRMSD -1
REMARK  0 active torsions:
REMARK  status: ('A' for Active; 'I' for Inactive)
ROOT
ATOM      1  O1  BZF d   1       0.839   1.622  -1.084  0.00  0.00    -0.204 OA
ATOM      2  C2  BZF d   1       1.529   1.100  -2.161  0.00  0.00     0.174 A 
ATOM      3  C3  BZF d   1       1.620  -0.242  -2.066  0.00  0.00    -0.012 A 
ATOM      4  C3A BZF d   1       0.864  -0.589  -0.901  0.00  0.00    -0.107 A 
ATOM      5  C4  BZF d   1       0.568  -1.775  -0.292  0.00  0.00     0.055 A 
ATOM      6  C5  BZF d   1      -0.132  -1.763   0.872  0.00  0.00    -0.016 A 
ATOM      7  C6  BZF d   1      -0.547  -0.585   1.458  0.00  0.00     0.022 A 
ATOM      8  C7  BZF d   1      -0.281   0.616   0.889  0.00  0.00     0.029 A 
ATOM      9  C7A BZF d   1       0.398   0.605  -0.305  0.00  0.00     0.058 A 
ENDROOT
TORSDOF 0
ENDMDL
