MODEL 1
REMARK minimizedAffinity -3.27859163
REMARK minimizedRMSD -1
REMARK  0 active torsions:
REMARK  status: ('A' for Active; 'I' for Inactive)
ROOT
ATOM      1  O1  BZF d   1       0.417   1.162  -1.177  0.00  0.00    -0.204 OA
ATOM      2  C2  BZF d   1       0.956   0.763  -2.384  0.00  0.00     0.174 A 
ATOM      3  C3  BZF d   1       1.137  -0.574  -2.409  0.00  0.00    -0.012 A 
ATOM      4  C3A BZF d   1       0.598  -1.049  -1.171  0.00  0.00    -0.107 A 
ATOM      5  C4  BZF d   1       0.471  -2.291  -0.618  0.00  0.00     0.055 A 
ATOM      6  C5  BZF d   1      -0.035  -2.406   0.638  0.00  0.00    -0.016 A 
ATOM      7  C6  BZF d   1      -0.418  -1.301   1.370  0.00  0.00     0.022 A 
ATOM      8  C7  BZF d   1      -0.315  -0.049   0.862  0.00  0.00     0.029 A 
ATOM      9  C7A BZF d   1       0.164   0.068  -0.420  0.00  0.00     0.058 A 
ENDROOT
TORSDOF 0
ENDMDL
