MODEL 1
REMARK minimizedAffinity -2.32228112
REMARK minimizedRMSD -1
REMARK  0 active torsions:
REMARK  status: ('A' for Active; 'I' for Inactive)
ROOT
ATOM      1  O1  BZF d   1      -0.698  -1.277   0.204  0.00  0.00    -0.204 OA
ATOM      2  C2  BZF d   1      -0.916  -0.359   1.213  0.00  0.00     0.174 A 
ATOM      3  C3  BZF d   1      -0.277   0.800   0.951  0.00  0.00    -0.012 A 
ATOM      4  C3A BZF d   1       0.304   0.625  -0.344  0.00  0.00    -0.107 A 
ATOM      5  C4  BZF d   1       1.050   1.432  -1.155  0.00  0.00     0.055 A 
ATOM      6  C5  BZF d   1       1.524   0.934  -2.328  0.00  0.00    -0.016 A 
ATOM      7  C6  BZF d   1       1.276  -0.366  -2.717  0.00  0.00     0.022 A 
ATOM      8  C7  BZF d   1       0.537  -1.203  -1.948  0.00  0.00     0.029 A 
ATOM      9  C7A BZF d   1       0.029  -0.692  -0.779  0.00  0.00     0.058 A 
ENDROOT
TORSDOF 0
ENDMDL
