MODEL 1
REMARK minimizedAffinity -4.16062689
REMARK minimizedRMSD -1
REMARK  0 active torsions:
REMARK  status: ('A' for Active; 'I' for Inactive)
ROOT
ATOM      1  O1  BZF d   1       0.632   0.163   1.089  0.00  0.00    -0.204 OA
ATOM      2  C2  BZF d   1      -0.350  -0.746   1.435  0.00  0.00     0.174 A 
ATOM      3  C3  BZF d   1      -0.947  -1.247   0.335  0.00  0.00    -0.012 A 
ATOM      4  C3A BZF d   1      -0.236  -0.682  -0.770  0.00  0.00    -0.107 A 
ATOM      5  C4  BZF d   1      -0.350  -0.811  -2.125  0.00  0.00     0.055 A 
ATOM      6  C5  BZF d   1       0.452  -0.065  -2.929  0.00  0.00    -0.016 A 
ATOM      7  C6  BZF d   1       1.374   0.823  -2.414  0.00  0.00     0.022 A 
ATOM      8  C7  BZF d   1       1.526   0.982  -1.076  0.00  0.00     0.029 A 
ATOM      9  C7A BZF d   1       0.740   0.205  -0.261  0.00  0.00     0.058 A 
ENDROOT
TORSDOF 0
ENDMDL
