MODEL 1
REMARK minimizedAffinity -0.343586177
REMARK minimizedRMSD -1
REMARK  0 active torsions:
REMARK  status: ('A' for Active; 'I' for Inactive)
ROOT
ATOM      1  O1  BZF d   1      -0.995   1.204   1.236  0.00  0.00    -0.204 OA
ATOM      2  C2  BZF d   1      -1.641   0.119   1.796  0.00  0.00     0.174 A 
ATOM      3  C3  BZF d   1      -1.279  -1.024   1.179  0.00  0.00    -0.012 A 
ATOM      4  C3A BZF d   1      -0.279  -0.640   0.230  0.00  0.00    -0.107 A 
ATOM      5  C4  BZF d   1       0.475  -1.333  -0.673  0.00  0.00     0.055 A 
ATOM      6  C5  BZF d   1       1.308  -0.650  -1.501  0.00  0.00    -0.016 A 
ATOM      7  C6  BZF d   1       1.409   0.725  -1.457  0.00  0.00     0.022 A 
ATOM      8  C7  BZF d   1       0.685   1.456  -0.574  0.00  0.00     0.029 A 
ATOM      9  C7A BZF d   1      -0.133   0.766   0.286  0.00  0.00     0.058 A 
ENDROOT
TORSDOF 0
ENDMDL
