MODEL 1
REMARK minimizedAffinity -2.04005694
REMARK minimizedRMSD -1
REMARK  0 active torsions:
REMARK  status: ('A' for Active; 'I' for Inactive)
ROOT
ATOM      1  O1  BZF d   1      -3.062  -0.429   1.973  0.00  0.00    -0.204 OA
ATOM      2  C2  BZF d   1      -4.184  -0.179   1.206  0.00  0.00     0.174 A 
ATOM      3  C3  BZF d   1      -4.713   1.024   1.509  0.00  0.00    -0.012 A 
ATOM      4  C3A BZF d   1      -3.816   1.600   2.463  0.00  0.00    -0.107 A 
ATOM      5  C4  BZF d   1      -3.792   2.792   3.128  0.00  0.00     0.055 A 
ATOM      6  C5  BZF d   1      -2.816   3.016   4.047  0.00  0.00    -0.016 A 
ATOM      7  C6  BZF d   1      -1.853   2.070   4.329  0.00  0.00     0.022 A 
ATOM      8  C7  BZF d   1      -1.832   0.874   3.691  0.00  0.00     0.029 A 
ATOM      9  C7A BZF d   1      -2.798   0.658   2.738  0.00  0.00     0.058 A 
ENDROOT
TORSDOF 0
ENDMDL
