MODEL 1
REMARK minimizedAffinity -0.819431841
REMARK minimizedRMSD -1
REMARK  0 active torsions:
REMARK  status: ('A' for Active; 'I' for Inactive)
ROOT
ATOM      1  O1  BZF d   1      -6.000   2.363  -5.978  0.00  0.00    -0.204 OA
ATOM      2  C2  BZF d   1      -5.971   3.744  -5.950  0.00  0.00     0.174 A 
ATOM      3  C3  BZF d   1      -4.702   4.195  -5.872  0.00  0.00    -0.012 A 
ATOM      4  C3A BZF d   1      -3.882   3.025  -5.944  0.00  0.00    -0.107 A 
ATOM      5  C4  BZF d   1      -2.532   2.822  -5.933  0.00  0.00     0.055 A 
ATOM      6  C5  BZF d   1      -2.054   1.550  -5.943  0.00  0.00    -0.016 A 
ATOM      7  C6  BZF d   1      -2.897   0.458  -5.960  0.00  0.00     0.022 A 
ATOM      8  C7  BZF d   1      -4.244   0.609  -5.977  0.00  0.00     0.029 A 
ATOM      9  C7A BZF d   1      -4.729   1.894  -5.999  0.00  0.00     0.058 A 
ENDROOT
TORSDOF 0
ENDMDL
