MODEL 1
REMARK minimizedAffinity -5.42553425
REMARK minimizedRMSD -1
REMARK  0 active torsions:
REMARK  status: ('A' for Active; 'I' for Inactive)
ROOT
ATOM      1  O1  BZF d   1       1.490  -1.039  -2.833  0.00  0.00    -0.204 OA
ATOM      2  C2  BZF d   1       2.354  -0.057  -3.277  0.00  0.00     0.174 A 
ATOM      3  C3  BZF d   1       2.295   1.029  -2.479  0.00  0.00    -0.012 A 
ATOM      4  C3A BZF d   1       1.401   0.670  -1.421  0.00  0.00    -0.107 A 
ATOM      5  C4  BZF d   1       0.950   1.325  -0.311  0.00  0.00     0.055 A 
ATOM      6  C5  BZF d   1       0.026   0.722   0.482  0.00  0.00    -0.016 A 
ATOM      7  C6  BZF d   1      -0.472  -0.532   0.192  0.00  0.00     0.022 A 
ATOM      8  C7  BZF d   1      -0.051  -1.223  -0.895  0.00  0.00     0.029 A 
ATOM      9  C7A BZF d   1       0.908  -0.629  -1.680  0.00  0.00     0.058 A 
ENDROOT
TORSDOF 0
ENDMDL
