MODEL 1
REMARK minimizedAffinity -1.33346784
REMARK minimizedRMSD -1
REMARK  0 active torsions:
REMARK  status: ('A' for Active; 'I' for Inactive)
ROOT
ATOM      1  N1  IND d   1       5.916   1.318   3.052  0.00  0.00    -0.196 N 
ATOM      2  C2  IND d   1       5.932   0.631   4.234  0.00  0.00     0.054 A 
ATOM      3  C3  IND d   1       5.991   1.489   5.277  0.00  0.00    -0.031 A 
ATOM      4  C4  IND d   1       5.969   4.063   5.280  0.00  0.00     0.051 A 
ATOM      5  C5  IND d   1       5.998   5.142   4.442  0.00  0.00    -0.031 A 
ATOM      6  C6  IND d   1       5.999   4.998   3.069  0.00  0.00     0.015 A 
ATOM      7  C7  IND d   1       5.959   3.765   2.482  0.00  0.00    -0.016 A 
ATOM      8  C8  IND d   1       5.936   2.668   3.330  0.00  0.00    -0.047 A 
ATOM      9  C9  IND d   1       5.978   2.806   4.724  0.00  0.00    -0.096 A 
ATOM     10  HN1 IND d   1       5.897   0.967   2.268  0.00  0.00     0.298 HD
ENDROOT
TORSDOF 0
ENDMDL
