MODEL 1
REMARK minimizedAffinity -2.33372784
REMARK minimizedRMSD -1
REMARK  0 active torsions:
REMARK  status: ('A' for Active; 'I' for Inactive)
ROOT
ATOM      1  N1  IND d   1       5.926   4.342   4.775  0.00  0.00    -0.196 N 
ATOM      2  C2  IND d   1       5.943   4.682   3.451  0.00  0.00     0.054 A 
ATOM      3  C3  IND d   1       6.000   3.572   2.681  0.00  0.00    -0.031 A 
ATOM      4  C4  IND d   1       5.971   1.094   3.378  0.00  0.00     0.051 A 
ATOM      5  C5  IND d   1       5.998   0.284   4.479  0.00  0.00    -0.031 A 
ATOM      6  C6  IND d   1       6.000   0.796   5.761  0.00  0.00     0.015 A 
ATOM      7  C7  IND d   1       5.963   2.143   5.990  0.00  0.00    -0.016 A 
ATOM      8  C8  IND d   1       5.943   2.968   4.875  0.00  0.00    -0.047 A 
ATOM      9  C9  IND d   1       5.984   2.455   3.572  0.00  0.00    -0.096 A 
ATOM     10  HN1 IND d   1       5.908   4.893   5.434  0.00  0.00     0.298 HD
ENDROOT
TORSDOF 0
ENDMDL
