MODEL 1
REMARK minimizedAffinity -2.90568256
REMARK minimizedRMSD -1
REMARK  0 active torsions:
REMARK  status: ('A' for Active; 'I' for Inactive)
ROOT
ATOM      1  N1  IND d   1       6.000   2.190   2.535  0.00  0.00    -0.196 N 
ATOM      2  C2  IND d   1       6.000   3.446   3.075  0.00  0.00     0.054 A 
ATOM      3  C3  IND d   1       5.955   3.377   4.425  0.00  0.00    -0.031 A 
ATOM      4  C4  IND d   1       5.980   1.310   5.959  0.00  0.00     0.051 A 
ATOM      5  C5  IND d   1       5.940  -0.055   5.927  0.00  0.00    -0.031 A 
ATOM      6  C6  IND d   1       5.920  -0.757   4.739  0.00  0.00     0.015 A 
ATOM      7  C7  IND d   1       5.951  -0.116   3.533  0.00  0.00    -0.016 A 
ATOM      8  C8  IND d   1       5.985   1.271   3.561  0.00  0.00    -0.047 A 
ATOM      9  C9  IND d   1       5.962   1.989   4.764  0.00  0.00    -0.096 A 
ATOM     10  HN1 IND d   1       6.008   2.005   1.695  0.00  0.00     0.298 HD
ENDROOT
TORSDOF 0
ENDMDL
