MODEL 1
REMARK minimizedAffinity -1.17244589
REMARK minimizedRMSD -1
REMARK  0 active torsions:
REMARK  status: ('A' for Active; 'I' for Inactive)
ROOT
ATOM      1  N1  IND d   1       6.000   3.624   1.506  0.00  0.00    -0.196 N 
ATOM      2  C2  IND d   1       5.965   4.767   0.757  0.00  0.00     0.054 A 
ATOM      3  C3  IND d   1       5.911   5.854   1.559  0.00  0.00    -0.031 A 
ATOM      4  C4  IND d   1       5.974   5.995   4.129  0.00  0.00     0.051 A 
ATOM      5  C5  IND d   1       5.968   5.215   5.251  0.00  0.00    -0.031 A 
ATOM      6  C6  IND d   1       5.975   3.836   5.181  0.00  0.00     0.015 A 
ATOM      7  C7  IND d   1       6.000   3.184   3.980  0.00  0.00    -0.016 A 
ATOM      8  C8  IND d   1       5.999   3.973   2.839  0.00  0.00    -0.047 A 
ATOM      9  C9  IND d   1       5.949   5.372   2.903  0.00  0.00    -0.096 A 
ATOM     10  HN1 IND d   1       6.019   2.822   1.197  0.00  0.00     0.298 HD
ENDROOT
TORSDOF 0
ENDMDL
