MODEL 1
REMARK minimizedAffinity -0.78815645
REMARK minimizedRMSD -1
REMARK  0 active torsions:
REMARK  status: ('A' for Active; 'I' for Inactive)
ROOT
ATOM      1  N1  IND d   1       4.668   4.629   4.647  0.00  0.00    -0.196 N 
ATOM      2  C2  IND d   1       5.272   5.251   3.590  0.00  0.00     0.054 A 
ATOM      3  C3  IND d   1       5.907   4.346   2.812  0.00  0.00    -0.031 A 
ATOM      4  C4  IND d   1       6.000   1.782   3.028  0.00  0.00     0.051 A 
ATOM      5  C5  IND d   1       5.630   0.757   3.853  0.00  0.00    -0.031 A 
ATOM      6  C6  IND d   1       4.903   0.974   5.006  0.00  0.00     0.015 A 
ATOM      7  C7  IND d   1       4.508   2.229   5.373  0.00  0.00    -0.016 A 
ATOM      8  C8  IND d   1       4.888   3.273   4.542  0.00  0.00    -0.047 A 
ATOM      9  C9  IND d   1       5.662   3.064   3.393  0.00  0.00    -0.096 A 
ATOM     10  HN1 IND d   1       4.224   5.019   5.272  0.00  0.00     0.298 HD
ENDROOT
TORSDOF 0
ENDMDL
