MODEL 1
REMARK minimizedAffinity -0.79239738
REMARK minimizedRMSD -1
REMARK  0 active torsions:
REMARK  status: ('A' for Active; 'I' for Inactive)
ROOT
ATOM      1  N1  IND d   1      -3.044   0.250   4.487  0.00  0.00    -0.196 N 
ATOM      2  C2  IND d   1      -2.572  -0.674   3.597  0.00  0.00     0.054 A 
ATOM      3  C3  IND d   1      -1.627  -0.123   2.803  0.00  0.00    -0.031 A 
ATOM      4  C4  IND d   1      -0.628   2.249   2.854  0.00  0.00     0.051 A 
ATOM      5  C5  IND d   1      -0.765   3.463   3.468  0.00  0.00    -0.031 A 
ATOM      6  C6  IND d   1      -1.686   3.671   4.475  0.00  0.00     0.015 A 
ATOM      7  C7  IND d   1      -2.499   2.665   4.915  0.00  0.00    -0.016 A 
ATOM      8  C8  IND d   1      -2.368   1.434   4.290  0.00  0.00    -0.047 A 
ATOM      9  C9  IND d   1      -1.465   1.228   3.238  0.00  0.00    -0.096 A 
ATOM     10  HN1 IND d   1      -3.660   0.114   5.071  0.00  0.00     0.298 HD
ENDROOT
TORSDOF 0
ENDMDL
