MODEL 1
REMARK minimizedAffinity 8.83852005
REMARK minimizedRMSD -1
REMARK  0 active torsions:
REMARK  status: ('A' for Active; 'I' for Inactive)
ROOT
ATOM      1  N1  IND d   1       5.958   1.831   4.632  0.00  0.00    -0.196 N 
ATOM      2  C2  IND d   1       5.919   0.795   3.741  0.00  0.00     0.054 A 
ATOM      3  C3  IND d   1       5.886   1.264   2.474  0.00  0.00    -0.031 A 
ATOM      4  C4  IND d   1       5.992   3.693   1.627  0.00  0.00     0.051 A 
ATOM      5  C5  IND d   1       5.998   4.988   2.065  0.00  0.00    -0.031 A 
ATOM      6  C6  IND d   1       5.994   5.302   3.409  0.00  0.00     0.015 A 
ATOM      7  C7  IND d   1       5.995   4.330   4.368  0.00  0.00    -0.016 A 
ATOM      8  C8  IND d   1       5.981   3.014   3.927  0.00  0.00    -0.047 A 
ATOM      9  C9  IND d   1       5.943   2.689   2.565  0.00  0.00    -0.096 A 
ATOM     10  HN1 IND d   1       5.966   1.756   5.488  0.00  0.00     0.298 HD
ENDROOT
TORSDOF 0
ENDMDL
