MODEL 1
REMARK minimizedAffinity -0.778615475
REMARK minimizedRMSD -1
REMARK  0 active torsions:
REMARK  status: ('A' for Active; 'I' for Inactive)
ROOT
ATOM      1  N1  IND d   1       5.972   0.447   6.000  0.00  0.00    -0.196 N 
ATOM      2  C2  IND d   1       5.937  -0.873   5.644  0.00  0.00     0.054 A 
ATOM      3  C3  IND d   1       5.903  -0.997   4.298  0.00  0.00    -0.031 A 
ATOM      4  C4  IND d   1       5.999   0.828   2.485  0.00  0.00     0.051 A 
ATOM      5  C5  IND d   1       6.000   2.185   2.321  0.00  0.00    -0.031 A 
ATOM      6  C6  IND d   1       5.994   3.049   3.397  0.00  0.00     0.015 A 
ATOM      7  C7  IND d   1       5.999   2.586   4.682  0.00  0.00    -0.016 A 
ATOM      8  C8  IND d   1       5.991   1.209   4.853  0.00  0.00    -0.047 A 
ATOM      9  C9  IND d   1       5.953   0.327   3.765  0.00  0.00    -0.096 A 
ATOM     10  HN1 IND d   1       5.981   0.749   6.804  0.00  0.00     0.298 HD
ENDROOT
TORSDOF 0
ENDMDL
