MODEL 1
REMARK minimizedAffinity -2.86025691
REMARK minimizedRMSD -1
REMARK  0 active torsions:
REMARK  status: ('A' for Active; 'I' for Inactive)
ROOT
ATOM      1  N1  IND d   1       5.667  -1.656   5.989  0.00  0.00    -0.196 N 
ATOM      2  C2  IND d   1       5.676  -2.592   4.992  0.00  0.00     0.054 A 
ATOM      3  C3  IND d   1       5.761  -1.991   3.784  0.00  0.00    -0.031 A 
ATOM      4  C4  IND d   1       5.997   0.508   3.213  0.00  0.00     0.051 A 
ATOM      5  C5  IND d   1       5.999   1.749   3.786  0.00  0.00    -0.031 A 
ATOM      6  C6  IND d   1       5.892   1.921   5.151  0.00  0.00     0.015 A 
ATOM      7  C7  IND d   1       5.788   0.854   5.998  0.00  0.00    -0.016 A 
ATOM      8  C8  IND d   1       5.779  -0.407   5.419  0.00  0.00    -0.047 A 
ATOM      9  C9  IND d   1       5.845  -0.586   4.031  0.00  0.00    -0.096 A 
ATOM     10  HN1 IND d   1       5.602  -1.820   6.831  0.00  0.00     0.298 HD
ENDROOT
TORSDOF 0
ENDMDL
