MODEL 1
REMARK minimizedAffinity -0.313081145
REMARK minimizedRMSD -1
REMARK  0 active torsions:
REMARK  status: ('A' for Active; 'I' for Inactive)
ROOT
ATOM      1  N1  IND d   1       5.990   5.444   3.840  0.00  0.00    -0.196 N 
ATOM      2  C2  IND d   1       5.988   5.958   2.573  0.00  0.00     0.054 A 
ATOM      3  C3  IND d   1       5.999   4.961   1.660  0.00  0.00    -0.031 A 
ATOM      4  C4  IND d   1       5.920   2.413   2.020  0.00  0.00     0.051 A 
ATOM      5  C5  IND d   1       5.949   1.463   3.002  0.00  0.00    -0.031 A 
ATOM      6  C6  IND d   1       5.992   1.797   4.340  0.00  0.00     0.015 A 
ATOM      7  C7  IND d   1       5.995   3.101   4.748  0.00  0.00    -0.016 A 
ATOM      8  C8  IND d   1       5.973   4.069   3.754  0.00  0.00    -0.047 A 
ATOM      9  C9  IND d   1       5.973   3.735   2.394  0.00  0.00    -0.096 A 
ATOM     10  HN1 IND d   1       6.001   5.902   4.567  0.00  0.00     0.298 HD
ENDROOT
TORSDOF 0
ENDMDL
