MODEL 1
REMARK minimizedAffinity 4.1526351
REMARK minimizedRMSD -1
REMARK  0 active torsions:
REMARK  status: ('A' for Active; 'I' for Inactive)
ROOT
ATOM      1  N1  IND d   1       5.973   1.984   3.367  0.00  0.00    -0.196 N 
ATOM      2  C2  IND d   1       5.976   1.479   4.637  0.00  0.00     0.054 A 
ATOM      3  C3  IND d   1       5.996   2.482   5.543  0.00  0.00    -0.031 A 
ATOM      4  C4  IND d   1       5.926   5.028   5.165  0.00  0.00     0.051 A 
ATOM      5  C5  IND d   1       5.954   5.971   4.176  0.00  0.00    -0.031 A 
ATOM      6  C6  IND d   1       5.988   5.627   2.840  0.00  0.00     0.015 A 
ATOM      7  C7  IND d   1       5.983   4.320   2.441  0.00  0.00    -0.016 A 
ATOM      8  C8  IND d   1       5.962   3.360   3.442  0.00  0.00    -0.047 A 
ATOM      9  C9  IND d   1       5.971   3.703   4.801  0.00  0.00    -0.096 A 
ATOM     10  HN1 IND d   1       5.978   1.521   2.643  0.00  0.00     0.298 HD
ENDROOT
TORSDOF 0
ENDMDL
