MODEL 1
REMARK minimizedAffinity -3.05940318
REMARK minimizedRMSD -1
REMARK  0 active torsions:
REMARK  status: ('A' for Active; 'I' for Inactive)
ROOT
ATOM      1  N1  IND d   1       4.859   0.682   6.000  0.00  0.00    -0.196 N 
ATOM      2  C2  IND d   1       5.492  -0.392   5.438  0.00  0.00     0.054 A 
ATOM      3  C3  IND d   1       5.999  -0.060   4.230  0.00  0.00    -0.031 A 
ATOM      4  C4  IND d   1       5.997   2.214   3.023  0.00  0.00     0.051 A 
ATOM      5  C5  IND d   1       5.509   3.486   3.124  0.00  0.00    -0.031 A 
ATOM      6  C6  IND d   1       4.766   3.898   4.212  0.00  0.00     0.015 A 
ATOM      7  C7  IND d   1       4.493   3.052   5.249  0.00  0.00    -0.016 A 
ATOM      8  C8  IND d   1       4.981   1.758   5.147  0.00  0.00    -0.047 A 
ATOM      9  C9  IND d   1       5.699   1.322   4.026  0.00  0.00    -0.096 A 
ATOM     10  HN1 IND d   1       4.454   0.686   6.758  0.00  0.00     0.298 HD
ENDROOT
TORSDOF 0
ENDMDL
