MODEL 1
REMARK minimizedAffinity 0.637485802
REMARK minimizedRMSD -1
REMARK  0 active torsions:
REMARK  status: ('A' for Active; 'I' for Inactive)
ROOT
ATOM      1  N1  IND d   1       5.980   4.427   5.282  0.00  0.00    -0.196 N 
ATOM      2  C2  IND d   1       5.980   5.047   4.064  0.00  0.00     0.054 A 
ATOM      3  C3  IND d   1       6.000   4.132   3.069  0.00  0.00    -0.031 A 
ATOM      4  C4  IND d   1       5.934   1.562   3.210  0.00  0.00     0.051 A 
ATOM      5  C5  IND d   1       5.965   0.531   4.107  0.00  0.00    -0.031 A 
ATOM      6  C6  IND d   1       6.000   0.751   5.469  0.00  0.00     0.015 A 
ATOM      7  C7  IND d   1       5.994   2.015   5.987  0.00  0.00    -0.016 A 
ATOM      8  C8  IND d   1       5.970   3.064   5.079  0.00  0.00    -0.047 A 
ATOM      9  C9  IND d   1       5.977   2.848   3.695  0.00  0.00    -0.096 A 
ATOM     10  HN1 IND d   1       5.985   4.821   6.046  0.00  0.00     0.298 HD
ENDROOT
TORSDOF 0
ENDMDL
