MODEL 1
REMARK minimizedAffinity 0.377770603
REMARK minimizedRMSD -1
REMARK  0 active torsions:
REMARK  status: ('A' for Active; 'I' for Inactive)
ROOT
ATOM      1  N1  IND d   1       5.926   2.165   5.031  0.00  0.00    -0.196 N 
ATOM      2  C2  IND d   1       5.943   2.647   3.752  0.00  0.00     0.054 A 
ATOM      3  C3  IND d   1       6.000   1.627   2.865  0.00  0.00    -0.031 A 
ATOM      4  C4  IND d   1       5.971  -0.912   3.290  0.00  0.00     0.051 A 
ATOM      5  C5  IND d   1       5.998  -1.836   4.296  0.00  0.00    -0.031 A 
ATOM      6  C6  IND d   1       5.999  -1.467   5.626  0.00  0.00     0.015 A 
ATOM      7  C7  IND d   1       5.963  -0.153   6.000  0.00  0.00    -0.016 A 
ATOM      8  C8  IND d   1       5.942   0.788   4.981  0.00  0.00    -0.047 A 
ATOM      9  C9  IND d   1       5.983   0.420   3.630  0.00  0.00    -0.096 A 
ATOM     10  HN1 IND d   1       5.909   2.641   5.746  0.00  0.00     0.298 HD
ENDROOT
TORSDOF 0
ENDMDL
