MODEL 1
REMARK minimizedAffinity -0.595075428
REMARK minimizedRMSD -1
REMARK  0 active torsions:
REMARK  status: ('A' for Active; 'I' for Inactive)
ROOT
ATOM      1  N1  IND d   1       5.992  -0.361   5.948  0.00  0.00    -0.196 N 
ATOM      2  C2  IND d   1       5.973  -1.549   5.272  0.00  0.00     0.054 A 
ATOM      3  C3  IND d   1       5.934  -1.331   3.939  0.00  0.00    -0.031 A 
ATOM      4  C4  IND d   1       5.999   0.892   2.642  0.00  0.00     0.051 A 
ATOM      5  C5  IND d   1       5.981   2.247   2.825  0.00  0.00    -0.031 A 
ATOM      6  C6  IND d   1       5.969   2.813   4.084  0.00  0.00     0.015 A 
ATOM      7  C7  IND d   1       5.986   2.042   5.211  0.00  0.00    -0.016 A 
ATOM      8  C8  IND d   1       5.996   0.666   5.030  0.00  0.00    -0.047 A 
ATOM      9  C9  IND d   1       5.965   0.086   3.755  0.00  0.00    -0.096 A 
ATOM     10  HN1 IND d   1       6.000  -0.270   6.803  0.00  0.00     0.298 HD
ENDROOT
TORSDOF 0
ENDMDL
