MODEL 1
REMARK minimizedAffinity -3.29122782
REMARK minimizedRMSD -1
REMARK  0 active torsions:
REMARK  status: ('A' for Active; 'I' for Inactive)
ROOT
ATOM      1  N1  IND d   1       5.920   1.688   3.011  0.00  0.00    -0.196 N 
ATOM      2  C2  IND d   1       5.935   1.019   4.203  0.00  0.00     0.054 A 
ATOM      3  C3  IND d   1       5.992   1.893   5.233  0.00  0.00    -0.031 A 
ATOM      4  C4  IND d   1       5.967   4.467   5.197  0.00  0.00     0.051 A 
ATOM      5  C5  IND d   1       5.996   5.533   4.342  0.00  0.00    -0.031 A 
ATOM      6  C6  IND d   1       5.999   5.368   2.972  0.00  0.00     0.015 A 
ATOM      7  C7  IND d   1       5.960   4.126   2.403  0.00  0.00    -0.016 A 
ATOM      8  C8  IND d   1       5.938   3.042   3.269  0.00  0.00    -0.047 A 
ATOM      9  C9  IND d   1       5.978   3.201   4.660  0.00  0.00    -0.096 A 
ATOM     10  HN1 IND d   1       5.902   1.325   2.232  0.00  0.00     0.298 HD
ENDROOT
TORSDOF 0
ENDMDL
