MODEL 1
REMARK minimizedAffinity 1.39100707
REMARK minimizedRMSD -1
REMARK  0 active torsions:
REMARK  status: ('A' for Active; 'I' for Inactive)
ROOT
ATOM      1  N1  IND d   1       1.083  -3.571  -2.433  0.00  0.00    -0.196 N 
ATOM      2  C2  IND d   1       1.528  -3.482  -3.723  0.00  0.00     0.054 A 
ATOM      3  C3  IND d   1       1.656  -2.186  -4.088  0.00  0.00    -0.031 A 
ATOM      4  C4  IND d   1       1.289  -0.051  -2.697  0.00  0.00     0.051 A 
ATOM      5  C5  IND d   1       0.846   0.377  -1.477  0.00  0.00    -0.031 A 
ATOM      6  C6  IND d   1       0.455  -0.507  -0.492  0.00  0.00     0.015 A 
ATOM      7  C7  IND d   1       0.502  -1.858  -0.688  0.00  0.00    -0.016 A 
ATOM      8  C8  IND d   1       0.944  -2.296  -1.928  0.00  0.00    -0.047 A 
ATOM      9  C9  IND d   1       1.303  -1.403  -2.946  0.00  0.00    -0.096 A 
ATOM     10  HN1 IND d   1       0.918  -4.300  -2.009  0.00  0.00     0.298 HD
ENDROOT
TORSDOF 0
ENDMDL
