MODEL 1
REMARK minimizedAffinity 13.128912
REMARK minimizedRMSD -1
REMARK  1 active torsions:
REMARK  status: ('A' for Active; 'I' for Inactive)
REMARK    1  A    between atoms: C1_2  and  C2_3 
ROOT
ATOM      1  C2  UNL d   1      -5.421  -4.895   2.232  0.00  0.00    -0.081 A 
ATOM      2  C3  UNL d   1      -5.975  -3.617   2.374  0.00  0.00     0.006 A 
ATOM      3  C4  UNL d   1      -5.775  -2.645   1.390  0.00  0.00     0.002 A 
ATOM      4  C5  UNL d   1      -5.026  -2.938   0.246  0.00  0.00    -0.080 A 
ATOM      5  C6  UNL d   1      -4.830  -1.913  -0.832  0.00  0.00     0.076 C 
ATOM      6  C7  UNL d   1      -4.458  -4.209   0.112  0.00  0.00     0.002 A 
ATOM      7  C8  UNL d   1      -4.657  -5.181   1.096  0.00  0.00     0.006 A 
ENDROOT
BRANCH   1   8
ATOM      8  C1  UNL d   1      -5.688  -5.964   3.260  0.00  0.00     0.054 C 
ATOM      9  C   UNL d   1      -4.632  -5.955   4.356  0.00  0.00     0.018 C 
ENDBRANCH   1   8
TORSDOF 1
ENDMDL
