MODEL 1
REMARK minimizedAffinity 13.2571211
REMARK minimizedRMSD -1
REMARK  1 active torsions:
REMARK  status: ('A' for Active; 'I' for Inactive)
REMARK    1  A    between atoms: C1_2  and  C2_3 
ROOT
ATOM      1  C2  UNL d   1      -3.104  -0.628   1.235  0.00  0.00    -0.081 A 
ATOM      2  C3  UNL d   1      -3.209   0.743   0.968  0.00  0.00     0.006 A 
ATOM      3  C4  UNL d   1      -2.189   1.619   1.349  0.00  0.00     0.002 A 
ATOM      4  C5  UNL d   1      -1.045   1.138   1.995  0.00  0.00    -0.080 A 
ATOM      5  C6  UNL d   1       0.070   2.063   2.382  0.00  0.00     0.076 C 
ATOM      6  C7  UNL d   1      -0.948  -0.229   2.277  0.00  0.00     0.002 A 
ATOM      7  C8  UNL d   1      -1.967  -1.105   1.897  0.00  0.00     0.006 A 
ENDROOT
BRANCH   1   8
ATOM      8  C1  UNL d   1      -4.172  -1.583   0.768  0.00  0.00     0.054 C 
ATOM      9  C   UNL d   1      -5.549  -1.156   1.257  0.00  0.00     0.018 C 
ENDBRANCH   1   8
TORSDOF 1
ENDMDL
