MODEL 1
REMARK minimizedAffinity 19.3782578
REMARK minimizedRMSD -1
REMARK  1 active torsions:
REMARK  status: ('A' for Active; 'I' for Inactive)
REMARK    1  A    between atoms: C1_2  and  C2_3 
ROOT
ATOM      1  C2  UNL d   1      -1.682  -2.476   0.750  0.00  0.00    -0.081 A 
ATOM      2  C3  UNL d   1      -1.866  -1.236   1.375  0.00  0.00     0.006 A 
ATOM      3  C4  UNL d   1      -3.152  -0.739   1.598  0.00  0.00     0.002 A 
ATOM      4  C5  UNL d   1      -4.275  -1.476   1.207  0.00  0.00    -0.080 A 
ATOM      5  C6  UNL d   1      -5.662  -0.967   1.468  0.00  0.00     0.076 C 
ATOM      6  C7  UNL d   1      -4.092  -2.706   0.567  0.00  0.00     0.002 A 
ATOM      7  C8  UNL d   1      -2.806  -3.203   0.343  0.00  0.00     0.006 A 
ENDROOT
BRANCH   1   8
ATOM      8  C1  UNL d   1      -0.298  -3.044   0.567  0.00  0.00     0.054 C 
ATOM      9  C   UNL d   1       0.191  -3.729   1.835  0.00  0.00     0.018 C 
ENDBRANCH   1   8
TORSDOF 1
ENDMDL
