MODEL 1
REMARK minimizedAffinity 19.5838413
REMARK minimizedRMSD -1
REMARK  1 active torsions:
REMARK  status: ('A' for Active; 'I' for Inactive)
REMARK    1  A    between atoms: C1_2  and  C2_3 
ROOT
ATOM      1  C2  UNL d   1       5.583  -1.958   4.117  0.00  0.00    -0.081 A 
ATOM      2  C3  UNL d   1       5.710  -3.039   3.236  0.00  0.00     0.006 A 
ATOM      3  C4  UNL d   1       5.854  -4.339   3.726  0.00  0.00     0.002 A 
ATOM      4  C5  UNL d   1       5.865  -4.581   5.104  0.00  0.00    -0.080 A 
ATOM      5  C6  UNL d   1       5.988  -5.975   5.644  0.00  0.00     0.076 C 
ATOM      6  C7  UNL d   1       5.755  -3.499   5.985  0.00  0.00     0.002 A 
ATOM      7  C8  UNL d   1       5.612  -2.199   5.495  0.00  0.00     0.006 A 
ENDROOT
BRANCH   1   8
ATOM      8  C1  UNL d   1       5.363  -0.563   3.591  0.00  0.00     0.054 C 
ATOM      9  C   UNL d   1       4.855  -0.586   2.156  0.00  0.00     0.018 C 
ENDBRANCH   1   8
TORSDOF 1
ENDMDL
