MODEL 1
REMARK minimizedAffinity 10.7043724
REMARK minimizedRMSD -1
REMARK  1 active torsions:
REMARK  status: ('A' for Active; 'I' for Inactive)
REMARK    1  A    between atoms: C1_2  and  C2_3 
ROOT
ATOM      1  C2  UNL d   1      -1.959  -2.639  -5.743  0.00  0.00    -0.081 A 
ATOM      2  C3  UNL d   1      -3.025  -1.778  -5.452  0.00  0.00     0.006 A 
ATOM      3  C4  UNL d   1      -4.335  -2.261  -5.409  0.00  0.00     0.002 A 
ATOM      4  C5  UNL d   1      -4.600  -3.614  -5.647  0.00  0.00    -0.080 A 
ATOM      5  C6  UNL d   1      -5.998  -4.152  -5.574  0.00  0.00     0.076 C 
ATOM      6  C7  UNL d   1      -3.538  -4.471  -5.955  0.00  0.00     0.002 A 
ATOM      7  C8  UNL d   1      -2.228  -3.988  -5.999  0.00  0.00     0.006 A 
ENDROOT
BRANCH   1   8
ATOM      8  C1  UNL d   1      -0.539  -2.133  -5.727  0.00  0.00     0.054 C 
ATOM      9  C   UNL d   1      -0.242  -1.359  -4.450  0.00  0.00     0.018 C 
ENDBRANCH   1   8
TORSDOF 1
ENDMDL
