MODEL 1
REMARK minimizedAffinity 17.8688889
REMARK minimizedRMSD -1
REMARK  1 active torsions:
REMARK  status: ('A' for Active; 'I' for Inactive)
REMARK    1  A    between atoms: C1_2  and  C2_3 
ROOT
ATOM      1  C2  UNL d   1       2.379   1.813  -3.154  0.00  0.00    -0.081 A 
ATOM      2  C3  UNL d   1       2.201   2.925  -2.321  0.00  0.00     0.006 A 
ATOM      3  C4  UNL d   1       2.775   4.155  -2.650  0.00  0.00     0.002 A 
ATOM      4  C5  UNL d   1       3.529   4.296  -3.820  0.00  0.00    -0.080 A 
ATOM      5  C6  UNL d   1       4.126   5.619  -4.201  0.00  0.00     0.076 C 
ATOM      6  C7  UNL d   1       3.722   3.181  -4.643  0.00  0.00     0.002 A 
ATOM      7  C8  UNL d   1       3.148   1.951  -4.314  0.00  0.00     0.006 A 
ENDROOT
BRANCH   1   8
ATOM      8  C1  UNL d   1       1.707   0.502  -2.835  0.00  0.00     0.054 C 
ATOM      9  C   UNL d   1       1.478  -0.323  -4.094  0.00  0.00     0.018 C 
ENDBRANCH   1   8
TORSDOF 1
ENDMDL
