MODEL 1
REMARK minimizedAffinity 8.17905235
REMARK minimizedRMSD -1
REMARK  1 active torsions:
REMARK  status: ('A' for Active; 'I' for Inactive)
REMARK    1  A    between atoms: C1_2  and  C2_3 
ROOT
ATOM      1  C2  UNL d   1      -2.623   1.137   2.140  0.00  0.00    -0.081 A 
ATOM      2  C3  UNL d   1      -3.922   0.619   2.073  0.00  0.00     0.006 A 
ATOM      3  C4  UNL d   1      -5.018   1.472   1.925  0.00  0.00     0.002 A 
ATOM      4  C5  UNL d   1      -4.834   2.856   1.835  0.00  0.00    -0.080 A 
ATOM      5  C6  UNL d   1      -6.000   3.780   1.646  0.00  0.00     0.076 C 
ATOM      6  C7  UNL d   1      -3.538   3.375   1.920  0.00  0.00     0.002 A 
ATOM      7  C8  UNL d   1      -2.441   2.523   2.068  0.00  0.00     0.006 A 
ENDROOT
BRANCH   1   8
ATOM      8  C1  UNL d   1      -1.434   0.216   2.234  0.00  0.00     0.054 C 
ATOM      9  C   UNL d   1      -0.126   0.993   2.180  0.00  0.00     0.018 C 
ENDBRANCH   1   8
TORSDOF 1
ENDMDL
