MODEL 1
REMARK minimizedAffinity 9.82036209
REMARK minimizedRMSD -1
REMARK  1 active torsions:
REMARK  status: ('A' for Active; 'I' for Inactive)
REMARK    1  A    between atoms: C1_2  and  C2_3 
ROOT
ATOM      1  C2  UNL d   1       1.157  -0.057  -3.762  0.00  0.00    -0.081 A 
ATOM      2  C3  UNL d   1       0.054   0.423  -4.479  0.00  0.00     0.006 A 
ATOM      3  C4  UNL d   1      -0.748  -0.454  -5.214  0.00  0.00     0.002 A 
ATOM      4  C5  UNL d   1      -0.466  -1.824  -5.238  0.00  0.00    -0.080 A 
ATOM      5  C6  UNL d   1      -1.337  -2.779  -5.998  0.00  0.00     0.076 C 
ATOM      6  C7  UNL d   1       0.646  -2.300  -4.536  0.00  0.00     0.002 A 
ATOM      7  C8  UNL d   1       1.449  -1.425  -3.801  0.00  0.00     0.006 A 
ENDROOT
BRANCH   1   8
ATOM      8  C1  UNL d   1       1.985   0.876  -2.916  0.00  0.00     0.054 C 
ATOM      9  C   UNL d   1       1.166   1.462  -1.774  0.00  0.00     0.018 C 
ENDBRANCH   1   8
TORSDOF 1
ENDMDL
