MODEL 1
REMARK minimizedAffinity 16.0158882
REMARK minimizedRMSD -1
REMARK  1 active torsions:
REMARK  status: ('A' for Active; 'I' for Inactive)
REMARK    1  A    between atoms: C1_2  and  C2_3 
ROOT
ATOM      1  C2  UNL d   1      -2.466   0.184   2.990  0.00  0.00    -0.081 A 
ATOM      2  C3  UNL d   1      -3.047   0.955   1.976  0.00  0.00     0.006 A 
ATOM      3  C4  UNL d   1      -2.322   1.274   0.826  0.00  0.00     0.002 A 
ATOM      4  C5  UNL d   1      -1.007   0.822   0.667  0.00  0.00    -0.080 A 
ATOM      5  C6  UNL d   1      -0.228   1.132  -0.577  0.00  0.00     0.076 C 
ATOM      6  C7  UNL d   1      -0.421   0.067   1.688  0.00  0.00     0.002 A 
ATOM      7  C8  UNL d   1      -1.145  -0.252   2.839  0.00  0.00     0.006 A 
ENDROOT
BRANCH   1   8
ATOM      8  C1  UNL d   1      -3.267  -0.216   4.203  0.00  0.00     0.054 C 
ATOM      9  C   UNL d   1      -2.472  -1.147   5.108  0.00  0.00     0.018 C 
ENDBRANCH   1   8
TORSDOF 1
ENDMDL
