MODEL 1
REMARK minimizedAffinity 11.5290823
REMARK minimizedRMSD -1
REMARK  1 active torsions:
REMARK  status: ('A' for Active; 'I' for Inactive)
REMARK    1  A    between atoms: C1_2  and  C2_3 
ROOT
ATOM      1  C2  UNL d   1      -1.652  -1.893   0.870  0.00  0.00    -0.081 A 
ATOM      2  C3  UNL d   1      -2.945  -1.478   0.529  0.00  0.00     0.006 A 
ATOM      3  C4  UNL d   1      -3.385  -0.193   0.854  0.00  0.00     0.002 A 
ATOM      4  C5  UNL d   1      -2.538   0.701   1.518  0.00  0.00    -0.080 A 
ATOM      5  C6  UNL d   1      -2.987   2.094   1.846  0.00  0.00     0.076 C 
ATOM      6  C7  UNL d   1      -1.252   0.280   1.874  0.00  0.00     0.002 A 
ATOM      7  C8  UNL d   1      -0.811  -1.005   1.550  0.00  0.00     0.006 A 
ENDROOT
BRANCH   1   8
ATOM      8  C1  UNL d   1      -1.152  -3.256   0.463  0.00  0.00     0.054 C 
ATOM      9  C   UNL d   1      -0.001  -3.710   1.350  0.00  0.00     0.018 C 
ENDBRANCH   1   8
TORSDOF 1
ENDMDL
