MODEL 1
REMARK minimizedAffinity 8.14826107
REMARK minimizedRMSD -1
REMARK  1 active torsions:
REMARK  status: ('A' for Active; 'I' for Inactive)
REMARK    1  A    between atoms: C1_2  and  C2_3 
ROOT
ATOM      1  C2  UNL d   1       2.206   1.782  -3.191  0.00  0.00    -0.081 A 
ATOM      2  C3  UNL d   1       1.660   2.702  -2.288  0.00  0.00     0.006 A 
ATOM      3  C4  UNL d   1       1.931   4.066  -2.415  0.00  0.00     0.002 A 
ATOM      4  C5  UNL d   1       2.746   4.534  -3.452  0.00  0.00    -0.080 A 
ATOM      5  C6  UNL d   1       3.020   5.999  -3.618  0.00  0.00     0.076 C 
ATOM      6  C7  UNL d   1       3.306   3.614  -4.344  0.00  0.00     0.002 A 
ATOM      7  C8  UNL d   1       3.036   2.249  -4.217  0.00  0.00     0.006 A 
ENDROOT
BRANCH   1   8
ATOM      8  C1  UNL d   1       1.864   0.318  -3.095  0.00  0.00     0.054 C 
ATOM      9  C   UNL d   1       1.981  -0.368  -4.449  0.00  0.00     0.018 C 
ENDBRANCH   1   8
TORSDOF 1
ENDMDL
