MODEL 1
REMARK minimizedAffinity 6.82870674
REMARK minimizedRMSD -1
REMARK  1 active torsions:
REMARK  status: ('A' for Active; 'I' for Inactive)
REMARK    1  A    between atoms: C1_2  and  C2_3 
ROOT
ATOM      1  C2  UNL d   1       3.567   0.571  -4.957  0.00  0.00    -0.081 A 
ATOM      2  C3  UNL d   1       3.874   1.462  -5.993  0.00  0.00     0.006 A 
ATOM      3  C4  UNL d   1       3.908   2.838  -5.756  0.00  0.00     0.002 A 
ATOM      4  C5  UNL d   1       3.643   3.346  -4.480  0.00  0.00    -0.080 A 
ATOM      5  C6  UNL d   1       3.706   4.819  -4.205  0.00  0.00     0.076 C 
ATOM      6  C7  UNL d   1       3.319   2.457  -3.449  0.00  0.00     0.002 A 
ATOM      7  C8  UNL d   1       3.284   1.081  -3.685  0.00  0.00     0.006 A 
ENDROOT
BRANCH   1   8
ATOM      8  C1  UNL d   1       3.593  -0.917  -5.194  0.00  0.00     0.054 C 
ATOM      9  C   UNL d   1       4.829  -1.331  -5.980  0.00  0.00     0.018 C 
ENDBRANCH   1   8
TORSDOF 1
ENDMDL
