MODEL 1
REMARK minimizedAffinity -3.19356036
REMARK minimizedRMSD -1
REMARK  0 active torsions:
REMARK  status: ('A' for Active; 'I' for Inactive)
ROOT
ATOM      1  C   UNL d   1       0.262   0.043  -1.295  0.00  0.00     0.078 C 
ATOM      2  C1  UNL d   1      -0.269   0.243   0.093  0.00  0.00    -0.077 A 
ATOM      3  C2  UNL d   1       0.510  -0.068   1.215  0.00  0.00    -0.001 A 
ATOM      4  C3  UNL d   1       0.000   0.114   2.501  0.00  0.00     0.003 A 
ATOM      5  C4  UNL d   1      -1.291   0.606   2.678  0.00  0.00    -0.005 A 
ATOM      6  C5  UNL d   1      -2.075   0.916   1.569  0.00  0.00     0.003 A 
ATOM      7  C6  UNL d   1      -1.566   0.735   0.281  0.00  0.00    -0.001 A 
ENDROOT
TORSDOF 0
ENDMDL
