MODEL 1
REMARK minimizedAffinity -3.79694724
REMARK minimizedRMSD -1
REMARK  0 active torsions:
REMARK  status: ('A' for Active; 'I' for Inactive)
ROOT
ATOM      1  C   UNL d   1       0.146  -0.139  -1.696  0.00  0.00     0.078 C 
ATOM      2  C1  UNL d   1      -0.179   0.087  -0.250  0.00  0.00    -0.077 A 
ATOM      3  C2  UNL d   1       0.760  -0.186   0.752  0.00  0.00    -0.001 A 
ATOM      4  C3  UNL d   1       0.440   0.020   2.095  0.00  0.00     0.003 A 
ATOM      5  C4  UNL d   1      -0.819   0.499   2.449  0.00  0.00    -0.005 A 
ATOM      6  C5  UNL d   1      -1.761   0.772   1.459  0.00  0.00     0.003 A 
ATOM      7  C6  UNL d   1      -1.443   0.567   0.116  0.00  0.00    -0.001 A 
ENDROOT
TORSDOF 0
ENDMDL
