MODEL 1
REMARK minimizedAffinity -4.21324492
REMARK minimizedRMSD -1
REMARK  0 active torsions:
REMARK  status: ('A' for Active; 'I' for Inactive)
ROOT
ATOM      1  C   UNL d   1      -1.200   0.670   0.311  0.00  0.00     0.078 C 
ATOM      2  C1  UNL d   1      -0.371   0.385  -0.906  0.00  0.00    -0.077 A 
ATOM      3  C2  UNL d   1      -0.018   1.409  -1.794  0.00  0.00    -0.001 A 
ATOM      4  C3  UNL d   1       0.746   1.128  -2.928  0.00  0.00     0.003 A 
ATOM      5  C4  UNL d   1       1.161  -0.177  -3.185  0.00  0.00    -0.005 A 
ATOM      6  C5  UNL d   1       0.813  -1.203  -2.309  0.00  0.00     0.003 A 
ATOM      7  C6  UNL d   1       0.049  -0.923  -1.174  0.00  0.00    -0.001 A 
ENDROOT
TORSDOF 0
ENDMDL
