MODEL 1
REMARK minimizedAffinity -2.3500464
REMARK minimizedRMSD -1
REMARK  0 active torsions:
REMARK  status: ('A' for Active; 'I' for Inactive)
ROOT
ATOM      1  C   UNL d   1       1.214   1.132  -3.033  0.00  0.00     0.078 C 
ATOM      2  C1  UNL d   1       0.478   0.642  -1.823  0.00  0.00    -0.077 A 
ATOM      3  C2  UNL d   1       0.558  -0.697  -1.422  0.00  0.00    -0.001 A 
ATOM      4  C3  UNL d   1      -0.141  -1.141  -0.299  0.00  0.00     0.003 A 
ATOM      5  C4  UNL d   1      -0.926  -0.253   0.433  0.00  0.00    -0.005 A 
ATOM      6  C5  UNL d   1      -1.015   1.081   0.041  0.00  0.00     0.003 A 
ATOM      7  C6  UNL d   1      -0.316   1.527  -1.082  0.00  0.00    -0.001 A 
ENDROOT
TORSDOF 0
ENDMDL
