MODEL 1
REMARK minimizedAffinity -3.92152572
REMARK minimizedRMSD -1
REMARK  0 active torsions:
REMARK  status: ('A' for Active; 'I' for Inactive)
ROOT
ATOM      1  C   UNL d   1       1.965  -1.423   1.119  0.00  0.00     0.078 C 
ATOM      2  C1  UNL d   1       0.637  -0.739   0.990  0.00  0.00    -0.077 A 
ATOM      3  C2  UNL d   1      -0.101  -0.378   2.123  0.00  0.00    -0.001 A 
ATOM      4  C3  UNL d   1      -1.340   0.250   1.988  0.00  0.00     0.003 A 
ATOM      5  C4  UNL d   1      -1.853   0.521   0.721  0.00  0.00    -0.005 A 
ATOM      6  C5  UNL d   1      -1.126   0.164  -0.413  0.00  0.00     0.003 A 
ATOM      7  C6  UNL d   1       0.114  -0.464  -0.280  0.00  0.00    -0.001 A 
ENDROOT
TORSDOF 0
ENDMDL
