MODEL 1
REMARK minimizedAffinity -4.62129641
REMARK minimizedRMSD -1
REMARK  0 active torsions:
REMARK  status: ('A' for Active; 'I' for Inactive)
ROOT
ATOM      1  C   UNL d   1       0.340  -0.048  -1.532  0.00  0.00     0.078 C 
ATOM      2  C1  UNL d   1      -0.091   0.200  -0.117  0.00  0.00    -0.077 A 
ATOM      3  C2  UNL d   1      -1.248   0.936   0.165  0.00  0.00    -0.001 A 
ATOM      4  C3  UNL d   1      -1.632   1.168   1.487  0.00  0.00     0.003 A 
ATOM      5  C4  UNL d   1      -0.864   0.668   2.537  0.00  0.00    -0.005 A 
ATOM      6  C5  UNL d   1       0.290  -0.064   2.265  0.00  0.00     0.003 A 
ATOM      7  C6  UNL d   1       0.676  -0.297   0.944  0.00  0.00    -0.001 A 
ENDROOT
TORSDOF 0
ENDMDL
