MODEL 1
REMARK minimizedAffinity -4.28905439
REMARK minimizedRMSD -1
REMARK  0 active torsions:
REMARK  status: ('A' for Active; 'I' for Inactive)
ROOT
ATOM      1  C   UNL d   1      -2.217   0.004  -0.345  0.00  0.00     0.078 C 
ATOM      2  C1  UNL d   1      -1.172   0.430   0.643  0.00  0.00    -0.077 A 
ATOM      3  C2  UNL d   1       0.188   0.212   0.394  0.00  0.00    -0.001 A 
ATOM      4  C3  UNL d   1       1.149   0.605   1.327  0.00  0.00     0.003 A 
ATOM      5  C4  UNL d   1       0.760   1.218   2.516  0.00  0.00    -0.005 A 
ATOM      6  C5  UNL d   1      -0.592   1.437   2.775  0.00  0.00     0.003 A 
ATOM      7  C6  UNL d   1      -1.554   1.044   1.843  0.00  0.00    -0.001 A 
ENDROOT
TORSDOF 0
ENDMDL
