MODEL 1
REMARK minimizedAffinity -2.87508869
REMARK minimizedRMSD -1
REMARK  0 active torsions:
REMARK  status: ('A' for Active; 'I' for Inactive)
ROOT
ATOM      1  C   UNL d   1      -1.931  -3.721  -6.000  0.00  0.00     0.078 C 
ATOM      2  C1  UNL d   1      -1.169  -2.646  -5.285  0.00  0.00    -0.077 A 
ATOM      3  C2  UNL d   1      -0.945  -2.716  -3.905  0.00  0.00    -0.001 A 
ATOM      4  C3  UNL d   1      -0.243  -1.702  -3.251  0.00  0.00     0.003 A 
ATOM      5  C4  UNL d   1       0.241  -0.610  -3.970  0.00  0.00    -0.005 A 
ATOM      6  C5  UNL d   1       0.021  -0.531  -5.343  0.00  0.00     0.003 A 
ATOM      7  C6  UNL d   1      -0.681  -1.543  -5.999  0.00  0.00    -0.001 A 
ENDROOT
TORSDOF 0
ENDMDL
