MODEL 1
REMARK minimizedAffinity 2.85695839
REMARK minimizedRMSD -1
REMARK  0 active torsions:
REMARK  status: ('A' for Active; 'I' for Inactive)
ROOT
ATOM      1  C   UNL d   1      -4.258   1.457   0.379  0.00  0.00     0.078 C 
ATOM      2  C1  UNL d   1      -2.986   1.383   1.170  0.00  0.00    -0.077 A 
ATOM      3  C2  UNL d   1      -2.250   2.538   1.463  0.00  0.00    -0.001 A 
ATOM      4  C3  UNL d   1      -1.063   2.452   2.192  0.00  0.00     0.003 A 
ATOM      5  C4  UNL d   1      -0.601   1.214   2.634  0.00  0.00    -0.005 A 
ATOM      6  C5  UNL d   1      -1.325   0.059   2.345  0.00  0.00     0.003 A 
ATOM      7  C6  UNL d   1      -2.513   0.143   1.616  0.00  0.00    -0.001 A 
ENDROOT
TORSDOF 0
ENDMDL
