MODEL 1
REMARK minimizedAffinity -0.110191658
REMARK minimizedRMSD -1
REMARK  0 active torsions:
REMARK  status: ('A' for Active; 'I' for Inactive)
ROOT
ATOM      1  C   UNL d   1       3.009  -0.724  -3.743  0.00  0.00     0.078 C 
ATOM      2  C1  UNL d   1       4.051  -1.803  -3.746  0.00  0.00    -0.077 A 
ATOM      3  C2  UNL d   1       5.026  -1.866  -2.744  0.00  0.00    -0.001 A 
ATOM      4  C3  UNL d   1       5.996  -2.870  -2.765  0.00  0.00     0.003 A 
ATOM      5  C4  UNL d   1       6.000  -3.818  -3.786  0.00  0.00    -0.005 A 
ATOM      6  C5  UNL d   1       5.034  -3.762  -4.789  0.00  0.00     0.003 A 
ATOM      7  C6  UNL d   1       4.064  -2.759  -4.770  0.00  0.00    -0.001 A 
ENDROOT
TORSDOF 0
ENDMDL
