MODEL 1
REMARK minimizedAffinity 3.96284723
REMARK minimizedRMSD -1
REMARK  0 active torsions:
REMARK  status: ('A' for Active; 'I' for Inactive)
ROOT
ATOM      1  C   UNL d   1      -1.077   5.965  -2.183  0.00  0.00     0.078 C 
ATOM      2  C1  UNL d   1      -0.526   4.646  -1.733  0.00  0.00    -0.077 A 
ATOM      3  C2  UNL d   1       0.843   4.365  -1.829  0.00  0.00    -0.001 A 
ATOM      4  C3  UNL d   1       1.341   3.129  -1.415  0.00  0.00     0.003 A 
ATOM      5  C4  UNL d   1       0.477   2.162  -0.903  0.00  0.00    -0.005 A 
ATOM      6  C5  UNL d   1      -0.887   2.431  -0.806  0.00  0.00     0.003 A 
ATOM      7  C6  UNL d   1      -1.387   3.667  -1.219  0.00  0.00    -0.001 A 
ENDROOT
TORSDOF 0
ENDMDL
