MODEL 1
REMARK minimizedAffinity -3.0077486
REMARK minimizedRMSD -1
REMARK  0 active torsions:
REMARK  status: ('A' for Active; 'I' for Inactive)
ROOT
ATOM      1  C   UNL d   1       3.104  -1.453  -1.451  0.00  0.00     0.078 C 
ATOM      2  C1  UNL d   1       4.078  -2.203  -2.309  0.00  0.00    -0.077 A 
ATOM      3  C2  UNL d   1       4.438  -1.728  -3.576  0.00  0.00    -0.001 A 
ATOM      4  C3  UNL d   1       5.339  -2.442  -4.368  0.00  0.00     0.003 A 
ATOM      5  C4  UNL d   1       5.887  -3.635  -3.902  0.00  0.00    -0.005 A 
ATOM      6  C5  UNL d   1       5.534  -4.117  -2.643  0.00  0.00     0.003 A 
ATOM      7  C6  UNL d   1       4.633  -3.404  -1.850  0.00  0.00    -0.001 A 
ENDROOT
TORSDOF 0
ENDMDL
