MODEL 1
REMARK minimizedAffinity 2.38394022
REMARK minimizedRMSD -1
REMARK  0 active torsions:
REMARK  status: ('A' for Active; 'I' for Inactive)
ROOT
ATOM      1  C   UNL d   1       4.876  -2.627  -0.744  0.00  0.00     0.078 C 
ATOM      2  C1  UNL d   1       4.222  -3.804  -1.404  0.00  0.00    -0.077 A 
ATOM      3  C2  UNL d   1       4.485  -4.117  -2.744  0.00  0.00    -0.001 A 
ATOM      4  C3  UNL d   1       3.863  -5.210  -3.348  0.00  0.00     0.003 A 
ATOM      5  C4  UNL d   1       2.972  -5.998  -2.622  0.00  0.00    -0.005 A 
ATOM      6  C5  UNL d   1       2.703  -5.693  -1.289  0.00  0.00     0.003 A 
ATOM      7  C6  UNL d   1       3.324  -4.601  -0.683  0.00  0.00    -0.001 A 
ENDROOT
TORSDOF 0
ENDMDL
