MODEL 1
REMARK minimizedAffinity 1.31695235
REMARK minimizedRMSD -1
REMARK  0 active torsions:
REMARK  status: ('A' for Active; 'I' for Inactive)
ROOT
ATOM      1  C   UNL d   1       3.436  -5.726  -3.338  0.00  0.00     0.078 C 
ATOM      2  C1  UNL d   1       3.935  -4.768  -2.298  0.00  0.00    -0.077 A 
ATOM      3  C2  UNL d   1       3.438  -3.461  -2.223  0.00  0.00    -0.001 A 
ATOM      4  C3  UNL d   1       3.919  -2.577  -1.256  0.00  0.00     0.003 A 
ATOM      5  C4  UNL d   1       4.899  -2.991  -0.356  0.00  0.00    -0.005 A 
ATOM      6  C5  UNL d   1       5.401  -4.289  -0.424  0.00  0.00     0.003 A 
ATOM      7  C6  UNL d   1       4.922  -5.174  -1.391  0.00  0.00    -0.001 A 
ENDROOT
TORSDOF 0
ENDMDL
