MODEL 1
REMARK minimizedAffinity 2.83658314
REMARK minimizedRMSD -1
REMARK  2 active torsions:
REMARK  status: ('A' for Active; 'I' for Inactive)
REMARK    1  A    between atoms: C1_2  and  C2_3 
REMARK    2  A    between atoms: C2_3  and  C3_4 
ROOT
ATOM      1  C3  UNL d   1       0.851  -1.976   1.143  0.00  0.00    -0.075 A 
ATOM      2  C4  UNL d   1       0.506  -3.322   0.949  0.00  0.00     0.002 A 
ATOM      3  C5  UNL d   1       1.395  -4.198   0.325  0.00  0.00     0.002 A 
ATOM      4  C6  UNL d   1       2.632  -3.738  -0.122  0.00  0.00    -0.004 A 
ATOM      5  C7  UNL d   1       2.978  -2.400   0.051  0.00  0.00     0.002 A 
ATOM      6  C8  UNL d   1       2.093  -1.522   0.679  0.00  0.00     0.002 A 
ENDROOT
BRANCH   1   7
ATOM      7  C2  UNL d   1      -0.095  -1.030   1.844  0.00  0.00     0.056 C 
BRANCH   7   8
ATOM      8  C1  UNL d   1       0.507  -0.347   3.076  0.00  0.00     0.007 C 
ATOM      9  C   UNL d   1       1.096  -1.329   4.080  0.00  0.00     0.009 C 
ENDBRANCH   7   8
ENDBRANCH   1   7
TORSDOF 2
ENDMDL
