MODEL 1
REMARK minimizedAffinity -2.20458984
REMARK minimizedRMSD -1
REMARK  2 active torsions:
REMARK  status: ('A' for Active; 'I' for Inactive)
REMARK    1  A    between atoms: C1_2  and  C2_3 
REMARK    2  A    between atoms: C2_3  and  C3_4 
ROOT
ATOM      1  C3  UNL d   1       1.378  -2.765   0.187  0.00  0.00    -0.075 A 
ATOM      2  C4  UNL d   1       2.119  -1.717   0.752  0.00  0.00     0.002 A 
ATOM      3  C5  UNL d   1       1.510  -0.494   1.039  0.00  0.00     0.002 A 
ATOM      4  C6  UNL d   1       0.160  -0.302   0.755  0.00  0.00    -0.004 A 
ATOM      5  C7  UNL d   1      -0.581  -1.331   0.178  0.00  0.00     0.002 A 
ATOM      6  C8  UNL d   1       0.024  -2.556  -0.106  0.00  0.00     0.002 A 
ENDROOT
BRANCH   1   7
ATOM      7  C2  UNL d   1       2.024  -4.100  -0.099  0.00  0.00     0.056 C 
BRANCH   7   8
ATOM      8  C1  UNL d   1       3.548  -4.103   0.062  0.00  0.00     0.007 C 
ATOM      9  C   UNL d   1       4.138  -5.503   0.161  0.00  0.00     0.009 C 
ENDBRANCH   7   8
ENDBRANCH   1   7
TORSDOF 2
ENDMDL
