MODEL 1
REMARK minimizedAffinity 0.371323645
REMARK minimizedRMSD -1
REMARK  2 active torsions:
REMARK  status: ('A' for Active; 'I' for Inactive)
REMARK    1  A    between atoms: C1_2  and  C2_3 
REMARK    2  A    between atoms: C2_3  and  C3_4 
ROOT
ATOM      1  C3  UNL d   1       1.648  -0.282  -0.558  0.00  0.00    -0.075 A 
ATOM      2  C4  UNL d   1       0.489  -1.068  -0.480  0.00  0.00     0.002 A 
ATOM      3  C5  UNL d   1      -0.125  -1.304   0.750  0.00  0.00     0.002 A 
ATOM      4  C6  UNL d   1       0.416  -0.767   1.917  0.00  0.00    -0.004 A 
ATOM      5  C7  UNL d   1       1.576   0.001   1.853  0.00  0.00     0.002 A 
ATOM      6  C8  UNL d   1       2.190   0.243   0.623  0.00  0.00     0.002 A 
ENDROOT
BRANCH   1   7
ATOM      7  C2  UNL d   1       2.301   0.002  -1.889  0.00  0.00     0.056 C 
BRANCH   7   8
ATOM      8  C1  UNL d   1       1.559  -0.596  -3.088  0.00  0.00     0.007 C 
ATOM      9  C   UNL d   1       2.257  -0.338  -4.417  0.00  0.00     0.009 C 
ENDBRANCH   7   8
ENDBRANCH   1   7
TORSDOF 2
ENDMDL
