MODEL 1
REMARK minimizedAffinity 0.920824945
REMARK minimizedRMSD -1
REMARK  2 active torsions:
REMARK  status: ('A' for Active; 'I' for Inactive)
REMARK    1  A    between atoms: C1_2  and  C2_3 
REMARK    2  A    between atoms: C2_3  and  C3_4 
ROOT
ATOM      1  C3  UNL d   1       2.298  -3.480   0.175  0.00  0.00    -0.075 A 
ATOM      2  C4  UNL d   1       1.410  -4.134  -0.691  0.00  0.00     0.002 A 
ATOM      3  C5  UNL d   1       0.104  -3.670  -0.849  0.00  0.00     0.002 A 
ATOM      4  C6  UNL d   1      -0.334  -2.556  -0.137  0.00  0.00    -0.004 A 
ATOM      5  C7  UNL d   1       0.535  -1.908   0.739  0.00  0.00     0.002 A 
ATOM      6  C8  UNL d   1       1.844  -2.367   0.895  0.00  0.00     0.002 A 
ENDROOT
BRANCH   1   7
ATOM      7  C2  UNL d   1       3.722  -3.959   0.328  0.00  0.00     0.056 C 
BRANCH   7   8
ATOM      8  C1  UNL d   1       3.878  -5.482   0.266  0.00  0.00     0.007 C 
ATOM      9  C   UNL d   1       5.268  -5.960   0.663  0.00  0.00     0.009 C 
ENDBRANCH   7   8
ENDBRANCH   1   7
TORSDOF 2
ENDMDL
