MODEL 1
REMARK minimizedAffinity -1.89326406
REMARK minimizedRMSD -1
REMARK  2 active torsions:
REMARK  status: ('A' for Active; 'I' for Inactive)
REMARK    1  A    between atoms: C1_2  and  C2_3 
REMARK    2  A    between atoms: C2_3  and  C3_4 
ROOT
ATOM      1  C3  UNL d   1       0.975  -2.791   0.539  0.00  0.00    -0.075 A 
ATOM      2  C4  UNL d   1       1.822  -1.697   0.768  0.00  0.00     0.002 A 
ATOM      3  C5  UNL d   1       1.293  -0.423   0.977  0.00  0.00     0.002 A 
ATOM      4  C6  UNL d   1      -0.085  -0.224   0.949  0.00  0.00    -0.004 A 
ATOM      5  C7  UNL d   1      -0.936  -1.301   0.706  0.00  0.00     0.002 A 
ATOM      6  C8  UNL d   1      -0.409  -2.578   0.501  0.00  0.00     0.002 A 
ENDROOT
BRANCH   1   7
ATOM      7  C2  UNL d   1       1.540  -4.177   0.342  0.00  0.00     0.056 C 
BRANCH   7   8
ATOM      8  C1  UNL d   1       3.050  -4.204   0.081  0.00  0.00     0.007 C 
ATOM      9  C   UNL d   1       3.635  -5.610   0.088  0.00  0.00     0.009 C 
ENDBRANCH   7   8
ENDBRANCH   1   7
TORSDOF 2
ENDMDL
