MODEL 1
REMARK minimizedAffinity 1.55777979
REMARK minimizedRMSD -1
REMARK  2 active torsions:
REMARK  status: ('A' for Active; 'I' for Inactive)
REMARK    1  A    between atoms: C1_2  and  C2_3 
REMARK    2  A    between atoms: C2_3  and  C3_4 
ROOT
ATOM      1  C3  UNL d   1       3.512  -3.782  -0.256  0.00  0.00    -0.075 A 
ATOM      2  C4  UNL d   1       2.188  -4.117   0.064  0.00  0.00     0.002 A 
ATOM      3  C5  UNL d   1       1.283  -3.130   0.455  0.00  0.00     0.002 A 
ATOM      4  C6  UNL d   1       1.691  -1.801   0.542  0.00  0.00    -0.004 A 
ATOM      5  C7  UNL d   1       3.008  -1.459   0.242  0.00  0.00     0.002 A 
ATOM      6  C8  UNL d   1       3.915  -2.444  -0.154  0.00  0.00     0.002 A 
ENDROOT
BRANCH   1   7
ATOM      7  C2  UNL d   1       4.488  -4.841  -0.709  0.00  0.00     0.056 C 
BRANCH   7   8
ATOM      8  C1  UNL d   1       4.655  -6.000   0.280  0.00  0.00     0.007 C 
ATOM      9  C   UNL d   1       5.998  -5.988   0.998  0.00  0.00     0.009 C 
ENDBRANCH   7   8
ENDBRANCH   1   7
TORSDOF 2
ENDMDL
