MODEL 1
REMARK minimizedAffinity -2.86284757
REMARK minimizedRMSD -1
REMARK  2 active torsions:
REMARK  status: ('A' for Active; 'I' for Inactive)
REMARK    1  A    between atoms: C1_2  and  C2_3 
REMARK    2  A    between atoms: C2_3  and  C3_4 
ROOT
ATOM      1  C3  UNL d   1       2.844  -3.112   0.101  0.00  0.00    -0.075 A 
ATOM      2  C4  UNL d   1       1.585  -3.728   0.139  0.00  0.00     0.002 A 
ATOM      3  C5  UNL d   1       0.426  -2.965   0.284  0.00  0.00     0.002 A 
ATOM      4  C6  UNL d   1       0.512  -1.579   0.403  0.00  0.00    -0.004 A 
ATOM      5  C7  UNL d   1       1.759  -0.958   0.383  0.00  0.00     0.002 A 
ATOM      6  C8  UNL d   1       2.919  -1.719   0.233  0.00  0.00     0.002 A 
ENDROOT
BRANCH   1   7
ATOM      7  C2  UNL d   1       4.099  -3.930  -0.085  0.00  0.00     0.056 C 
BRANCH   7   8
ATOM      8  C1  UNL d   1       4.078  -5.279   0.641  0.00  0.00     0.007 C 
ATOM      9  C   UNL d   1       5.427  -5.987   0.633  0.00  0.00     0.009 C 
ENDBRANCH   7   8
ENDBRANCH   1   7
TORSDOF 2
ENDMDL
