MODEL 1
REMARK minimizedAffinity -3.15233421
REMARK minimizedRMSD -1
REMARK  2 active torsions:
REMARK  status: ('A' for Active; 'I' for Inactive)
REMARK    1  A    between atoms: C1_2  and  C2_3 
REMARK    2  A    between atoms: C2_3  and  C3_4 
ROOT
ATOM      1  C3  UNL d   1       1.158  -2.569   0.357  0.00  0.00    -0.075 A 
ATOM      2  C4  UNL d   1       1.893  -1.375   0.318  0.00  0.00     0.002 A 
ATOM      3  C5  UNL d   1       1.317  -0.175   0.735  0.00  0.00     0.002 A 
ATOM      4  C6  UNL d   1      -0.001  -0.151   1.186  0.00  0.00    -0.004 A 
ATOM      5  C7  UNL d   1      -0.746  -1.329   1.214  0.00  0.00     0.002 A 
ATOM      6  C8  UNL d   1      -0.170  -2.532   0.801  0.00  0.00     0.002 A 
ENDROOT
BRANCH   1   7
ATOM      7  C2  UNL d   1       1.785  -3.877  -0.065  0.00  0.00     0.056 C 
BRANCH   7   8
ATOM      8  C1  UNL d   1       3.315  -3.839  -0.141  0.00  0.00     0.007 C 
ATOM      9  C   UNL d   1       3.912  -5.051  -0.843  0.00  0.00     0.009 C 
ENDBRANCH   7   8
ENDBRANCH   1   7
TORSDOF 2
ENDMDL
