MODEL 1
REMARK minimizedAffinity -1.65765977
REMARK minimizedRMSD -1
REMARK  2 active torsions:
REMARK  status: ('A' for Active; 'I' for Inactive)
REMARK    1  A    between atoms: C1_2  and  C2_3 
REMARK    2  A    between atoms: C2_3  and  C3_4 
ROOT
ATOM      1  C3  UNL d   1       2.530  -3.057   0.192  0.00  0.00    -0.075 A 
ATOM      2  C4  UNL d   1       1.326  -3.708  -0.117  0.00  0.00     0.002 A 
ATOM      3  C5  UNL d   1       0.107  -3.045   0.022  0.00  0.00     0.002 A 
ATOM      4  C6  UNL d   1       0.073  -1.730   0.481  0.00  0.00    -0.004 A 
ATOM      5  C7  UNL d   1       1.261  -1.079   0.807  0.00  0.00     0.002 A 
ATOM      6  C8  UNL d   1       2.483  -1.738   0.664  0.00  0.00     0.002 A 
ENDROOT
BRANCH   1   7
ATOM      7  C2  UNL d   1       3.855  -3.758   0.016  0.00  0.00     0.056 C 
BRANCH   7   8
ATOM      8  C1  UNL d   1       3.748  -5.285  -0.052  0.00  0.00     0.007 C 
ATOM      9  C   UNL d   1       4.881  -6.000   0.673  0.00  0.00     0.009 C 
ENDBRANCH   7   8
ENDBRANCH   1   7
TORSDOF 2
ENDMDL
