MODEL 1
REMARK minimizedAffinity -0.704999864
REMARK minimizedRMSD -1
REMARK  2 active torsions:
REMARK  status: ('A' for Active; 'I' for Inactive)
REMARK    1  A    between atoms: C1_2  and  C2_3 
REMARK    2  A    between atoms: C2_3  and  C3_4 
ROOT
ATOM      1  C3  UNL d   1       3.172  -3.576  -0.126  0.00  0.00    -0.075 A 
ATOM      2  C4  UNL d   1       1.963  -4.284  -0.187  0.00  0.00     0.002 A 
ATOM      3  C5  UNL d   1       0.748  -3.630   0.015  0.00  0.00     0.002 A 
ATOM      4  C6  UNL d   1       0.726  -2.264   0.290  0.00  0.00    -0.004 A 
ATOM      5  C7  UNL d   1       1.922  -1.554   0.370  0.00  0.00     0.002 A 
ATOM      6  C8  UNL d   1       3.139  -2.206   0.163  0.00  0.00     0.002 A 
ENDROOT
BRANCH   1   7
ATOM      7  C2  UNL d   1       4.489  -4.273  -0.373  0.00  0.00     0.056 C 
BRANCH   7   8
ATOM      8  C1  UNL d   1       4.589  -5.662   0.264  0.00  0.00     0.007 C 
ATOM      9  C   UNL d   1       5.991  -6.000   0.753  0.00  0.00     0.009 C 
ENDBRANCH   7   8
ENDBRANCH   1   7
TORSDOF 2
ENDMDL
