MODEL 1
REMARK minimizedAffinity -3.36011219
REMARK minimizedRMSD -1
REMARK  2 active torsions:
REMARK  status: ('A' for Active; 'I' for Inactive)
REMARK    1  A    between atoms: C1_2  and  C2_3 
REMARK    2  A    between atoms: C2_3  and  C3_4 
ROOT
ATOM      1  C3  UNL d   1       2.811  -3.225  -0.016  0.00  0.00    -0.075 A 
ATOM      2  C4  UNL d   1       1.573  -3.852   0.183  0.00  0.00     0.002 A 
ATOM      3  C5  UNL d   1       0.422  -3.094   0.404  0.00  0.00     0.002 A 
ATOM      4  C6  UNL d   1       0.496  -1.704   0.438  0.00  0.00    -0.004 A 
ATOM      5  C7  UNL d   1       1.724  -1.070   0.258  0.00  0.00     0.002 A 
ATOM      6  C8  UNL d   1       2.876  -1.826   0.033  0.00  0.00     0.002 A 
ENDROOT
BRANCH   1   7
ATOM      7  C2  UNL d   1       4.054  -4.038  -0.285  0.00  0.00     0.056 C 
BRANCH   7   8
ATOM      8  C1  UNL d   1       4.117  -5.357   0.492  0.00  0.00     0.007 C 
ATOM      9  C   UNL d   1       5.540  -5.826   0.766  0.00  0.00     0.009 C 
ENDBRANCH   7   8
ENDBRANCH   1   7
TORSDOF 2
ENDMDL
