MODEL 1
REMARK minimizedAffinity 4.62515211
REMARK minimizedRMSD -1
REMARK  2 active torsions:
REMARK  status: ('A' for Active; 'I' for Inactive)
REMARK    1  A    between atoms: C1_2  and  C2_3 
REMARK    2  A    between atoms: C2_3  and  C3_4 
ROOT
ATOM      1  C3  UNL d   1      -1.968   3.076   1.130  0.00  0.00    -0.075 A 
ATOM      2  C4  UNL d   1      -1.599   1.985   1.931  0.00  0.00     0.002 A 
ATOM      3  C5  UNL d   1      -2.169   0.728   1.723  0.00  0.00     0.002 A 
ATOM      4  C6  UNL d   1      -3.120   0.549   0.721  0.00  0.00    -0.004 A 
ATOM      5  C7  UNL d   1      -3.507   1.629  -0.069  0.00  0.00     0.002 A 
ATOM      6  C8  UNL d   1      -2.935   2.886   0.134  0.00  0.00     0.002 A 
ENDROOT
BRANCH   1   7
ATOM      7  C2  UNL d   1      -1.333   4.431   1.331  0.00  0.00     0.056 C 
BRANCH   7   8
ATOM      8  C1  UNL d   1      -1.793   5.490   0.323  0.00  0.00     0.007 C 
ATOM      9  C   UNL d   1      -0.675   5.975  -0.591  0.00  0.00     0.009 C 
ENDBRANCH   7   8
ENDBRANCH   1   7
TORSDOF 2
ENDMDL
