MODEL 1
REMARK minimizedAffinity -4.40891218
REMARK minimizedRMSD -1
REMARK  2 active torsions:
REMARK  status: ('A' for Active; 'I' for Inactive)
REMARK    1  A    between atoms: C1_2  and  C2_3 
REMARK    2  A    between atoms: C2_3  and  C3_4 
ROOT
ATOM      1  C3  UNL d   1       1.126  -2.862   0.221  0.00  0.00    -0.075 A 
ATOM      2  C4  UNL d   1       1.709  -1.673   0.681  0.00  0.00     0.002 A 
ATOM      3  C5  UNL d   1       0.910  -0.615   1.117  0.00  0.00     0.002 A 
ATOM      4  C6  UNL d   1      -0.478  -0.729   1.088  0.00  0.00    -0.004 A 
ATOM      5  C7  UNL d   1      -1.068  -1.900   0.617  0.00  0.00     0.002 A 
ATOM      6  C8  UNL d   1      -0.271  -2.961   0.185  0.00  0.00     0.002 A 
ENDROOT
BRANCH   1   7
ATOM      7  C2  UNL d   1       1.986  -4.021  -0.225  0.00  0.00     0.056 C 
BRANCH   7   8
ATOM      8  C1  UNL d   1       3.488  -3.796  -0.026  0.00  0.00     0.007 C 
ATOM      9  C   UNL d   1       4.290  -5.091   0.011  0.00  0.00     0.009 C 
ENDBRANCH   7   8
ENDBRANCH   1   7
TORSDOF 2
ENDMDL
