MODEL 1
REMARK minimizedAffinity -2.44112182
REMARK minimizedRMSD -1
REMARK  2 active torsions:
REMARK  status: ('A' for Active; 'I' for Inactive)
REMARK    1  A    between atoms: C1_2  and  C2_3 
REMARK    2  A    between atoms: C2_3  and  C3_4 
ROOT
ATOM      1  C3  UNL d   1       1.079  -2.859   0.274  0.00  0.00    -0.075 A 
ATOM      2  C4  UNL d   1       1.795  -1.665   0.438  0.00  0.00     0.002 A 
ATOM      3  C5  UNL d   1       1.151  -0.507   0.875  0.00  0.00     0.002 A 
ATOM      4  C6  UNL d   1      -0.216  -0.526   1.144  0.00  0.00    -0.004 A 
ATOM      5  C7  UNL d   1      -0.941  -1.703   0.969  0.00  0.00     0.002 A 
ATOM      6  C8  UNL d   1      -0.298  -2.864   0.536  0.00  0.00     0.002 A 
ENDROOT
BRANCH   1   7
ATOM      7  C2  UNL d   1       1.775  -4.123  -0.171  0.00  0.00     0.056 C 
BRANCH   7   8
ATOM      8  C1  UNL d   1       3.296  -3.985  -0.297  0.00  0.00     0.007 C 
ATOM      9  C   UNL d   1       4.022  -5.324  -0.298  0.00  0.00     0.009 C 
ENDBRANCH   7   8
ENDBRANCH   1   7
TORSDOF 2
ENDMDL
