MODEL 1
REMARK minimizedAffinity -0.200788036
REMARK minimizedRMSD -1
REMARK  2 active torsions:
REMARK  status: ('A' for Active; 'I' for Inactive)
REMARK    1  A    between atoms: C1_2  and  C2_3 
REMARK    2  A    between atoms: C2_3  and  C3_4 
ROOT
ATOM      1  C3  UNL d   1       1.754   3.179  -4.616  0.00  0.00    -0.075 A 
ATOM      2  C4  UNL d   1       1.399   1.832  -4.777  0.00  0.00     0.002 A 
ATOM      3  C5  UNL d   1       2.261   0.817  -4.361  0.00  0.00     0.002 A 
ATOM      4  C6  UNL d   1       3.492   1.135  -3.790  0.00  0.00    -0.004 A 
ATOM      5  C7  UNL d   1       3.862   2.470  -3.641  0.00  0.00     0.002 A 
ATOM      6  C8  UNL d   1       2.999   3.487  -4.052  0.00  0.00     0.002 A 
ENDROOT
BRANCH   1   7
ATOM      7  C2  UNL d   1       0.812   4.282  -5.037  0.00  0.00     0.056 C 
BRANCH   7   8
ATOM      8  C1  UNL d   1      -0.130   4.755  -3.925  0.00  0.00     0.007 C 
ATOM      9  C   UNL d   1      -0.931   5.993  -4.305  0.00  0.00     0.009 C 
ENDBRANCH   7   8
ENDBRANCH   1   7
TORSDOF 2
ENDMDL
