MODEL 1
REMARK minimizedAffinity 6.61159468
REMARK minimizedRMSD -1
REMARK  2 active torsions:
REMARK  status: ('A' for Active; 'I' for Inactive)
REMARK    1  A    between atoms: C1_2  and  C2_3 
REMARK    2  A    between atoms: C2_3  and  C3_4 
ROOT
ATOM      1  C3  UNL d   1       1.171  -0.232  -0.768  0.00  0.00    -0.075 A 
ATOM      2  C4  UNL d   1      -0.019  -0.973  -0.712  0.00  0.00     0.002 A 
ATOM      3  C5  UNL d   1      -0.259  -1.848   0.348  0.00  0.00     0.002 A 
ATOM      4  C6  UNL d   1       0.689  -2.000   1.358  0.00  0.00    -0.004 A 
ATOM      5  C7  UNL d   1       1.881  -1.281   1.304  0.00  0.00     0.002 A 
ATOM      6  C8  UNL d   1       2.122  -0.402   0.247  0.00  0.00     0.002 A 
ENDROOT
BRANCH   1   7
ATOM      7  C2  UNL d   1       1.424   0.738  -1.897  0.00  0.00     0.056 C 
BRANCH   7   8
ATOM      8  C1  UNL d   1       1.895   0.075  -3.195  0.00  0.00     0.007 C 
ATOM      9  C   UNL d   1       3.410   0.066  -3.349  0.00  0.00     0.009 C 
ENDBRANCH   7   8
ENDBRANCH   1   7
TORSDOF 2
ENDMDL
