MODEL 1
REMARK minimizedAffinity 9.55173397
REMARK minimizedRMSD -1
REMARK  2 active torsions:
REMARK  status: ('A' for Active; 'I' for Inactive)
REMARK    1  A    between atoms: C1_2  and  C2_3 
REMARK    2  A    between atoms: C2_3  and  C3_4 
ROOT
ATOM      1  C3  UNL d   1       1.079  -1.068   0.673  0.00  0.00    -0.075 A 
ATOM      2  C4  UNL d   1       1.932   0.040   0.793  0.00  0.00     0.002 A 
ATOM      3  C5  UNL d   1       1.867   1.086  -0.127  0.00  0.00     0.002 A 
ATOM      4  C6  UNL d   1       0.958   1.036  -1.182  0.00  0.00    -0.004 A 
ATOM      5  C7  UNL d   1       0.118  -0.067  -1.320  0.00  0.00     0.002 A 
ATOM      6  C8  UNL d   1       0.178  -1.114  -0.399  0.00  0.00     0.002 A 
ENDROOT
BRANCH   1   7
ATOM      7  C2  UNL d   1       1.124  -2.190   1.682  0.00  0.00     0.056 C 
BRANCH   7   8
ATOM      8  C1  UNL d   1       2.410  -2.230   2.513  0.00  0.00     0.007 C 
ATOM      9  C   UNL d   1       2.273  -1.544   3.866  0.00  0.00     0.009 C 
ENDBRANCH   7   8
ENDBRANCH   1   7
TORSDOF 2
ENDMDL
