MODEL 1
REMARK minimizedAffinity 8.502285
REMARK minimizedRMSD -1
REMARK  2 active torsions:
REMARK  status: ('A' for Active; 'I' for Inactive)
REMARK    1  A    between atoms: C1_2  and  C2_3 
REMARK    2  A    between atoms: C2_3  and  C3_4 
ROOT
ATOM      1  C3  UNL d   1       1.128  -0.898   0.350  0.00  0.00    -0.075 A 
ATOM      2  C4  UNL d   1       0.400  -0.948  -0.847  0.00  0.00     0.002 A 
ATOM      3  C5  UNL d   1       0.565   0.039  -1.819  0.00  0.00     0.002 A 
ATOM      4  C6  UNL d   1       1.451   1.092  -1.603  0.00  0.00    -0.004 A 
ATOM      5  C7  UNL d   1       2.167   1.162  -0.411  0.00  0.00     0.002 A 
ATOM      6  C8  UNL d   1       2.007   0.173   0.562  0.00  0.00     0.002 A 
ENDROOT
BRANCH   1   7
ATOM      7  C2  UNL d   1       0.976  -1.979   1.393  0.00  0.00     0.056 C 
BRANCH   7   8
ATOM      8  C1  UNL d   1       0.723  -1.448   2.808  0.00  0.00     0.007 C 
ATOM      9  C   UNL d   1      -0.740  -1.528   3.226  0.00  0.00     0.009 C 
ENDBRANCH   7   8
ENDBRANCH   1   7
TORSDOF 2
ENDMDL
