MODEL 1
REMARK minimizedAffinity 10.2416954
REMARK minimizedRMSD -1
REMARK  2 active torsions:
REMARK  status: ('A' for Active; 'I' for Inactive)
REMARK    1  A    between atoms: C1_2  and  C2_3 
REMARK    2  A    between atoms: C2_3  and  C3_4 
ROOT
ATOM      1  C3  UNL d   1       2.867  -2.831   3.185  0.00  0.00    -0.075 A 
ATOM      2  C4  UNL d   1       3.008  -3.857   2.239  0.00  0.00     0.002 A 
ATOM      3  C5  UNL d   1       2.241  -3.857   1.074  0.00  0.00     0.002 A 
ATOM      4  C6  UNL d   1       1.317  -2.840   0.845  0.00  0.00    -0.004 A 
ATOM      5  C7  UNL d   1       1.156  -1.825   1.786  0.00  0.00     0.002 A 
ATOM      6  C8  UNL d   1       1.926  -1.820   2.950  0.00  0.00     0.002 A 
ENDROOT
BRANCH   1   7
ATOM      7  C2  UNL d   1       3.715  -2.810   4.434  0.00  0.00     0.056 C 
BRANCH   7   8
ATOM      8  C1  UNL d   1       3.727  -4.135   5.203  0.00  0.00     0.007 C 
ATOM      9  C   UNL d   1       5.006  -4.356   5.999  0.00  0.00     0.009 C 
ENDBRANCH   7   8
ENDBRANCH   1   7
TORSDOF 2
ENDMDL
