MODEL 1
REMARK minimizedAffinity 14.1063204
REMARK minimizedRMSD -1
REMARK  2 active torsions:
REMARK  status: ('A' for Active; 'I' for Inactive)
REMARK    1  A    between atoms: C1_2  and  C2_3 
REMARK    2  A    between atoms: C2_3  and  C3_4 
ROOT
ATOM      1  C3  UNL d   1      -3.406  -1.229  -2.129  0.00  0.00    -0.075 A 
ATOM      2  C4  UNL d   1      -3.669  -2.385  -2.879  0.00  0.00     0.002 A 
ATOM      3  C5  UNL d   1      -4.702  -2.402  -3.817  0.00  0.00     0.002 A 
ATOM      4  C6  UNL d   1      -5.491  -1.270  -4.009  0.00  0.00    -0.004 A 
ATOM      5  C7  UNL d   1      -5.250  -0.121  -3.258  0.00  0.00     0.002 A 
ATOM      6  C8  UNL d   1      -4.214  -0.100  -2.322  0.00  0.00     0.002 A 
ENDROOT
BRANCH   1   7
ATOM      7  C2  UNL d   1      -2.271  -1.195  -1.134  0.00  0.00     0.056 C 
BRANCH   7   8
ATOM      8  C1  UNL d   1      -0.937  -1.703  -1.692  0.00  0.00     0.007 C 
ATOM      9  C   UNL d   1       0.216  -0.735  -1.464  0.00  0.00     0.009 C 
ENDBRANCH   7   8
ENDBRANCH   1   7
TORSDOF 2
ENDMDL
