MODEL 1
REMARK minimizedAffinity -4.95964766
REMARK minimizedRMSD -1
REMARK  0 active torsions:
REMARK  status: ('A' for Active; 'I' for Inactive)
ROOT
ATOM      1  C4' PXY d   1       0.042  -1.461  -0.017  0.00  0.00     0.077 C 
ATOM      2  C1' PXY d   1       0.520   4.299  -0.133  0.00  0.00     0.077 C 
ATOM      3  C1  PXY d   1       0.388   2.789  -0.091  0.00  0.00    -0.082 A 
ATOM      4  C2  PXY d   1       1.251   2.039  -0.756  0.00  0.00     0.003 A 
ATOM      5  C3  PXY d   1       1.128   0.673  -0.755  0.00  0.00     0.003 A 
ATOM      6  C4  PXY d   1       0.142   0.067  -0.023  0.00  0.00    -0.082 A 
ATOM      7  C5  PXY d   1      -0.736   0.826   0.667  0.00  0.00     0.003 A 
ATOM      8  C6  PXY d   1      -0.618   2.212   0.620  0.00  0.00     0.003 A 
ENDROOT
TORSDOF 0
ENDMDL
