MODEL 1
REMARK minimizedAffinity -0.410207689
REMARK minimizedRMSD -1
REMARK  0 active torsions:
REMARK  status: ('A' for Active; 'I' for Inactive)
ROOT
ATOM      1  C4' PXY d   1       0.957   3.020  -0.181  0.00  0.00     0.077 C 
ATOM      2  C1' PXY d   1       0.267  -2.696   0.340  0.00  0.00     0.077 C 
ATOM      3  C1  PXY d   1       0.460  -1.198   0.209  0.00  0.00    -0.082 A 
ATOM      4  C2  PXY d   1      -0.597  -0.406   0.133  0.00  0.00     0.003 A 
ATOM      5  C3  PXY d   1      -0.441   0.947  -0.018  0.00  0.00     0.003 A 
ATOM      6  C4  PXY d   1       0.810   1.502  -0.038  0.00  0.00    -0.082 A 
ATOM      7  C5  PXY d   1       1.894   0.703   0.049  0.00  0.00     0.003 A 
ATOM      8  C6  PXY d   1       1.715  -0.673   0.160  0.00  0.00     0.003 A 
ENDROOT
TORSDOF 0
ENDMDL
