MODEL 1
REMARK minimizedAffinity -1.92277825
REMARK minimizedRMSD -1
REMARK  0 active torsions:
REMARK  status: ('A' for Active; 'I' for Inactive)
ROOT
ATOM      1  C4' PXY d   1       2.817   2.250  -0.686  0.00  0.00     0.077 C 
ATOM      2  C1' PXY d   1      -0.660  -2.361  -0.425  0.00  0.00     0.077 C 
ATOM      3  C1  PXY d   1       0.256  -1.155  -0.482  0.00  0.00    -0.082 A 
ATOM      4  C2  PXY d   1      -0.059  -0.129  -1.256  0.00  0.00     0.003 A 
ATOM      5  C3  PXY d   1       0.775   0.956  -1.344  0.00  0.00     0.003 A 
ATOM      6  C4  PXY d   1       1.916   1.015  -0.590  0.00  0.00    -0.082 A 
ATOM      7  C5  PXY d   1       2.239  -0.022   0.211  0.00  0.00     0.003 A 
ATOM      8  C6  PXY d   1       1.401  -1.132   0.254  0.00  0.00     0.003 A 
ENDROOT
TORSDOF 0
ENDMDL
