MODEL 1
REMARK minimizedAffinity 1.89818609
REMARK minimizedRMSD -1
REMARK  0 active torsions:
REMARK  status: ('A' for Active; 'I' for Inactive)
ROOT
ATOM      1  C4' PXY d   1      -2.233  -4.214  -1.681  0.00  0.00     0.077 C 
ATOM      2  C1' PXY d   1       2.190  -0.936   0.081  0.00  0.00     0.077 C 
ATOM      3  C1  PXY d   1       1.034  -1.794  -0.393  0.00  0.00    -0.082 A 
ATOM      4  C2  PXY d   1      -0.035  -1.934   0.374  0.00  0.00     0.003 A 
ATOM      5  C3  PXY d   1      -1.076  -2.732  -0.025  0.00  0.00     0.003 A 
ATOM      6  C4  PXY d   1      -1.046  -3.350  -1.247  0.00  0.00    -0.082 A 
ATOM      7  C5  PXY d   1       0.036  -3.204  -2.040  0.00  0.00     0.003 A 
ATOM      8  C6  PXY d   1       1.100  -2.423  -1.598  0.00  0.00     0.003 A 
ENDROOT
TORSDOF 0
ENDMDL
