MODEL 1
REMARK minimizedAffinity -1.82088315
REMARK minimizedRMSD -1
REMARK  0 active torsions:
REMARK  status: ('A' for Active; 'I' for Inactive)
ROOT
ATOM      1  C4' PXY d   1      -2.231  -4.040  -1.856  0.00  0.00     0.077 C 
ATOM      2  C1' PXY d   1       2.033  -0.637   0.055  0.00  0.00     0.077 C 
ATOM      3  C1  PXY d   1       0.919  -1.528  -0.458  0.00  0.00    -0.082 A 
ATOM      4  C2  PXY d   1      -0.191  -1.661   0.250  0.00  0.00     0.003 A 
ATOM      5  C3  PXY d   1      -1.195  -2.488  -0.184  0.00  0.00     0.003 A 
ATOM      6  C4  PXY d   1      -1.084  -3.144  -1.381  0.00  0.00    -0.082 A 
ATOM      7  C5  PXY d   1       0.041  -3.005  -2.114  0.00  0.00     0.003 A 
ATOM      8  C6  PXY d   1       1.066  -2.193  -1.636  0.00  0.00     0.003 A 
ENDROOT
TORSDOF 0
ENDMDL
