MODEL 1
REMARK minimizedAffinity -5.83516788
REMARK minimizedRMSD -1
REMARK  0 active torsions:
REMARK  status: ('A' for Active; 'I' for Inactive)
ROOT
ATOM      1  C4' PXY d   1       0.159   3.737   0.592  0.00  0.00     0.077 C 
ATOM      2  C1' PXY d   1      -0.211  -1.882  -0.715  0.00  0.00     0.077 C 
ATOM      3  C1  PXY d   1      -0.103  -0.411  -0.366  0.00  0.00    -0.082 A 
ATOM      4  C2  PXY d   1      -1.196   0.333  -0.320  0.00  0.00     0.003 A 
ATOM      5  C3  PXY d   1      -1.113   1.672  -0.038  0.00  0.00     0.003 A 
ATOM      6  C4  PXY d   1       0.096   2.245   0.253  0.00  0.00    -0.082 A 
ATOM      7  C5  PXY d   1       1.215   1.491   0.219  0.00  0.00     0.003 A 
ATOM      8  C6  PXY d   1       1.114   0.142  -0.111  0.00  0.00     0.003 A 
ENDROOT
TORSDOF 0
ENDMDL
