MODEL 1
REMARK minimizedAffinity -0.512751877
REMARK minimizedRMSD -1
REMARK  0 active torsions:
REMARK  status: ('A' for Active; 'I' for Inactive)
ROOT
ATOM      1  C4' PXY d   1      -0.730  -3.816  -2.686  0.00  0.00     0.077 C 
ATOM      2  C1' PXY d   1      -0.232   0.866   0.668  0.00  0.00     0.077 C 
ATOM      3  C1  PXY d   1      -0.369  -0.355  -0.220  0.00  0.00    -0.082 A 
ATOM      4  C2  PXY d   1      -0.352  -1.562   0.320  0.00  0.00     0.003 A 
ATOM      5  C3  PXY d   1      -0.442  -2.678  -0.472  0.00  0.00     0.003 A 
ATOM      6  C4  PXY d   1      -0.604  -2.555  -1.826  0.00  0.00    -0.082 A 
ATOM      7  C5  PXY d   1      -0.633  -1.326  -2.384  0.00  0.00     0.003 A 
ATOM      8  C6  PXY d   1      -0.499  -0.207  -1.567  0.00  0.00     0.003 A 
ENDROOT
TORSDOF 0
ENDMDL
