MODEL 1
REMARK minimizedAffinity -4.48795509
REMARK minimizedRMSD -1
REMARK  0 active torsions:
REMARK  status: ('A' for Active; 'I' for Inactive)
ROOT
ATOM      1  C4' PXY d   1       0.328   3.349  -0.146  0.00  0.00     0.077 C 
ATOM      2  C1' PXY d   1       0.296  -2.418   0.250  0.00  0.00     0.077 C 
ATOM      3  C1  PXY d   1       0.317  -0.905   0.150  0.00  0.00    -0.082 A 
ATOM      4  C2  PXY d   1      -0.817  -0.228   0.233  0.00  0.00     0.003 A 
ATOM      5  C3  PXY d   1      -0.820   1.137   0.113  0.00  0.00     0.003 A 
ATOM      6  C4  PXY d   1       0.356   1.822  -0.041  0.00  0.00    -0.082 A 
ATOM      7  C5  PXY d   1       1.518   1.139  -0.115  0.00  0.00     0.003 A 
ATOM      8  C6  PXY d   1       1.495  -0.250  -0.032  0.00  0.00     0.003 A 
ENDROOT
TORSDOF 0
ENDMDL
