MODEL 1
REMARK minimizedAffinity -5.12601614
REMARK minimizedRMSD -1
REMARK  0 active torsions:
REMARK  status: ('A' for Active; 'I' for Inactive)
ROOT
ATOM      1  C4' PXY d   1      -0.500  -2.104  -0.312  0.00  0.00     0.077 C 
ATOM      2  C1' PXY d   1       0.450   3.578   0.172  0.00  0.00     0.077 C 
ATOM      3  C1  PXY d   1       0.191   2.089   0.053  0.00  0.00    -0.082 A 
ATOM      4  C2  PXY d   1       1.187   1.274  -0.256  0.00  0.00     0.003 A 
ATOM      5  C3  PXY d   1       0.963  -0.071  -0.399  0.00  0.00     0.003 A 
ATOM      6  C4  PXY d   1      -0.282  -0.595  -0.172  0.00  0.00    -0.082 A 
ATOM      7  C5  PXY d   1      -1.301   0.229   0.154  0.00  0.00     0.003 A 
ATOM      8  C6  PXY d   1      -1.062   1.596   0.254  0.00  0.00     0.003 A 
ENDROOT
TORSDOF 0
ENDMDL
