MODEL 1
REMARK minimizedAffinity -1.24593294
REMARK minimizedRMSD -1
REMARK  0 active torsions:
REMARK  status: ('A' for Active; 'I' for Inactive)
ROOT
ATOM      1  C4' PXY d   1      -0.332  -2.585  -0.902  0.00  0.00     0.077 C 
ATOM      2  C1' PXY d   1      -0.269   2.918   0.866  0.00  0.00     0.077 C 
ATOM      3  C1  PXY d   1      -0.272   1.476   0.401  0.00  0.00    -0.082 A 
ATOM      4  C2  PXY d   1      -1.381   0.952  -0.097  0.00  0.00     0.003 A 
ATOM      5  C3  PXY d   1      -1.411  -0.361  -0.493  0.00  0.00     0.003 A 
ATOM      6  C4  PXY d   1      -0.280  -1.130  -0.428  0.00  0.00    -0.082 A 
ATOM      7  C5  PXY d   1       0.858  -0.599   0.069  0.00  0.00     0.003 A 
ATOM      8  C6  PXY d   1       0.856   0.723   0.503  0.00  0.00     0.003 A 
ENDROOT
TORSDOF 0
ENDMDL
