MODEL 1
REMARK minimizedAffinity -3.86349916
REMARK minimizedRMSD -1
REMARK  0 active torsions:
REMARK  status: ('A' for Active; 'I' for Inactive)
ROOT
ATOM      1  C4' PXY d   1      -0.293  -2.166   0.252  0.00  0.00     0.077 C 
ATOM      2  C1' PXY d   1       0.262   3.559  -0.332  0.00  0.00     0.077 C 
ATOM      3  C1  PXY d   1       0.125   2.056  -0.188  0.00  0.00    -0.082 A 
ATOM      4  C2  PXY d   1      -1.003   1.543   0.275  0.00  0.00     0.003 A 
ATOM      5  C3  PXY d   1      -1.132   0.188   0.442  0.00  0.00     0.003 A 
ATOM      6  C4  PXY d   1      -0.114  -0.655   0.081  0.00  0.00    -0.082 A 
ATOM      7  C5  PXY d   1       1.036  -0.139  -0.401  0.00  0.00     0.003 A 
ATOM      8  C6  PXY d   1       1.162   1.241  -0.524  0.00  0.00     0.003 A 
ENDROOT
TORSDOF 0
ENDMDL
