MODEL 1
REMARK minimizedAffinity -1.39092124
REMARK minimizedRMSD -1
REMARK  0 active torsions:
REMARK  status: ('A' for Active; 'I' for Inactive)
ROOT
ATOM      1  C4' PXY d   1       0.063   3.248   0.838  0.00  0.00     0.077 C 
ATOM      2  C1' PXY d   1      -0.304  -2.447  -0.083  0.00  0.00     0.077 C 
ATOM      3  C1  PXY d   1      -0.221  -0.953   0.157  0.00  0.00    -0.082 A 
ATOM      4  C2  PXY d   1       0.911  -0.313  -0.088  0.00  0.00     0.003 A 
ATOM      5  C3  PXY d   1       1.013   1.033   0.154  0.00  0.00     0.003 A 
ATOM      6  C4  PXY d   1      -0.070   1.741   0.601  0.00  0.00    -0.082 A 
ATOM      7  C5  PXY d   1      -1.231   1.097   0.844  0.00  0.00     0.003 A 
ATOM      8  C6  PXY d   1      -1.303  -0.276   0.631  0.00  0.00     0.003 A 
ENDROOT
TORSDOF 0
ENDMDL
