MODEL 1
REMARK minimizedAffinity -4.5984149
REMARK minimizedRMSD -1
REMARK  0 active torsions:
REMARK  status: ('A' for Active; 'I' for Inactive)
ROOT
ATOM      1  C4' PXY d   1       0.041  -2.168   0.076  0.00  0.00     0.077 C 
ATOM      2  C1' PXY d   1       0.020   3.613   0.085  0.00  0.00     0.077 C 
ATOM      3  C1  PXY d   1       0.014   2.097   0.089  0.00  0.00    -0.082 A 
ATOM      4  C2  PXY d   1       1.158   1.438   0.003  0.00  0.00     0.003 A 
ATOM      5  C3  PXY d   1       1.169   0.067  -0.027  0.00  0.00     0.003 A 
ATOM      6  C4  PXY d   1       0.000  -0.637   0.085  0.00  0.00    -0.082 A 
ATOM      7  C5  PXY d   1      -1.171   0.027   0.183  0.00  0.00     0.003 A 
ATOM      8  C6  PXY d   1      -1.163   1.419   0.171  0.00  0.00     0.003 A 
ENDROOT
TORSDOF 0
ENDMDL
