MODEL 1
REMARK minimizedAffinity -0.427296728
REMARK minimizedRMSD -1
REMARK  0 active torsions:
REMARK  status: ('A' for Active; 'I' for Inactive)
ROOT
ATOM      1  C4' PXY d   1      -0.680   3.021   0.754  0.00  0.00     0.077 C 
ATOM      2  C1' PXY d   1      -0.446  -2.638  -0.404  0.00  0.00     0.077 C 
ATOM      3  C1  PXY d   1      -0.520  -1.154  -0.102  0.00  0.00    -0.082 A 
ATOM      4  C2  PXY d   1       0.529  -0.385  -0.340  0.00  0.00     0.003 A 
ATOM      5  C3  PXY d   1       0.490   0.953  -0.042  0.00  0.00     0.003 A 
ATOM      6  C4  PXY d   1      -0.653   1.519   0.455  0.00  0.00    -0.082 A 
ATOM      7  C5  PXY d   1      -1.732   0.742   0.691  0.00  0.00     0.003 A 
ATOM      8  C6  PXY d   1      -1.658  -0.621   0.420  0.00  0.00     0.003 A 
ENDROOT
TORSDOF 0
ENDMDL
