MODEL 1
REMARK minimizedAffinity -2.17735004
REMARK minimizedRMSD -1
REMARK  0 active torsions:
REMARK  status: ('A' for Active; 'I' for Inactive)
ROOT
ATOM      1  C4' PXY d   1      -1.166   3.504   3.352  0.00  0.00     0.077 C 
ATOM      2  C1' PXY d   1      -0.145  -0.186  -0.978  0.00  0.00     0.077 C 
ATOM      3  C1  PXY d   1      -0.402   0.788   0.154  0.00  0.00    -0.082 A 
ATOM      4  C2  PXY d   1      -1.170   0.424   1.168  0.00  0.00     0.003 A 
ATOM      5  C3  PXY d   1      -1.439   1.304   2.186  0.00  0.00     0.003 A 
ATOM      6  C4  PXY d   1      -0.872   2.550   2.191  0.00  0.00    -0.082 A 
ATOM      7  C5  PXY d   1      -0.079   2.925   1.166  0.00  0.00     0.003 A 
ATOM      8  C6  PXY d   1       0.149   2.032   0.123  0.00  0.00     0.003 A 
ENDROOT
TORSDOF 0
ENDMDL
