MODEL 1
REMARK minimizedAffinity -3.55066633
REMARK minimizedRMSD -1
REMARK  0 active torsions:
REMARK  status: ('A' for Active; 'I' for Inactive)
ROOT
ATOM      1  C4' PXY d   1      -4.106  -5.304   0.222  0.00  0.00     0.077 C 
ATOM      2  C1' PXY d   1       0.462  -2.729  -2.210  0.00  0.00     0.077 C 
ATOM      3  C1  PXY d   1      -0.743  -3.395  -1.577  0.00  0.00    -0.082 A 
ATOM      4  C2  PXY d   1      -0.576  -4.204  -0.544  0.00  0.00     0.003 A 
ATOM      5  C3  PXY d   1      -1.652  -4.840   0.021  0.00  0.00     0.003 A 
ATOM      6  C4  PXY d   1      -2.918  -4.603  -0.443  0.00  0.00    -0.082 A 
ATOM      7  C5  PXY d   1      -3.098  -3.770  -1.490  0.00  0.00     0.003 A 
ATOM      8  C6  PXY d   1      -1.989  -3.167  -2.076  0.00  0.00     0.003 A 
ENDROOT
TORSDOF 0
ENDMDL
