MODEL 1
REMARK minimizedAffinity -4.5571866
REMARK minimizedRMSD -1
REMARK  0 active torsions:
REMARK  status: ('A' for Active; 'I' for Inactive)
ROOT
ATOM      1  C4' PXY d   1       3.007   2.334   1.405  0.00  0.00     0.077 C 
ATOM      2  C1' PXY d   1      -2.230   0.363  -0.048  0.00  0.00     0.077 C 
ATOM      3  C1  PXY d   1      -0.860   0.892   0.331  0.00  0.00    -0.082 A 
ATOM      4  C2  PXY d   1       0.199   0.109   0.214  0.00  0.00     0.003 A 
ATOM      5  C3  PXY d   1       1.440   0.560   0.582  0.00  0.00     0.003 A 
ATOM      6  C4  PXY d   1       1.607   1.845   1.025  0.00  0.00    -0.082 A 
ATOM      7  C5  PXY d   1       0.532   2.654   1.138  0.00  0.00     0.003 A 
ATOM      8  C6  PXY d   1      -0.725   2.163   0.798  0.00  0.00     0.003 A 
ENDROOT
TORSDOF 0
ENDMDL
