MODEL 1
REMARK minimizedAffinity -5.40596771
REMARK minimizedRMSD -1
REMARK  0 active torsions:
REMARK  status: ('A' for Active; 'I' for Inactive)
ROOT
ATOM      1  C4' PXY d   1      -0.745  -2.591  -1.208  0.00  0.00     0.077 C 
ATOM      2  C1' PXY d   1       0.836   2.733   0.395  0.00  0.00     0.077 C 
ATOM      3  C1  PXY d   1       0.434   1.333  -0.026  0.00  0.00    -0.082 A 
ATOM      4  C2  PXY d   1      -0.749   1.133  -0.585  0.00  0.00     0.003 A 
ATOM      5  C3  PXY d   1      -1.141  -0.131  -0.943  0.00  0.00     0.003 A 
ATOM      6  C4  PXY d   1      -0.293  -1.193  -0.775  0.00  0.00    -0.082 A 
ATOM      7  C5  PXY d   1       0.919  -0.995  -0.215  0.00  0.00     0.003 A 
ATOM      8  C6  PXY d   1       1.282   0.289   0.179  0.00  0.00     0.003 A 
ENDROOT
TORSDOF 0
ENDMDL
