MODEL 1
REMARK minimizedAffinity 9.31670856
REMARK minimizedRMSD -1
REMARK  0 active torsions:
REMARK  status: ('A' for Active; 'I' for Inactive)
ROOT
ATOM      1  C   UNL d   1      -1.747   1.445   1.852  0.00  0.00     0.124 A 
ATOM      2  C1  UNL d   1      -0.741   2.206   1.274  0.00  0.00     0.062 A 
ATOM      3  C2  UNL d   1       0.415   1.594   0.798  0.00  0.00     0.162 A 
ATOM      4  C3  UNL d   1       0.570   0.211   0.897  0.00  0.00    -0.034 A 
ATOM      5  C4  UNL d   1      -0.446  -0.548   1.480  0.00  0.00     0.162 A 
ATOM      6  C5  UNL d   1      -1.599   0.069   1.955  0.00  0.00     0.062 A 
ATOM      7  F   UNL d   1      -2.570  -0.669   2.513  0.00  0.00    -0.097 F 
ATOM      8  F1  UNL d   1      -0.328  -1.880   1.591  0.00  0.00    -0.096 F 
ATOM      9  I   UNL d   1       2.297  -0.708   0.187  0.00  0.00    -0.060 I 
ATOM     10  F2  UNL d   1       1.371   2.355   0.244  0.00  0.00    -0.096 F 
ATOM     11  F3  UNL d   1      -0.882   3.536   1.174  0.00  0.00    -0.097 F 
ATOM     12  F4  UNL d   1      -2.858   2.037   2.310  0.00  0.00    -0.092 F 
ENDROOT
TORSDOF 0
ENDMDL
