MODEL 1
REMARK minimizedAffinity 10.8366947
REMARK minimizedRMSD -1
REMARK  0 active torsions:
REMARK  status: ('A' for Active; 'I' for Inactive)
ROOT
ATOM      1  C   UNL d   1      -3.966  -2.036  -2.639  0.00  0.00     0.124 A 
ATOM      2  C1  UNL d   1      -3.870  -1.930  -1.258  0.00  0.00     0.062 A 
ATOM      3  C2  UNL d   1      -4.014  -3.060  -0.458  0.00  0.00     0.162 A 
ATOM      4  C3  UNL d   1      -4.255  -4.306  -1.037  0.00  0.00    -0.034 A 
ATOM      5  C4  UNL d   1      -4.351  -4.405  -2.426  0.00  0.00     0.162 A 
ATOM      6  C5  UNL d   1      -4.206  -3.272  -3.222  0.00  0.00     0.062 A 
ATOM      7  F   UNL d   1      -4.300  -3.376  -4.555  0.00  0.00    -0.097 F 
ATOM      8  F1  UNL d   1      -4.581  -5.587  -3.016  0.00  0.00    -0.096 F 
ATOM      9  I   UNL d   1      -4.470  -5.998   0.156  0.00  0.00    -0.060 I 
ATOM     10  F2  UNL d   1      -3.917  -2.929   0.873  0.00  0.00    -0.096 F 
ATOM     11  F3  UNL d   1      -3.640  -0.737  -0.693  0.00  0.00    -0.097 F 
ATOM     12  F4  UNL d   1      -3.829  -0.947  -3.406  0.00  0.00    -0.092 F 
ENDROOT
TORSDOF 0
ENDMDL
