MODEL 1
REMARK minimizedAffinity 5.63002634
REMARK minimizedRMSD -1
REMARK  0 active torsions:
REMARK  status: ('A' for Active; 'I' for Inactive)
ROOT
ATOM      1  C   UNL d   1       0.350   0.165   1.045  0.00  0.00     0.124 A 
ATOM      2  C1  UNL d   1       0.293   1.547   1.162  0.00  0.00     0.062 A 
ATOM      3  C2  UNL d   1      -0.848   2.160   1.669  0.00  0.00     0.162 A 
ATOM      4  C3  UNL d   1      -1.943   1.392   2.065  0.00  0.00    -0.034 A 
ATOM      5  C4  UNL d   1      -1.879   0.003   1.944  0.00  0.00     0.162 A 
ATOM      6  C5  UNL d   1      -0.736  -0.606   1.436  0.00  0.00     0.062 A 
ATOM      7  F   UNL d   1      -0.684  -1.941   1.325  0.00  0.00    -0.097 F 
ATOM      8  F1  UNL d   1      -2.914  -0.766   2.316  0.00  0.00    -0.096 F 
ATOM      9  I   UNL d   1      -3.652   2.306   2.825  0.00  0.00    -0.060 I 
ATOM     10  F2  UNL d   1      -0.875   3.498   1.771  0.00  0.00    -0.096 F 
ATOM     11  F3  UNL d   1       1.341   2.293   0.783  0.00  0.00    -0.097 F 
ATOM     12  F4  UNL d   1       1.449  -0.423   0.556  0.00  0.00    -0.092 F 
ENDROOT
TORSDOF 0
ENDMDL
