MODEL 1
REMARK minimizedAffinity 18.7528229
REMARK minimizedRMSD -1
REMARK  0 active torsions:
REMARK  status: ('A' for Active; 'I' for Inactive)
ROOT
ATOM      1  C   UNL d   1      -0.746   3.093   1.009  0.00  0.00     0.124 A 
ATOM      2  C1  UNL d   1      -1.736   2.487   1.769  0.00  0.00     0.062 A 
ATOM      3  C2  UNL d   1      -1.536   1.212   2.291  0.00  0.00     0.162 A 
ATOM      4  C3  UNL d   1      -0.340   0.535   2.056  0.00  0.00    -0.034 A 
ATOM      5  C4  UNL d   1       0.651   1.151   1.289  0.00  0.00     0.162 A 
ATOM      6  C5  UNL d   1       0.447   2.425   0.770  0.00  0.00     0.062 A 
ATOM      7  F   UNL d   1       1.405   3.009   0.036  0.00  0.00    -0.097 F 
ATOM      8  F1  UNL d   1       1.814   0.529   1.044  0.00  0.00    -0.096 F 
ATOM      9  I   UNL d   1      -0.037  -1.371   2.834  0.00  0.00    -0.060 I 
ATOM     10  F2  UNL d   1      -2.511   0.650   3.022  0.00  0.00    -0.096 F 
ATOM     11  F3  UNL d   1      -2.890   3.130   2.000  0.00  0.00    -0.097 F 
ATOM     12  F4  UNL d   1      -0.941   4.319   0.507  0.00  0.00    -0.092 F 
ENDROOT
TORSDOF 0
ENDMDL
