MODEL 1
REMARK minimizedAffinity 0.904918194
REMARK minimizedRMSD -1
REMARK  0 active torsions:
REMARK  status: ('A' for Active; 'I' for Inactive)
ROOT
ATOM      1  C   UNL d   1      -1.011   1.764   0.875  0.00  0.00     0.124 A 
ATOM      2  C1  UNL d   1      -1.029   0.377   0.915  0.00  0.00     0.062 A 
ATOM      3  C2  UNL d   1      -0.046  -0.315   1.616  0.00  0.00     0.162 A 
ATOM      4  C3  UNL d   1       0.963   0.378   2.284  0.00  0.00    -0.034 A 
ATOM      5  C4  UNL d   1       0.975   1.774   2.239  0.00  0.00     0.162 A 
ATOM      6  C5  UNL d   1      -0.010   2.461   1.536  0.00  0.00     0.062 A 
ATOM      7  F   UNL d   1       0.009   3.802   1.499  0.00  0.00    -0.097 F 
ATOM      8  F1  UNL d   1       1.930   2.472   2.870  0.00  0.00    -0.096 F 
ATOM      9  I   UNL d   1       2.434  -0.654   3.334  0.00  0.00    -0.060 I 
ATOM     10  F2  UNL d   1      -0.088  -1.656   1.638  0.00  0.00    -0.096 F 
ATOM     11  F3  UNL d   1      -1.994  -0.298   0.276  0.00  0.00    -0.097 F 
ATOM     12  F4  UNL d   1      -1.957   2.428   0.198  0.00  0.00    -0.092 F 
ENDROOT
TORSDOF 0
ENDMDL
