MODEL 1
REMARK minimizedAffinity 4.83039999
REMARK minimizedRMSD -1
REMARK  0 active torsions:
REMARK  status: ('A' for Active; 'I' for Inactive)
ROOT
ATOM      1  C   UNL d   1       0.106   0.257   0.909  0.00  0.00     0.124 A 
ATOM      2  C1  UNL d   1      -0.959  -0.592   1.176  0.00  0.00     0.062 A 
ATOM      3  C2  UNL d   1      -2.130  -0.091   1.737  0.00  0.00     0.162 A 
ATOM      4  C3  UNL d   1      -2.243   1.267   2.035  0.00  0.00    -0.034 A 
ATOM      5  C4  UNL d   1      -1.166   2.114   1.765  0.00  0.00     0.162 A 
ATOM      6  C5  UNL d   1       0.002   1.609   1.204  0.00  0.00     0.062 A 
ATOM      7  F   UNL d   1       1.030   2.430   0.948  0.00  0.00    -0.097 F 
ATOM      8  F1  UNL d   1      -1.241   3.425   2.039  0.00  0.00    -0.096 F 
ATOM      9  I   UNL d   1      -3.992   2.020   2.874  0.00  0.00    -0.060 I 
ATOM     10  F2  UNL d   1      -3.144  -0.934   1.983  0.00  0.00    -0.096 F 
ATOM     11  F3  UNL d   1      -0.860  -1.899   0.892  0.00  0.00    -0.097 F 
ATOM     12  F4  UNL d   1       1.232  -0.229   0.370  0.00  0.00    -0.092 F 
ENDROOT
TORSDOF 0
ENDMDL
