MODEL 1
REMARK minimizedAffinity 5.41417074
REMARK minimizedRMSD -1
REMARK  0 active torsions:
REMARK  status: ('A' for Active; 'I' for Inactive)
ROOT
ATOM      1  C   UNL d   1       0.599   0.749   1.314  0.00  0.00     0.124 A 
ATOM      2  C1  UNL d   1      -0.482  -0.097   1.516  0.00  0.00     0.062 A 
ATOM      3  C2  UNL d   1      -1.731   0.428   1.835  0.00  0.00     0.162 A 
ATOM      4  C3  UNL d   1      -1.906   1.807   1.954  0.00  0.00    -0.034 A 
ATOM      5  C4  UNL d   1      -0.813   2.651   1.750  0.00  0.00     0.162 A 
ATOM      6  C5  UNL d   1       0.433   2.121   1.431  0.00  0.00     0.062 A 
ATOM      7  F   UNL d   1       1.477   2.940   1.237  0.00  0.00    -0.097 F 
ATOM      8  F1  UNL d   1      -0.946   3.981   1.856  0.00  0.00    -0.096 F 
ATOM      9  I   UNL d   1      -3.772   2.595   2.431  0.00  0.00    -0.060 I 
ATOM     10  F2  UNL d   1      -2.759  -0.413   2.025  0.00  0.00    -0.096 F 
ATOM     11  F3  UNL d   1      -0.324  -1.424   1.404  0.00  0.00    -0.097 F 
ATOM     12  F4  UNL d   1       1.800   0.241   1.008  0.00  0.00    -0.092 F 
ENDROOT
TORSDOF 0
ENDMDL
