MODEL 1
REMARK minimizedAffinity 4.21888685
REMARK minimizedRMSD -1
REMARK  0 active torsions:
REMARK  status: ('A' for Active; 'I' for Inactive)
ROOT
ATOM      1  C   UNL d   1       0.254   0.385   1.420  0.00  0.00     0.124 A 
ATOM      2  C1  UNL d   1      -0.682  -0.431   2.041  0.00  0.00     0.062 A 
ATOM      3  C2  UNL d   1      -1.851   0.114   2.561  0.00  0.00     0.162 A 
ATOM      4  C3  UNL d   1      -2.093   1.484   2.463  0.00  0.00    -0.034 A 
ATOM      5  C4  UNL d   1      -1.148   2.300   1.839  0.00  0.00     0.162 A 
ATOM      6  C5  UNL d   1       0.020   1.749   1.320  0.00  0.00     0.062 A 
ATOM      7  F   UNL d   1       0.922   2.540   0.721  0.00  0.00    -0.097 F 
ATOM      8  F1  UNL d   1      -1.348   3.621   1.727  0.00  0.00    -0.096 F 
ATOM      9  I   UNL d   1      -3.841   2.304   3.241  0.00  0.00    -0.060 I 
ATOM     10  F2  UNL d   1      -2.738  -0.699   3.156  0.00  0.00    -0.096 F 
ATOM     11  F3  UNL d   1      -0.458  -1.750   2.140  0.00  0.00    -0.097 F 
ATOM     12  F4  UNL d   1       1.379  -0.142   0.921  0.00  0.00    -0.092 F 
ENDROOT
TORSDOF 0
ENDMDL
