MODEL 1
REMARK minimizedAffinity 13.3974314
REMARK minimizedRMSD -1
REMARK  0 active torsions:
REMARK  status: ('A' for Active; 'I' for Inactive)
ROOT
ATOM      1  C   UNL d   1      -0.042  -1.101   1.862  0.00  0.00     0.124 A 
ATOM      2  C1  UNL d   1      -1.174  -0.656   2.531  0.00  0.00     0.062 A 
ATOM      3  C2  UNL d   1      -1.748   0.568   2.198  0.00  0.00     0.162 A 
ATOM      4  C3  UNL d   1      -1.193   1.354   1.189  0.00  0.00    -0.034 A 
ATOM      5  C4  UNL d   1      -0.054   0.900   0.521  0.00  0.00     0.162 A 
ATOM      6  C5  UNL d   1       0.516  -0.323   0.858  0.00  0.00     0.062 A 
ATOM      7  F   UNL d   1       1.609  -0.751   0.210  0.00  0.00    -0.097 F 
ATOM      8  F1  UNL d   1       0.506   1.632  -0.454  0.00  0.00    -0.096 F 
ATOM      9  I   UNL d   1      -2.049   3.184   0.688  0.00  0.00    -0.060 I 
ATOM     10  F2  UNL d   1      -2.841   0.973   2.861  0.00  0.00    -0.096 F 
ATOM     11  F3  UNL d   1      -1.715  -1.405   3.502  0.00  0.00    -0.097 F 
ATOM     12  F4  UNL d   1       0.509  -2.278   2.185  0.00  0.00    -0.092 F 
ENDROOT
TORSDOF 0
ENDMDL
