MODEL 1
REMARK minimizedAffinity 8.1651535
REMARK minimizedRMSD -1
REMARK  0 active torsions:
REMARK  status: ('A' for Active; 'I' for Inactive)
ROOT
ATOM      1  C   UNL d   1      -1.628   0.208   0.319  0.00  0.00     0.124 A 
ATOM      2  C1  UNL d   1      -1.614  -0.985   1.029  0.00  0.00     0.062 A 
ATOM      3  C2  UNL d   1      -0.517  -1.318   1.817  0.00  0.00     0.162 A 
ATOM      4  C3  UNL d   1       0.578  -0.457   1.900  0.00  0.00    -0.034 A 
ATOM      5  C4  UNL d   1       0.557   0.740   1.182  0.00  0.00     0.162 A 
ATOM      6  C5  UNL d   1      -0.542   1.069   0.396  0.00  0.00     0.062 A 
ATOM      7  F   UNL d   1      -0.553   2.221  -0.289  0.00  0.00    -0.097 F 
ATOM      8  F1  UNL d   1       1.592   1.591   1.239  0.00  0.00    -0.096 F 
ATOM      9  I   UNL d   1       2.221  -0.951   3.077  0.00  0.00    -0.060 I 
ATOM     10  F2  UNL d   1      -0.531  -2.477   2.493  0.00  0.00    -0.096 F 
ATOM     11  F3  UNL d   1      -2.662  -1.819   0.956  0.00  0.00    -0.097 F 
ATOM     12  F4  UNL d   1      -2.685   0.525  -0.439  0.00  0.00    -0.092 F 
ENDROOT
TORSDOF 0
ENDMDL
