MODEL 1
REMARK minimizedAffinity 12.1749125
REMARK minimizedRMSD -1
REMARK  0 active torsions:
REMARK  status: ('A' for Active; 'I' for Inactive)
ROOT
ATOM      1  C   UNL d   1      -1.948   1.335   1.743  0.00  0.00     0.124 A 
ATOM      2  C1  UNL d   1      -0.876   2.153   1.412  0.00  0.00     0.062 A 
ATOM      3  C2  UNL d   1       0.355   1.593   1.080  0.00  0.00     0.162 A 
ATOM      4  C3  UNL d   1       0.520   0.208   1.076  0.00  0.00    -0.034 A 
ATOM      5  C4  UNL d   1      -0.562  -0.607   1.411  0.00  0.00     0.162 A 
ATOM      6  C5  UNL d   1      -1.790  -0.043   1.742  0.00  0.00     0.062 A 
ATOM      7  F   UNL d   1      -2.824  -0.835   2.062  0.00  0.00    -0.097 F 
ATOM      8  F1  UNL d   1      -0.438  -1.943   1.418  0.00  0.00    -0.096 F 
ATOM      9  I   UNL d   1       2.359  -0.632   0.581  0.00  0.00    -0.060 I 
ATOM     10  F2  UNL d   1       1.373   2.407   0.764  0.00  0.00    -0.096 F 
ATOM     11  F3  UNL d   1      -1.025   3.485   1.412  0.00  0.00    -0.097 F 
ATOM     12  F4  UNL d   1      -3.130   1.876   2.063  0.00  0.00    -0.092 F 
ENDROOT
TORSDOF 0
ENDMDL
