MODEL 1
REMARK minimizedAffinity 12.35882
REMARK minimizedRMSD -1
REMARK  0 active torsions:
REMARK  status: ('A' for Active; 'I' for Inactive)
ROOT
ATOM      1  C   UNL d   1       0.533   0.359   1.664  0.00  0.00     0.124 A 
ATOM      2  C1  UNL d   1      -0.404  -0.417   2.331  0.00  0.00     0.062 A 
ATOM      3  C2  UNL d   1      -1.616   0.137   2.730  0.00  0.00     0.162 A 
ATOM      4  C3  UNL d   1      -1.899   1.477   2.463  0.00  0.00    -0.034 A 
ATOM      5  C4  UNL d   1      -0.952   2.252   1.792  0.00  0.00     0.162 A 
ATOM      6  C5  UNL d   1       0.259   1.693   1.396  0.00  0.00     0.062 A 
ATOM      7  F   UNL d   1       1.163   2.445   0.751  0.00  0.00    -0.097 F 
ATOM      8  F1  UNL d   1      -1.192   3.543   1.519  0.00  0.00    -0.096 F 
ATOM      9  I   UNL d   1      -3.711   2.310   3.058  0.00  0.00    -0.060 I 
ATOM     10  F2  UNL d   1      -2.503  -0.637   3.373  0.00  0.00    -0.096 F 
ATOM     11  F3  UNL d   1      -0.140  -1.706   2.593  0.00  0.00    -0.097 F 
ATOM     12  F4  UNL d   1       1.700  -0.177   1.282  0.00  0.00    -0.092 F 
ENDROOT
TORSDOF 0
ENDMDL
