MODEL 1
REMARK minimizedAffinity 8.23974705
REMARK minimizedRMSD -1
REMARK  0 active torsions:
REMARK  status: ('A' for Active; 'I' for Inactive)
ROOT
ATOM      1  C   UNL d   1      -4.157  -1.261  -3.029  0.00  0.00     0.124 A 
ATOM      2  C1  UNL d   1      -3.863  -2.402  -3.762  0.00  0.00     0.062 A 
ATOM      3  C2  UNL d   1      -3.649  -3.615  -3.114  0.00  0.00     0.162 A 
ATOM      4  C3  UNL d   1      -3.729  -3.694  -1.724  0.00  0.00    -0.034 A 
ATOM      5  C4  UNL d   1      -4.024  -2.542  -0.993  0.00  0.00     0.162 A 
ATOM      6  C5  UNL d   1      -4.237  -1.332  -1.645  0.00  0.00     0.062 A 
ATOM      7  F   UNL d   1      -4.521  -0.231  -0.935  0.00  0.00    -0.097 F 
ATOM      8  F1  UNL d   1      -4.109  -2.583   0.345  0.00  0.00    -0.096 F 
ATOM      9  I   UNL d   1      -3.410  -5.506  -0.751  0.00  0.00    -0.060 I 
ATOM     10  F2  UNL d   1      -3.366  -4.702  -3.848  0.00  0.00    -0.096 F 
ATOM     11  F3  UNL d   1      -3.783  -2.336  -5.099  0.00  0.00    -0.097 F 
ATOM     12  F4  UNL d   1      -4.361  -0.095  -3.655  0.00  0.00    -0.092 F 
ENDROOT
TORSDOF 0
ENDMDL
