MODEL 1
REMARK minimizedAffinity 6.99725723
REMARK minimizedRMSD -1
REMARK  0 active torsions:
REMARK  status: ('A' for Active; 'I' for Inactive)
ROOT
ATOM      1  C   UNL d   1      -2.398   0.036   2.834  0.00  0.00     0.124 A 
ATOM      2  C1  UNL d   1      -2.740   1.335   2.486  0.00  0.00     0.062 A 
ATOM      3  C2  UNL d   1      -1.804   2.168   1.880  0.00  0.00     0.162 A 
ATOM      4  C3  UNL d   1      -0.516   1.704   1.617  0.00  0.00    -0.034 A 
ATOM      5  C4  UNL d   1      -0.178   0.396   1.970  0.00  0.00     0.162 A 
ATOM      6  C5  UNL d   1      -1.117  -0.432   2.576  0.00  0.00     0.062 A 
ATOM      7  F   UNL d   1      -0.784  -1.687   2.911  0.00  0.00    -0.097 F 
ATOM      8  F1  UNL d   1       1.052  -0.083   1.731  0.00  0.00    -0.096 F 
ATOM      9  I   UNL d   1       0.887   2.946   0.711  0.00  0.00    -0.060 I 
ATOM     10  F2  UNL d   1      -2.163   3.419   1.555  0.00  0.00    -0.096 F 
ATOM     11  F3  UNL d   1      -3.977   1.790   2.736  0.00  0.00    -0.097 F 
ATOM     12  F4  UNL d   1      -3.300  -0.763   3.418  0.00  0.00    -0.092 F 
ENDROOT
TORSDOF 0
ENDMDL
