MODEL 1
REMARK minimizedAffinity 1.00537789
REMARK minimizedRMSD -1
REMARK  0 active torsions:
REMARK  status: ('A' for Active; 'I' for Inactive)
ROOT
ATOM      1  C   UNL d   1      -2.135   1.336   1.758  0.00  0.00     0.124 A 
ATOM      2  C1  UNL d   1      -1.106   2.184   1.371  0.00  0.00     0.062 A 
ATOM      3  C2  UNL d   1       0.145   1.665   1.048  0.00  0.00     0.162 A 
ATOM      4  C3  UNL d   1       0.373   0.290   1.110  0.00  0.00    -0.034 A 
ATOM      5  C4  UNL d   1      -0.666  -0.556   1.501  0.00  0.00     0.162 A 
ATOM      6  C5  UNL d   1      -1.914  -0.032   1.822  0.00  0.00     0.062 A 
ATOM      7  F   UNL d   1      -2.907  -0.852   2.196  0.00  0.00    -0.097 F 
ATOM      8  F1  UNL d   1      -0.481  -1.882   1.570  0.00  0.00    -0.096 F 
ATOM      9  I   UNL d   1       2.241  -0.490   0.628  0.00  0.00    -0.060 I 
ATOM     10  F2  UNL d   1       1.121   2.507   0.678  0.00  0.00    -0.096 F 
ATOM     11  F3  UNL d   1      -1.316   3.507   1.309  0.00  0.00    -0.097 F 
ATOM     12  F4  UNL d   1      -3.337   1.839   2.069  0.00  0.00    -0.092 F 
ENDROOT
TORSDOF 0
ENDMDL
