MODEL 1
REMARK minimizedAffinity 3.76417112
REMARK minimizedRMSD -1
REMARK  0 active torsions:
REMARK  status: ('A' for Active; 'I' for Inactive)
ROOT
ATOM      1  C   UNL d   1      -1.765   1.584   1.929  0.00  0.00     0.124 A 
ATOM      2  C1  UNL d   1      -0.739   2.414   1.502  0.00  0.00     0.062 A 
ATOM      3  C2  UNL d   1       0.474   1.872   1.088  0.00  0.00     0.162 A 
ATOM      4  C3  UNL d   1       0.668   0.491   1.099  0.00  0.00    -0.034 A 
ATOM      5  C4  UNL d   1      -0.369  -0.338   1.530  0.00  0.00     0.162 A 
ATOM      6  C5  UNL d   1      -1.579   0.208   1.943  0.00  0.00     0.062 A 
ATOM      7  F   UNL d   1      -2.570  -0.596   2.355  0.00  0.00    -0.097 F 
ATOM      8  F1  UNL d   1      -0.217  -1.671   1.553  0.00  0.00    -0.096 F 
ATOM      9  I   UNL d   1       2.481  -0.324   0.481  0.00  0.00    -0.060 I 
ATOM     10  F2  UNL d   1       1.449   2.699   0.681  0.00  0.00    -0.096 F 
ATOM     11  F3  UNL d   1      -0.916   3.744   1.489  0.00  0.00    -0.097 F 
ATOM     12  F4  UNL d   1      -2.931   2.108   2.328  0.00  0.00    -0.092 F 
ENDROOT
TORSDOF 0
ENDMDL
