MODEL 1
REMARK minimizedAffinity 3.41792345
REMARK minimizedRMSD -1
REMARK  0 active torsions:
REMARK  status: ('A' for Active; 'I' for Inactive)
ROOT
ATOM      1  C   UNL d   1       2.818  -0.277   1.216  0.00  0.00     0.124 A 
ATOM      2  C1  UNL d   1       2.345  -0.084   2.507  0.00  0.00     0.062 A 
ATOM      3  C2  UNL d   1       1.158   0.610   2.721  0.00  0.00     0.162 A 
ATOM      4  C3  UNL d   1       0.434   1.116   1.641  0.00  0.00    -0.034 A 
ATOM      5  C4  UNL d   1       0.916   0.919   0.346  0.00  0.00     0.162 A 
ATOM      6  C5  UNL d   1       2.103   0.224   0.137  0.00  0.00     0.062 A 
ATOM      7  F   UNL d   1       2.558   0.039  -1.110  0.00  0.00    -0.097 F 
ATOM      8  F1  UNL d   1       0.245   1.391  -0.715  0.00  0.00    -0.096 F 
ATOM      9  I   UNL d   1      -1.342   2.154   1.957  0.00  0.00    -0.060 I 
ATOM     10  F2  UNL d   1       0.725   0.782   3.979  0.00  0.00    -0.096 F 
ATOM     11  F3  UNL d   1       3.034  -0.566   3.551  0.00  0.00    -0.097 F 
ATOM     12  F4  UNL d   1       3.961  -0.944   1.013  0.00  0.00    -0.092 F 
ENDROOT
TORSDOF 0
ENDMDL
