MODEL 1
REMARK minimizedAffinity 9.65105152
REMARK minimizedRMSD -1
REMARK  0 active torsions:
REMARK  status: ('A' for Active; 'I' for Inactive)
ROOT
ATOM      1  C   UNL d   1       0.597   1.220   1.077  0.00  0.00     0.124 A 
ATOM      2  C1  UNL d   1       0.504  -0.162   0.995  0.00  0.00     0.062 A 
ATOM      3  C2  UNL d   1      -0.671  -0.809   1.366  0.00  0.00     0.162 A 
ATOM      4  C3  UNL d   1      -1.765  -0.073   1.822  0.00  0.00    -0.034 A 
ATOM      5  C4  UNL d   1      -1.664   1.317   1.903  0.00  0.00     0.162 A 
ATOM      6  C5  UNL d   1      -0.487   1.958   1.531  0.00  0.00     0.062 A 
ATOM      7  F   UNL d   1      -0.400   3.294   1.612  0.00  0.00    -0.097 F 
ATOM      8  F1  UNL d   1      -2.697   2.054   2.337  0.00  0.00    -0.096 F 
ATOM      9  I   UNL d   1      -3.524  -1.037   2.377  0.00  0.00    -0.060 I 
ATOM     10  F2  UNL d   1      -0.732  -2.146   1.275  0.00  0.00    -0.096 F 
ATOM     11  F3  UNL d   1       1.551  -0.878   0.557  0.00  0.00    -0.097 F 
ATOM     12  F4  UNL d   1       1.729   1.840   0.721  0.00  0.00    -0.092 F 
ENDROOT
TORSDOF 0
ENDMDL
