MODEL 1
REMARK minimizedAffinity -2.55360484
REMARK minimizedRMSD -1
REMARK  0 active torsions:
REMARK  status: ('A' for Active; 'I' for Inactive)
ROOT
ATOM      1  C   UNL d   1       0.273  -2.090  -1.134  0.00  0.00    -0.002 A 
ATOM      2  C1  UNL d   1       0.531  -1.184  -2.153  0.00  0.00     0.010 A 
ATOM      3  C2  UNL d   1       0.778   0.160  -1.864  0.00  0.00     0.041 A 
ATOM      4  C3  UNL d   1       0.764   0.581  -0.520  0.00  0.00    -0.075 A 
ATOM      5  S   UNL d   1       1.040   2.177   0.072  0.00  0.00     0.015 SA
ATOM      6  C4  UNL d   1       0.824   1.693   1.692  0.00  0.00     0.022 A 
ATOM      7  C5  UNL d   1       0.547   0.351   1.797  0.00  0.00     0.026 A 
ATOM      8  C6  UNL d   1       0.508  -0.312   0.524  0.00  0.00    -0.082 A 
ATOM      9  C7  UNL d   1       0.260  -1.668   0.198  0.00  0.00     0.045 A 
ENDROOT
TORSDOF 0
ENDMDL
