MODEL 1
REMARK minimizedAffinity 0.210938349
REMARK minimizedRMSD -1
REMARK  0 active torsions:
REMARK  status: ('A' for Active; 'I' for Inactive)
ROOT
ATOM      1  C   UNL d   1       1.019   2.441  -0.263  0.00  0.00    -0.002 A 
ATOM      2  C1  UNL d   1       2.148   3.130   0.157  0.00  0.00     0.010 A 
ATOM      3  C2  UNL d   1       2.061   4.078   1.179  0.00  0.00     0.041 A 
ATOM      4  C3  UNL d   1       0.809   4.322   1.777  0.00  0.00    -0.075 A 
ATOM      5  S   UNL d   1       0.463   5.437   3.046  0.00  0.00     0.015 SA
ATOM      6  C4  UNL d   1      -1.190   5.023   3.060  0.00  0.00     0.022 A 
ATOM      7  C5  UNL d   1      -1.489   4.060   2.126  0.00  0.00     0.026 A 
ATOM      8  C6  UNL d   1      -0.341   3.640   1.371  0.00  0.00    -0.082 A 
ATOM      9  C7  UNL d   1      -0.221   2.686   0.333  0.00  0.00     0.045 A 
ENDROOT
TORSDOF 0
ENDMDL
