MODEL 1
REMARK minimizedAffinity 0.0535850823
REMARK minimizedRMSD -1
REMARK  0 active torsions:
REMARK  status: ('A' for Active; 'I' for Inactive)
ROOT
ATOM      1  C   UNL d   1      -0.159  -3.536   0.649  0.00  0.00    -0.002 A 
ATOM      2  C1  UNL d   1      -1.420  -2.978   0.804  0.00  0.00     0.010 A 
ATOM      3  C2  UNL d   1      -1.615  -1.606   0.635  0.00  0.00     0.041 A 
ATOM      4  C3  UNL d   1      -0.510  -0.796   0.303  0.00  0.00    -0.075 A 
ATOM      5  S   UNL d   1      -0.511   0.908   0.046  0.00  0.00     0.015 SA
ATOM      6  C4  UNL d   1       1.163   0.936  -0.276  0.00  0.00     0.022 A 
ATOM      7  C5  UNL d   1       1.724  -0.317  -0.194  0.00  0.00     0.026 A 
ATOM      8  C6  UNL d   1       0.769  -1.336   0.141  0.00  0.00    -0.082 A 
ATOM      9  C7  UNL d   1       0.934  -2.730   0.320  0.00  0.00     0.045 A 
ENDROOT
TORSDOF 0
ENDMDL
