MODEL 1
REMARK minimizedAffinity 1.54649925
REMARK minimizedRMSD -1
REMARK  0 active torsions:
REMARK  status: ('A' for Active; 'I' for Inactive)
ROOT
ATOM      1  C   UNL d   1      -2.203  -1.924   1.836  0.00  0.00    -0.002 A 
ATOM      2  C1  UNL d   1      -1.987  -2.897   0.871  0.00  0.00     0.010 A 
ATOM      3  C2  UNL d   1      -1.193  -2.626  -0.246  0.00  0.00     0.041 A 
ATOM      4  C3  UNL d   1      -0.613  -1.349  -0.376  0.00  0.00    -0.075 A 
ATOM      5  S   UNL d   1       0.395  -0.791  -1.658  0.00  0.00     0.015 SA
ATOM      6  C4  UNL d   1       0.564   0.752  -0.954  0.00  0.00     0.022 A 
ATOM      7  C5  UNL d   1      -0.126   0.856   0.231  0.00  0.00     0.026 A 
ATOM      8  C6  UNL d   1      -0.815  -0.353   0.584  0.00  0.00    -0.082 A 
ATOM      9  C7  UNL d   1      -1.626  -0.658   1.704  0.00  0.00     0.045 A 
ENDROOT
TORSDOF 0
ENDMDL
