MODEL 1
REMARK minimizedAffinity -2.95243859
REMARK minimizedRMSD -1
REMARK  0 active torsions:
REMARK  status: ('A' for Active; 'I' for Inactive)
ROOT
ATOM      1  C   UNL d   1       0.638   1.033   0.268  0.00  0.00    -0.002 A 
ATOM      2  C1  UNL d   1      -0.730   1.227   0.396  0.00  0.00     0.010 A 
ATOM      3  C2  UNL d   1      -1.588   0.140   0.573  0.00  0.00     0.041 A 
ATOM      4  C3  UNL d   1      -1.043  -1.158   0.622  0.00  0.00    -0.075 A 
ATOM      5  S   UNL d   1      -1.900  -2.639   0.832  0.00  0.00     0.015 SA
ATOM      6  C4  UNL d   1      -0.470  -3.564   0.758  0.00  0.00     0.022 A 
ATOM      7  C5  UNL d   1       0.643  -2.778   0.578  0.00  0.00     0.026 A 
ATOM      8  C6  UNL d   1       0.332  -1.378   0.497  0.00  0.00    -0.082 A 
ATOM      9  C7  UNL d   1       1.175  -0.256   0.317  0.00  0.00     0.045 A 
ENDROOT
TORSDOF 0
ENDMDL
