MODEL 1
REMARK minimizedAffinity -2.80285168
REMARK minimizedRMSD -1
REMARK  0 active torsions:
REMARK  status: ('A' for Active; 'I' for Inactive)
ROOT
ATOM      1  C   UNL d   1       0.285  -3.203  -1.106  0.00  0.00    -0.002 A 
ATOM      2  C1  UNL d   1      -0.589  -3.650  -0.125  0.00  0.00     0.010 A 
ATOM      3  C2  UNL d   1      -1.115  -2.763   0.815  0.00  0.00     0.041 A 
ATOM      4  C3  UNL d   1      -0.746  -1.404   0.751  0.00  0.00    -0.075 A 
ATOM      5  S   UNL d   1      -1.266  -0.136   1.797  0.00  0.00     0.015 SA
ATOM      6  C4  UNL d   1      -0.342   1.030   0.965  0.00  0.00     0.022 A 
ATOM      7  C5  UNL d   1       0.353   0.482  -0.087  0.00  0.00     0.026 A 
ATOM      8  C6  UNL d   1       0.131  -0.930  -0.228  0.00  0.00    -0.082 A 
ATOM      9  C7  UNL d   1       0.648  -1.855  -1.167  0.00  0.00     0.045 A 
ENDROOT
TORSDOF 0
ENDMDL
