MODEL 1
REMARK minimizedAffinity -3.45640588
REMARK minimizedRMSD -1
REMARK  0 active torsions:
REMARK  status: ('A' for Active; 'I' for Inactive)
ROOT
ATOM      1  C   UNL d   1      -0.792  -3.116   1.051  0.00  0.00    -0.002 A 
ATOM      2  C1  UNL d   1      -1.599  -2.191   1.699  0.00  0.00     0.010 A 
ATOM      3  C2  UNL d   1      -1.423  -0.822   1.486  0.00  0.00     0.041 A 
ATOM      4  C3  UNL d   1      -0.413  -0.395   0.602  0.00  0.00    -0.075 A 
ATOM      5  S   UNL d   1      -0.015   1.231   0.186  0.00  0.00     0.015 SA
ATOM      6  C4  UNL d   1       1.235   0.736  -0.861  0.00  0.00     0.022 A 
ATOM      7  C5  UNL d   1       1.360  -0.633  -0.905  0.00  0.00     0.026 A 
ATOM      8  C6  UNL d   1       0.412  -1.307  -0.063  0.00  0.00    -0.082 A 
ATOM      9  C7  UNL d   1       0.208  -2.688   0.174  0.00  0.00     0.045 A 
ENDROOT
TORSDOF 0
ENDMDL
