MODEL 1
REMARK minimizedAffinity -2.93909621
REMARK minimizedRMSD -1
REMARK  0 active torsions:
REMARK  status: ('A' for Active; 'I' for Inactive)
ROOT
ATOM      1  C   UNL d   1      -0.301  -1.428   1.298  0.00  0.00    -0.002 A 
ATOM      2  C1  UNL d   1      -0.590  -1.821  -0.001  0.00  0.00     0.010 A 
ATOM      3  C2  UNL d   1      -0.385  -0.945  -1.070  0.00  0.00     0.041 A 
ATOM      4  C3  UNL d   1       0.122   0.343  -0.807  0.00  0.00    -0.075 A 
ATOM      5  S   UNL d   1       0.454   1.584  -1.958  0.00  0.00     0.015 SA
ATOM      6  C4  UNL d   1       0.987   2.663  -0.751  0.00  0.00     0.022 A 
ATOM      7  C5  UNL d   1       0.920   2.107   0.504  0.00  0.00     0.026 A 
ATOM      8  C6  UNL d   1       0.421   0.761   0.493  0.00  0.00    -0.082 A 
ATOM      9  C7  UNL d   1       0.201  -0.150   1.554  0.00  0.00     0.045 A 
ENDROOT
TORSDOF 0
ENDMDL
