MODEL 1
REMARK minimizedAffinity -3.38400173
REMARK minimizedRMSD -1
REMARK  0 active torsions:
REMARK  status: ('A' for Active; 'I' for Inactive)
ROOT
ATOM      1  C   UNL d   1       0.718  -1.870  -1.171  0.00  0.00    -0.002 A 
ATOM      2  C1  UNL d   1       1.032  -0.599  -0.711  0.00  0.00     0.010 A 
ATOM      3  C2  UNL d   1       0.427  -0.090   0.440  0.00  0.00     0.041 A 
ATOM      4  C3  UNL d   1      -0.506  -0.889   1.129  0.00  0.00    -0.075 A 
ATOM      5  S   UNL d   1      -1.371  -0.475   2.562  0.00  0.00     0.015 SA
ATOM      6  C4  UNL d   1      -2.177  -1.976   2.599  0.00  0.00     0.022 A 
ATOM      7  C5  UNL d   1      -1.807  -2.786   1.551  0.00  0.00     0.026 A 
ATOM      8  C6  UNL d   1      -0.838  -2.173   0.687  0.00  0.00    -0.082 A 
ATOM      9  C7  UNL d   1      -0.209  -2.660  -0.484  0.00  0.00     0.045 A 
ENDROOT
TORSDOF 0
ENDMDL
