MODEL 1
REMARK minimizedAffinity -3.66946983
REMARK minimizedRMSD -1
REMARK  0 active torsions:
REMARK  status: ('A' for Active; 'I' for Inactive)
ROOT
ATOM      1  C   UNL d   1      -0.027  -2.869  -2.226  0.00  0.00    -0.002 A 
ATOM      2  C1  UNL d   1       0.306  -1.586  -2.636  0.00  0.00     0.010 A 
ATOM      3  C2  UNL d   1       0.006  -0.483  -1.834  0.00  0.00     0.041 A 
ATOM      4  C3  UNL d   1      -0.638  -0.694  -0.599  0.00  0.00    -0.075 A 
ATOM      5  S   UNL d   1      -1.103   0.506   0.549  0.00  0.00     0.015 SA
ATOM      6  C4  UNL d   1      -1.753  -0.657   1.612  0.00  0.00     0.022 A 
ATOM      7  C5  UNL d   1      -1.628  -1.934   1.119  0.00  0.00     0.026 A 
ATOM      8  C6  UNL d   1      -0.983  -1.976  -0.164  0.00  0.00    -0.082 A 
ATOM      9  C7  UNL d   1      -0.666  -3.074  -1.000  0.00  0.00     0.045 A 
ENDROOT
TORSDOF 0
ENDMDL
