MODEL 1
REMARK minimizedAffinity -1.31913567
REMARK minimizedRMSD -1
REMARK  0 active torsions:
REMARK  status: ('A' for Active; 'I' for Inactive)
ROOT
ATOM      1  C   UNL d   1       0.582   0.249  -2.324  0.00  0.00    -0.002 A 
ATOM      2  C1  UNL d   1      -0.019   1.099  -1.406  0.00  0.00     0.010 A 
ATOM      3  C2  UNL d   1      -0.374   0.638  -0.137  0.00  0.00     0.041 A 
ATOM      4  C3  UNL d   1      -0.110  -0.704   0.198  0.00  0.00    -0.075 A 
ATOM      5  S   UNL d   1      -0.457  -1.489   1.694  0.00  0.00     0.015 SA
ATOM      6  C4  UNL d   1       0.186  -2.972   1.150  0.00  0.00     0.022 A 
ATOM      7  C5  UNL d   1       0.657  -2.888  -0.138  0.00  0.00     0.026 A 
ATOM      8  C6  UNL d   1       0.495  -1.580  -0.708  0.00  0.00    -0.082 A 
ATOM      9  C7  UNL d   1       0.842  -1.082  -1.987  0.00  0.00     0.045 A 
ENDROOT
TORSDOF 0
ENDMDL
