MODEL 1
REMARK minimizedAffinity -0.486070424
REMARK minimizedRMSD -1
REMARK  0 active torsions:
REMARK  status: ('A' for Active; 'I' for Inactive)
ROOT
ATOM      1  C   UNL d   1       1.057  -3.028   0.619  0.00  0.00    -0.002 A 
ATOM      2  C1  UNL d   1       1.473  -1.877  -0.035  0.00  0.00     0.010 A 
ATOM      3  C2  UNL d   1       0.614  -0.784  -0.163  0.00  0.00     0.041 A 
ATOM      4  C3  UNL d   1      -0.682  -0.867   0.383  0.00  0.00    -0.075 A 
ATOM      5  S   UNL d   1      -1.906   0.347   0.347  0.00  0.00     0.015 SA
ATOM      6  C4  UNL d   1      -3.009  -0.634   1.199  0.00  0.00     0.022 A 
ATOM      7  C5  UNL d   1      -2.473  -1.861   1.511  0.00  0.00     0.026 A 
ATOM      8  C6  UNL d   1      -1.123  -2.016   1.046  0.00  0.00    -0.082 A 
ATOM      9  C7  UNL d   1      -0.229  -3.107   1.159  0.00  0.00     0.045 A 
ENDROOT
TORSDOF 0
ENDMDL
