MODEL 1
REMARK minimizedAffinity -3.99335051
REMARK minimizedRMSD -1
REMARK  0 active torsions:
REMARK  status: ('A' for Active; 'I' for Inactive)
ROOT
ATOM      1  C   UNL d   1       0.363  -2.780   0.576  0.00  0.00    -0.002 A 
ATOM      2  C1  UNL d   1       0.731  -2.917  -0.755  0.00  0.00     0.010 A 
ATOM      3  C2  UNL d   1       0.807  -1.800  -1.589  0.00  0.00     0.041 A 
ATOM      4  C3  UNL d   1       0.508  -0.530  -1.058  0.00  0.00    -0.075 A 
ATOM      5  S   UNL d   1       0.535   0.979  -1.891  0.00  0.00     0.015 SA
ATOM      6  C4  UNL d   1       0.062   1.841  -0.500  0.00  0.00     0.022 A 
ATOM      7  C5  UNL d   1      -0.118   1.014   0.584  0.00  0.00     0.026 A 
ATOM      8  C6  UNL d   1       0.137  -0.367   0.280  0.00  0.00    -0.082 A 
ATOM      9  C7  UNL d   1       0.067  -1.518   1.100  0.00  0.00     0.045 A 
ENDROOT
TORSDOF 0
ENDMDL
