MODEL 1
REMARK minimizedAffinity -2.98721647
REMARK minimizedRMSD -1
REMARK  0 active torsions:
REMARK  status: ('A' for Active; 'I' for Inactive)
ROOT
ATOM      1  C   UNL d   1      -1.509  -1.931   1.206  0.00  0.00    -0.002 A 
ATOM      2  C1  UNL d   1      -1.019  -1.136   2.232  0.00  0.00     0.010 A 
ATOM      3  C2  UNL d   1      -0.284   0.017   1.949  0.00  0.00     0.041 A 
ATOM      4  C3  UNL d   1      -0.050   0.362   0.603  0.00  0.00    -0.075 A 
ATOM      5  S   UNL d   1       0.822   1.729   0.017  0.00  0.00     0.015 SA
ATOM      6  C4  UNL d   1       0.563   1.290  -1.610  0.00  0.00     0.022 A 
ATOM      7  C5  UNL d   1      -0.169   0.132  -1.721  0.00  0.00     0.026 A 
ATOM      8  C6  UNL d   1      -0.535  -0.422  -0.448  0.00  0.00    -0.082 A 
ATOM      9  C7  UNL d   1      -1.275  -1.586  -0.127  0.00  0.00     0.045 A 
ENDROOT
TORSDOF 0
ENDMDL
