MODEL 1
REMARK minimizedAffinity 0.865123749
REMARK minimizedRMSD -1
REMARK  3 active torsions:
REMARK  status: ('A' for Active; 'I' for Inactive)
REMARK    1  A    between atoms: C3'_2  and  C2'_3 
REMARK    2  A    between atoms: C2'_3  and  C1'_4 
REMARK    3  A    between atoms: C1'_4  and  C1_5 
ROOT
ATOM      1  C1  N4B d   1      -4.430   1.484  -3.596  0.00  0.00    -0.075 A 
ATOM      2  C2  N4B d   1      -4.525   0.397  -4.492  0.00  0.00     0.002 A 
ATOM      3  C3  N4B d   1      -3.408  -0.339  -4.800  0.00  0.00     0.002 A 
ATOM      4  C4  N4B d   1      -2.185   0.003  -4.241  0.00  0.00    -0.004 A 
ATOM      5  C5  N4B d   1      -2.106   1.039  -3.357  0.00  0.00     0.002 A 
ATOM      6  C6  N4B d   1      -3.222   1.785  -3.035  0.00  0.00     0.002 A 
ENDROOT
BRANCH   1   7
ATOM      7  C1' N4B d   1      -5.607   2.371  -3.295  0.00  0.00     0.057 C 
BRANCH   7   8
ATOM      8  C2' N4B d   1      -5.915   2.306  -1.802  0.00  0.00     0.009 C 
BRANCH   8   9
ATOM      9  C3' N4B d   1      -6.000   0.874  -1.302  0.00  0.00     0.004 C 
ATOM     10  C4' N4B d   1      -5.258   0.663  -0.016  0.00  0.00     0.003 C 
ENDBRANCH   8   9
ENDBRANCH   7   8
ENDBRANCH   1   7
TORSDOF 3
ENDMDL
