MODEL 1
REMARK minimizedAffinity 1.31120026
REMARK minimizedRMSD -1
REMARK  3 active torsions:
REMARK  status: ('A' for Active; 'I' for Inactive)
REMARK    1  A    between atoms: C3'_2  and  C2'_3 
REMARK    2  A    between atoms: C2'_3  and  C1'_4 
REMARK    3  A    between atoms: C1'_4  and  C1_5 
ROOT
ATOM      1  C1  N4B d   1      -3.445   1.219  -3.742  0.00  0.00    -0.075 A 
ATOM      2  C2  N4B d   1      -4.838   1.134  -3.954  0.00  0.00     0.002 A 
ATOM      3  C3  N4B d   1      -5.621   2.255  -3.826  0.00  0.00     0.002 A 
ATOM      4  C4  N4B d   1      -5.039   3.462  -3.470  0.00  0.00    -0.004 A 
ATOM      5  C5  N4B d   1      -3.688   3.541  -3.292  0.00  0.00     0.002 A 
ATOM      6  C6  N4B d   1      -2.888   2.423  -3.421  0.00  0.00     0.002 A 
ENDROOT
BRANCH   1   7
ATOM      7  C1' N4B d   1      -2.559   0.003  -3.787  0.00  0.00     0.057 C 
BRANCH   7   8
ATOM      8  C2' N4B d   1      -2.426  -0.571  -2.379  0.00  0.00     0.009 C 
BRANCH   8   9
ATOM      9  C3' N4B d   1      -3.702  -1.258  -1.923  0.00  0.00     0.004 C 
ATOM     10  C4' N4B d   1      -4.378  -0.536  -0.795  0.00  0.00     0.003 C 
ENDBRANCH   8   9
ENDBRANCH   7   8
ENDBRANCH   1   7
TORSDOF 3
ENDMDL
