MODEL 1
REMARK minimizedAffinity 4.73269844
REMARK minimizedRMSD -1
REMARK  3 active torsions:
REMARK  status: ('A' for Active; 'I' for Inactive)
REMARK    1  A    between atoms: C3'_2  and  C2'_3 
REMARK    2  A    between atoms: C2'_3  and  C1'_4 
REMARK    3  A    between atoms: C1'_4  and  C1_5 
ROOT
ATOM      1  C1  N4B d   1       2.747   1.853   0.996  0.00  0.00    -0.075 A 
ATOM      2  C2  N4B d   1       3.199   2.372   2.229  0.00  0.00     0.002 A 
ATOM      3  C3  N4B d   1       2.413   2.263   3.350  0.00  0.00     0.002 A 
ATOM      4  C4  N4B d   1       1.168   1.658   3.258  0.00  0.00    -0.004 A 
ATOM      5  C5  N4B d   1       0.750   1.137   2.069  0.00  0.00     0.002 A 
ATOM      6  C6  N4B d   1       1.531   1.235   0.936  0.00  0.00     0.002 A 
ENDROOT
BRANCH   1   7
ATOM      7  C1' N4B d   1       3.534   2.024  -0.274  0.00  0.00     0.057 C 
BRANCH   7   8
ATOM      8  C2' N4B d   1       4.979   1.600  -0.029  0.00  0.00     0.009 C 
BRANCH   8   9
ATOM      9  C3' N4B d   1       5.961   2.712  -0.355  0.00  0.00     0.004 C 
ATOM     10  C4' N4B d   1       5.998   3.781   0.696  0.00  0.00     0.003 C 
ENDBRANCH   8   9
ENDBRANCH   7   8
ENDBRANCH   1   7
TORSDOF 3
ENDMDL
