MODEL 1
REMARK minimizedAffinity 4.79254436
REMARK minimizedRMSD -1
REMARK  3 active torsions:
REMARK  status: ('A' for Active; 'I' for Inactive)
REMARK    1  A    between atoms: C3'_2  and  C2'_3 
REMARK    2  A    between atoms: C2'_3  and  C1'_4 
REMARK    3  A    between atoms: C1'_4  and  C1_5 
ROOT
ATOM      1  C1  N4B d   1       3.694   1.126  -0.574  0.00  0.00    -0.075 A 
ATOM      2  C2  N4B d   1       3.690   2.530  -0.421  0.00  0.00     0.002 A 
ATOM      3  C3  N4B d   1       4.841   3.184  -0.055  0.00  0.00     0.002 A 
ATOM      4  C4  N4B d   1       5.998   2.456   0.182  0.00  0.00    -0.004 A 
ATOM      5  C5  N4B d   1       6.000   1.103   0.007  0.00  0.00     0.002 A 
ATOM      6  C6  N4B d   1       4.851   0.433  -0.365  0.00  0.00     0.002 A 
ENDROOT
BRANCH   1   7
ATOM      7  C1' N4B d   1       2.440   0.358  -0.890  0.00  0.00     0.057 C 
BRANCH   7   8
ATOM      8  C2' N4B d   1       2.260  -0.754   0.140  0.00  0.00     0.009 C 
BRANCH   8   9
ATOM      9  C3' N4B d   1       2.245  -2.129  -0.505  0.00  0.00     0.004 C 
ATOM     10  C4' N4B d   1       1.900  -3.221   0.463  0.00  0.00     0.003 C 
ENDBRANCH   8   9
ENDBRANCH   7   8
ENDBRANCH   1   7
TORSDOF 3
ENDMDL
