MODEL 1
REMARK minimizedAffinity 2.35781121
REMARK minimizedRMSD -1
REMARK  3 active torsions:
REMARK  status: ('A' for Active; 'I' for Inactive)
REMARK    1  A    between atoms: C3'_2  and  C2'_3 
REMARK    2  A    between atoms: C2'_3  and  C1'_4 
REMARK    3  A    between atoms: C1'_4  and  C1_5 
ROOT
ATOM      1  C1  N4B d   1      -5.287   1.521  -4.407  0.00  0.00    -0.075 A 
ATOM      2  C2  N4B d   1      -6.000   2.577  -3.799  0.00  0.00     0.002 A 
ATOM      3  C3  N4B d   1      -5.331   3.690  -3.352  0.00  0.00     0.002 A 
ATOM      4  C4  N4B d   1      -3.952   3.761  -3.485  0.00  0.00    -0.004 A 
ATOM      5  C5  N4B d   1      -3.273   2.748  -4.097  0.00  0.00     0.002 A 
ATOM      6  C6  N4B d   1      -3.934   1.625  -4.554  0.00  0.00     0.002 A 
ENDROOT
BRANCH   1   7
ATOM      7  C1' N4B d   1      -5.964   0.247  -4.833  0.00  0.00     0.057 C 
BRANCH   7   8
ATOM      8  C2' N4B d   1      -5.902  -0.760  -3.689  0.00  0.00     0.009 C 
BRANCH   8   9
ATOM      9  C3' N4B d   1      -4.599  -0.661  -2.915  0.00  0.00     0.004 C 
ATOM     10  C4' N4B d   1      -4.805  -0.647  -1.430  0.00  0.00     0.003 C 
ENDBRANCH   8   9
ENDBRANCH   7   8
ENDBRANCH   1   7
TORSDOF 3
ENDMDL
