MODEL 1
REMARK minimizedAffinity 3.16486526
REMARK minimizedRMSD -1
REMARK  3 active torsions:
REMARK  status: ('A' for Active; 'I' for Inactive)
REMARK    1  A    between atoms: C3'_2  and  C2'_3 
REMARK    2  A    between atoms: C2'_3  and  C1'_4 
REMARK    3  A    between atoms: C1'_4  and  C1_5 
ROOT
ATOM      1  C1  N4B d   1      -4.148   2.164  -2.628  0.00  0.00    -0.075 A 
ATOM      2  C2  N4B d   1      -4.638   1.426  -1.529  0.00  0.00     0.002 A 
ATOM      3  C3  N4B d   1      -3.962   0.313  -1.092  0.00  0.00     0.002 A 
ATOM      4  C4  N4B d   1      -2.808  -0.089  -1.748  0.00  0.00    -0.004 A 
ATOM      5  C5  N4B d   1      -2.327   0.644  -2.793  0.00  0.00     0.002 A 
ATOM      6  C6  N4B d   1      -2.994   1.767  -3.240  0.00  0.00     0.002 A 
ENDROOT
BRANCH   1   7
ATOM      7  C1' N4B d   1      -4.899   3.338  -3.194  0.00  0.00     0.057 C 
BRANCH   7   8
ATOM      8  C2' N4B d   1      -5.699   2.881  -4.411  0.00  0.00     0.009 C 
BRANCH   8   9
ATOM      9  C3' N4B d   1      -5.093   1.647  -5.058  0.00  0.00     0.004 C 
ATOM     10  C4' N4B d   1      -5.980   0.442  -4.953  0.00  0.00     0.003 C 
ENDBRANCH   8   9
ENDBRANCH   7   8
ENDBRANCH   1   7
TORSDOF 3
ENDMDL
