MODEL 1
REMARK minimizedAffinity 1.1589824
REMARK minimizedRMSD -1
REMARK  3 active torsions:
REMARK  status: ('A' for Active; 'I' for Inactive)
REMARK    1  A    between atoms: C3'_2  and  C2'_3 
REMARK    2  A    between atoms: C2'_3  and  C1'_4 
REMARK    3  A    between atoms: C1'_4  and  C1_5 
ROOT
ATOM      1  C1  N4B d   1      -4.709   0.688  -2.496  0.00  0.00    -0.075 A 
ATOM      2  C2  N4B d   1      -5.098   2.044  -2.552  0.00  0.00     0.002 A 
ATOM      3  C3  N4B d   1      -5.731   2.622  -1.479  0.00  0.00     0.002 A 
ATOM      4  C4  N4B d   1      -6.000   1.861  -0.351  0.00  0.00    -0.004 A 
ATOM      5  C5  N4B d   1      -5.598   0.559  -0.295  0.00  0.00     0.002 A 
ATOM      6  C6  N4B d   1      -4.958  -0.034  -1.365  0.00  0.00     0.002 A 
ENDROOT
BRANCH   1   7
ATOM      7  C1' N4B d   1      -4.093  -0.011  -3.677  0.00  0.00     0.057 C 
BRANCH   7   8
ATOM      8  C2' N4B d   1      -2.906   0.806  -4.179  0.00  0.00     0.009 C 
BRANCH   8   9
ATOM      9  C3' N4B d   1      -1.622  -0.007  -4.195  0.00  0.00     0.004 C 
ATOM     10  C4' N4B d   1      -1.162  -0.393  -2.821  0.00  0.00     0.003 C 
ENDBRANCH   8   9
ENDBRANCH   7   8
ENDBRANCH   1   7
TORSDOF 3
ENDMDL
