MODEL 1
REMARK minimizedAffinity 7.16138935
REMARK minimizedRMSD -1
REMARK  0 active torsions:
REMARK  status: ('A' for Active; 'I' for Inactive)
ROOT
ATOM      1  C   UNL d   1      -3.017  -0.920   1.770  0.00  0.00     0.023 A 
ATOM      2  C1  UNL d   1      -1.897  -0.222   2.222  0.00  0.00     0.003 A 
ATOM      3  C2  UNL d   1      -0.660  -0.865   2.306  0.00  0.00     0.048 A 
ATOM      4  C3  UNL d   1      -0.551  -2.205   1.937  0.00  0.00     0.023 A 
ATOM      5  C4  UNL d   1      -1.669  -2.907   1.483  0.00  0.00     0.048 A 
ATOM      6  C5  UNL d   1      -2.904  -2.260   1.401  0.00  0.00     0.003 A 
ATOM      7  I   UNL d   1       1.289  -3.164   2.062  0.00  0.00    -0.146 I 
ENDROOT
TORSDOF 0
ENDMDL
