MODEL 1
REMARK minimizedAffinity 7.54524088
REMARK minimizedRMSD -1
REMARK  0 active torsions:
REMARK  status: ('A' for Active; 'I' for Inactive)
ROOT
ATOM      1  C   UNL d   1      -1.873   0.354   3.905  0.00  0.00     0.023 A 
ATOM      2  C1  UNL d   1      -2.730   1.122   3.117  0.00  0.00     0.003 A 
ATOM      3  C2  UNL d   1      -3.728   1.894   3.717  0.00  0.00     0.048 A 
ATOM      4  C3  UNL d   1      -3.862   1.893   5.105  0.00  0.00     0.023 A 
ATOM      5  C4  UNL d   1      -3.006   1.126   5.897  0.00  0.00     0.048 A 
ATOM      6  C5  UNL d   1      -2.011   0.356   5.293  0.00  0.00     0.003 A 
ATOM      7  I   UNL d   1      -5.346   3.041   5.999  0.00  0.00    -0.146 I 
ENDROOT
TORSDOF 0
ENDMDL
