MODEL 1
REMARK minimizedAffinity 3.93825126
REMARK minimizedRMSD -1
REMARK  0 active torsions:
REMARK  status: ('A' for Active; 'I' for Inactive)
ROOT
ATOM      1  C   UNL d   1      -1.734  -0.077   3.221  0.00  0.00     0.023 A 
ATOM      2  C1  UNL d   1      -2.679   0.728   2.584  0.00  0.00     0.003 A 
ATOM      3  C2  UNL d   1      -3.563   1.500   3.340  0.00  0.00     0.048 A 
ATOM      4  C3  UNL d   1      -3.497   1.464   4.733  0.00  0.00     0.023 A 
ATOM      5  C4  UNL d   1      -2.553   0.660   5.374  0.00  0.00     0.048 A 
ATOM      6  C5  UNL d   1      -1.671  -0.111   4.614  0.00  0.00     0.003 A 
ATOM      7  I   UNL d   1      -4.811   2.613   5.860  0.00  0.00    -0.146 I 
ENDROOT
TORSDOF 0
ENDMDL
