MODEL 1
REMARK minimizedAffinity 5.52203178
REMARK minimizedRMSD -1
REMARK  0 active torsions:
REMARK  status: ('A' for Active; 'I' for Inactive)
ROOT
ATOM      1  C   UNL d   1      -0.487  -1.049   3.596  0.00  0.00     0.023 A 
ATOM      2  C1  UNL d   1      -0.675  -1.757   2.409  0.00  0.00     0.003 A 
ATOM      3  C2  UNL d   1      -1.722  -1.416   1.550  0.00  0.00     0.048 A 
ATOM      4  C3  UNL d   1      -2.576  -0.366   1.883  0.00  0.00     0.023 A 
ATOM      5  C4  UNL d   1      -2.392   0.345   3.070  0.00  0.00     0.048 A 
ATOM      6  C5  UNL d   1      -1.344   0.001   3.926  0.00  0.00     0.003 A 
ATOM      7  I   UNL d   1      -4.135   0.143   0.606  0.00  0.00    -0.146 I 
ENDROOT
TORSDOF 0
ENDMDL
