MODEL 1
REMARK minimizedAffinity 11.462718
REMARK minimizedRMSD -1
REMARK  0 active torsions:
REMARK  status: ('A' for Active; 'I' for Inactive)
ROOT
ATOM      1  C   UNL d   1      -1.377  -0.187   3.107  0.00  0.00     0.023 A 
ATOM      2  C1  UNL d   1      -2.383   0.393   2.333  0.00  0.00     0.003 A 
ATOM      3  C2  UNL d   1      -3.380   1.159   2.940  0.00  0.00     0.048 A 
ATOM      4  C3  UNL d   1      -3.365   1.342   4.323  0.00  0.00     0.023 A 
ATOM      5  C4  UNL d   1      -2.360   0.765   5.101  0.00  0.00     0.048 A 
ATOM      6  C5  UNL d   1      -1.366  -0.001   4.490  0.00  0.00     0.003 A 
ATOM      7  I   UNL d   1      -4.848   2.482   5.229  0.00  0.00    -0.146 I 
ENDROOT
TORSDOF 0
ENDMDL
