MODEL 1
REMARK minimizedAffinity 9.839818
REMARK minimizedRMSD -1
REMARK  0 active torsions:
REMARK  status: ('A' for Active; 'I' for Inactive)
ROOT
ATOM      1  C   UNL d   1      -5.616   1.826   1.104  0.00  0.00     0.023 A 
ATOM      2  C1  UNL d   1      -5.874   2.482  -0.099  0.00  0.00     0.003 A 
ATOM      3  C2  UNL d   1      -5.984   1.752  -1.284  0.00  0.00     0.048 A 
ATOM      4  C3  UNL d   1      -5.836   0.366  -1.259  0.00  0.00     0.023 A 
ATOM      5  C4  UNL d   1      -5.579  -0.295  -0.057  0.00  0.00     0.048 A 
ATOM      6  C5  UNL d   1      -5.469   0.439   1.125  0.00  0.00     0.003 A 
ATOM      7  I   UNL d   1      -5.999  -0.723  -3.022  0.00  0.00    -0.146 I 
ENDROOT
TORSDOF 0
ENDMDL
