MODEL 1
REMARK minimizedAffinity 9.84085655
REMARK minimizedRMSD -1
REMARK  0 active torsions:
REMARK  status: ('A' for Active; 'I' for Inactive)
ROOT
ATOM      1  C   UNL d   1      -1.892   0.257   3.391  0.00  0.00     0.023 A 
ATOM      2  C1  UNL d   1      -1.727   0.356   4.773  0.00  0.00     0.003 A 
ATOM      3  C2  UNL d   1      -2.582   1.166   5.523  0.00  0.00     0.048 A 
ATOM      4  C3  UNL d   1      -3.601   1.874   4.885  0.00  0.00     0.023 A 
ATOM      5  C4  UNL d   1      -3.770   1.777   3.503  0.00  0.00     0.048 A 
ATOM      6  C5  UNL d   1      -2.912   0.967   2.757  0.00  0.00     0.003 A 
ATOM      7  I   UNL d   1      -4.875   3.079   6.000  0.00  0.00    -0.146 I 
ENDROOT
TORSDOF 0
ENDMDL
