MODEL 1
REMARK minimizedAffinity 7.79739952
REMARK minimizedRMSD -1
REMARK  0 active torsions:
REMARK  status: ('A' for Active; 'I' for Inactive)
ROOT
ATOM      1  C   UNL d   1      -6.000   1.876   3.761  0.00  0.00     0.023 A 
ATOM      2  C1  UNL d   1      -5.209   1.192   2.837  0.00  0.00     0.003 A 
ATOM      3  C2  UNL d   1      -3.892   0.856   3.157  0.00  0.00     0.048 A 
ATOM      4  C3  UNL d   1      -3.372   1.205   4.402  0.00  0.00     0.023 A 
ATOM      5  C4  UNL d   1      -4.160   1.888   5.331  0.00  0.00     0.048 A 
ATOM      6  C5  UNL d   1      -5.475   2.223   5.006  0.00  0.00     0.003 A 
ATOM      7  I   UNL d   1      -1.412   0.704   4.881  0.00  0.00    -0.146 I 
ENDROOT
TORSDOF 0
ENDMDL
