MODEL 1
REMARK minimizedAffinity 8.41291904
REMARK minimizedRMSD -1
REMARK  0 active torsions:
REMARK  status: ('A' for Active; 'I' for Inactive)
ROOT
ATOM      1  C   UNL d   1       6.000  -4.892  -0.864  0.00  0.00     0.023 A 
ATOM      2  C1  UNL d   1       5.422  -3.622  -0.871  0.00  0.00     0.003 A 
ATOM      3  C2  UNL d   1       4.089  -3.458  -0.488  0.00  0.00     0.048 A 
ATOM      4  C3  UNL d   1       3.340  -4.568  -0.099  0.00  0.00     0.023 A 
ATOM      5  C4  UNL d   1       3.914  -5.840  -0.090  0.00  0.00     0.048 A 
ATOM      6  C5  UNL d   1       5.247  -5.999  -0.474  0.00  0.00     0.003 A 
ATOM      7  I   UNL d   1       1.356  -4.327   0.472  0.00  0.00    -0.146 I 
ENDROOT
TORSDOF 0
ENDMDL
