MODEL 1
REMARK minimizedAffinity 11.9227076
REMARK minimizedRMSD -1
REMARK  0 active torsions:
REMARK  status: ('A' for Active; 'I' for Inactive)
ROOT
ATOM      1  C   UNL d   1      -2.642  -0.437   2.183  0.00  0.00     0.023 A 
ATOM      2  C1  UNL d   1      -2.052  -1.440   1.414  0.00  0.00     0.003 A 
ATOM      3  C2  UNL d   1      -0.675  -1.662   1.490  0.00  0.00     0.048 A 
ATOM      4  C3  UNL d   1       0.105  -0.876   2.338  0.00  0.00     0.023 A 
ATOM      5  C4  UNL d   1      -0.481   0.129   3.110  0.00  0.00     0.048 A 
ATOM      6  C5  UNL d   1      -1.857   0.347   3.029  0.00  0.00     0.003 A 
ATOM      7  I   UNL d   1       2.154  -1.204   2.453  0.00  0.00    -0.146 I 
ENDROOT
TORSDOF 0
ENDMDL
