MODEL 1
REMARK minimizedAffinity 13.2343473
REMARK minimizedRMSD -1
REMARK  0 active torsions:
REMARK  status: ('A' for Active; 'I' for Inactive)
ROOT
ATOM      1  C   UNL d   1      -3.158  -0.276   1.853  0.00  0.00     0.023 A 
ATOM      2  C1  UNL d   1      -2.434   0.286   2.905  0.00  0.00     0.003 A 
ATOM      3  C2  UNL d   1      -3.077   1.102   3.838  0.00  0.00     0.048 A 
ATOM      4  C3  UNL d   1      -4.443   1.351   3.714  0.00  0.00     0.023 A 
ATOM      5  C4  UNL d   1      -5.171   0.791   2.663  0.00  0.00     0.048 A 
ATOM      6  C5  UNL d   1      -4.524  -0.024   1.732  0.00  0.00     0.003 A 
ATOM      7  I   UNL d   1      -5.402   2.566   5.102  0.00  0.00    -0.146 I 
ENDROOT
TORSDOF 0
ENDMDL
