MODEL 1
REMARK minimizedAffinity 18.9250565
REMARK minimizedRMSD -1
REMARK  0 active torsions:
REMARK  status: ('A' for Active; 'I' for Inactive)
ROOT
ATOM      1  C   UNL d   1      -1.706   0.360   3.407  0.00  0.00     0.023 A 
ATOM      2  C1  UNL d   1      -1.648   0.347   4.801  0.00  0.00     0.003 A 
ATOM      3  C2  UNL d   1      -2.572   1.081   5.546  0.00  0.00     0.048 A 
ATOM      4  C3  UNL d   1      -3.553   1.826   4.892  0.00  0.00     0.023 A 
ATOM      5  C4  UNL d   1      -3.616   1.841   3.498  0.00  0.00     0.048 A 
ATOM      6  C5  UNL d   1      -2.689   1.106   2.756  0.00  0.00     0.003 A 
ATOM      7  I   UNL d   1      -4.930   2.919   6.000  0.00  0.00    -0.146 I 
ENDROOT
TORSDOF 0
ENDMDL
