MODEL 1
REMARK minimizedAffinity 8.5743742
REMARK minimizedRMSD -1
REMARK  0 active torsions:
REMARK  status: ('A' for Active; 'I' for Inactive)
ROOT
ATOM      1  C   UNL d   1      -1.067  -5.793  -5.623  0.00  0.00     0.023 A 
ATOM      2  C1  UNL d   1      -2.250  -5.999  -4.913  0.00  0.00     0.003 A 
ATOM      3  C2  UNL d   1      -2.343  -5.598  -3.579  0.00  0.00     0.048 A 
ATOM      4  C3  UNL d   1      -1.250  -4.990  -2.961  0.00  0.00     0.023 A 
ATOM      5  C4  UNL d   1      -0.065  -4.781  -3.669  0.00  0.00     0.048 A 
ATOM      6  C5  UNL d   1       0.024  -5.185  -5.002  0.00  0.00     0.003 A 
ATOM      7  I   UNL d   1      -1.387  -4.392  -0.975  0.00  0.00    -0.146 I 
ENDROOT
TORSDOF 0
ENDMDL
