MODEL 1
REMARK minimizedAffinity 12.2848959
REMARK minimizedRMSD -1
REMARK  0 active torsions:
REMARK  status: ('A' for Active; 'I' for Inactive)
ROOT
ATOM      1  C   UNL d   1       5.939   4.730   0.376  0.00  0.00     0.023 A 
ATOM      2  C1  UNL d   1       5.990   3.542  -0.354  0.00  0.00     0.003 A 
ATOM      3  C2  UNL d   1       5.999   3.580  -1.750  0.00  0.00     0.048 A 
ATOM      4  C3  UNL d   1       5.959   4.808  -2.409  0.00  0.00     0.023 A 
ATOM      5  C4  UNL d   1       5.910   5.999  -1.683  0.00  0.00     0.048 A 
ATOM      6  C5  UNL d   1       5.899   5.956  -0.287  0.00  0.00     0.003 A 
ATOM      7  I   UNL d   1       5.974   4.866  -4.487  0.00  0.00    -0.146 I 
ENDROOT
TORSDOF 0
ENDMDL
