MODEL 1
REMARK minimizedAffinity 7.05941916
REMARK minimizedRMSD -1
REMARK  0 active torsions:
REMARK  status: ('A' for Active; 'I' for Inactive)
ROOT
ATOM      1  C   UNL d   1      -0.724   0.581   4.235  0.00  0.00     0.023 A 
ATOM      2  C1  UNL d   1      -0.946   0.421   2.867  0.00  0.00     0.003 A 
ATOM      3  C2  UNL d   1      -0.557  -0.759   2.229  0.00  0.00     0.048 A 
ATOM      4  C3  UNL d   1       0.053  -1.774   2.964  0.00  0.00     0.023 A 
ATOM      5  C4  UNL d   1       0.276  -1.619   4.333  0.00  0.00     0.048 A 
ATOM      6  C5  UNL d   1      -0.114  -0.438   4.967  0.00  0.00     0.003 A 
ATOM      7  I   UNL d   1       0.632  -3.530   2.015  0.00  0.00    -0.146 I 
ENDROOT
TORSDOF 0
ENDMDL
