MODEL 1
REMARK minimizedAffinity 4.13908625
REMARK minimizedRMSD -1
REMARK  0 active torsions:
REMARK  status: ('A' for Active; 'I' for Inactive)
ROOT
ATOM      1  C   UNL d   1       0.998  -5.231  -2.872  0.00  0.00     0.023 A 
ATOM      2  C1  UNL d   1       0.794  -5.767  -4.143  0.00  0.00     0.003 A 
ATOM      3  C2  UNL d   1      -0.504  -5.989  -4.608  0.00  0.00     0.048 A 
ATOM      4  C3  UNL d   1      -1.593  -5.671  -3.797  0.00  0.00     0.023 A 
ATOM      5  C4  UNL d   1      -1.393  -5.133  -2.525  0.00  0.00     0.048 A 
ATOM      6  C5  UNL d   1      -0.094  -4.914  -2.064  0.00  0.00     0.003 A 
ATOM      7  I   UNL d   1      -3.525  -6.000  -4.488  0.00  0.00    -0.146 I 
ENDROOT
TORSDOF 0
ENDMDL
