MODEL 1
REMARK minimizedAffinity 7.54565239
REMARK minimizedRMSD -1
REMARK  0 active torsions:
REMARK  status: ('A' for Active; 'I' for Inactive)
ROOT
ATOM      1  C   UNL d   1      -2.253   0.468   2.506  0.00  0.00     0.023 A 
ATOM      2  C1  UNL d   1      -1.520   0.722   3.665  0.00  0.00     0.003 A 
ATOM      3  C2  UNL d   1      -0.265   0.136   3.841  0.00  0.00     0.048 A 
ATOM      4  C3  UNL d   1       0.251  -0.703   2.854  0.00  0.00     0.023 A 
ATOM      5  C4  UNL d   1      -0.479  -0.959   1.692  0.00  0.00     0.048 A 
ATOM      6  C5  UNL d   1      -1.734  -0.372   1.521  0.00  0.00     0.003 A 
ATOM      7  I   UNL d   1       2.119  -1.576   3.114  0.00  0.00    -0.146 I 
ENDROOT
TORSDOF 0
ENDMDL
