MODEL 1
REMARK minimizedAffinity 13.9533062
REMARK minimizedRMSD -1
REMARK  0 active torsions:
REMARK  status: ('A' for Active; 'I' for Inactive)
ROOT
ATOM      1  C   UNL d   1      -0.539   0.031   3.399  0.00  0.00     0.023 A 
ATOM      2  C1  UNL d   1      -1.537   0.762   4.044  0.00  0.00     0.003 A 
ATOM      3  C2  UNL d   1      -2.803   0.879   3.466  0.00  0.00     0.048 A 
ATOM      4  C3  UNL d   1      -3.065   0.262   2.243  0.00  0.00     0.023 A 
ATOM      5  C4  UNL d   1      -2.070  -0.471   1.595  0.00  0.00     0.048 A 
ATOM      6  C5  UNL d   1      -0.805  -0.585   2.176  0.00  0.00     0.003 A 
ATOM      7  I   UNL d   1      -4.948   0.435   1.381  0.00  0.00    -0.146 I 
ENDROOT
TORSDOF 0
ENDMDL
