MODEL 1
REMARK minimizedAffinity -5.509583
REMARK minimizedRMSD -1
REMARK  1 active torsions:
REMARK  status: ('A' for Active; 'I' for Inactive)
REMARK    1  A    between atoms: C1_2  and  C2_3 
ROOT
ATOM      1  C2  UNL d   1       0.629  -0.682   0.687  0.00  0.00    -0.076 A 
ATOM      2  C3  UNL d   1       1.316   0.361   0.044  0.00  0.00     0.004 A 
ATOM      3  C4  UNL d   1       2.692   0.517   0.198  0.00  0.00    -0.003 A 
ATOM      4  C5  UNL d   1       3.404  -0.369   0.998  0.00  0.00     0.000 A 
ATOM      5  C6  UNL d   1       2.742  -1.421   1.630  0.00  0.00     0.000 A 
ATOM      6  C7  UNL d   1       1.357  -1.602   1.472  0.00  0.00    -0.073 A 
ATOM      7  C8  UNL d   1       0.693  -2.750   2.182  0.00  0.00     0.078 C 
ENDROOT
BRANCH   1   8
ATOM      8  C1  UNL d   1      -0.869  -0.785   0.505  0.00  0.00     0.053 C 
ATOM      9  C   UNL d   1      -1.370   0.037  -0.672  0.00  0.00     0.018 C 
ENDBRANCH   1   8
TORSDOF 1
ENDMDL
