MODEL 1
REMARK minimizedAffinity -3.04036474
REMARK minimizedRMSD -1
REMARK  1 active torsions:
REMARK  status: ('A' for Active; 'I' for Inactive)
REMARK    1  A    between atoms: C1_2  and  C2_3 
ROOT
ATOM      1  C2  UNL d   1      -0.125  -0.761   0.843  0.00  0.00    -0.076 A 
ATOM      2  C3  UNL d   1       0.211  -2.026   1.358  0.00  0.00     0.004 A 
ATOM      3  C4  UNL d   1       1.506  -2.303   1.791  0.00  0.00    -0.003 A 
ATOM      4  C5  UNL d   1       2.487  -1.320   1.718  0.00  0.00     0.000 A 
ATOM      5  C6  UNL d   1       2.167  -0.054   1.226  0.00  0.00     0.000 A 
ATOM      6  C7  UNL d   1       0.862   0.246   0.800  0.00  0.00    -0.073 A 
ATOM      7  C8  UNL d   1       0.575   1.626   0.273  0.00  0.00     0.078 C 
ENDROOT
BRANCH   1   8
ATOM      8  C1  UNL d   1      -1.539  -0.527   0.362  0.00  0.00     0.053 C 
ATOM      9  C   UNL d   1      -1.602  -0.175  -1.116  0.00  0.00     0.018 C 
ENDBRANCH   1   8
TORSDOF 1
ENDMDL
