MODEL 1
REMARK minimizedAffinity -3.95366812
REMARK minimizedRMSD -1
REMARK  1 active torsions:
REMARK  status: ('A' for Active; 'I' for Inactive)
REMARK    1  A    between atoms: C1_2  and  C2_3 
ROOT
ATOM      1  C2  UNL d   1       1.313  -0.567   0.608  0.00  0.00    -0.076 A 
ATOM      2  C3  UNL d   1       0.973  -1.849   1.073  0.00  0.00     0.004 A 
ATOM      3  C4  UNL d   1      -0.333  -2.150   1.457  0.00  0.00    -0.003 A 
ATOM      4  C5  UNL d   1      -1.320  -1.174   1.381  0.00  0.00     0.000 A 
ATOM      5  C6  UNL d   1      -1.005   0.098   0.904  0.00  0.00     0.000 A 
ATOM      6  C7  UNL d   1       0.303   0.413   0.498  0.00  0.00    -0.073 A 
ATOM      7  C8  UNL d   1       0.589   1.803  -0.002  0.00  0.00     0.078 C 
ENDROOT
BRANCH   1   8
ATOM      8  C1  UNL d   1       2.751  -0.291   0.232  0.00  0.00     0.053 C 
ATOM      9  C   UNL d   1       3.058  -0.665  -1.210  0.00  0.00     0.018 C 
ENDBRANCH   1   8
TORSDOF 1
ENDMDL
