MODEL 1
REMARK minimizedAffinity -2.5829432
REMARK minimizedRMSD -1
REMARK  1 active torsions:
REMARK  status: ('A' for Active; 'I' for Inactive)
REMARK    1  A    between atoms: C1_2  and  C2_3 
ROOT
ATOM      1  C2  UNL d   1       0.448  -0.101   0.229  0.00  0.00    -0.076 A 
ATOM      2  C3  UNL d   1       0.544  -1.502   0.155  0.00  0.00     0.004 A 
ATOM      3  C4  UNL d   1       1.786  -2.135   0.118  0.00  0.00    -0.003 A 
ATOM      4  C5  UNL d   1       2.951  -1.378   0.156  0.00  0.00     0.000 A 
ATOM      5  C6  UNL d   1       2.875   0.012   0.247  0.00  0.00     0.000 A 
ATOM      6  C7  UNL d   1       1.631   0.665   0.302  0.00  0.00    -0.073 A 
ATOM      7  C8  UNL d   1       1.608   2.166   0.394  0.00  0.00     0.078 C 
ENDROOT
BRANCH   1   8
ATOM      8  C1  UNL d   1      -0.925   0.531   0.238  0.00  0.00     0.053 C 
ATOM      9  C   UNL d   1      -1.572   0.538  -1.138  0.00  0.00     0.018 C 
ENDBRANCH   1   8
TORSDOF 1
ENDMDL
