MODEL 1
REMARK minimizedAffinity -4.99928045
REMARK minimizedRMSD -1
REMARK  1 active torsions:
REMARK  status: ('A' for Active; 'I' for Inactive)
REMARK    1  A    between atoms: C1_2  and  C2_3 
ROOT
ATOM      1  C2  UNL d   1       0.592  -0.387   0.853  0.00  0.00    -0.076 A 
ATOM      2  C3  UNL d   1       1.436   0.623   0.359  0.00  0.00     0.004 A 
ATOM      3  C4  UNL d   1       2.813   0.574   0.569  0.00  0.00    -0.003 A 
ATOM      4  C5  UNL d   1       3.369  -0.487   1.275  0.00  0.00     0.000 A 
ATOM      5  C6  UNL d   1       2.549  -1.507   1.757  0.00  0.00     0.000 A 
ATOM      6  C7  UNL d   1       1.161  -1.481   1.540  0.00  0.00    -0.073 A 
ATOM      7  C8  UNL d   1       0.324  -2.605   2.088  0.00  0.00     0.078 C 
ENDROOT
BRANCH   1   8
ATOM      8  C1  UNL d   1      -0.896  -0.267   0.618  0.00  0.00     0.053 C 
ATOM      9  C   UNL d   1      -1.228   0.611  -0.579  0.00  0.00     0.018 C 
ENDBRANCH   1   8
TORSDOF 1
ENDMDL
