MODEL 1
REMARK minimizedAffinity -0.891488016
REMARK minimizedRMSD -1
REMARK  1 active torsions:
REMARK  status: ('A' for Active; 'I' for Inactive)
REMARK    1  A    between atoms: C1_2  and  C2_3 
ROOT
ATOM      1  C2  UNL d   1      -0.269  -0.087  -0.167  0.00  0.00    -0.076 A 
ATOM      2  C3  UNL d   1       0.024  -1.445   0.048  0.00  0.00     0.004 A 
ATOM      3  C4  UNL d   1       1.164  -1.831   0.750  0.00  0.00    -0.003 A 
ATOM      4  C5  UNL d   1       2.031  -0.865   1.249  0.00  0.00     0.000 A 
ATOM      5  C6  UNL d   1       1.747   0.488   1.060  0.00  0.00     0.000 A 
ATOM      6  C7  UNL d   1       0.593   0.894   0.369  0.00  0.00    -0.073 A 
ATOM      7  C8  UNL d   1       0.340   2.366   0.189  0.00  0.00     0.078 C 
ENDROOT
BRANCH   1   8
ATOM      8  C1  UNL d   1      -1.506   0.271  -0.960  0.00  0.00     0.053 C 
ATOM      9  C   UNL d   1      -1.570  -0.452  -2.297  0.00  0.00     0.018 C 
ENDBRANCH   1   8
TORSDOF 1
ENDMDL
