MODEL 1
REMARK minimizedAffinity -4.16309357
REMARK minimizedRMSD -1
REMARK  1 active torsions:
REMARK  status: ('A' for Active; 'I' for Inactive)
REMARK    1  A    between atoms: C1_2  and  C2_3 
ROOT
ATOM      1  C2  UNL d   1      -0.114   0.026  -0.018  0.00  0.00    -0.076 A 
ATOM      2  C3  UNL d   1       0.164   1.403   0.042  0.00  0.00     0.004 A 
ATOM      3  C4  UNL d   1       1.434   1.864   0.382  0.00  0.00    -0.003 A 
ATOM      4  C5  UNL d   1       2.448   0.957   0.666  0.00  0.00     0.000 A 
ATOM      5  C6  UNL d   1       2.196  -0.413   0.594  0.00  0.00     0.000 A 
ATOM      6  C7  UNL d   1       0.925  -0.895   0.237  0.00  0.00    -0.073 A 
ATOM      7  C8  UNL d   1       0.707  -2.382   0.180  0.00  0.00     0.078 C 
ENDROOT
BRANCH   1   8
ATOM      8  C1  UNL d   1      -1.518  -0.416  -0.365  0.00  0.00     0.053 C 
ATOM      9  C   UNL d   1      -1.921  -0.019  -1.777  0.00  0.00     0.018 C 
ENDBRANCH   1   8
TORSDOF 1
ENDMDL
