MODEL 1
REMARK minimizedAffinity -5.31369972
REMARK minimizedRMSD -1
REMARK  0 active torsions:
REMARK  status: ('A' for Active; 'I' for Inactive)
ROOT
ATOM      1  C4' PXY d   1       2.259  -0.606  -1.313  0.00  0.00     0.077 C 
ATOM      2  C1' PXY d   1      -0.954  -1.860   3.326  0.00  0.00     0.077 C 
ATOM      3  C1  PXY d   1      -0.100  -1.536   2.116  0.00  0.00    -0.082 A 
ATOM      4  C2  PXY d   1      -0.487  -0.587   1.278  0.00  0.00     0.003 A 
ATOM      5  C3  PXY d   1       0.256  -0.303   0.161  0.00  0.00     0.003 A 
ATOM      6  C4  PXY d   1       1.434  -0.961  -0.072  0.00  0.00    -0.082 A 
ATOM      7  C5  PXY d   1       1.841  -1.922   0.783  0.00  0.00     0.003 A 
ATOM      8  C6  PXY d   1       1.051  -2.224   1.889  0.00  0.00     0.003 A 
ENDROOT
TORSDOF 0
ENDMDL
