MODEL 1
REMARK minimizedAffinity -1.97871375
REMARK minimizedRMSD -1
REMARK  0 active torsions:
REMARK  status: ('A' for Active; 'I' for Inactive)
ROOT
ATOM      1  C4' PXY d   1      -1.847   1.864  -1.923  0.00  0.00     0.077 C 
ATOM      2  C1' PXY d   1       1.991  -1.404   0.905  0.00  0.00     0.077 C 
ATOM      3  C1  PXY d   1       0.974  -0.553   0.170  0.00  0.00    -0.082 A 
ATOM      4  C2  PXY d   1       1.300   0.001  -0.987  0.00  0.00     0.003 A 
ATOM      5  C3  PXY d   1       0.404   0.800  -1.650  0.00  0.00     0.003 A 
ATOM      6  C4  PXY d   1      -0.856   0.990  -1.150  0.00  0.00    -0.082 A 
ATOM      7  C5  PXY d   1      -1.200   0.419   0.024  0.00  0.00     0.003 A 
ATOM      8  C6  PXY d   1      -0.262  -0.355   0.702  0.00  0.00     0.003 A 
ENDROOT
TORSDOF 0
ENDMDL
