MODEL 1
REMARK minimizedAffinity -2.87293744
REMARK minimizedRMSD -1
REMARK  0 active torsions:
REMARK  status: ('A' for Active; 'I' for Inactive)
ROOT
ATOM      1  C4' PXY d   1       0.183   4.830  -4.348  0.00  0.00     0.077 C 
ATOM      2  C1' PXY d   1      -3.206   0.613  -2.313  0.00  0.00     0.077 C 
ATOM      3  C1  PXY d   1      -2.313   1.711  -2.856  0.00  0.00    -0.082 A 
ATOM      4  C2  PXY d   1      -1.963   2.717  -2.071  0.00  0.00     0.003 A 
ATOM      5  C3  PXY d   1      -1.182   3.735  -2.555  0.00  0.00     0.003 A 
ATOM      6  C4  PXY d   1      -0.710   3.695  -3.840  0.00  0.00    -0.082 A 
ATOM      7  C5  PXY d   1      -1.053   2.666  -4.643  0.00  0.00     0.003 A 
ATOM      8  C6  PXY d   1      -1.881   1.663  -4.145  0.00  0.00     0.003 A 
ENDROOT
TORSDOF 0
ENDMDL
