MODEL 1
REMARK minimizedAffinity -3.75572753
REMARK minimizedRMSD -1
REMARK  0 active torsions:
REMARK  status: ('A' for Active; 'I' for Inactive)
ROOT
ATOM      1  C4' PXY d   1      -0.981  -1.295   3.287  0.00  0.00     0.077 C 
ATOM      2  C1' PXY d   1      -1.041   2.349  -1.200  0.00  0.00     0.077 C 
ATOM      3  C1  PXY d   1      -1.019   1.384  -0.030  0.00  0.00    -0.082 A 
ATOM      4  C2  PXY d   1      -1.909   1.513   0.941  0.00  0.00     0.003 A 
ATOM      5  C3  PXY d   1      -1.883   0.669   2.021  0.00  0.00     0.003 A 
ATOM      6  C4  PXY d   1      -0.971  -0.350   2.083  0.00  0.00    -0.082 A 
ATOM      7  C5  PXY d   1      -0.067  -0.495   1.091  0.00  0.00     0.003 A 
ATOM      8  C6  PXY d   1      -0.083   0.398   0.023  0.00  0.00     0.003 A 
ENDROOT
TORSDOF 0
ENDMDL
