MODEL 1
REMARK minimizedAffinity -3.78890753
REMARK minimizedRMSD -1
REMARK  0 active torsions:
REMARK  status: ('A' for Active; 'I' for Inactive)
ROOT
ATOM      1  C4' PXY d   1      -0.955  -2.213   3.035  0.00  0.00     0.077 C 
ATOM      2  C1' PXY d   1       2.132   0.362  -1.118  0.00  0.00     0.077 C 
ATOM      3  C1  PXY d   1       1.329  -0.324  -0.031  0.00  0.00    -0.082 A 
ATOM      4  C2  PXY d   1       0.120   0.122   0.270  0.00  0.00     0.003 A 
ATOM      5  C3  PXY d   1      -0.607  -0.467   1.272  0.00  0.00     0.003 A 
ATOM      6  C4  PXY d   1      -0.113  -1.557   1.938  0.00  0.00    -0.082 A 
ATOM      7  C5  PXY d   1       1.116  -2.024   1.630  0.00  0.00     0.003 A 
ATOM      8  C6  PXY d   1       1.854  -1.387   0.637  0.00  0.00     0.003 A 
ENDROOT
TORSDOF 0
ENDMDL
