MODEL 1
REMARK minimizedAffinity -0.692008615
REMARK minimizedRMSD -1
REMARK  0 active torsions:
REMARK  status: ('A' for Active; 'I' for Inactive)
ROOT
ATOM      1  C4' PXY d   1       1.253   5.998  -4.507  0.00  0.00     0.077 C 
ATOM      2  C1' PXY d   1      -2.133   1.693  -2.657  0.00  0.00     0.077 C 
ATOM      3  C1  PXY d   1      -1.241   2.815  -3.152  0.00  0.00    -0.082 A 
ATOM      4  C2  PXY d   1      -0.782   3.712  -2.295  0.00  0.00     0.003 A 
ATOM      5  C3  PXY d   1      -0.000   4.751  -2.731  0.00  0.00     0.003 A 
ATOM      6  C4  PXY d   1       0.358   4.843  -4.050  0.00  0.00    -0.082 A 
ATOM      7  C5  PXY d   1      -0.098   3.925  -4.929  0.00  0.00     0.003 A 
ATOM      8  C6  PXY d   1      -0.924   2.901  -4.473  0.00  0.00     0.003 A 
ENDROOT
TORSDOF 0
ENDMDL
