MODEL 1
REMARK minimizedAffinity -3.436445
REMARK minimizedRMSD -1
REMARK  0 active torsions:
REMARK  status: ('A' for Active; 'I' for Inactive)
ROOT
ATOM      1  C4' PXY d   1       3.080  -0.713  -0.957  0.00  0.00     0.077 C 
ATOM      2  C1' PXY d   1      -1.355  -0.334   2.731  0.00  0.00     0.077 C 
ATOM      3  C1  PXY d   1      -0.184  -0.438   1.774  0.00  0.00    -0.082 A 
ATOM      4  C2  PXY d   1      -0.181   0.284   0.665  0.00  0.00     0.003 A 
ATOM      5  C3  PXY d   1       0.855   0.179  -0.228  0.00  0.00     0.003 A 
ATOM      6  C4  PXY d   1       1.923  -0.634   0.043  0.00  0.00    -0.082 A 
ATOM      7  C5  PXY d   1       1.932  -1.366   1.178  0.00  0.00     0.003 A 
ATOM      8  C6  PXY d   1       0.851  -1.275   2.051  0.00  0.00     0.003 A 
ENDROOT
TORSDOF 0
ENDMDL
