MODEL 1
REMARK minimizedAffinity -1.99293935
REMARK minimizedRMSD -1
REMARK  0 active torsions:
REMARK  status: ('A' for Active; 'I' for Inactive)
ROOT
ATOM      1  C4' PXY d   1      -1.236   2.257  -1.276  0.00  0.00     0.077 C 
ATOM      2  C1' PXY d   1       2.202  -1.698   1.163  0.00  0.00     0.077 C 
ATOM      3  C1  PXY d   1       1.290  -0.668   0.526  0.00  0.00    -0.082 A 
ATOM      4  C2  PXY d   1       1.776   0.163  -0.381  0.00  0.00     0.003 A 
ATOM      5  C3  PXY d   1       0.973   1.122  -0.944  0.00  0.00     0.003 A 
ATOM      6  C4  PXY d   1      -0.354   1.195  -0.614  0.00  0.00    -0.082 A 
ATOM      7  C5  PXY d   1      -0.859   0.343   0.303  0.00  0.00     0.003 A 
ATOM      8  C6  PXY d   1      -0.018  -0.595   0.893  0.00  0.00     0.003 A 
ENDROOT
TORSDOF 0
ENDMDL
