MODEL 1
REMARK minimizedAffinity -3.94094419
REMARK minimizedRMSD -1
REMARK  0 active torsions:
REMARK  status: ('A' for Active; 'I' for Inactive)
ROOT
ATOM      1  C4' PXY d   1      -0.784  -1.866   3.363  0.00  0.00     0.077 C 
ATOM      2  C1' PXY d   1       2.031   0.409  -1.145  0.00  0.00     0.077 C 
ATOM      3  C1  PXY d   1       1.301  -0.198   0.037  0.00  0.00    -0.082 A 
ATOM      4  C2  PXY d   1       0.031   0.108   0.250  0.00  0.00     0.003 A 
ATOM      5  C3  PXY d   1      -0.635  -0.406   1.332  0.00  0.00     0.003 A 
ATOM      6  C4  PXY d   1      -0.010  -1.285   2.176  0.00  0.00    -0.082 A 
ATOM      7  C5  PXY d   1       1.282  -1.610   1.961  0.00  0.00     0.003 A 
ATOM      8  C6  PXY d   1       1.953  -1.045   0.880  0.00  0.00     0.003 A 
ENDROOT
TORSDOF 0
ENDMDL
