MODEL 1
REMARK minimizedAffinity -2.72280622
REMARK minimizedRMSD -1
REMARK  0 active torsions:
REMARK  status: ('A' for Active; 'I' for Inactive)
ROOT
ATOM      1  C4' PXY d   1      -1.799  -1.176   3.034  0.00  0.00     0.077 C 
ATOM      2  C1' PXY d   1       1.796   0.979  -0.946  0.00  0.00     0.077 C 
ATOM      3  C1  PXY d   1       0.859   0.402   0.096  0.00  0.00    -0.082 A 
ATOM      4  C2  PXY d   1      -0.302   0.992   0.330  0.00  0.00     0.003 A 
ATOM      5  C3  PXY d   1      -1.148   0.503   1.292  0.00  0.00     0.003 A 
ATOM      6  C4  PXY d   1      -0.825  -0.634   1.984  0.00  0.00    -0.082 A 
ATOM      7  C5  PXY d   1       0.353  -1.248   1.744  0.00  0.00     0.003 A 
ATOM      8  C6  PXY d   1       1.216  -0.711   0.792  0.00  0.00     0.003 A 
ENDROOT
TORSDOF 0
ENDMDL
