MODEL 1
REMARK minimizedAffinity -2.17523074
REMARK minimizedRMSD -1
REMARK  0 active torsions:
REMARK  status: ('A' for Active; 'I' for Inactive)
ROOT
ATOM      1  C4' PXY d   1      -1.320   2.383  -1.585  0.00  0.00     0.077 C 
ATOM      2  C1' PXY d   1       2.132  -1.537   0.891  0.00  0.00     0.077 C 
ATOM      3  C1  PXY d   1       1.216  -0.516   0.246  0.00  0.00    -0.082 A 
ATOM      4  C2  PXY d   1       1.667   0.230  -0.750  0.00  0.00     0.003 A 
ATOM      5  C3  PXY d   1       0.862   1.180  -1.324  0.00  0.00     0.003 A 
ATOM      6  C4  PXY d   1      -0.434   1.333  -0.910  0.00  0.00    -0.082 A 
ATOM      7  C5  PXY d   1      -0.904   0.568   0.098  0.00  0.00     0.003 A 
ATOM      8  C6  PXY d   1      -0.059  -0.362   0.695  0.00  0.00     0.003 A 
ENDROOT
TORSDOF 0
ENDMDL
