MODEL 1
REMARK minimizedAffinity -4.57026291
REMARK minimizedRMSD -1
REMARK  0 active torsions:
REMARK  status: ('A' for Active; 'I' for Inactive)
ROOT
ATOM      1  C4' PXY d   1      -1.018  -1.223   2.726  0.00  0.00     0.077 C 
ATOM      2  C1' PXY d   1      -1.389   2.383  -1.777  0.00  0.00     0.077 C 
ATOM      3  C1  PXY d   1      -1.299   1.445  -0.590  0.00  0.00    -0.082 A 
ATOM      4  C2  PXY d   1      -0.250   0.649  -0.462  0.00  0.00     0.003 A 
ATOM      5  C3  PXY d   1      -0.169  -0.228   0.589  0.00  0.00     0.003 A 
ATOM      6  C4  PXY d   1      -1.146  -0.253   1.548  0.00  0.00    -0.082 A 
ATOM      7  C5  PXY d   1      -2.214   0.563   1.430  0.00  0.00     0.003 A 
ATOM      8  C6  PXY d   1      -2.298   1.417   0.334  0.00  0.00     0.003 A 
ENDROOT
TORSDOF 0
ENDMDL
