MODEL 1
REMARK minimizedAffinity -1.72370207
REMARK minimizedRMSD -1
REMARK  0 active torsions:
REMARK  status: ('A' for Active; 'I' for Inactive)
ROOT
ATOM      1  C4' PXY d   1       1.877  -1.122   1.086  0.00  0.00     0.077 C 
ATOM      2  C1' PXY d   1      -1.433   2.345  -2.146  0.00  0.00     0.077 C 
ATOM      3  C1  PXY d   1      -0.557   1.434  -1.309  0.00  0.00    -0.082 A 
ATOM      4  C2  PXY d   1      -1.070   0.821  -0.254  0.00  0.00     0.003 A 
ATOM      5  C3  PXY d   1      -0.284   0.019   0.533  0.00  0.00     0.003 A 
ATOM      6  C4  PXY d   1       1.027  -0.200   0.206  0.00  0.00    -0.082 A 
ATOM      7  C5  PXY d   1       1.556   0.413  -0.874  0.00  0.00     0.003 A 
ATOM      8  C6  PXY d   1       0.752   1.256  -1.636  0.00  0.00     0.003 A 
ENDROOT
TORSDOF 0
ENDMDL
