MODEL 1
REMARK minimizedAffinity -4.34482431
REMARK minimizedRMSD -1
REMARK  0 active torsions:
REMARK  status: ('A' for Active; 'I' for Inactive)
ROOT
ATOM      1  C4' PXY d   1      -1.998  -0.862   3.185  0.00  0.00     0.077 C 
ATOM      2  C1' PXY d   1       2.533  -0.767  -0.402  0.00  0.00     0.077 C 
ATOM      3  C1  PXY d   1       1.342  -0.779   0.536  0.00  0.00    -0.082 A 
ATOM      4  C2  PXY d   1       1.302  -1.651   1.530  0.00  0.00     0.003 A 
ATOM      5  C3  PXY d   1       0.218  -1.698   2.368  0.00  0.00     0.003 A 
ATOM      6  C4  PXY d   1      -0.811  -0.807   2.219  0.00  0.00    -0.082 A 
ATOM      7  C5  PXY d   1      -0.773   0.092   1.214  0.00  0.00     0.003 A 
ATOM      8  C6  PXY d   1       0.318   0.096   0.349  0.00  0.00     0.003 A 
ENDROOT
TORSDOF 0
ENDMDL
