MODEL 1
REMARK minimizedAffinity -2.99887919
REMARK minimizedRMSD -1
REMARK  0 active torsions:
REMARK  status: ('A' for Active; 'I' for Inactive)
ROOT
ATOM      1  C4' PXY d   1       0.346   4.774  -4.873  0.00  0.00     0.077 C 
ATOM      2  C1' PXY d   1      -2.979   0.819  -2.282  0.00  0.00     0.077 C 
ATOM      3  C1  PXY d   1      -2.103   1.860  -2.950  0.00  0.00    -0.082 A 
ATOM      4  C2  PXY d   1      -2.414   2.299  -4.159  0.00  0.00     0.003 A 
ATOM      5  C3  PXY d   1      -1.615   3.217  -4.791  0.00  0.00     0.003 A 
ATOM      6  C4  PXY d   1      -0.515   3.730  -4.157  0.00  0.00    -0.082 A 
ATOM      7  C5  PXY d   1      -0.197   3.296  -2.919  0.00  0.00     0.003 A 
ATOM      8  C6  PXY d   1      -0.998   2.333  -2.312  0.00  0.00     0.003 A 
ENDROOT
TORSDOF 0
ENDMDL
