MODEL 1
REMARK minimizedAffinity -0.808620572
REMARK minimizedRMSD -1
REMARK  0 active torsions:
REMARK  status: ('A' for Active; 'I' for Inactive)
ROOT
ATOM      1  C4' PXY d   1      -0.071  -2.060   3.656  0.00  0.00     0.077 C 
ATOM      2  C1' PXY d   1       1.944   0.219  -1.259  0.00  0.00     0.077 C 
ATOM      3  C1  PXY d   1       1.407  -0.369   0.031  0.00  0.00    -0.082 A 
ATOM      4  C2  PXY d   1       2.175  -1.167   0.755  0.00  0.00     0.003 A 
ATOM      5  C3  PXY d   1       1.694  -1.732   1.908  0.00  0.00     0.003 A 
ATOM      6  C4  PXY d   1       0.432  -1.437   2.351  0.00  0.00    -0.082 A 
ATOM      7  C5  PXY d   1      -0.353  -0.615   1.623  0.00  0.00     0.003 A 
ATOM      8  C6  PXY d   1       0.139  -0.084   0.434  0.00  0.00     0.003 A 
ENDROOT
TORSDOF 0
ENDMDL
