MODEL 1
REMARK minimizedAffinity -3.91851187
REMARK minimizedRMSD -1
REMARK  0 active torsions:
REMARK  status: ('A' for Active; 'I' for Inactive)
ROOT
ATOM      1  C4' PXY d   1       1.034  -3.105   2.717  0.00  0.00     0.077 C 
ATOM      2  C1' PXY d   1      -0.172   1.025  -1.143  0.00  0.00     0.077 C 
ATOM      3  C1  PXY d   1       0.136  -0.052  -0.122  0.00  0.00    -0.082 A 
ATOM      4  C2  PXY d   1       1.265  -0.736  -0.214  0.00  0.00     0.003 A 
ATOM      5  C3  PXY d   1       1.545  -1.736   0.682  0.00  0.00     0.003 A 
ATOM      6  C4  PXY d   1       0.685  -2.002   1.714  0.00  0.00    -0.082 A 
ATOM      7  C5  PXY d   1      -0.463  -1.301   1.821  0.00  0.00     0.003 A 
ATOM      8  C6  PXY d   1      -0.748  -0.318   0.877  0.00  0.00     0.003 A 
ENDROOT
TORSDOF 0
ENDMDL
