MODEL 1
REMARK minimizedAffinity -4.15450954
REMARK minimizedRMSD -1
REMARK  0 active torsions:
REMARK  status: ('A' for Active; 'I' for Inactive)
ROOT
ATOM      1  C4' PXY d   1      -1.136   2.306  -1.475  0.00  0.00     0.077 C 
ATOM      2  C1' PXY d   1       1.889  -1.775   1.284  0.00  0.00     0.077 C 
ATOM      3  C1  PXY d   1       1.085  -0.710   0.565  0.00  0.00    -0.082 A 
ATOM      4  C2  PXY d   1       1.602  -0.100  -0.489  0.00  0.00     0.003 A 
ATOM      5  C3  PXY d   1       0.901   0.888  -1.132  0.00  0.00     0.003 A 
ATOM      6  C4  PXY d   1      -0.363   1.218  -0.724  0.00  0.00    -0.082 A 
ATOM      7  C5  PXY d   1      -0.902   0.593   0.344  0.00  0.00     0.003 A 
ATOM      8  C6  PXY d   1      -0.158  -0.379   1.008  0.00  0.00     0.003 A 
ENDROOT
TORSDOF 0
ENDMDL
