MODEL 1
REMARK minimizedAffinity 2.74754763
REMARK minimizedRMSD -1
REMARK  0 active torsions:
REMARK  status: ('A' for Active; 'I' for Inactive)
ROOT
ATOM      1  C4' PXY d   1      -1.759  -1.404   3.256  0.00  0.00     0.077 C 
ATOM      2  C1' PXY d   1       2.492  -0.093  -0.436  0.00  0.00     0.077 C 
ATOM      3  C1  PXY d   1       1.384  -0.448   0.536  0.00  0.00    -0.082 A 
ATOM      4  C2  PXY d   1       0.160   0.010   0.328  0.00  0.00     0.003 A 
ATOM      5  C3  PXY d   1      -0.847  -0.274   1.214  0.00  0.00     0.003 A 
ATOM      6  C4  PXY d   1      -0.611  -1.079   2.296  0.00  0.00    -0.082 A 
ATOM      7  C5  PXY d   1       0.633  -1.559   2.510  0.00  0.00     0.003 A 
ATOM      8  C6  PXY d   1       1.650  -1.225   1.621  0.00  0.00     0.003 A 
ENDROOT
TORSDOF 0
ENDMDL
