MODEL 1
REMARK minimizedAffinity -2.29688454
REMARK minimizedRMSD -1
REMARK  1 active torsions:
REMARK  status: ('A' for Active; 'I' for Inactive)
REMARK    1  A    between atoms: C3_4  and  O_7 
ROOT
ATOM      1  C   UNL d   1       0.547  -0.355   0.830  0.00  0.00    -0.033 A 
ATOM      2  C1  UNL d   1      -0.345  -0.847   1.785  0.00  0.00     0.039 A 
ATOM      3  C2  UNL d   1      -1.717  -0.849   1.526  0.00  0.00    -0.080 A 
ATOM      4  C3  UNL d   1      -2.183  -0.358   0.309  0.00  0.00     0.150 A 
ATOM      5  C4  UNL d   1      -1.300   0.130  -0.648  0.00  0.00    -0.007 A 
ATOM      6  C5  UNL d   1       0.070   0.132  -0.387  0.00  0.00     0.039 A 
ENDROOT
BRANCH   4   7
ATOM      7  O   UNL d   1      -3.513  -0.335   0.013  0.00  0.00    -0.526 OA
ATOM      8  H5  UNL d   1      -4.005  -0.676   0.779  0.00  0.00     0.418 HD
ENDBRANCH   4   7
TORSDOF 1
ENDMDL
