MODEL 1
REMARK minimizedAffinity -3.39100552
REMARK minimizedRMSD -1
REMARK  1 active torsions:
REMARK  status: ('A' for Active; 'I' for Inactive)
REMARK    1  A    between atoms: C3_4  and  O_7 
ROOT
ATOM      1  C   UNL d   1      -2.175  -0.922  -0.390  0.00  0.00    -0.033 A 
ATOM      2  C1  UNL d   1      -1.595  -0.426  -1.558  0.00  0.00     0.039 A 
ATOM      3  C2  UNL d   1      -0.341   0.187  -1.511  0.00  0.00    -0.080 A 
ATOM      4  C3  UNL d   1       0.322   0.295  -0.292  0.00  0.00     0.150 A 
ATOM      5  C4  UNL d   1      -0.249  -0.201   0.876  0.00  0.00    -0.007 A 
ATOM      6  C5  UNL d   1      -1.502  -0.811   0.827  0.00  0.00     0.039 A 
ENDROOT
BRANCH   4   7
ATOM      7  O   UNL d   1       1.545   0.889  -0.195  0.00  0.00    -0.526 OA
ATOM      8  H5  UNL d   1       1.802   1.209  -1.076  0.00  0.00     0.418 HD
ENDBRANCH   4   7
TORSDOF 1
ENDMDL
