MODEL 1
REMARK minimizedAffinity -2.954072
REMARK minimizedRMSD -1
REMARK  1 active torsions:
REMARK  status: ('A' for Active; 'I' for Inactive)
REMARK    1  A    between atoms: C3_4  and  O_7 
ROOT
ATOM      1  C   UNL d   1       3.325   2.920   1.430  0.00  0.00    -0.033 A 
ATOM      2  C1  UNL d   1       3.453   2.651   0.066  0.00  0.00     0.039 A 
ATOM      3  C2  UNL d   1       2.737   1.600  -0.510  0.00  0.00    -0.080 A 
ATOM      4  C3  UNL d   1       1.897   0.828   0.287  0.00  0.00     0.150 A 
ATOM      5  C4  UNL d   1       1.761   1.093   1.645  0.00  0.00    -0.007 A 
ATOM      6  C5  UNL d   1       2.477   2.142   2.220  0.00  0.00     0.039 A 
ENDROOT
BRANCH   4   7
ATOM      7  O   UNL d   1       1.181  -0.211  -0.230  0.00  0.00    -0.526 OA
ATOM      8  H5  UNL d   1       1.397  -0.294  -1.174  0.00  0.00     0.418 HD
ENDBRANCH   4   7
TORSDOF 1
ENDMDL
