MODEL 1
REMARK minimizedAffinity -4.12545776
REMARK minimizedRMSD -1
REMARK  1 active torsions:
REMARK  status: ('A' for Active; 'I' for Inactive)
REMARK    1  A    between atoms: C3_4  and  O_7 
ROOT
ATOM      1  C   UNL d   1      -1.857  -0.171  -0.203  0.00  0.00    -0.033 A 
ATOM      2  C1  UNL d   1      -1.877  -0.964   0.946  0.00  0.00     0.039 A 
ATOM      3  C2  UNL d   1      -0.681  -1.321   1.572  0.00  0.00    -0.080 A 
ATOM      4  C3  UNL d   1       0.527  -0.878   1.039  0.00  0.00     0.150 A 
ATOM      5  C4  UNL d   1       0.554  -0.085  -0.103  0.00  0.00    -0.007 A 
ATOM      6  C5  UNL d   1      -0.641   0.270  -0.727  0.00  0.00     0.039 A 
ENDROOT
BRANCH   4   7
ATOM      7  O   UNL d   1       1.721  -1.204   1.612  0.00  0.00    -0.526 OA
ATOM      8  H5  UNL d   1       1.548  -1.779   2.376  0.00  0.00     0.418 HD
ENDBRANCH   4   7
TORSDOF 1
ENDMDL
