MODEL 1
REMARK minimizedAffinity -4.6554637
REMARK minimizedRMSD -1
REMARK  1 active torsions:
REMARK  status: ('A' for Active; 'I' for Inactive)
REMARK    1  A    between atoms: C3_4  and  O_7 
ROOT
ATOM      1  C   UNL d   1       1.048  -0.045  -0.105  0.00  0.00    -0.033 A 
ATOM      2  C1  UNL d   1       0.456  -0.426   1.101  0.00  0.00     0.039 A 
ATOM      3  C2  UNL d   1      -0.935  -0.492   1.208  0.00  0.00    -0.080 A 
ATOM      4  C3  UNL d   1      -1.721  -0.175   0.103  0.00  0.00     0.150 A 
ATOM      5  C4  UNL d   1      -1.137   0.201  -1.102  0.00  0.00    -0.007 A 
ATOM      6  C5  UNL d   1       0.251   0.267  -1.207  0.00  0.00     0.039 A 
ENDROOT
BRANCH   4   7
ATOM      7  O   UNL d   1      -3.082  -0.221   0.161  0.00  0.00    -0.526 OA
ATOM      8  H5  UNL d   1      -3.344  -0.468   1.063  0.00  0.00     0.418 HD
ENDBRANCH   4   7
TORSDOF 1
ENDMDL
