MODEL 1
REMARK minimizedAffinity -3.46456838
REMARK minimizedRMSD -1
REMARK  1 active torsions:
REMARK  status: ('A' for Active; 'I' for Inactive)
REMARK    1  A    between atoms: C3_4  and  O_7 
ROOT
ATOM      1  C   UNL d   1       0.749  -0.432   0.378  0.00  0.00    -0.033 A 
ATOM      2  C1  UNL d   1       0.079  -1.289   1.253  0.00  0.00     0.039 A 
ATOM      3  C2  UNL d   1      -1.304  -1.450   1.154  0.00  0.00    -0.080 A 
ATOM      4  C3  UNL d   1      -2.005  -0.749   0.176  0.00  0.00     0.150 A 
ATOM      5  C4  UNL d   1      -1.343   0.104  -0.701  0.00  0.00    -0.007 A 
ATOM      6  C5  UNL d   1       0.038   0.264  -0.600  0.00  0.00     0.039 A 
ENDROOT
BRANCH   4   7
ATOM      7  O   UNL d   1      -3.356  -0.869   0.044  0.00  0.00    -0.526 OA
ATOM      8  H5  UNL d   1      -3.681  -1.469   0.736  0.00  0.00     0.418 HD
ENDBRANCH   4   7
TORSDOF 1
ENDMDL
