MODEL 1
REMARK minimizedAffinity -2.69781423
REMARK minimizedRMSD -1
REMARK  1 active torsions:
REMARK  status: ('A' for Active; 'I' for Inactive)
REMARK    1  A    between atoms: C3_4  and  O_7 
ROOT
ATOM      1  C   UNL d   1       1.235   0.082   0.480  0.00  0.00    -0.033 A 
ATOM      2  C1  UNL d   1       1.101   0.465  -0.856  0.00  0.00     0.039 A 
ATOM      3  C2  UNL d   1      -0.150   0.418  -1.475  0.00  0.00    -0.080 A 
ATOM      4  C3  UNL d   1      -1.256  -0.013  -0.749  0.00  0.00     0.150 A 
ATOM      5  C4  UNL d   1      -1.131  -0.392   0.584  0.00  0.00    -0.007 A 
ATOM      6  C5  UNL d   1       0.119  -0.345   1.200  0.00  0.00     0.039 A 
ENDROOT
BRANCH   4   7
ATOM      7  O   UNL d   1      -2.496  -0.080  -1.312  0.00  0.00    -0.526 OA
ATOM      8  H5  UNL d   1      -2.425   0.185  -2.244  0.00  0.00     0.418 HD
ENDBRANCH   4   7
TORSDOF 1
ENDMDL
