MODEL 1
REMARK minimizedAffinity -3.23875523
REMARK minimizedRMSD -1
REMARK  1 active torsions:
REMARK  status: ('A' for Active; 'I' for Inactive)
REMARK    1  A    between atoms: C3_4  and  O_7 
ROOT
ATOM      1  C   UNL d   1       2.552   0.134   0.295  0.00  0.00    -0.033 A 
ATOM      2  C1  UNL d   1       1.704   0.844  -0.557  0.00  0.00     0.039 A 
ATOM      3  C2  UNL d   1       0.322   0.806  -0.359  0.00  0.00    -0.080 A 
ATOM      4  C3  UNL d   1      -0.197   0.057   0.694  0.00  0.00     0.150 A 
ATOM      5  C4  UNL d   1       0.642  -0.649   1.549  0.00  0.00    -0.007 A 
ATOM      6  C5  UNL d   1       2.022  -0.611   1.349  0.00  0.00     0.039 A 
ENDROOT
BRANCH   4   7
ATOM      7  O   UNL d   1      -1.539  -0.014   0.923  0.00  0.00    -0.526 OA
ATOM      8  H5  UNL d   1      -1.997   0.500   0.237  0.00  0.00     0.418 HD
ENDBRANCH   4   7
TORSDOF 1
ENDMDL
