MODEL 1
REMARK minimizedAffinity -4.04654837
REMARK minimizedRMSD -1
REMARK  1 active torsions:
REMARK  status: ('A' for Active; 'I' for Inactive)
REMARK    1  A    between atoms: C3_4  and  O_7 
ROOT
ATOM      1  C   UNL d   1       0.487  -0.289   0.167  0.00  0.00    -0.033 A 
ATOM      2  C1  UNL d   1      -0.128   0.019  -1.048  0.00  0.00     0.039 A 
ATOM      3  C2  UNL d   1      -1.516  -0.067  -1.171  0.00  0.00    -0.080 A 
ATOM      4  C3  UNL d   1      -2.276  -0.460  -0.073  0.00  0.00     0.150 A 
ATOM      5  C4  UNL d   1      -1.670  -0.765   1.141  0.00  0.00    -0.007 A 
ATOM      6  C5  UNL d   1      -0.284  -0.679   1.262  0.00  0.00     0.039 A 
ENDROOT
BRANCH   4   7
ATOM      7  O   UNL d   1      -3.634  -0.563  -0.146  0.00  0.00    -0.526 OA
ATOM      8  H5  UNL d   1      -3.910  -0.350  -1.053  0.00  0.00     0.418 HD
ENDBRANCH   4   7
TORSDOF 1
ENDMDL
