MODEL 1
REMARK minimizedAffinity -1.223822
REMARK minimizedRMSD -1
REMARK  1 active torsions:
REMARK  status: ('A' for Active; 'I' for Inactive)
REMARK    1  A    between atoms: C3_4  and  O_7 
ROOT
ATOM      1  C   UNL d   1      -4.790   5.968   1.559  0.00  0.00    -0.033 A 
ATOM      2  C1  UNL d   1      -5.995   5.999   2.264  0.00  0.00     0.039 A 
ATOM      3  C2  UNL d   1      -5.990   5.997   3.660  0.00  0.00    -0.080 A 
ATOM      4  C3  UNL d   1      -4.775   5.965   4.339  0.00  0.00     0.150 A 
ATOM      5  C4  UNL d   1      -3.571   5.938   3.644  0.00  0.00    -0.007 A 
ATOM      6  C5  UNL d   1      -3.578   5.939   2.249  0.00  0.00     0.039 A 
ENDROOT
BRANCH   4   7
ATOM      7  O   UNL d   1      -4.720   5.957   5.701  0.00  0.00    -0.526 OA
ATOM      8  H5  UNL d   1      -5.628   5.949   6.046  0.00  0.00     0.418 HD
ENDBRANCH   4   7
TORSDOF 1
ENDMDL
