MODEL 1
REMARK minimizedAffinity -3.66204834
REMARK minimizedRMSD -1
REMARK  1 active torsions:
REMARK  status: ('A' for Active; 'I' for Inactive)
REMARK    1  A    between atoms: C3_4  and  O_7 
ROOT
ATOM      1  C   UNL d   1       1.104  -0.068   0.329  0.00  0.00    -0.033 A 
ATOM      2  C1  UNL d   1       0.854   0.404  -0.962  0.00  0.00     0.039 A 
ATOM      3  C2  UNL d   1      -0.417   0.264  -1.524  0.00  0.00    -0.080 A 
ATOM      4  C3  UNL d   1      -1.427  -0.347  -0.786  0.00  0.00     0.150 A 
ATOM      5  C4  UNL d   1      -1.186  -0.815   0.502  0.00  0.00    -0.007 A 
ATOM      6  C5  UNL d   1       0.084  -0.676   1.061  0.00  0.00     0.039 A 
ENDROOT
BRANCH   4   7
ATOM      7  O   UNL d   1      -2.682  -0.510  -1.294  0.00  0.00    -0.526 OA
ATOM      8  H5  UNL d   1      -2.693  -0.165  -2.202  0.00  0.00     0.418 HD
ENDBRANCH   4   7
TORSDOF 1
ENDMDL
