MODEL 1
REMARK minimizedAffinity -2.84695959
REMARK minimizedRMSD -1
REMARK  1 active torsions:
REMARK  status: ('A' for Active; 'I' for Inactive)
REMARK    1  A    between atoms: C3_4  and  O_7 
ROOT
ATOM      1  C   UNL d   1       0.432   0.334  -0.785  0.00  0.00    -0.033 A 
ATOM      2  C1  UNL d   1      -0.072  -0.427   0.272  0.00  0.00     0.039 A 
ATOM      3  C2  UNL d   1      -1.444  -0.665   0.371  0.00  0.00    -0.080 A 
ATOM      4  C3  UNL d   1      -2.301  -0.138  -0.591  0.00  0.00     0.150 A 
ATOM      5  C4  UNL d   1      -1.806   0.618  -1.649  0.00  0.00    -0.007 A 
ATOM      6  C5  UNL d   1      -0.435   0.855  -1.746  0.00  0.00     0.039 A 
ENDROOT
BRANCH   4   7
ATOM      7  O   UNL d   1      -3.648  -0.339  -0.533  0.00  0.00    -0.526 OA
ATOM      8  H5  UNL d   1      -3.848  -0.854   0.266  0.00  0.00     0.418 HD
ENDBRANCH   4   7
TORSDOF 1
ENDMDL
