MODEL 1
REMARK minimizedAffinity -3.88936949
REMARK minimizedRMSD -1
REMARK  1 active torsions:
REMARK  status: ('A' for Active; 'I' for Inactive)
REMARK    1  A    between atoms: C3_4  and  O_7 
ROOT
ATOM      1  C   UNL d   1      -0.863   0.257  -1.137  0.00  0.00    -0.033 A 
ATOM      2  C1  UNL d   1      -1.875  -0.395  -1.844  0.00  0.00     0.039 A 
ATOM      3  C2  UNL d   1      -2.710  -1.305  -1.192  0.00  0.00    -0.080 A 
ATOM      4  C3  UNL d   1      -2.523  -1.553   0.165  0.00  0.00     0.150 A 
ATOM      5  C4  UNL d   1      -1.519  -0.904   0.877  0.00  0.00    -0.007 A 
ATOM      6  C5  UNL d   1      -0.686   0.004   0.224  0.00  0.00     0.039 A 
ENDROOT
BRANCH   4   7
ATOM      7  O   UNL d   1      -3.309  -2.436   0.843  0.00  0.00    -0.526 OA
ATOM      8  H5  UNL d   1      -3.940  -2.830   0.218  0.00  0.00     0.418 HD
ENDBRANCH   4   7
TORSDOF 1
ENDMDL
