MODEL 1
REMARK minimizedAffinity -4.26585102
REMARK minimizedRMSD -1
REMARK  1 active torsions:
REMARK  status: ('A' for Active; 'I' for Inactive)
REMARK    1  A    between atoms: C3_4  and  O_7 
ROOT
ATOM      1  C   UNL d   1       1.058  -0.317  -0.484  0.00  0.00    -0.033 A 
ATOM      2  C1  UNL d   1       0.544  -0.504   0.800  0.00  0.00     0.039 A 
ATOM      3  C2  UNL d   1      -0.828  -0.384   1.030  0.00  0.00    -0.080 A 
ATOM      4  C3  UNL d   1      -1.674  -0.078  -0.033  0.00  0.00     0.150 A 
ATOM      5  C4  UNL d   1      -1.169   0.106  -1.316  0.00  0.00    -0.007 A 
ATOM      6  C5  UNL d   1       0.201  -0.013  -1.543  0.00  0.00     0.039 A 
ENDROOT
BRANCH   4   7
ATOM      7  O   UNL d   1      -3.019   0.054   0.143  0.00  0.00    -0.526 OA
ATOM      8  H5  UNL d   1      -3.220  -0.072   1.086  0.00  0.00     0.418 HD
ENDBRANCH   4   7
TORSDOF 1
ENDMDL
