MODEL 1
REMARK minimizedAffinity -1.14352334
REMARK minimizedRMSD -1
REMARK  0 active torsions:
REMARK  status: ('A' for Active; 'I' for Inactive)
ROOT
ATOM      1  C   UNL d   1      -0.095   0.416   2.293  0.00  0.00    -0.002 A 
ATOM      2  C1  UNL d   1       0.328  -0.397   1.252  0.00  0.00     0.010 A 
ATOM      3  C2  UNL d   1       0.348   0.082  -0.060  0.00  0.00     0.041 A 
ATOM      4  C3  UNL d   1      -0.066   1.405  -0.309  0.00  0.00    -0.075 A 
ATOM      5  S   UNL d   1      -0.125   2.206  -1.834  0.00  0.00     0.015 SA
ATOM      6  C4  UNL d   1      -0.712   3.647  -1.138  0.00  0.00     0.022 A 
ATOM      7  C5  UNL d   1      -0.866   3.537   0.223  0.00  0.00     0.026 A 
ATOM      8  C6  UNL d   1      -0.496   2.243   0.724  0.00  0.00    -0.082 A 
ATOM      9  C7  UNL d   1      -0.506   1.728   2.043  0.00  0.00     0.045 A 
ENDROOT
TORSDOF 0
ENDMDL
