MODEL 1
REMARK minimizedAffinity -3.10726595
REMARK minimizedRMSD -1
REMARK  0 active torsions:
REMARK  status: ('A' for Active; 'I' for Inactive)
ROOT
ATOM      1  C   UNL d   1      -0.215   1.823   2.085  0.00  0.00    -0.002 A 
ATOM      2  C1  UNL d   1      -0.886   2.369   1.000  0.00  0.00     0.010 A 
ATOM      3  C2  UNL d   1      -1.026   1.646  -0.186  0.00  0.00     0.041 A 
ATOM      4  C3  UNL d   1      -0.479   0.350  -0.263  0.00  0.00    -0.075 A 
ATOM      5  S   UNL d   1      -0.530  -0.722  -1.613  0.00  0.00     0.015 SA
ATOM      6  C4  UNL d   1       0.337  -1.931  -0.780  0.00  0.00     0.022 A 
ATOM      7  C5  UNL d   1       0.665  -1.543   0.497  0.00  0.00     0.026 A 
ATOM      8  C6  UNL d   1       0.200  -0.222   0.817  0.00  0.00    -0.082 A 
ATOM      9  C7  UNL d   1       0.327   0.537   2.005  0.00  0.00     0.045 A 
ENDROOT
TORSDOF 0
ENDMDL
