MODEL 1
REMARK minimizedAffinity 7.85767317
REMARK minimizedRMSD -1
REMARK  0 active torsions:
REMARK  status: ('A' for Active; 'I' for Inactive)
ROOT
ATOM      1  C   UNL d   1      -2.495  -2.788  -4.393  0.00  0.00    -0.002 A 
ATOM      2  C1  UNL d   1      -2.513  -1.538  -3.789  0.00  0.00     0.010 A 
ATOM      3  C2  UNL d   1      -1.951  -1.353  -2.524  0.00  0.00     0.041 A 
ATOM      4  C3  UNL d   1      -1.364  -2.454  -1.871  0.00  0.00    -0.075 A 
ATOM      5  S   UNL d   1      -0.615  -2.463  -0.318  0.00  0.00     0.015 SA
ATOM      6  C4  UNL d   1      -0.252  -4.125  -0.420  0.00  0.00     0.022 A 
ATOM      7  C5  UNL d   1      -0.685  -4.676  -1.603  0.00  0.00     0.026 A 
ATOM      8  C6  UNL d   1      -1.333  -3.722  -2.459  0.00  0.00    -0.082 A 
ATOM      9  C7  UNL d   1      -1.911  -3.878  -3.741  0.00  0.00     0.045 A 
ENDROOT
TORSDOF 0
ENDMDL
