MODEL 1
REMARK minimizedAffinity 6.98306656
REMARK minimizedRMSD -1
REMARK  0 active torsions:
REMARK  status: ('A' for Active; 'I' for Inactive)
ROOT
ATOM      1  N1  IND d   1      -1.990  -1.060  -2.031  0.00  0.00    -0.196 N 
ATOM      2  C2  IND d   1      -3.320  -0.860  -2.274  0.00  0.00     0.054 A 
ATOM      3  C3  IND d   1      -3.610   0.460  -2.247  0.00  0.00    -0.031 A 
ATOM      4  C4  IND d   1      -2.038   2.473  -1.923  0.00  0.00     0.051 A 
ATOM      5  C5  IND d   1      -0.742   2.791  -1.631  0.00  0.00    -0.031 A 
ATOM      6  C6  IND d   1       0.225   1.823  -1.457  0.00  0.00     0.015 A 
ATOM      7  C7  IND d   1      -0.067   0.494  -1.580  0.00  0.00    -0.016 A 
ATOM      8  C8  IND d   1      -1.385   0.167  -1.869  0.00  0.00    -0.047 A 
ATOM      9  C9  IND d   1      -2.379   1.144  -2.005  0.00  0.00    -0.096 A 
ATOM     10  HN1 IND d   1      -1.598  -1.824  -1.987  0.00  0.00     0.298 HD
ENDROOT
TORSDOF 0
ENDMDL
