MODEL 1
REMARK minimizedAffinity -4.4991045
REMARK minimizedRMSD -1
REMARK  0 active torsions:
REMARK  status: ('A' for Active; 'I' for Inactive)
ROOT
ATOM      1  N1  IND d   1       2.250  -1.233  -3.151  0.00  0.00    -0.196 N 
ATOM      2  C2  IND d   1       1.126  -1.293  -3.927  0.00  0.00     0.054 A 
ATOM      3  C3  IND d   1       0.256  -2.198  -3.426  0.00  0.00    -0.031 A 
ATOM      4  C4  IND d   1       0.425  -3.620  -1.287  0.00  0.00     0.051 A 
ATOM      5  C5  IND d   1       1.281  -3.938  -0.270  0.00  0.00    -0.031 A 
ATOM      6  C6  IND d   1       2.527  -3.357  -0.157  0.00  0.00     0.015 A 
ATOM      7  C7  IND d   1       2.962  -2.423  -1.055  0.00  0.00    -0.016 A 
ATOM      8  C8  IND d   1       2.099  -2.103  -2.093  0.00  0.00    -0.047 A 
ATOM      9  C9  IND d   1       0.850  -2.721  -2.237  0.00  0.00    -0.096 A 
ATOM     10  HN1 IND d   1       2.936  -0.736  -3.298  0.00  0.00     0.298 HD
ENDROOT
TORSDOF 0
ENDMDL
