MODEL 1
REMARK minimizedAffinity 9.37420559
REMARK minimizedRMSD -1
REMARK  0 active torsions:
REMARK  status: ('A' for Active; 'I' for Inactive)
ROOT
ATOM      1  N1  IND d   1      -0.348   2.020  -0.508  0.00  0.00    -0.196 N 
ATOM      2  C2  IND d   1       0.051   3.302  -0.766  0.00  0.00     0.054 A 
ATOM      3  C3  IND d   1       0.731   3.804   0.290  0.00  0.00    -0.031 A 
ATOM      4  C4  IND d   1       1.391   2.665   2.502  0.00  0.00     0.051 A 
ATOM      5  C5  IND d   1       1.220   1.509   3.211  0.00  0.00    -0.031 A 
ATOM      6  C6  IND d   1       0.506   0.442   2.706  0.00  0.00     0.015 A 
ATOM      7  C7  IND d   1      -0.058   0.487   1.462  0.00  0.00    -0.016 A 
ATOM      8  C8  IND d   1       0.108   1.662   0.741  0.00  0.00    -0.047 A 
ATOM      9  C9  IND d   1       0.796   2.763   1.266  0.00  0.00    -0.096 A 
ATOM     10  HN1 IND d   1      -0.808   1.522  -1.037  0.00  0.00     0.298 HD
ENDROOT
TORSDOF 0
ENDMDL
