MODEL 1
REMARK minimizedAffinity 11.869071
REMARK minimizedRMSD -1
REMARK  0 active torsions:
REMARK  status: ('A' for Active; 'I' for Inactive)
ROOT
ATOM      1  N1  IND d   1      -0.365  -0.064   4.618  0.00  0.00    -0.196 N 
ATOM      2  C2  IND d   1      -0.361  -1.391   4.947  0.00  0.00     0.054 A 
ATOM      3  C3  IND d   1       0.243  -2.114   3.977  0.00  0.00    -0.031 A 
ATOM      4  C4  IND d   1       1.387  -1.314   1.814  0.00  0.00     0.051 A 
ATOM      5  C5  IND d   1       1.607  -0.194   1.062  0.00  0.00    -0.031 A 
ATOM      6  C6  IND d   1       1.175   1.052   1.467  0.00  0.00     0.015 A 
ATOM      7  C7  IND d   1       0.513   1.227   2.650  0.00  0.00    -0.016 A 
ATOM      8  C8  IND d   1       0.282   0.091   3.412  0.00  0.00    -0.047 A 
ATOM      9  C9  IND d   1       0.681  -1.183   2.986  0.00  0.00    -0.096 A 
ATOM     10  HN1 IND d   1      -0.713   0.567   5.087  0.00  0.00     0.298 HD
ENDROOT
TORSDOF 0
ENDMDL
