MODEL 1
REMARK minimizedAffinity 3.50220776
REMARK minimizedRMSD -1
REMARK  0 active torsions:
REMARK  status: ('A' for Active; 'I' for Inactive)
ROOT
ATOM      1  N1  IND d   1       5.419  -1.573  -3.598  0.00  0.00    -0.196 N 
ATOM      2  C2  IND d   1       4.271  -1.257  -4.269  0.00  0.00     0.054 A 
ATOM      3  C3  IND d   1       3.190  -1.702  -3.590  0.00  0.00    -0.031 A 
ATOM      4  C4  IND d   1       3.067  -2.884  -1.306  0.00  0.00     0.051 A 
ATOM      5  C5  IND d   1       3.856  -3.421  -0.327  0.00  0.00    -0.031 A 
ATOM      6  C6  IND d   1       5.233  -3.365  -0.388  0.00  0.00     0.015 A 
ATOM      7  C7  IND d   1       5.876  -2.758  -1.429  0.00  0.00    -0.016 A 
ATOM      8  C8  IND d   1       5.079  -2.219  -2.429  0.00  0.00    -0.047 A 
ATOM      9  C9  IND d   1       3.682  -2.310  -2.394  0.00  0.00    -0.096 A 
ATOM     10  HN1 IND d   1       6.219  -1.398  -3.861  0.00  0.00     0.298 HD
ENDROOT
TORSDOF 0
ENDMDL
