MODEL 1
REMARK minimizedAffinity 2.00859785
REMARK minimizedRMSD -1
REMARK  0 active torsions:
REMARK  status: ('A' for Active; 'I' for Inactive)
ROOT
ATOM      1  N1  IND d   1       4.000  -1.670  -2.074  0.00  0.00    -0.196 N 
ATOM      2  C2  IND d   1       3.010  -1.380  -1.177  0.00  0.00     0.054 A 
ATOM      3  C3  IND d   1       2.338  -2.504  -0.840  0.00  0.00    -0.031 A 
ATOM      4  C4  IND d   1       2.760  -4.940  -1.559  0.00  0.00     0.051 A 
ATOM      5  C5  IND d   1       3.530  -5.698  -2.395  0.00  0.00    -0.031 A 
ATOM      6  C6  IND d   1       4.518  -5.141  -3.181  0.00  0.00     0.015 A 
ATOM      7  C7  IND d   1       4.782  -3.801  -3.151  0.00  0.00    -0.016 A 
ATOM      8  C8  IND d   1       3.997  -3.027  -2.308  0.00  0.00    -0.047 A 
ATOM      9  C9  IND d   1       2.964  -3.580  -1.540  0.00  0.00    -0.096 A 
ATOM     10  HN1 IND d   1       4.535  -1.099  -2.432  0.00  0.00     0.298 HD
ENDROOT
TORSDOF 0
ENDMDL
