MODEL 1
REMARK minimizedAffinity -0.734484255
REMARK minimizedRMSD -1
REMARK  0 active torsions:
REMARK  status: ('A' for Active; 'I' for Inactive)
ROOT
ATOM      1  N1  IND d   1       4.123  -1.862  -2.010  0.00  0.00    -0.196 N 
ATOM      2  C2  IND d   1       4.119  -1.840  -0.643  0.00  0.00     0.054 A 
ATOM      3  C3  IND d   1       4.260  -3.092  -0.153  0.00  0.00    -0.031 A 
ATOM      4  C4  IND d   1       4.614  -5.311  -1.409  0.00  0.00     0.051 A 
ATOM      5  C5  IND d   1       4.653  -5.842  -2.667  0.00  0.00    -0.031 A 
ATOM      6  C6  IND d   1       4.517  -5.058  -3.794  0.00  0.00     0.015 A 
ATOM      7  C7  IND d   1       4.348  -3.705  -3.704  0.00  0.00    -0.016 A 
ATOM      8  C8  IND d   1       4.301  -3.163  -2.427  0.00  0.00    -0.047 A 
ATOM      9  C9  IND d   1       4.396  -3.960  -1.279  0.00  0.00    -0.096 A 
ATOM     10  HN1 IND d   1       4.030  -1.179  -2.523  0.00  0.00     0.298 HD
ENDROOT
TORSDOF 0
ENDMDL
