MODEL 1
REMARK minimizedAffinity 8.92853832
REMARK minimizedRMSD -1
REMARK  0 active torsions:
REMARK  status: ('A' for Active; 'I' for Inactive)
ROOT
ATOM      1  N1  IND d   1       2.102  -5.316  -1.887  0.00  0.00    -0.196 N 
ATOM      2  C2  IND d   1       1.533  -5.236  -0.646  0.00  0.00     0.054 A 
ATOM      3  C3  IND d   1       2.044  -4.188   0.039  0.00  0.00    -0.031 A 
ATOM      4  C4  IND d   1       3.749  -2.414  -0.719  0.00  0.00     0.051 A 
ATOM      5  C5  IND d   1       4.577  -2.091  -1.756  0.00  0.00    -0.031 A 
ATOM      6  C6  IND d   1       4.622  -2.839  -2.915  0.00  0.00     0.015 A 
ATOM      7  C7  IND d   1       3.828  -3.937  -3.084  0.00  0.00    -0.016 A 
ATOM      8  C8  IND d   1       2.990  -4.273  -2.030  0.00  0.00    -0.047 A 
ATOM      9  C9  IND d   1       2.972  -3.543  -0.835  0.00  0.00    -0.096 A 
ATOM     10  HN1 IND d   1       1.933  -5.917  -2.478  0.00  0.00     0.298 HD
ENDROOT
TORSDOF 0
ENDMDL
