MODEL 1
REMARK minimizedAffinity 11.041954
REMARK minimizedRMSD -1
REMARK  0 active torsions:
REMARK  status: ('A' for Active; 'I' for Inactive)
ROOT
ATOM      1  N1  IND d   1      -3.805   1.656  -2.385  0.00  0.00    -0.196 N 
ATOM      2  C2  IND d   1      -4.179   0.522  -1.720  0.00  0.00     0.054 A 
ATOM      3  C3  IND d   1      -3.261   0.202  -0.781  0.00  0.00    -0.031 A 
ATOM      4  C4  IND d   1      -1.120   1.456  -0.094  0.00  0.00     0.051 A 
ATOM      5  C5  IND d   1      -0.339   2.524  -0.438  0.00  0.00    -0.031 A 
ATOM      6  C6  IND d   1      -0.683   3.376  -1.468  0.00  0.00     0.015 A 
ATOM      7  C7  IND d   1      -1.830   3.198  -2.187  0.00  0.00    -0.016 A 
ATOM      8  C8  IND d   1      -2.622   2.110  -1.845  0.00  0.00    -0.047 A 
ATOM      9  C9  IND d   1      -2.257   1.217  -0.830  0.00  0.00    -0.096 A 
ATOM     10  HN1 IND d   1      -4.237   2.025  -3.031  0.00  0.00     0.298 HD
ENDROOT
TORSDOF 0
ENDMDL
