MODEL 1
REMARK minimizedAffinity 11.5974779
REMARK minimizedRMSD -1
REMARK  0 active torsions:
REMARK  status: ('A' for Active; 'I' for Inactive)
ROOT
ATOM      1  C   UNL d   1       2.809   1.410   2.623  0.00  0.00    -0.002 A 
ATOM      2  C1  UNL d   1       4.084   1.946   2.507  0.00  0.00     0.010 A 
ATOM      3  C2  UNL d   1       4.805   1.814   1.318  0.00  0.00     0.041 A 
ATOM      4  C3  UNL d   1       4.216   1.129   0.237  0.00  0.00    -0.075 A 
ATOM      5  S   UNL d   1       4.910   0.845  -1.315  0.00  0.00     0.015 SA
ATOM      6  C4  UNL d   1       3.531   0.005  -1.861  0.00  0.00     0.022 A 
ATOM      7  C5  UNL d   1       2.555  -0.066  -0.896  0.00  0.00     0.026 A 
ATOM      8  C6  UNL d   1       2.934   0.581   0.329  0.00  0.00    -0.082 A 
ATOM      9  C7  UNL d   1       2.229   0.731   1.548  0.00  0.00     0.045 A 
ENDROOT
TORSDOF 0
ENDMDL
