MODEL 1
REMARK minimizedAffinity 9.35298157
REMARK minimizedRMSD -1
REMARK  0 active torsions:
REMARK  status: ('A' for Active; 'I' for Inactive)
ROOT
ATOM      1  C   UNL d   1       5.999   2.101  -0.755  0.00  0.00    -0.002 A 
ATOM      2  C1  UNL d   1       4.844   2.845  -0.564  0.00  0.00     0.010 A 
ATOM      3  C2  UNL d   1       3.609   2.213  -0.406  0.00  0.00     0.041 A 
ATOM      4  C3  UNL d   1       3.555   0.805  -0.441  0.00  0.00    -0.075 A 
ATOM      5  S   UNL d   1       2.155  -0.186  -0.269  0.00  0.00     0.015 SA
ATOM      6  C4  UNL d   1       3.057  -1.621  -0.445  0.00  0.00     0.022 A 
ATOM      7  C5  UNL d   1       4.396  -1.369  -0.631  0.00  0.00     0.026 A 
ATOM      8  C6  UNL d   1       4.705   0.034  -0.631  0.00  0.00    -0.082 A 
ATOM      9  C7  UNL d   1       5.941   0.705  -0.790  0.00  0.00     0.045 A 
ENDROOT
TORSDOF 0
ENDMDL
