MODEL 1
REMARK minimizedAffinity 13.1714067
REMARK minimizedRMSD -1
REMARK  0 active torsions:
REMARK  status: ('A' for Active; 'I' for Inactive)
ROOT
ATOM      1  C   UNL d   1       5.987   1.419   0.064  0.00  0.00    -0.002 A 
ATOM      2  C1  UNL d   1       5.988   1.927   1.355  0.00  0.00     0.010 A 
ATOM      3  C2  UNL d   1       5.993   3.306   1.576  0.00  0.00     0.041 A 
ATOM      4  C3  UNL d   1       5.995   4.173   0.466  0.00  0.00    -0.075 A 
ATOM      5  S   UNL d   1       5.999   5.897   0.494  0.00  0.00     0.015 SA
ATOM      6  C4  UNL d   1       5.999   6.000  -1.207  0.00  0.00     0.022 A 
ATOM      7  C5  UNL d   1       5.996   4.758  -1.798  0.00  0.00     0.026 A 
ATOM      8  C6  UNL d   1       5.993   3.685  -0.844  0.00  0.00    -0.082 A 
ATOM      9  C7  UNL d   1       5.989   2.283  -1.034  0.00  0.00     0.045 A 
ENDROOT
TORSDOF 0
ENDMDL
