MODEL 1
REMARK minimizedAffinity 20.5780144
REMARK minimizedRMSD -1
REMARK  0 active torsions:
REMARK  status: ('A' for Active; 'I' for Inactive)
ROOT
ATOM      1  C   UNL d   1      -1.061  -1.991  -3.088  0.00  0.00    -0.002 A 
ATOM      2  C1  UNL d   1      -0.844  -2.172  -4.446  0.00  0.00     0.010 A 
ATOM      3  C2  UNL d   1      -1.604  -1.473  -5.386  0.00  0.00     0.041 A 
ATOM      4  C3  UNL d   1      -2.593  -0.578  -4.933  0.00  0.00    -0.075 A 
ATOM      5  S   UNL d   1      -3.643   0.387  -5.901  0.00  0.00     0.015 SA
ATOM      6  C4  UNL d   1      -4.404   1.063  -4.534  0.00  0.00     0.022 A 
ATOM      7  C5  UNL d   1      -3.882   0.575  -3.360  0.00  0.00     0.026 A 
ATOM      8  C6  UNL d   1      -2.829  -0.378  -3.570  0.00  0.00    -0.082 A 
ATOM      9  C7  UNL d   1      -2.043  -1.103  -2.642  0.00  0.00     0.045 A 
ENDROOT
TORSDOF 0
ENDMDL
