MODEL 1
REMARK minimizedAffinity 20.4740696
REMARK minimizedRMSD -1
REMARK  0 active torsions:
REMARK  status: ('A' for Active; 'I' for Inactive)
ROOT
ATOM      1  C   UNL d   1      -5.983  -0.388  -5.541  0.00  0.00    -0.002 A 
ATOM      2  C1  UNL d   1      -5.805  -1.219  -4.445  0.00  0.00     0.010 A 
ATOM      3  C2  UNL d   1      -4.576  -1.271  -3.785  0.00  0.00     0.041 A 
ATOM      4  C3  UNL d   1      -3.518  -0.464  -4.249  0.00  0.00    -0.075 A 
ATOM      5  S   UNL d   1      -1.925  -0.362  -3.598  0.00  0.00     0.015 SA
ATOM      6  C4  UNL d   1      -1.444   0.789  -4.760  0.00  0.00     0.022 A 
ATOM      7  C5  UNL d   1      -2.461   1.099  -5.631  0.00  0.00     0.026 A 
ATOM      8  C6  UNL d   1      -3.674   0.382  -5.351  0.00  0.00    -0.082 A 
ATOM      9  C7  UNL d   1      -4.932   0.412  -5.999  0.00  0.00     0.045 A 
ENDROOT
TORSDOF 0
ENDMDL
