MODEL 1
REMARK minimizedAffinity 11.5794249
REMARK minimizedRMSD -1
REMARK  0 active torsions:
REMARK  status: ('A' for Active; 'I' for Inactive)
ROOT
ATOM      1  C   UNL d   1      -2.213   0.376  -4.472  0.00  0.00    -0.002 A 
ATOM      2  C1  UNL d   1      -2.642  -0.323  -3.352  0.00  0.00     0.010 A 
ATOM      3  C2  UNL d   1      -3.785   0.080  -2.658  0.00  0.00     0.041 A 
ATOM      4  C3  UNL d   1      -4.497   1.206  -3.114  0.00  0.00    -0.075 A 
ATOM      5  S   UNL d   1      -5.925   1.882  -2.424  0.00  0.00     0.015 SA
ATOM      6  C4  UNL d   1      -6.000   3.114  -3.600  0.00  0.00     0.022 A 
ATOM      7  C5  UNL d   1      -4.968   3.027  -4.504  0.00  0.00     0.026 A 
ATOM      8  C6  UNL d   1      -4.085   1.926  -4.240  0.00  0.00    -0.082 A 
ATOM      9  C7  UNL d   1      -2.922   1.493  -4.921  0.00  0.00     0.045 A 
ENDROOT
TORSDOF 0
ENDMDL
