MODEL 1
REMARK minimizedAffinity 7.73150063
REMARK minimizedRMSD -1
REMARK  0 active torsions:
REMARK  status: ('A' for Active; 'I' for Inactive)
ROOT
ATOM      1  C   UNL d   1       0.727  -5.708   5.986  0.00  0.00    -0.002 A 
ATOM      2  C1  UNL d   1      -0.615  -5.577   5.658  0.00  0.00     0.010 A 
ATOM      3  C2  UNL d   1      -1.046  -4.543   4.825  0.00  0.00     0.041 A 
ATOM      4  C3  UNL d   1      -0.095  -3.634   4.320  0.00  0.00    -0.075 A 
ATOM      5  S   UNL d   1      -0.391  -2.291   3.281  0.00  0.00     0.015 SA
ATOM      6  C4  UNL d   1       1.257  -1.858   3.247  0.00  0.00     0.022 A 
ATOM      7  C5  UNL d   1       2.029  -2.708   4.004  0.00  0.00     0.026 A 
ATOM      8  C6  UNL d   1       1.262  -3.745   4.635  0.00  0.00    -0.082 A 
ATOM      9  C7  UNL d   1       1.667  -4.804   5.483  0.00  0.00     0.045 A 
ENDROOT
TORSDOF 0
ENDMDL
