MODEL 1
REMARK minimizedAffinity -2.65473747
REMARK minimizedRMSD -1
REMARK  0 active torsions:
REMARK  status: ('A' for Active; 'I' for Inactive)
ROOT
ATOM      1  N1  IND d   1      -4.030   3.755   3.994  0.00  0.00    -0.196 N 
ATOM      2  C2  IND d   1      -4.089   2.487   4.501  0.00  0.00     0.054 A 
ATOM      3  C3  IND d   1      -3.025   2.251   5.301  0.00  0.00    -0.031 A 
ATOM      4  C4  IND d   1      -1.120   3.836   6.000  0.00  0.00     0.051 A 
ATOM      5  C5  IND d   1      -0.617   5.085   5.765  0.00  0.00    -0.031 A 
ATOM      6  C6  IND d   1      -1.241   5.973   4.913  0.00  0.00     0.015 A 
ATOM      7  C7  IND d   1      -2.401   5.648   4.269  0.00  0.00    -0.016 A 
ATOM      8  C8  IND d   1      -2.911   4.378   4.500  0.00  0.00    -0.047 A 
ATOM      9  C9  IND d   1      -2.260   3.457   5.331  0.00  0.00    -0.096 A 
ATOM     10  HN1 IND d   1      -4.598   4.104   3.450  0.00  0.00     0.298 HD
ENDROOT
TORSDOF 0
ENDMDL
