MODEL 1
REMARK minimizedAffinity 9.66421509
REMARK minimizedRMSD -1
REMARK  0 active torsions:
REMARK  status: ('A' for Active; 'I' for Inactive)
ROOT
ATOM      1  N1  IND d   1       1.384  -2.159   0.147  0.00  0.00    -0.196 N 
ATOM      2  C2  IND d   1       0.720  -1.764   1.275  0.00  0.00     0.054 A 
ATOM      3  C3  IND d   1       1.322  -2.267   2.376  0.00  0.00    -0.031 A 
ATOM      4  C4  IND d   1       3.467  -3.678   2.566  0.00  0.00     0.051 A 
ATOM      5  C5  IND d   1       4.405  -4.320   1.807  0.00  0.00    -0.031 A 
ATOM      6  C6  IND d   1       4.385  -4.271   0.428  0.00  0.00     0.015 A 
ATOM      7  C7  IND d   1       3.429  -3.566  -0.246  0.00  0.00    -0.016 A 
ATOM      8  C8  IND d   1       2.470  -2.919   0.521  0.00  0.00    -0.047 A 
ATOM      9  C9  IND d   1       2.461  -3.000   1.920  0.00  0.00    -0.096 A 
ATOM     10  HN1 IND d   1       1.160  -1.966  -0.660  0.00  0.00     0.298 HD
ENDROOT
TORSDOF 0
ENDMDL
