MODEL 1
REMARK minimizedAffinity 7.09240866
REMARK minimizedRMSD -1
REMARK  0 active torsions:
REMARK  status: ('A' for Active; 'I' for Inactive)
ROOT
ATOM      1  N1  IND d   1      -1.440   5.549   3.294  0.00  0.00    -0.196 N 
ATOM      2  C2  IND d   1      -2.349   5.801   4.283  0.00  0.00     0.054 A 
ATOM      3  C3  IND d   1      -1.720   5.974   5.467  0.00  0.00    -0.031 A 
ATOM      4  C4  IND d   1       0.800   5.988   5.994  0.00  0.00     0.051 A 
ATOM      5  C5  IND d   1       2.022   5.767   5.421  0.00  0.00    -0.031 A 
ATOM      6  C6  IND d   1       2.154   5.459   4.082  0.00  0.00     0.015 A 
ATOM      7  C7  IND d   1       1.067   5.371   3.260  0.00  0.00    -0.016 A 
ATOM      8  C8  IND d   1      -0.176   5.588   3.840  0.00  0.00    -0.047 A 
ATOM      9  C9  IND d   1      -0.320   5.858   5.207  0.00  0.00    -0.096 A 
ATOM     10  HN1 IND d   1      -1.626   5.393   2.469  0.00  0.00     0.298 HD
ENDROOT
TORSDOF 0
ENDMDL
