MODEL 1
REMARK minimizedAffinity -1.5629344
REMARK minimizedRMSD -1
REMARK  0 active torsions:
REMARK  status: ('A' for Active; 'I' for Inactive)
ROOT
ATOM      1  C   UNL d   1      -0.938   0.850   2.211  0.00  0.00     0.172 C 
ATOM      2  N   UNL d   1      -0.495   0.091   1.066  0.00  0.00    -0.070 N 
ATOM      3  C1  UNL d   1       0.736   0.183   0.474  0.00  0.00    -0.004 A 
ATOM      4  C2  UNL d   1       0.765  -0.701  -0.582  0.00  0.00    -0.047 A 
ATOM      5  C3  UNL d   1      -0.494  -1.347  -0.628  0.00  0.00    -0.047 A 
ATOM      6  C4  UNL d   1      -1.254  -0.838   0.404  0.00  0.00    -0.004 A 
ENDROOT
TORSDOF 0
ENDMDL
