MODEL 1
REMARK minimizedAffinity -1.9010601
REMARK minimizedRMSD -1
REMARK  0 active torsions:
REMARK  status: ('A' for Active; 'I' for Inactive)
ROOT
ATOM      1  C   UNL d   1       0.387   2.595  -0.555  0.00  0.00     0.172 C 
ATOM      2  N   UNL d   1      -0.067   1.576   0.362  0.00  0.00    -0.070 N 
ATOM      3  C1  UNL d   1      -0.868   1.783   1.453  0.00  0.00    -0.004 A 
ATOM      4  C2  UNL d   1      -1.072   0.564   2.064  0.00  0.00    -0.047 A 
ATOM      5  C3  UNL d   1      -0.368  -0.408   1.314  0.00  0.00    -0.047 A 
ATOM      6  C4  UNL d   1       0.245   0.245   0.267  0.00  0.00    -0.004 A 
ENDROOT
TORSDOF 0
ENDMDL
