MODEL 1
REMARK minimizedAffinity -2.51954794
REMARK minimizedRMSD -1
REMARK  0 active torsions:
REMARK  status: ('A' for Active; 'I' for Inactive)
ROOT
ATOM      1  C   UNL d   1       0.310  -2.130  -1.689  0.00  0.00     0.172 C 
ATOM      2  N   UNL d   1       0.088  -1.234  -0.578  0.00  0.00    -0.070 N 
ATOM      3  C1  UNL d   1      -1.028  -1.207   0.215  0.00  0.00    -0.004 A 
ATOM      4  C2  UNL d   1      -0.853  -0.216   1.156  0.00  0.00    -0.047 A 
ATOM      5  C3  UNL d   1       0.411   0.374   0.920  0.00  0.00    -0.047 A 
ATOM      6  C4  UNL d   1       0.972  -0.276  -0.159  0.00  0.00    -0.004 A 
ENDROOT
TORSDOF 0
ENDMDL
