MODEL 1
REMARK minimizedAffinity -3.04980659
REMARK minimizedRMSD -1
REMARK  0 active torsions:
REMARK  status: ('A' for Active; 'I' for Inactive)
ROOT
ATOM      1  C   UNL d   1       0.695  -2.418  -2.271  0.00  0.00     0.172 C 
ATOM      2  N   UNL d   1       0.414  -1.527  -1.171  0.00  0.00    -0.070 N 
ATOM      3  C1  UNL d   1       1.323  -0.710  -0.552  0.00  0.00    -0.004 A 
ATOM      4  C2  UNL d   1       0.664  -0.022   0.444  0.00  0.00    -0.047 A 
ATOM      5  C3  UNL d   1      -0.688  -0.441   0.424  0.00  0.00    -0.047 A 
ATOM      6  C4  UNL d   1      -0.815  -1.372  -0.585  0.00  0.00    -0.004 A 
ENDROOT
TORSDOF 0
ENDMDL
