MODEL 1
REMARK minimizedAffinity -2.83195066
REMARK minimizedRMSD -1
REMARK  0 active torsions:
REMARK  status: ('A' for Active; 'I' for Inactive)
ROOT
ATOM      1  C   UNL d   1       1.840  -2.265  -1.886  0.00  0.00     0.172 C 
ATOM      2  N   UNL d   1       0.829  -1.657  -1.053  0.00  0.00    -0.070 N 
ATOM      3  C1  UNL d   1       1.051  -0.701  -0.098  0.00  0.00    -0.004 A 
ATOM      4  C2  UNL d   1      -0.164  -0.384   0.471  0.00  0.00    -0.047 A 
ATOM      5  C3  UNL d   1      -1.149  -1.177  -0.164  0.00  0.00    -0.047 A 
ATOM      6  C4  UNL d   1      -0.507  -1.956  -1.103  0.00  0.00    -0.004 A 
ENDROOT
TORSDOF 0
ENDMDL
