MODEL 1
REMARK minimizedAffinity -2.58730936
REMARK minimizedRMSD -1
REMARK  0 active torsions:
REMARK  status: ('A' for Active; 'I' for Inactive)
ROOT
ATOM      1  C   UNL d   1       1.420  -0.563  -0.591  0.00  0.00     0.172 C 
ATOM      2  N   UNL d   1       0.289  -0.480   0.302  0.00  0.00    -0.070 N 
ATOM      3  C1  UNL d   1       0.345  -0.169   1.635  0.00  0.00    -0.004 A 
ATOM      4  C2  UNL d   1      -0.941  -0.193   2.128  0.00  0.00    -0.047 A 
ATOM      5  C3  UNL d   1      -1.800  -0.531   1.056  0.00  0.00    -0.047 A 
ATOM      6  C4  UNL d   1      -1.012  -0.703  -0.063  0.00  0.00    -0.004 A 
ENDROOT
TORSDOF 0
ENDMDL
