MODEL 1
REMARK minimizedAffinity -1.34942913
REMARK minimizedRMSD -1
REMARK  0 active torsions:
REMARK  status: ('A' for Active; 'I' for Inactive)
ROOT
ATOM      1  C   UNL d   1      -0.640  -0.001   2.217  0.00  0.00     0.172 C 
ATOM      2  N   UNL d   1      -0.288  -0.382   0.870  0.00  0.00    -0.070 N 
ATOM      3  C1  UNL d   1      -0.806  -1.444   0.178  0.00  0.00    -0.004 A 
ATOM      4  C2  UNL d   1      -0.215  -1.466  -1.067  0.00  0.00    -0.047 A 
ATOM      5  C3  UNL d   1       0.690  -0.380  -1.125  0.00  0.00    -0.047 A 
ATOM      6  C4  UNL d   1       0.626   0.274   0.087  0.00  0.00    -0.004 A 
ENDROOT
TORSDOF 0
ENDMDL
