MODEL 1
REMARK minimizedAffinity -2.70749927
REMARK minimizedRMSD -1
REMARK  0 active torsions:
REMARK  status: ('A' for Active; 'I' for Inactive)
ROOT
ATOM      1  C   UNL d   1      -0.072   3.258   0.421  0.00  0.00     0.172 C 
ATOM      2  N   UNL d   1      -0.172   1.823   0.547  0.00  0.00    -0.070 N 
ATOM      3  C1  UNL d   1       0.335   0.906  -0.335  0.00  0.00    -0.004 A 
ATOM      4  C2  UNL d   1       0.032  -0.351   0.141  0.00  0.00    -0.047 A 
ATOM      5  C3  UNL d   1      -0.684  -0.185   1.350  0.00  0.00    -0.047 A 
ATOM      6  C4  UNL d   1      -0.796   1.171   1.578  0.00  0.00    -0.004 A 
ENDROOT
TORSDOF 0
ENDMDL
