MODEL 1
REMARK minimizedAffinity -0.983685672
REMARK minimizedRMSD -1
REMARK  0 active torsions:
REMARK  status: ('A' for Active; 'I' for Inactive)
ROOT
ATOM      1  C   UNL d   1       0.407  -0.479  -0.529  0.00  0.00     0.172 C 
ATOM      2  N   UNL d   1       0.409  -1.704  -1.293  0.00  0.00    -0.070 N 
ATOM      3  C1  UNL d   1       0.872  -2.917  -0.857  0.00  0.00    -0.004 A 
ATOM      4  C2  UNL d   1       0.698  -3.827  -1.877  0.00  0.00    -0.047 A 
ATOM      5  C3  UNL d   1       0.111  -3.137  -2.965  0.00  0.00    -0.047 A 
ATOM      6  C4  UNL d   1      -0.057  -1.825  -2.576  0.00  0.00    -0.004 A 
ENDROOT
TORSDOF 0
ENDMDL
