MODEL 1
REMARK minimizedAffinity -2.54586768
REMARK minimizedRMSD -1
REMARK  0 active torsions:
REMARK  status: ('A' for Active; 'I' for Inactive)
ROOT
ATOM      1  C   UNL d   1       0.571  -0.742  -0.733  0.00  0.00     0.172 C 
ATOM      2  N   UNL d   1      -0.011   0.222   0.171  0.00  0.00    -0.070 N 
ATOM      3  C1  UNL d   1      -0.105   1.570  -0.052  0.00  0.00    -0.004 A 
ATOM      4  C2  UNL d   1      -0.720   2.137   1.043  0.00  0.00    -0.047 A 
ATOM      5  C3  UNL d   1      -1.004   1.095   1.956  0.00  0.00    -0.047 A 
ATOM      6  C4  UNL d   1      -0.554  -0.080   1.391  0.00  0.00    -0.004 A 
ENDROOT
TORSDOF 0
ENDMDL
