MODEL 1
REMARK minimizedAffinity -2.92589474
REMARK minimizedRMSD -1
REMARK  0 active torsions:
REMARK  status: ('A' for Active; 'I' for Inactive)
ROOT
ATOM      1  C   UNL d   1       0.280  -2.411  -2.041  0.00  0.00     0.172 C 
ATOM      2  N   UNL d   1       0.074  -1.483  -0.953  0.00  0.00    -0.070 N 
ATOM      3  C1  UNL d   1      -1.071  -1.364  -0.212  0.00  0.00    -0.004 A 
ATOM      4  C2  UNL d   1      -0.866  -0.372   0.724  0.00  0.00    -0.047 A 
ATOM      5  C3  UNL d   1       0.447   0.121   0.537  0.00  0.00    -0.047 A 
ATOM      6  C4  UNL d   1       1.006  -0.584  -0.507  0.00  0.00    -0.004 A 
ENDROOT
TORSDOF 0
ENDMDL
