MODEL 1
REMARK minimizedAffinity -3.35684443
REMARK minimizedRMSD -1
REMARK  0 active torsions:
REMARK  status: ('A' for Active; 'I' for Inactive)
ROOT
ATOM      1  C   UNL d   1      -0.453   3.317   0.304  0.00  0.00     0.172 C 
ATOM      2  N   UNL d   1      -0.478   1.937   0.729  0.00  0.00    -0.070 N 
ATOM      3  C1  UNL d   1      -0.915   1.484   1.945  0.00  0.00    -0.004 A 
ATOM      4  C2  UNL d   1      -0.778   0.113   1.959  0.00  0.00    -0.047 A 
ATOM      5  C3  UNL d   1      -0.238  -0.271   0.708  0.00  0.00    -0.047 A 
ATOM      6  C4  UNL d   1      -0.063   0.878  -0.033  0.00  0.00    -0.004 A 
ENDROOT
TORSDOF 0
ENDMDL
