MODEL 1
REMARK minimizedAffinity -1.46254277
REMARK minimizedRMSD -1
REMARK  0 active torsions:
REMARK  status: ('A' for Active; 'I' for Inactive)
ROOT
ATOM      1  C   UNL d   1      -1.070   1.762   2.331  0.00  0.00     0.172 C 
ATOM      2  N   UNL d   1      -0.415   0.898   1.377  0.00  0.00    -0.070 N 
ATOM      3  C1  UNL d   1       0.042  -0.368   1.628  0.00  0.00    -0.004 A 
ATOM      4  C2  UNL d   1       0.600  -0.854   0.466  0.00  0.00    -0.047 A 
ATOM      5  C3  UNL d   1       0.475   0.156  -0.518  0.00  0.00    -0.047 A 
ATOM      6  C4  UNL d   1      -0.157   1.229   0.073  0.00  0.00    -0.004 A 
ENDROOT
TORSDOF 0
ENDMDL
