MODEL 1
REMARK minimizedAffinity -2.91094327
REMARK minimizedRMSD -1
REMARK  0 active torsions:
REMARK  status: ('A' for Active; 'I' for Inactive)
ROOT
ATOM      1  C   UNL d   1      -0.048   0.284   0.357  0.00  0.00     0.172 C 
ATOM      2  N   UNL d   1      -0.188   1.716   0.491  0.00  0.00    -0.070 N 
ATOM      3  C1  UNL d   1      -0.739   2.367   1.561  0.00  0.00    -0.004 A 
ATOM      4  C2  UNL d   1      -0.686   3.720   1.305  0.00  0.00    -0.047 A 
ATOM      5  C3  UNL d   1      -0.082   3.887   0.036  0.00  0.00    -0.047 A 
ATOM      6  C4  UNL d   1       0.216   2.630  -0.446  0.00  0.00    -0.004 A 
ENDROOT
TORSDOF 0
ENDMDL
