MODEL 1
REMARK minimizedAffinity -2.67215228
REMARK minimizedRMSD -1
REMARK  0 active torsions:
REMARK  status: ('A' for Active; 'I' for Inactive)
ROOT
ATOM      1  C   UNL d   1      -0.715   0.867   1.854  0.00  0.00     0.172 C 
ATOM      2  N   UNL d   1      -0.247   0.011   0.790  0.00  0.00    -0.070 N 
ATOM      3  C1  UNL d   1      -1.026  -0.833   0.044  0.00  0.00    -0.004 A 
ATOM      4  C2  UNL d   1      -0.208  -1.470  -0.865  0.00  0.00    -0.047 A 
ATOM      5  C3  UNL d   1       1.108  -0.992  -0.657  0.00  0.00    -0.047 A 
ATOM      6  C4  UNL d   1       1.055  -0.077   0.373  0.00  0.00    -0.004 A 
ENDROOT
TORSDOF 0
ENDMDL
