MODEL 1
REMARK minimizedAffinity -2.31987119
REMARK minimizedRMSD -1
REMARK  0 active torsions:
REMARK  status: ('A' for Active; 'I' for Inactive)
ROOT
ATOM      1  C   UNL d   1       0.654   2.907  -0.755  0.00  0.00     0.172 C 
ATOM      2  N   UNL d   1       0.357   1.858   0.192  0.00  0.00    -0.070 N 
ATOM      3  C1  UNL d   1      -0.243   2.029   1.410  0.00  0.00    -0.004 A 
ATOM      4  C2  UNL d   1      -0.348   0.791   2.007  0.00  0.00    -0.047 A 
ATOM      5  C3  UNL d   1       0.210  -0.157   1.116  0.00  0.00    -0.047 A 
ATOM      6  C4  UNL d   1       0.639   0.531   0.000  0.00  0.00    -0.004 A 
ENDROOT
TORSDOF 0
ENDMDL
