MODEL 1
REMARK minimizedAffinity -2.3094995
REMARK minimizedRMSD -1
REMARK  0 active torsions:
REMARK  status: ('A' for Active; 'I' for Inactive)
ROOT
ATOM      1  C   UNL d   1      -0.799   1.829   1.968  0.00  0.00     0.172 C 
ATOM      2  N   UNL d   1      -0.216   1.174   0.821  0.00  0.00    -0.070 N 
ATOM      3  C1  UNL d   1       0.391   1.802  -0.234  0.00  0.00    -0.004 A 
ATOM      4  C2  UNL d   1       0.814   0.832  -1.116  0.00  0.00    -0.047 A 
ATOM      5  C3  UNL d   1       0.448  -0.423  -0.573  0.00  0.00    -0.047 A 
ATOM      6  C4  UNL d   1      -0.188  -0.182   0.626  0.00  0.00    -0.004 A 
ENDROOT
TORSDOF 0
ENDMDL
