MODEL 1
REMARK minimizedAffinity -2.65024209
REMARK minimizedRMSD -1
REMARK  0 active torsions:
REMARK  status: ('A' for Active; 'I' for Inactive)
ROOT
ATOM      1  C   UNL d   1      -0.745   2.791   1.482  0.00  0.00     0.172 C 
ATOM      2  N   UNL d   1      -0.593   1.385   1.190  0.00  0.00    -0.070 N 
ATOM      3  C1  UNL d   1      -1.448   0.391   1.583  0.00  0.00    -0.004 A 
ATOM      4  C2  UNL d   1      -0.954  -0.804   1.107  0.00  0.00    -0.047 A 
ATOM      5  C3  UNL d   1       0.240  -0.519   0.403  0.00  0.00    -0.047 A 
ATOM      6  C4  UNL d   1       0.440   0.844   0.470  0.00  0.00    -0.004 A 
ENDROOT
TORSDOF 0
ENDMDL
