MODEL 1
REMARK minimizedAffinity -1.43034184
REMARK minimizedRMSD -1
REMARK  0 active torsions:
REMARK  status: ('A' for Active; 'I' for Inactive)
ROOT
ATOM      1  C   UNL d   1      -1.734  -0.025   1.691  0.00  0.00     0.172 C 
ATOM      2  N   UNL d   1      -0.854   0.025   0.547  0.00  0.00    -0.070 N 
ATOM      3  C1  UNL d   1      -0.356   1.163  -0.028  0.00  0.00    -0.004 A 
ATOM      4  C2  UNL d   1       0.440   0.787  -1.088  0.00  0.00    -0.047 A 
ATOM      5  C3  UNL d   1       0.420  -0.626  -1.152  0.00  0.00    -0.047 A 
ATOM      6  C4  UNL d   1      -0.388  -1.072  -0.128  0.00  0.00    -0.004 A 
ENDROOT
TORSDOF 0
ENDMDL
