MODEL 1
REMARK minimizedAffinity -3.00986171
REMARK minimizedRMSD -1
REMARK  0 active torsions:
REMARK  status: ('A' for Active; 'I' for Inactive)
ROOT
ATOM      1  C   UNL d   1       4.315   5.851  -5.555  0.00  0.00     0.172 C 
ATOM      2  N   UNL d   1       4.710   5.813  -4.167  0.00  0.00    -0.070 N 
ATOM      3  C1  UNL d   1       5.999   5.794  -3.704  0.00  0.00    -0.004 A 
ATOM      4  C2  UNL d   1       5.953   5.760  -2.327  0.00  0.00    -0.047 A 
ATOM      5  C3  UNL d   1       4.589   5.757  -1.949  0.00  0.00    -0.047 A 
ATOM      6  C4  UNL d   1       3.842   5.790  -3.107  0.00  0.00    -0.004 A 
ENDROOT
TORSDOF 0
ENDMDL
