MODEL 1
REMARK minimizedAffinity -3.24196196
REMARK minimizedRMSD -1
REMARK  0 active torsions:
REMARK  status: ('A' for Active; 'I' for Inactive)
ROOT
ATOM      1  C   UNL d   1      -1.046   0.977   2.758  0.00  0.00     0.172 C 
ATOM      2  N   UNL d   1      -0.669  -0.015   1.780  0.00  0.00    -0.070 N 
ATOM      3  C1  UNL d   1       0.006  -1.178   2.040  0.00  0.00    -0.004 A 
ATOM      4  C2  UNL d   1       0.171  -1.847   0.847  0.00  0.00    -0.047 A 
ATOM      5  C3  UNL d   1      -0.424  -1.058  -0.166  0.00  0.00    -0.047 A 
ATOM      6  C4  UNL d   1      -0.936   0.070   0.439  0.00  0.00    -0.004 A 
ENDROOT
TORSDOF 0
ENDMDL
