MODEL 1
REMARK minimizedAffinity -1.93572032
REMARK minimizedRMSD -1
REMARK  0 active torsions:
REMARK  status: ('A' for Active; 'I' for Inactive)
ROOT
ATOM      1  C   UNL d   1       0.376   1.840  -1.566  0.00  0.00     0.172 C 
ATOM      2  N   UNL d   1       0.599   0.518  -1.031  0.00  0.00    -0.070 N 
ATOM      3  C1  UNL d   1       1.583  -0.349  -1.427  0.00  0.00    -0.004 A 
ATOM      4  C2  UNL d   1       1.459  -1.499  -0.678  0.00  0.00    -0.047 A 
ATOM      5  C3  UNL d   1       0.362  -1.318   0.198  0.00  0.00    -0.047 A 
ATOM      6  C4  UNL d   1      -0.152  -0.061  -0.042  0.00  0.00    -0.004 A 
ENDROOT
TORSDOF 0
ENDMDL
