MODEL 1
REMARK minimizedAffinity -3.09734344
REMARK minimizedRMSD -1
REMARK  0 active torsions:
REMARK  status: ('A' for Active; 'I' for Inactive)
ROOT
ATOM      1  C   UNL d   1       1.925  -1.348  -1.523  0.00  0.00     0.172 C 
ATOM      2  N   UNL d   1       0.782  -0.805  -0.828  0.00  0.00    -0.070 N 
ATOM      3  C1  UNL d   1       0.053  -1.449   0.136  0.00  0.00    -0.004 A 
ATOM      4  C2  UNL d   1      -0.948  -0.597   0.549  0.00  0.00    -0.047 A 
ATOM      5  C3  UNL d   1      -0.818   0.600  -0.193  0.00  0.00    -0.047 A 
ATOM      6  C4  UNL d   1       0.261   0.445  -1.038  0.00  0.00    -0.004 A 
ENDROOT
TORSDOF 0
ENDMDL
