MODEL 1
REMARK minimizedAffinity -2.26332307
REMARK minimizedRMSD -1
REMARK  0 active torsions:
REMARK  status: ('A' for Active; 'I' for Inactive)
ROOT
ATOM      1  C   UNL d   1       2.132  -1.151  -1.306  0.00  0.00     0.172 C 
ATOM      2  N   UNL d   1       0.919  -0.839  -0.586  0.00  0.00    -0.070 N 
ATOM      3  C1  UNL d   1       0.146  -1.736   0.101  0.00  0.00    -0.004 A 
ATOM      4  C2  UNL d   1      -0.917  -1.048   0.645  0.00  0.00    -0.047 A 
ATOM      5  C3  UNL d   1      -0.777   0.310   0.272  0.00  0.00    -0.047 A 
ATOM      6  C4  UNL d   1       0.368   0.411  -0.490  0.00  0.00    -0.004 A 
ENDROOT
TORSDOF 0
ENDMDL
