MODEL 1
REMARK minimizedAffinity -0.209205836
REMARK minimizedRMSD -1
REMARK  0 active torsions:
REMARK  status: ('A' for Active; 'I' for Inactive)
ROOT
ATOM      1  C   UNL d   1      -0.672   0.361   0.492  0.00  0.00     0.172 C 
ATOM      2  N   UNL d   1       0.218  -0.584  -0.142  0.00  0.00    -0.070 N 
ATOM      3  C1  UNL d   1       0.340  -1.908   0.185  0.00  0.00    -0.004 A 
ATOM      4  C2  UNL d   1       1.288  -2.462  -0.649  0.00  0.00    -0.047 A 
ATOM      5  C3  UNL d   1       1.752  -1.435  -1.505  0.00  0.00    -0.047 A 
ATOM      6  C4  UNL d   1       1.072  -0.283  -1.169  0.00  0.00    -0.004 A 
ENDROOT
TORSDOF 0
ENDMDL
