MODEL 1
REMARK minimizedAffinity -0.945608974
REMARK minimizedRMSD -1
REMARK  0 active torsions:
REMARK  status: ('A' for Active; 'I' for Inactive)
ROOT
ATOM      1  C   UNL d   1      -1.800   0.712   1.296  0.00  0.00     0.172 C 
ATOM      2  N   UNL d   1      -0.710   0.065   0.604  0.00  0.00    -0.070 N 
ATOM      3  C1  UNL d   1      -0.550  -1.287   0.453  0.00  0.00    -0.004 A 
ATOM      4  C2  UNL d   1       0.608  -1.497  -0.263  0.00  0.00    -0.047 A 
ATOM      5  C3  UNL d   1       1.164  -0.229  -0.553  0.00  0.00    -0.047 A 
ATOM      6  C4  UNL d   1       0.328   0.721  -0.004  0.00  0.00    -0.004 A 
ENDROOT
TORSDOF 0
ENDMDL
