MODEL 1
REMARK minimizedAffinity -2.20240307
REMARK minimizedRMSD -1
REMARK  0 active torsions:
REMARK  status: ('A' for Active; 'I' for Inactive)
ROOT
ATOM      1  C   UNL d   1      -1.139   0.522   0.631  0.00  0.00     0.172 C 
ATOM      2  N   UNL d   1      -0.044  -0.020  -0.137  0.00  0.00    -0.070 N 
ATOM      3  C1  UNL d   1       0.569   0.595  -1.197  0.00  0.00    -0.004 A 
ATOM      4  C2  UNL d   1       1.562  -0.244  -1.654  0.00  0.00    -0.047 A 
ATOM      5  C3  UNL d   1       1.545  -1.403  -0.842  0.00  0.00    -0.047 A 
ATOM      6  C4  UNL d   1       0.541  -1.237   0.089  0.00  0.00    -0.004 A 
ENDROOT
TORSDOF 0
ENDMDL
