MODEL 1
REMARK minimizedAffinity -2.91182017
REMARK minimizedRMSD -1
REMARK  0 active torsions:
REMARK  status: ('A' for Active; 'I' for Inactive)
ROOT
ATOM      1  C   UNL d   1      -1.142   0.066   0.310  0.00  0.00     0.172 C 
ATOM      2  N   UNL d   1       0.086  -0.355  -0.323  0.00  0.00    -0.070 N 
ATOM      3  C1  UNL d   1       0.745   0.320  -1.316  0.00  0.00    -0.004 A 
ATOM      4  C2  UNL d   1       1.869  -0.406  -1.646  0.00  0.00    -0.047 A 
ATOM      5  C3  UNL d   1       1.886  -1.558  -0.823  0.00  0.00    -0.047 A 
ATOM      6  C4  UNL d   1       0.771  -1.500  -0.014  0.00  0.00    -0.004 A 
ENDROOT
TORSDOF 0
ENDMDL
