MODEL 1
REMARK minimizedAffinity -1.76351416
REMARK minimizedRMSD -1
REMARK  0 active torsions:
REMARK  status: ('A' for Active; 'I' for Inactive)
ROOT
ATOM      1  C   UNL d   1      -0.034   1.854  -1.176  0.00  0.00     0.172 C 
ATOM      2  N   UNL d   1       0.827   0.923  -1.867  0.00  0.00    -0.070 N 
ATOM      3  C1  UNL d   1       1.433   1.143  -3.075  0.00  0.00    -0.004 A 
ATOM      4  C2  UNL d   1       2.167   0.019  -3.389  0.00  0.00    -0.047 A 
ATOM      5  C3  UNL d   1       1.995  -0.908  -2.334  0.00  0.00    -0.047 A 
ATOM      6  C4  UNL d   1       1.161  -0.322  -1.405  0.00  0.00    -0.004 A 
ENDROOT
TORSDOF 0
ENDMDL
