MODEL 1
REMARK minimizedAffinity -2.45294237
REMARK minimizedRMSD -1
REMARK  0 active torsions:
REMARK  status: ('A' for Active; 'I' for Inactive)
ROOT
ATOM      1  C   UNL d   1       1.125   1.102  -2.739  0.00  0.00     0.172 C 
ATOM      2  N   UNL d   1       1.150   0.042  -1.758  0.00  0.00    -0.070 N 
ATOM      3  C1  UNL d   1       0.461   0.032  -0.575  0.00  0.00    -0.004 A 
ATOM      4  C2  UNL d   1       0.750  -1.149   0.072  0.00  0.00    -0.047 A 
ATOM      5  C3  UNL d   1       1.644  -1.875  -0.750  0.00  0.00    -0.047 A 
ATOM      6  C4  UNL d   1       1.875  -1.114  -1.877  0.00  0.00    -0.004 A 
ENDROOT
TORSDOF 0
ENDMDL
