MODEL 1
REMARK minimizedAffinity -2.56852961
REMARK minimizedRMSD -1
REMARK  0 active torsions:
REMARK  status: ('A' for Active; 'I' for Inactive)
ROOT
ATOM      1  C   UNL d   1      -1.791   0.187   2.086  0.00  0.00     0.172 C 
ATOM      2  N   UNL d   1      -0.966  -0.263   0.990  0.00  0.00    -0.070 N 
ATOM      3  C1  UNL d   1      -0.582   0.496  -0.084  0.00  0.00    -0.004 A 
ATOM      4  C2  UNL d   1       0.195  -0.295  -0.903  0.00  0.00    -0.047 A 
ATOM      5  C3  UNL d   1       0.280  -1.573  -0.301  0.00  0.00    -0.047 A 
ATOM      6  C4  UNL d   1      -0.448  -1.525   0.869  0.00  0.00    -0.004 A 
ENDROOT
TORSDOF 0
ENDMDL
