MODEL 1
REMARK minimizedAffinity -0.205757111
REMARK minimizedRMSD -1
REMARK  0 active torsions:
REMARK  status: ('A' for Active; 'I' for Inactive)
ROOT
ATOM      1  C   UNL d   1       0.880  -1.843  -0.668  0.00  0.00     0.172 C 
ATOM      2  N   UNL d   1       0.007  -0.735  -0.357  0.00  0.00    -0.070 N 
ATOM      3  C1  UNL d   1      -1.212  -0.828   0.259  0.00  0.00    -0.004 A 
ATOM      4  C2  UNL d   1      -1.725   0.446   0.374  0.00  0.00    -0.047 A 
ATOM      5  C3  UNL d   1      -0.782   1.335  -0.194  0.00  0.00    -0.047 A 
ATOM      6  C4  UNL d   1       0.281   0.577  -0.639  0.00  0.00    -0.004 A 
ENDROOT
TORSDOF 0
ENDMDL
