MODEL 1
REMARK minimizedAffinity -2.44783115
REMARK minimizedRMSD -1
REMARK  0 active torsions:
REMARK  status: ('A' for Active; 'I' for Inactive)
ROOT
ATOM      1  C   UNL d   1      -0.950  -0.030   0.512  0.00  0.00     0.172 C 
ATOM      2  N   UNL d   1       0.246  -0.529  -0.125  0.00  0.00    -0.070 N 
ATOM      3  C1  UNL d   1       0.804  -0.036  -1.274  0.00  0.00    -0.004 A 
ATOM      4  C2  UNL d   1       1.930  -0.780  -1.551  0.00  0.00    -0.047 A 
ATOM      5  C3  UNL d   1       2.053  -1.756  -0.533  0.00  0.00    -0.047 A 
ATOM      6  C4  UNL d   1       0.997  -1.578   0.336  0.00  0.00    -0.004 A 
ENDROOT
TORSDOF 0
ENDMDL
