MODEL 1
REMARK minimizedAffinity -2.87161207
REMARK minimizedRMSD -1
REMARK  1 active torsions:
REMARK  status: ('A' for Active; 'I' for Inactive)
REMARK    1  A    between atoms: C1_2  and  C2_3 
ROOT
ATOM      1  C2  UNL d   1       0.932  -1.115  -0.602  0.00  0.00    -0.081 A 
ATOM      2  C3  UNL d   1       0.389  -1.456   0.643  0.00  0.00     0.006 A 
ATOM      3  C4  UNL d   1      -0.248  -0.491   1.426  0.00  0.00     0.002 A 
ATOM      4  C5  UNL d   1      -0.361   0.828   0.975  0.00  0.00    -0.080 A 
ATOM      5  C6  UNL d   1      -1.070   1.866   1.793  0.00  0.00     0.076 C 
ATOM      6  C7  UNL d   1       0.196   1.173  -0.261  0.00  0.00     0.002 A 
ATOM      7  C8  UNL d   1       0.834   0.209  -1.044  0.00  0.00     0.006 A 
ENDROOT
BRANCH   1   8
ATOM      8  C1  UNL d   1       1.563  -2.167  -1.478  0.00  0.00     0.054 C 
ATOM      9  C   UNL d   1       0.626  -2.588  -2.600  0.00  0.00     0.018 C 
ENDBRANCH   1   8
TORSDOF 1
ENDMDL
