MODEL 1
REMARK minimizedAffinity -2.54409742
REMARK minimizedRMSD -1
REMARK  1 active torsions:
REMARK  status: ('A' for Active; 'I' for Inactive)
REMARK    1  A    between atoms: C1_2  and  C2_3 
ROOT
ATOM      1  C2  UNL d   1       0.568  -1.353  -0.361  0.00  0.00    -0.081 A 
ATOM      2  C3  UNL d   1       0.150  -1.514   0.965  0.00  0.00     0.006 A 
ATOM      3  C4  UNL d   1      -0.448  -0.456   1.653  0.00  0.00     0.002 A 
ATOM      4  C5  UNL d   1      -0.646   0.778   1.024  0.00  0.00    -0.080 A 
ATOM      5  C6  UNL d   1      -1.315   1.913   1.741  0.00  0.00     0.076 C 
ATOM      6  C7  UNL d   1      -0.213   0.945  -0.296  0.00  0.00     0.002 A 
ATOM      7  C8  UNL d   1       0.386  -0.113  -0.984  0.00  0.00     0.006 A 
ENDROOT
BRANCH   1   8
ATOM      8  C1  UNL d   1       1.155  -2.512  -1.126  0.00  0.00     0.054 C 
ATOM      9  C   UNL d   1       0.144  -3.100  -2.100  0.00  0.00     0.018 C 
ENDBRANCH   1   8
TORSDOF 1
ENDMDL
