MODEL 1
REMARK minimizedAffinity -4.29509926
REMARK minimizedRMSD -1
REMARK  1 active torsions:
REMARK  status: ('A' for Active; 'I' for Inactive)
REMARK    1  A    between atoms: C1_2  and  C2_3 
ROOT
ATOM      1  C2  UNL d   1      -1.363   1.311   1.090  0.00  0.00    -0.081 A 
ATOM      2  C3  UNL d   1      -0.845   1.619  -0.174  0.00  0.00     0.006 A 
ATOM      3  C4  UNL d   1       0.080   0.770  -0.786  0.00  0.00     0.002 A 
ATOM      4  C5  UNL d   1       0.496  -0.404  -0.149  0.00  0.00    -0.080 A 
ATOM      5  C6  UNL d   1       1.465  -1.340  -0.809  0.00  0.00     0.076 C 
ATOM      6  C7  UNL d   1      -0.009  -0.703   1.121  0.00  0.00     0.002 A 
ATOM      7  C8  UNL d   1      -0.933   0.146   1.734  0.00  0.00     0.006 A 
ENDROOT
BRANCH   1   8
ATOM      8  C1  UNL d   1      -2.409   2.192   1.724  0.00  0.00     0.054 C 
ATOM      9  C   UNL d   1      -2.095   3.666   1.510  0.00  0.00     0.018 C 
ENDBRANCH   1   8
TORSDOF 1
ENDMDL
