MODEL 1
REMARK minimizedAffinity -1.67730951
REMARK minimizedRMSD -1
REMARK  1 active torsions:
REMARK  status: ('A' for Active; 'I' for Inactive)
REMARK    1  A    between atoms: C1_2  and  C2_3 
ROOT
ATOM      1  C2  UNL d   1       0.028  -1.607  -1.025  0.00  0.00    -0.081 A 
ATOM      2  C3  UNL d   1       0.575  -0.318  -1.035  0.00  0.00     0.006 A 
ATOM      3  C4  UNL d   1       0.263   0.592  -0.021  0.00  0.00     0.002 A 
ATOM      4  C5  UNL d   1      -0.595   0.225   1.022  0.00  0.00    -0.080 A 
ATOM      5  C6  UNL d   1      -0.914   1.182   2.132  0.00  0.00     0.076 C 
ATOM      6  C7  UNL d   1      -1.155  -1.056   1.022  0.00  0.00     0.002 A 
ATOM      7  C8  UNL d   1      -0.844  -1.966   0.009  0.00  0.00     0.006 A 
ENDROOT
BRANCH   1   8
ATOM      8  C1  UNL d   1       0.413  -2.611  -2.081  0.00  0.00     0.054 C 
ATOM      9  C   UNL d   1      -0.810  -3.324  -2.639  0.00  0.00     0.018 C 
ENDBRANCH   1   8
TORSDOF 1
ENDMDL
