MODEL 1
REMARK minimizedAffinity -4.17221117
REMARK minimizedRMSD -1
REMARK  1 active torsions:
REMARK  status: ('A' for Active; 'I' for Inactive)
REMARK    1  A    between atoms: C1_2  and  C2_3 
ROOT
ATOM      1  C2  UNL d   1       0.686  -0.601  -0.422  0.00  0.00    -0.081 A 
ATOM      2  C3  UNL d   1      -0.004  -0.824   0.775  0.00  0.00     0.006 A 
ATOM      3  C4  UNL d   1      -0.611   0.238   1.451  0.00  0.00     0.002 A 
ATOM      4  C5  UNL d   1      -0.546   1.537   0.936  0.00  0.00    -0.080 A 
ATOM      5  C6  UNL d   1      -1.219   2.680   1.635  0.00  0.00     0.076 C 
ATOM      6  C7  UNL d   1       0.159   1.762  -0.251  0.00  0.00     0.002 A 
ATOM      7  C8  UNL d   1       0.767   0.702  -0.927  0.00  0.00     0.006 A 
ENDROOT
BRANCH   1   8
ATOM      8  C1  UNL d   1       1.287  -1.753  -1.186  0.00  0.00     0.054 C 
ATOM      9  C   UNL d   1       0.332  -2.266  -2.255  0.00  0.00     0.018 C 
ENDBRANCH   1   8
TORSDOF 1
ENDMDL
