MODEL 1
REMARK minimizedAffinity 3.08552122
REMARK minimizedRMSD -1
REMARK  1 active torsions:
REMARK  status: ('A' for Active; 'I' for Inactive)
REMARK    1  A    between atoms: C1_2  and  C2_3 
ROOT
ATOM      1  C2  UNL d   1       0.453  -0.505  -0.519  0.00  0.00    -0.081 A 
ATOM      2  C3  UNL d   1       0.193  -0.903   0.798  0.00  0.00     0.006 A 
ATOM      3  C4  UNL d   1      -0.408  -0.021   1.699  0.00  0.00     0.002 A 
ATOM      4  C5  UNL d   1      -0.766   1.270   1.296  0.00  0.00    -0.080 A 
ATOM      5  C6  UNL d   1      -1.440   2.217   2.245  0.00  0.00     0.076 C 
ATOM      6  C7  UNL d   1      -0.490   1.674  -0.014  0.00  0.00     0.002 A 
ATOM      7  C8  UNL d   1       0.111   0.792  -0.915  0.00  0.00     0.006 A 
ENDROOT
BRANCH   1   8
ATOM      8  C1  UNL d   1       1.042  -1.476  -1.510  0.00  0.00     0.054 C 
ATOM      9  C   UNL d   1       0.023  -2.525  -1.930  0.00  0.00     0.018 C 
ENDBRANCH   1   8
TORSDOF 1
ENDMDL
