MODEL 1
REMARK minimizedAffinity -3.47572803
REMARK minimizedRMSD -1
REMARK  1 active torsions:
REMARK  status: ('A' for Active; 'I' for Inactive)
REMARK    1  A    between atoms: C1_2  and  C2_3 
ROOT
ATOM      1  C2  UNL d   1       0.184  -1.726  -1.352  0.00  0.00    -0.081 A 
ATOM      2  C3  UNL d   1      -1.090  -1.835  -0.782  0.00  0.00     0.006 A 
ATOM      3  C4  UNL d   1      -1.410  -1.127   0.379  0.00  0.00     0.002 A 
ATOM      4  C5  UNL d   1      -0.465  -0.291   0.984  0.00  0.00    -0.080 A 
ATOM      5  C6  UNL d   1      -0.806   0.498   2.212  0.00  0.00     0.076 C 
ATOM      6  C7  UNL d   1       0.813  -0.195   0.424  0.00  0.00     0.002 A 
ATOM      7  C8  UNL d   1       1.134  -0.904  -0.736  0.00  0.00     0.006 A 
ENDROOT
BRANCH   1   8
ATOM      8  C1  UNL d   1       0.511  -2.438  -2.640  0.00  0.00     0.054 C 
ATOM      9  C   UNL d   1       0.397  -3.947  -2.481  0.00  0.00     0.018 C 
ENDBRANCH   1   8
TORSDOF 1
ENDMDL
