MODEL 1
REMARK minimizedAffinity -4.6435132
REMARK minimizedRMSD -1
REMARK  1 active torsions:
REMARK  status: ('A' for Active; 'I' for Inactive)
REMARK    1  A    between atoms: C1_2  and  C2_3 
ROOT
ATOM      1  C2  UNL d   1       0.296  -0.973  -0.362  0.00  0.00    -0.081 A 
ATOM      2  C3  UNL d   1      -0.189  -1.030   0.950  0.00  0.00     0.006 A 
ATOM      3  C4  UNL d   1      -0.982   0.002   1.457  0.00  0.00     0.002 A 
ATOM      4  C5  UNL d   1      -1.308   1.104   0.659  0.00  0.00    -0.080 A 
ATOM      5  C6  UNL d   1      -2.183   2.205   1.182  0.00  0.00     0.076 C 
ATOM      6  C7  UNL d   1      -0.809   1.169  -0.646  0.00  0.00     0.002 A 
ATOM      7  C8  UNL d   1      -0.016   0.138  -1.153  0.00  0.00     0.006 A 
ENDROOT
BRANCH   1   8
ATOM      8  C1  UNL d   1       1.097  -2.116  -0.933  0.00  0.00     0.054 C 
ATOM      9  C   UNL d   1       0.318  -2.851  -2.015  0.00  0.00     0.018 C 
ENDBRANCH   1   8
TORSDOF 1
ENDMDL
