MODEL 1
REMARK minimizedAffinity -4.84662437
REMARK minimizedRMSD -1
REMARK  1 active torsions:
REMARK  status: ('A' for Active; 'I' for Inactive)
REMARK    1  A    between atoms: C1_2  and  C2_3 
ROOT
ATOM      1  C2  UNL d   1       0.405  -0.466  -0.010  0.00  0.00    -0.081 A 
ATOM      2  C3  UNL d   1      -0.353  -0.032   1.085  0.00  0.00     0.006 A 
ATOM      3  C4  UNL d   1      -0.546   1.332   1.316  0.00  0.00     0.002 A 
ATOM      4  C5  UNL d   1       0.008   2.284   0.453  0.00  0.00    -0.080 A 
ATOM      5  C6  UNL d   1      -0.217   3.751   0.673  0.00  0.00     0.076 C 
ATOM      6  C7  UNL d   1       0.780   1.851  -0.630  0.00  0.00     0.002 A 
ATOM      7  C8  UNL d   1       0.974   0.488  -0.862  0.00  0.00     0.006 A 
ENDROOT
BRANCH   1   8
ATOM      8  C1  UNL d   1       0.561  -1.937  -0.299  0.00  0.00     0.054 C 
ATOM      9  C   UNL d   1       0.467  -2.220  -1.791  0.00  0.00     0.018 C 
ENDBRANCH   1   8
TORSDOF 1
ENDMDL
