MODEL 1
REMARK minimizedAffinity -2.0464797
REMARK minimizedRMSD -1
REMARK  1 active torsions:
REMARK  status: ('A' for Active; 'I' for Inactive)
REMARK    1  A    between atoms: C1_2  and  C2_3 
ROOT
ATOM      1  C2  UNL d   1       0.111  -0.374  -0.693  0.00  0.00    -0.081 A 
ATOM      2  C3  UNL d   1       0.988  -1.313  -0.137  0.00  0.00     0.006 A 
ATOM      3  C4  UNL d   1       1.184  -2.551  -0.753  0.00  0.00     0.002 A 
ATOM      4  C5  UNL d   1       0.513  -2.868  -1.939  0.00  0.00    -0.080 A 
ATOM      5  C6  UNL d   1       0.738  -4.182  -2.627  0.00  0.00     0.076 C 
ATOM      6  C7  UNL d   1      -0.376  -1.937  -2.486  0.00  0.00     0.002 A 
ATOM      7  C8  UNL d   1      -0.574  -0.699  -1.870  0.00  0.00     0.006 A 
ENDROOT
BRANCH   1   8
ATOM      8  C1  UNL d   1      -0.054   0.987  -0.066  0.00  0.00     0.054 C 
ATOM      9  C   UNL d   1       0.415   2.089  -1.005  0.00  0.00     0.018 C 
ENDBRANCH   1   8
TORSDOF 1
ENDMDL
