MODEL 1
REMARK minimizedAffinity -3.19064403
REMARK minimizedRMSD -1
REMARK  1 active torsions:
REMARK  status: ('A' for Active; 'I' for Inactive)
REMARK    1  A    between atoms: C1_2  and  C2_3 
ROOT
ATOM      1  C2  UNL d   1      -0.289   2.611  -0.028  0.00  0.00    -0.081 A 
ATOM      2  C3  UNL d   1      -0.945   2.820   1.191  0.00  0.00     0.006 A 
ATOM      3  C4  UNL d   1      -1.182   1.752   2.059  0.00  0.00     0.002 A 
ATOM      4  C5  UNL d   1      -0.762   0.460   1.727  0.00  0.00    -0.080 A 
ATOM      5  C6  UNL d   1      -0.983  -0.690   2.664  0.00  0.00     0.076 C 
ATOM      6  C7  UNL d   1      -0.122   0.248   0.501  0.00  0.00     0.002 A 
ATOM      7  C8  UNL d   1       0.115   1.315  -0.368  0.00  0.00     0.006 A 
ENDROOT
BRANCH   1   8
ATOM      8  C1  UNL d   1       0.026   3.771  -0.938  0.00  0.00     0.054 C 
ATOM      9  C   UNL d   1      -0.717   3.655  -2.261  0.00  0.00     0.018 C 
ENDBRANCH   1   8
TORSDOF 1
ENDMDL
