MODEL 1
REMARK minimizedAffinity -1.41291702
REMARK minimizedRMSD -1
REMARK  1 active torsions:
REMARK  status: ('A' for Active; 'I' for Inactive)
REMARK    1  A    between atoms: C1_2  and  C2_3 
ROOT
ATOM      1  C2  UNL d   1       0.392  -0.840  -0.555  0.00  0.00    -0.081 A 
ATOM      2  C3  UNL d   1      -0.396  -0.854  -1.712  0.00  0.00     0.006 A 
ATOM      3  C4  UNL d   1      -0.441  -1.989  -2.526  0.00  0.00     0.002 A 
ATOM      4  C5  UNL d   1       0.295  -3.130  -2.192  0.00  0.00    -0.080 A 
ATOM      5  C6  UNL d   1       0.233  -4.366  -3.040  0.00  0.00     0.076 C 
ATOM      6  C7  UNL d   1       1.097  -3.111  -1.045  0.00  0.00     0.002 A 
ATOM      7  C8  UNL d   1       1.142  -1.976  -0.232  0.00  0.00     0.006 A 
ENDROOT
BRANCH   1   8
ATOM      8  C1  UNL d   1       0.391   0.359   0.359  0.00  0.00     0.054 C 
ATOM      9  C   UNL d   1      -0.596   0.181   1.504  0.00  0.00     0.018 C 
ENDBRANCH   1   8
TORSDOF 1
ENDMDL
