MODEL 1
REMARK minimizedAffinity -3.63330007
REMARK minimizedRMSD -1
REMARK  0 active torsions:
REMARK  status: ('A' for Active; 'I' for Inactive)
ROOT
ATOM      1  C   UNL d   1      -0.788   2.417   0.699  0.00  0.00     0.023 A 
ATOM      2  C1  UNL d   1      -1.624   1.403   1.165  0.00  0.00     0.003 A 
ATOM      3  C2  UNL d   1      -1.403   0.080   0.777  0.00  0.00     0.048 A 
ATOM      4  C3  UNL d   1      -0.342  -0.222  -0.076  0.00  0.00     0.023 A 
ATOM      5  C4  UNL d   1       0.498   0.789  -0.544  0.00  0.00     0.048 A 
ATOM      6  C5  UNL d   1       0.272   2.111  -0.155  0.00  0.00     0.003 A 
ATOM      7  I   UNL d   1      -0.010  -2.191  -0.654  0.00  0.00    -0.146 I 
ENDROOT
TORSDOF 0
ENDMDL
