MODEL 1
REMARK minimizedAffinity -3.09691262
REMARK minimizedRMSD -1
REMARK  0 active torsions:
REMARK  status: ('A' for Active; 'I' for Inactive)
ROOT
ATOM      1  C   UNL d   1      -2.241   0.585  -0.191  0.00  0.00     0.023 A 
ATOM      2  C1  UNL d   1      -1.844   1.911  -0.023  0.00  0.00     0.003 A 
ATOM      3  C2  UNL d   1      -0.524   2.208   0.324  0.00  0.00     0.048 A 
ATOM      4  C3  UNL d   1       0.393   1.172   0.500  0.00  0.00     0.023 A 
ATOM      5  C4  UNL d   1       0.000  -0.156   0.333  0.00  0.00     0.048 A 
ATOM      6  C5  UNL d   1      -1.320  -0.448  -0.014  0.00  0.00     0.003 A 
ATOM      7  I   UNL d   1       2.358   1.611   1.017  0.00  0.00    -0.146 I 
ENDROOT
TORSDOF 0
ENDMDL
