MODEL 1
REMARK minimizedAffinity -2.47237921
REMARK minimizedRMSD -1
REMARK  0 active torsions:
REMARK  status: ('A' for Active; 'I' for Inactive)
ROOT
ATOM      1  C   UNL d   1       1.692   3.086   0.359  0.00  0.00     0.023 A 
ATOM      2  C1  UNL d   1       1.566   1.939  -0.425  0.00  0.00     0.003 A 
ATOM      3  C2  UNL d   1       0.419   1.149  -0.329  0.00  0.00     0.048 A 
ATOM      4  C3  UNL d   1      -0.600   1.513   0.551  0.00  0.00     0.023 A 
ATOM      5  C4  UNL d   1      -0.479   2.660   1.336  0.00  0.00     0.048 A 
ATOM      6  C5  UNL d   1       0.670   3.446   1.238  0.00  0.00     0.003 A 
ATOM      7  I   UNL d   1      -2.309   0.339   0.694  0.00  0.00    -0.146 I 
ENDROOT
TORSDOF 0
ENDMDL
