MODEL 1
REMARK minimizedAffinity -1.88906741
REMARK minimizedRMSD -1
REMARK  0 active torsions:
REMARK  status: ('A' for Active; 'I' for Inactive)
ROOT
ATOM      1  C   UNL d   1       3.057   1.712   0.972  0.00  0.00     0.023 A 
ATOM      2  C1  UNL d   1       2.066   2.670   1.186  0.00  0.00     0.003 A 
ATOM      3  C2  UNL d   1       0.721   2.336   1.015  0.00  0.00     0.048 A 
ATOM      4  C3  UNL d   1       0.374   1.041   0.631  0.00  0.00     0.023 A 
ATOM      5  C4  UNL d   1       1.362   0.078   0.417  0.00  0.00     0.048 A 
ATOM      6  C5  UNL d   1       2.706   0.417   0.588  0.00  0.00     0.003 A 
ATOM      7  I   UNL d   1      -1.627   0.540   0.377  0.00  0.00    -0.146 I 
ENDROOT
TORSDOF 0
ENDMDL
