MODEL 1
REMARK minimizedAffinity -2.62689805
REMARK minimizedRMSD -1
REMARK  0 active torsions:
REMARK  status: ('A' for Active; 'I' for Inactive)
ROOT
ATOM      1  C   UNL d   1      -0.334   2.840   0.292  0.00  0.00     0.023 A 
ATOM      2  C1  UNL d   1       0.842   2.368  -0.291  0.00  0.00     0.003 A 
ATOM      3  C2  UNL d   1       1.083   0.995  -0.369  0.00  0.00     0.048 A 
ATOM      4  C3  UNL d   1       0.142   0.099   0.137  0.00  0.00     0.023 A 
ATOM      5  C4  UNL d   1      -1.037   0.566   0.721  0.00  0.00     0.048 A 
ATOM      6  C5  UNL d   1      -1.272   1.940   0.797  0.00  0.00     0.003 A 
ATOM      7  I   UNL d   1       0.498  -1.946   0.023  0.00  0.00    -0.146 I 
ENDROOT
TORSDOF 0
ENDMDL
