MODEL 1
REMARK minimizedAffinity -0.107108429
REMARK minimizedRMSD -1
REMARK  0 active torsions:
REMARK  status: ('A' for Active; 'I' for Inactive)
ROOT
ATOM      1  C   UNL d   1       0.755  -1.420   0.039  0.00  0.00     0.023 A 
ATOM      2  C1  UNL d   1       1.855  -0.565   0.110  0.00  0.00     0.003 A 
ATOM      3  C2  UNL d   1       1.665   0.803   0.317  0.00  0.00     0.048 A 
ATOM      4  C3  UNL d   1       0.373   1.309   0.453  0.00  0.00     0.023 A 
ATOM      5  C4  UNL d   1      -0.731   0.457   0.384  0.00  0.00     0.048 A 
ATOM      6  C5  UNL d   1      -0.536  -0.910   0.176  0.00  0.00     0.003 A 
ATOM      7  I   UNL d   1       0.087   3.344   0.762  0.00  0.00    -0.146 I 
ENDROOT
TORSDOF 0
ENDMDL
