MODEL 1
REMARK minimizedAffinity -3.71901083
REMARK minimizedRMSD -1
REMARK  0 active torsions:
REMARK  status: ('A' for Active; 'I' for Inactive)
ROOT
ATOM      1  C   UNL d   1      -0.224   2.712   0.369  0.00  0.00     0.023 A 
ATOM      2  C1  UNL d   1      -1.380   1.951   0.545  0.00  0.00     0.003 A 
ATOM      3  C2  UNL d   1      -1.333   0.563   0.398  0.00  0.00     0.048 A 
ATOM      4  C3  UNL d   1      -0.127  -0.058   0.076  0.00  0.00     0.023 A 
ATOM      5  C4  UNL d   1       1.033   0.699  -0.100  0.00  0.00     0.048 A 
ATOM      6  C5  UNL d   1       0.981   2.087   0.047  0.00  0.00     0.003 A 
ATOM      7  I   UNL d   1      -0.055  -2.123  -0.142  0.00  0.00    -0.146 I 
ENDROOT
TORSDOF 0
ENDMDL
