MODEL 1
REMARK minimizedAffinity -2.72234201
REMARK minimizedRMSD -1
REMARK  0 active torsions:
REMARK  status: ('A' for Active; 'I' for Inactive)
ROOT
ATOM      1  C   UNL d   1      -0.313   1.980   0.794  0.00  0.00     0.023 A 
ATOM      2  C1  UNL d   1      -1.491   1.260   0.992  0.00  0.00     0.003 A 
ATOM      3  C2  UNL d   1      -1.557  -0.087   0.628  0.00  0.00     0.048 A 
ATOM      4  C3  UNL d   1      -0.441  -0.707   0.067  0.00  0.00     0.023 A 
ATOM      5  C4  UNL d   1       0.740   0.010  -0.132  0.00  0.00     0.048 A 
ATOM      6  C5  UNL d   1       0.801   1.356   0.232  0.00  0.00     0.003 A 
ATOM      7  I   UNL d   1      -0.537  -2.711  -0.475  0.00  0.00    -0.146 I 
ENDROOT
TORSDOF 0
ENDMDL
