MODEL 1
REMARK minimizedAffinity -3.01621509
REMARK minimizedRMSD -1
REMARK  0 active torsions:
REMARK  status: ('A' for Active; 'I' for Inactive)
ROOT
ATOM      1  C   UNL d   1       0.905  -1.826   0.622  0.00  0.00     0.023 A 
ATOM      2  C1  UNL d   1       2.031  -1.003   0.610  0.00  0.00     0.003 A 
ATOM      3  C2  UNL d   1       1.884   0.382   0.510  0.00  0.00     0.048 A 
ATOM      4  C3  UNL d   1       0.608   0.938   0.423  0.00  0.00     0.023 A 
ATOM      5  C4  UNL d   1      -0.522   0.118   0.436  0.00  0.00     0.048 A 
ATOM      6  C5  UNL d   1      -0.370  -1.266   0.536  0.00  0.00     0.003 A 
ATOM      7  I   UNL d   1       0.387   2.999   0.274  0.00  0.00    -0.146 I 
ENDROOT
TORSDOF 0
ENDMDL
