MODEL 1
REMARK minimizedAffinity -4.82747793
REMARK minimizedRMSD -1
REMARK  0 active torsions:
REMARK  status: ('A' for Active; 'I' for Inactive)
ROOT
ATOM      1  C   UNL d   1       0.223   3.174   0.061  0.00  0.00     0.023 A 
ATOM      2  C1  UNL d   1       1.162   2.479  -0.702  0.00  0.00     0.003 A 
ATOM      3  C2  UNL d   1       1.092   1.087  -0.799  0.00  0.00     0.048 A 
ATOM      4  C3  UNL d   1       0.081   0.397  -0.132  0.00  0.00     0.023 A 
ATOM      5  C4  UNL d   1      -0.861   1.088   0.631  0.00  0.00     0.048 A 
ATOM      6  C5  UNL d   1      -0.787   2.479   0.726  0.00  0.00     0.003 A 
ATOM      7  I   UNL d   1      -0.024  -1.674  -0.276  0.00  0.00    -0.146 I 
ENDROOT
TORSDOF 0
ENDMDL
