MODEL 1
REMARK minimizedAffinity -1.58707035
REMARK minimizedRMSD -1
REMARK  0 active torsions:
REMARK  status: ('A' for Active; 'I' for Inactive)
ROOT
ATOM      1  C   UNL d   1       0.602   2.810   0.119  0.00  0.00     0.023 A 
ATOM      2  C1  UNL d   1       1.437   1.930  -0.570  0.00  0.00     0.003 A 
ATOM      3  C2  UNL d   1       1.089   0.582  -0.685  0.00  0.00     0.048 A 
ATOM      4  C3  UNL d   1      -0.095   0.122  -0.110  0.00  0.00     0.023 A 
ATOM      5  C4  UNL d   1      -0.934   1.000   0.579  0.00  0.00     0.048 A 
ATOM      6  C5  UNL d   1      -0.581   2.346   0.693  0.00  0.00     0.003 A 
ATOM      7  I   UNL d   1      -0.615  -1.883  -0.281  0.00  0.00    -0.146 I 
ENDROOT
TORSDOF 0
ENDMDL
