MODEL 1
REMARK minimizedAffinity 0.234950423
REMARK minimizedRMSD -1
REMARK  0 active torsions:
REMARK  status: ('A' for Active; 'I' for Inactive)
ROOT
ATOM      1  C   UNL d   1      -1.972   2.183   0.517  0.00  0.00     0.023 A 
ATOM      2  C1  UNL d   1      -0.747   2.841   0.404  0.00  0.00     0.003 A 
ATOM      3  C2  UNL d   1       0.441   2.108   0.374  0.00  0.00     0.048 A 
ATOM      4  C3  UNL d   1       0.396   0.716   0.457  0.00  0.00     0.023 A 
ATOM      5  C4  UNL d   1      -0.827   0.054   0.570  0.00  0.00     0.048 A 
ATOM      6  C5  UNL d   1      -2.012   0.791   0.599  0.00  0.00     0.003 A 
ATOM      7  I   UNL d   1       2.163  -0.378   0.413  0.00  0.00    -0.146 I 
ENDROOT
TORSDOF 0
ENDMDL
