MODEL 1
REMARK minimizedAffinity -2.1805954
REMARK minimizedRMSD -1
REMARK  0 active torsions:
REMARK  status: ('A' for Active; 'I' for Inactive)
ROOT
ATOM      1  C   UNL d   1      -1.203  -3.707  -2.094  0.00  0.00     0.023 A 
ATOM      2  C1  UNL d   1      -1.691  -3.130  -0.921  0.00  0.00     0.003 A 
ATOM      3  C2  UNL d   1      -1.024  -2.047  -0.344  0.00  0.00     0.048 A 
ATOM      4  C3  UNL d   1       0.129  -1.544  -0.946  0.00  0.00     0.023 A 
ATOM      5  C4  UNL d   1       0.620  -2.117  -2.120  0.00  0.00     0.048 A 
ATOM      6  C5  UNL d   1      -0.049  -3.201  -2.693  0.00  0.00     0.003 A 
ATOM      7  I   UNL d   1       1.122   0.068  -0.089  0.00  0.00    -0.146 I 
ENDROOT
TORSDOF 0
ENDMDL
