MODEL 1
REMARK minimizedAffinity -3.82787347
REMARK minimizedRMSD -1
REMARK  0 active torsions:
REMARK  status: ('A' for Active; 'I' for Inactive)
ROOT
ATOM      1  C   UNL d   1       0.382   3.681   0.442  0.00  0.00     0.023 A 
ATOM      2  C1  UNL d   1      -0.678   3.041   1.084  0.00  0.00     0.003 A 
ATOM      3  C2  UNL d   1      -0.899   1.677   0.882  0.00  0.00     0.048 A 
ATOM      4  C3  UNL d   1      -0.054   0.958   0.037  0.00  0.00     0.023 A 
ATOM      5  C4  UNL d   1       1.009   1.594  -0.608  0.00  0.00     0.048 A 
ATOM      6  C5  UNL d   1       1.225   2.958  -0.403  0.00  0.00     0.003 A 
ATOM      7  I   UNL d   1      -0.380  -1.072  -0.266  0.00  0.00    -0.146 I 
ENDROOT
TORSDOF 0
ENDMDL
