MODEL 1
REMARK minimizedAffinity -0.609309375
REMARK minimizedRMSD -1
REMARK  0 active torsions:
REMARK  status: ('A' for Active; 'I' for Inactive)
ROOT
ATOM      1  C   UNL d   1       6.000  -0.630  -1.476  0.00  0.00    -0.002 A 
ATOM      2  C1  UNL d   1       5.833  -1.872  -0.881  0.00  0.00     0.010 A 
ATOM      3  C2  UNL d   1       4.555  -2.392  -0.667  0.00  0.00     0.041 A 
ATOM      4  C3  UNL d   1       3.436  -1.635  -1.068  0.00  0.00    -0.075 A 
ATOM      5  S   UNL d   1       1.775  -2.070  -0.909  0.00  0.00     0.015 SA
ATOM      6  C4  UNL d   1       1.248  -0.618  -1.628  0.00  0.00     0.022 A 
ATOM      7  C5  UNL d   1       2.300   0.191  -1.987  0.00  0.00     0.026 A 
ATOM      8  C6  UNL d   1       3.579  -0.382  -1.671  0.00  0.00    -0.082 A 
ATOM      9  C7  UNL d   1       4.888   0.118  -1.872  0.00  0.00     0.045 A 
ENDROOT
TORSDOF 0
ENDMDL
