MODEL 1
REMARK minimizedAffinity 16.4338017
REMARK minimizedRMSD -1
REMARK  0 active torsions:
REMARK  status: ('A' for Active; 'I' for Inactive)
ROOT
ATOM      1  C   UNL d   1      -3.005   1.876   4.342  0.00  0.00    -0.002 A 
ATOM      2  C1  UNL d   1      -3.007   1.410   5.649  0.00  0.00     0.010 A 
ATOM      3  C2  UNL d   1      -3.753   0.283   6.000  0.00  0.00     0.041 A 
ATOM      4  C3  UNL d   1      -4.503  -0.374   5.005  0.00  0.00    -0.075 A 
ATOM      5  S   UNL d   1      -5.491  -1.773   5.203  0.00  0.00     0.015 SA
ATOM      6  C4  UNL d   1      -5.933  -1.786   3.557  0.00  0.00     0.022 A 
ATOM      7  C5  UNL d   1      -5.351  -0.754   2.859  0.00  0.00     0.026 A 
ATOM      8  C6  UNL d   1      -4.516   0.076   3.682  0.00  0.00    -0.082 A 
ATOM      9  C7  UNL d   1      -3.750   1.221   3.358  0.00  0.00     0.045 A 
ENDROOT
TORSDOF 0
ENDMDL
