MODEL 1
REMARK minimizedAffinity 9.8695364
REMARK minimizedRMSD -1
REMARK  0 active torsions:
REMARK  status: ('A' for Active; 'I' for Inactive)
ROOT
ATOM      1  C   UNL d   1      -0.647  -2.411   1.655  0.00  0.00    -0.002 A 
ATOM      2  C1  UNL d   1      -0.050  -1.375   0.951  0.00  0.00     0.010 A 
ATOM      3  C2  UNL d   1       0.049  -1.426  -0.441  0.00  0.00     0.041 A 
ATOM      4  C3  UNL d   1      -0.469  -2.547  -1.120  0.00  0.00    -0.075 A 
ATOM      5  S   UNL d   1      -0.461  -2.826  -2.822  0.00  0.00     0.015 SA
ATOM      6  C4  UNL d   1      -1.250  -4.327  -2.654  0.00  0.00     0.022 A 
ATOM      7  C5  UNL d   1      -1.521  -4.624  -1.339  0.00  0.00     0.026 A 
ATOM      8  C6  UNL d   1      -1.075  -3.602  -0.434  0.00  0.00    -0.082 A 
ATOM      9  C7  UNL d   1      -1.160  -3.521   0.977  0.00  0.00     0.045 A 
ENDROOT
TORSDOF 0
ENDMDL
