MODEL 1
REMARK minimizedAffinity 13.2863388
REMARK minimizedRMSD -1
REMARK  0 active torsions:
REMARK  status: ('A' for Active; 'I' for Inactive)
ROOT
ATOM      1  C   UNL d   1       0.085  -1.423   0.611  0.00  0.00    -0.002 A 
ATOM      2  C1  UNL d   1      -0.554  -2.180   1.583  0.00  0.00     0.010 A 
ATOM      3  C2  UNL d   1      -1.495  -3.147   1.225  0.00  0.00     0.041 A 
ATOM      4  C3  UNL d   1      -1.785  -3.345  -0.139  0.00  0.00    -0.075 A 
ATOM      5  S   UNL d   1      -2.901  -4.473  -0.812  0.00  0.00     0.015 SA
ATOM      6  C4  UNL d   1      -2.554  -3.979  -2.406  0.00  0.00     0.022 A 
ATOM      7  C5  UNL d   1      -1.613  -2.978  -2.442  0.00  0.00     0.026 A 
ATOM      8  C6  UNL d   1      -1.153  -2.596  -1.137  0.00  0.00    -0.082 A 
ATOM      9  C7  UNL d   1      -0.204  -1.622  -0.742  0.00  0.00     0.045 A 
ENDROOT
TORSDOF 0
ENDMDL
