MODEL 1
REMARK minimizedAffinity 15.6579113
REMARK minimizedRMSD -1
REMARK  0 active torsions:
REMARK  status: ('A' for Active; 'I' for Inactive)
ROOT
ATOM      1  C   UNL d   1      -3.211   2.256   5.205  0.00  0.00    -0.002 A 
ATOM      2  C1  UNL d   1      -3.139   1.948   3.854  0.00  0.00     0.010 A 
ATOM      3  C2  UNL d   1      -1.911   1.656   3.257  0.00  0.00     0.041 A 
ATOM      4  C3  UNL d   1      -0.746   1.678   4.048  0.00  0.00    -0.075 A 
ATOM      5  S   UNL d   1       0.867   1.353   3.533  0.00  0.00     0.015 SA
ATOM      6  C4  UNL d   1       1.498   1.615   5.094  0.00  0.00     0.022 A 
ATOM      7  C5  UNL d   1       0.517   1.943   5.999  0.00  0.00     0.026 A 
ATOM      8  C6  UNL d   1      -0.793   1.985   5.411  0.00  0.00    -0.082 A 
ATOM      9  C7  UNL d   1      -2.053   2.277   5.987  0.00  0.00     0.045 A 
ENDROOT
TORSDOF 0
ENDMDL
