MODEL 1
REMARK minimizedAffinity 21.8797436
REMARK minimizedRMSD -1
REMARK  0 active torsions:
REMARK  status: ('A' for Active; 'I' for Inactive)
ROOT
ATOM      1  C   UNL d   1       1.625   0.133  -2.966  0.00  0.00    -0.002 A 
ATOM      2  C1  UNL d   1       2.367  -0.552  -2.014  0.00  0.00     0.010 A 
ATOM      3  C2  UNL d   1       2.785   0.087  -0.845  0.00  0.00     0.041 A 
ATOM      4  C3  UNL d   1       2.441   1.439  -0.647  0.00  0.00    -0.075 A 
ATOM      5  S   UNL d   1       2.843   2.425   0.709  0.00  0.00     0.015 SA
ATOM      6  C4  UNL d   1       2.039   3.779   0.057  0.00  0.00     0.022 A 
ATOM      7  C5  UNL d   1       1.473   3.503  -1.165  0.00  0.00     0.026 A 
ATOM      8  C6  UNL d   1       1.694   2.149  -1.590  0.00  0.00    -0.082 A 
ATOM      9  C7  UNL d   1       1.285   1.474  -2.765  0.00  0.00     0.045 A 
ENDROOT
TORSDOF 0
ENDMDL
