MODEL 1
REMARK minimizedAffinity 25.9340305
REMARK minimizedRMSD -1
REMARK  0 active torsions:
REMARK  status: ('A' for Active; 'I' for Inactive)
ROOT
ATOM      1  C   UNL d   1       3.515   0.894  -1.014  0.00  0.00    -0.002 A 
ATOM      2  C1  UNL d   1       2.733   1.282  -2.093  0.00  0.00     0.010 A 
ATOM      3  C2  UNL d   1       1.485   0.695  -2.313  0.00  0.00     0.041 A 
ATOM      4  C3  UNL d   1       1.031  -0.296  -1.421  0.00  0.00    -0.075 A 
ATOM      5  S   UNL d   1      -0.464  -1.152  -1.491  0.00  0.00     0.015 SA
ATOM      6  C4  UNL d   1      -0.100  -2.053  -0.090  0.00  0.00     0.022 A 
ATOM      7  C5  UNL d   1       1.128  -1.721   0.431  0.00  0.00     0.026 A 
ATOM      8  C6  UNL d   1       1.800  -0.703  -0.327  0.00  0.00    -0.082 A 
ATOM      9  C7  UNL d   1       3.061  -0.090  -0.132  0.00  0.00     0.045 A 
ENDROOT
TORSDOF 0
ENDMDL
