MODEL 1
REMARK minimizedAffinity -2.14377475
REMARK minimizedRMSD -1
REMARK  0 active torsions:
REMARK  status: ('A' for Active; 'I' for Inactive)
ROOT
ATOM      1  C   UNL d   1       1.722  -0.505  -1.399  0.00  0.00    -0.002 A 
ATOM      2  C1  UNL d   1       1.097   0.729  -1.509  0.00  0.00     0.010 A 
ATOM      3  C2  UNL d   1       0.063   1.081  -0.639  0.00  0.00     0.041 A 
ATOM      4  C3  UNL d   1      -0.335   0.164   0.353  0.00  0.00    -0.075 A 
ATOM      5  S   UNL d   1      -1.578   0.378   1.529  0.00  0.00     0.015 SA
ATOM      6  C4  UNL d   1      -1.307  -1.163   2.205  0.00  0.00     0.022 A 
ATOM      7  C5  UNL d   1      -0.298  -1.838   1.561  0.00  0.00     0.026 A 
ATOM      8  C6  UNL d   1       0.280  -1.085   0.484  0.00  0.00    -0.082 A 
ATOM      9  C7  UNL d   1       1.324  -1.412  -0.414  0.00  0.00     0.045 A 
ENDROOT
TORSDOF 0
ENDMDL
