MODEL 1
REMARK minimizedAffinity -0.950348854
REMARK minimizedRMSD -1
REMARK  0 active torsions:
REMARK  status: ('A' for Active; 'I' for Inactive)
ROOT
ATOM      1  C   UNL d   1       2.697  -1.066  -4.096  0.00  0.00    -0.002 A 
ATOM      2  C1  UNL d   1       2.296   0.064  -3.396  0.00  0.00     0.010 A 
ATOM      3  C2  UNL d   1       1.593  -0.057  -2.196  0.00  0.00     0.041 A 
ATOM      4  C3  UNL d   1       1.299  -1.344  -1.705  0.00  0.00    -0.075 A 
ATOM      5  S   UNL d   1       0.450  -1.735  -0.256  0.00  0.00     0.015 SA
ATOM      6  C4  UNL d   1       0.601  -3.410  -0.531  0.00  0.00     0.022 A 
ATOM      7  C5  UNL d   1       1.279  -3.683  -1.695  0.00  0.00     0.026 A 
ATOM      8  C6  UNL d   1       1.693  -2.496  -2.391  0.00  0.00    -0.082 A 
ATOM      9  C7  UNL d   1       2.404  -2.341  -3.605  0.00  0.00     0.045 A 
ENDROOT
TORSDOF 0
ENDMDL
