MODEL 1
REMARK minimizedAffinity 4.95010328
REMARK minimizedRMSD -1
REMARK  1 active torsions:
REMARK  status: ('A' for Active; 'I' for Inactive)
REMARK    1  A    between atoms: N_2  and  C1_3 
ROOT
ATOM      1  C1  UNL d   1      -4.157   3.515  -2.803  0.00  0.00     0.143 A 
ATOM      2  C2  UNL d   1      -3.257   3.605  -1.736  0.00  0.00    -0.057 A 
ATOM      3  C3  UNL d   1      -2.940   2.485  -0.958  0.00  0.00     0.033 A 
ATOM      4  C4  UNL d   1      -3.542   1.258  -1.216  0.00  0.00    -0.042 A 
ATOM      5  C5  UNL d   1      -4.459   1.151  -2.256  0.00  0.00     0.033 A 
ATOM      6  C6  UNL d   1      -4.766   2.272  -3.034  0.00  0.00    -0.057 A 
ENDROOT
BRANCH   1   7
ATOM      7  N   UNL d   1      -4.588   4.614  -3.551  0.00  0.00    -0.732 N 
ATOM      8  C   UNL d   1      -6.000   4.860  -3.753  0.00  0.00     0.284 C 
ATOM      9  H3  UNL d   1      -4.043   5.451  -3.361  0.00  0.00     0.395 HD
ENDBRANCH   1   7
TORSDOF 1
ENDMDL
