MODEL 1
REMARK minimizedAffinity 3.5448339
REMARK minimizedRMSD -1
REMARK  1 active torsions:
REMARK  status: ('A' for Active; 'I' for Inactive)
REMARK    1  A    between atoms: N_2  and  C1_3 
ROOT
ATOM      1  C1  UNL d   1       3.421  -1.298  -0.453  0.00  0.00     0.143 A 
ATOM      2  C2  UNL d   1       3.735  -2.653  -0.299  0.00  0.00    -0.057 A 
ATOM      3  C3  UNL d   1       4.896  -3.197  -0.862  0.00  0.00     0.033 A 
ATOM      4  C4  UNL d   1       5.750  -2.400  -1.616  0.00  0.00    -0.042 A 
ATOM      5  C5  UNL d   1       5.445  -1.057  -1.804  0.00  0.00     0.033 A 
ATOM      6  C6  UNL d   1       4.288  -0.517  -1.233  0.00  0.00    -0.057 A 
ENDROOT
BRANCH   1   7
ATOM      7  N   UNL d   1       2.232  -0.719  -0.001  0.00  0.00    -0.732 N 
ATOM      8  C   UNL d   1       1.323  -0.082  -0.929  0.00  0.00     0.284 C 
ATOM      9  H3  UNL d   1       1.773  -1.282   0.711  0.00  0.00     0.395 HD
ENDBRANCH   1   7
TORSDOF 1
ENDMDL
