MODEL 1
REMARK minimizedAffinity 7.5407176
REMARK minimizedRMSD -1
REMARK  0 active torsions:
REMARK  status: ('A' for Active; 'I' for Inactive)
ROOT
ATOM      1  C   UNL d   1       1.670  -4.147  -0.784  0.00  0.00     0.077 C 
ATOM      2  C1  UNL d   1       1.304  -2.798  -0.240  0.00  0.00    -0.074 A 
ATOM      3  C2  UNL d   1       2.289  -1.850   0.056  0.00  0.00    -0.005 A 
ATOM      4  C3  UNL d   1       1.933  -0.597   0.553  0.00  0.00     0.006 A 
ATOM      5  C4  UNL d   1       0.590  -0.278   0.758  0.00  0.00    -0.005 A 
ATOM      6  C5  UNL d   1      -0.409  -1.212   0.467  0.00  0.00    -0.074 A 
ATOM      7  C6  UNL d   1      -1.857  -0.881   0.673  0.00  0.00     0.077 C 
ATOM      8  C7  UNL d   1      -0.043  -2.467  -0.038  0.00  0.00    -0.001 A 
ENDROOT
TORSDOF 0
ENDMDL
