MODEL 1
REMARK minimizedAffinity 3.80218935
REMARK minimizedRMSD -1
REMARK  0 active torsions:
REMARK  status: ('A' for Active; 'I' for Inactive)
ROOT
ATOM      1  C   UNL d   1       3.779  -0.719   1.249  0.00  0.00     0.077 C 
ATOM      2  C1  UNL d   1       2.365  -1.183   1.068  0.00  0.00    -0.074 A 
ATOM      3  C2  UNL d   1       1.316  -0.585   1.774  0.00  0.00    -0.005 A 
ATOM      4  C3  UNL d   1       0.004  -1.021   1.588  0.00  0.00     0.006 A 
ATOM      5  C4  UNL d   1      -0.272  -2.058   0.696  0.00  0.00    -0.005 A 
ATOM      6  C5  UNL d   1       0.763  -2.667  -0.020  0.00  0.00    -0.074 A 
ATOM      7  C6  UNL d   1       0.483  -3.776  -0.991  0.00  0.00     0.077 C 
ATOM      8  C7  UNL d   1       2.078  -2.219   0.167  0.00  0.00    -0.001 A 
ENDROOT
TORSDOF 0
ENDMDL
