MODEL 1
REMARK minimizedAffinity 1.71703303
REMARK minimizedRMSD -1
REMARK  0 active torsions:
REMARK  status: ('A' for Active; 'I' for Inactive)
ROOT
ATOM      1  C   UNL d   1      -0.236  -0.519   2.380  0.00  0.00     0.077 C 
ATOM      2  C1  UNL d   1      -0.119  -1.552   1.299  0.00  0.00    -0.074 A 
ATOM      3  C2  UNL d   1      -1.254  -2.038   0.642  0.00  0.00    -0.005 A 
ATOM      4  C3  UNL d   1      -1.128  -2.992  -0.367  0.00  0.00     0.006 A 
ATOM      5  C4  UNL d   1       0.132  -3.469  -0.730  0.00  0.00    -0.005 A 
ATOM      6  C5  UNL d   1       1.279  -2.995  -0.085  0.00  0.00    -0.074 A 
ATOM      7  C6  UNL d   1       2.641  -3.490  -0.469  0.00  0.00     0.077 C 
ATOM      8  C7  UNL d   1       1.145  -2.031   0.924  0.00  0.00    -0.001 A 
ENDROOT
TORSDOF 0
ENDMDL
