MODEL 1
REMARK minimizedAffinity -2.65431643
REMARK minimizedRMSD -1
REMARK  0 active torsions:
REMARK  status: ('A' for Active; 'I' for Inactive)
ROOT
ATOM      1  C   UNL d   1       2.949   0.404   1.030  0.00  0.00     0.077 C 
ATOM      2  C1  UNL d   1       2.284  -0.848   0.540  0.00  0.00    -0.074 A 
ATOM      3  C2  UNL d   1       3.038  -1.906   0.021  0.00  0.00    -0.005 A 
ATOM      4  C3  UNL d   1       2.407  -3.068  -0.423  0.00  0.00     0.006 A 
ATOM      5  C4  UNL d   1       1.018  -3.184  -0.351  0.00  0.00    -0.005 A 
ATOM      6  C5  UNL d   1       0.248  -2.137   0.166  0.00  0.00    -0.074 A 
ATOM      7  C6  UNL d   1      -1.245  -2.250   0.259  0.00  0.00     0.077 C 
ATOM      8  C7  UNL d   1       0.890  -0.976   0.616  0.00  0.00    -0.001 A 
ENDROOT
TORSDOF 0
ENDMDL
