MODEL 1
REMARK minimizedAffinity -3.74135566
REMARK minimizedRMSD -1
REMARK  0 active torsions:
REMARK  status: ('A' for Active; 'I' for Inactive)
ROOT
ATOM      1  C   UNL d   1      -5.998  -2.341   6.000  0.00  0.00     0.077 C 
ATOM      2  C1  UNL d   1      -5.763  -3.495   5.071  0.00  0.00    -0.074 A 
ATOM      3  C2  UNL d   1      -5.616  -4.796   5.564  0.00  0.00    -0.005 A 
ATOM      4  C3  UNL d   1      -5.408  -5.861   4.688  0.00  0.00     0.006 A 
ATOM      5  C4  UNL d   1      -5.344  -5.636   3.312  0.00  0.00    -0.005 A 
ATOM      6  C5  UNL d   1      -5.490  -4.343   2.801  0.00  0.00    -0.074 A 
ATOM      7  C6  UNL d   1      -5.434  -4.086   1.324  0.00  0.00     0.077 C 
ATOM      8  C7  UNL d   1      -5.706  -3.279   3.687  0.00  0.00    -0.001 A 
ENDROOT
TORSDOF 0
ENDMDL
