MODEL 1
REMARK minimizedAffinity -5.16660976
REMARK minimizedRMSD -1
REMARK  0 active torsions:
REMARK  status: ('A' for Active; 'I' for Inactive)
ROOT
ATOM      1  C   UNL d   1      -1.631  -3.439   0.389  0.00  0.00     0.077 C 
ATOM      2  C1  UNL d   1      -0.533  -2.418   0.374  0.00  0.00    -0.074 A 
ATOM      3  C2  UNL d   1      -0.795  -1.075   0.664  0.00  0.00    -0.005 A 
ATOM      4  C3  UNL d   1       0.238  -0.139   0.656  0.00  0.00     0.006 A 
ATOM      5  C4  UNL d   1       1.542  -0.534   0.357  0.00  0.00    -0.005 A 
ATOM      6  C5  UNL d   1       1.825  -1.872   0.066  0.00  0.00    -0.074 A 
ATOM      7  C6  UNL d   1       3.223  -2.316  -0.248  0.00  0.00     0.077 C 
ATOM      8  C7  UNL d   1       0.782  -2.809   0.083  0.00  0.00    -0.001 A 
ENDROOT
TORSDOF 0
ENDMDL
