MODEL 1
REMARK minimizedAffinity 5.04248667
REMARK minimizedRMSD -1
REMARK  0 active torsions:
REMARK  status: ('A' for Active; 'I' for Inactive)
ROOT
ATOM      1  C   UNL d   1       3.063  -4.077  -0.207  0.00  0.00     0.077 C 
ATOM      2  C1  UNL d   1       1.823  -3.243  -0.077  0.00  0.00    -0.074 A 
ATOM      3  C2  UNL d   1       0.713  -3.475  -0.895  0.00  0.00    -0.005 A 
ATOM      4  C3  UNL d   1      -0.437  -2.698  -0.757  0.00  0.00     0.006 A 
ATOM      5  C4  UNL d   1      -0.489  -1.683   0.200  0.00  0.00    -0.005 A 
ATOM      6  C5  UNL d   1       0.612  -1.438   1.028  0.00  0.00    -0.074 A 
ATOM      7  C6  UNL d   1       0.569  -0.358   2.068  0.00  0.00     0.077 C 
ATOM      8  C7  UNL d   1       1.761  -2.228   0.887  0.00  0.00    -0.001 A 
ENDROOT
TORSDOF 0
ENDMDL
