MODEL 1
REMARK minimizedAffinity -4.05400181
REMARK minimizedRMSD -1
REMARK  0 active torsions:
REMARK  status: ('A' for Active; 'I' for Inactive)
ROOT
ATOM      1  C   UNL d   1       2.900  -1.470   0.520  0.00  0.00     0.077 C 
ATOM      2  C1  UNL d   1       1.401  -1.459   0.466  0.00  0.00    -0.074 A 
ATOM      3  C2  UNL d   1       0.696  -2.499  -0.147  0.00  0.00    -0.005 A 
ATOM      4  C3  UNL d   1      -0.698  -2.479  -0.181  0.00  0.00     0.006 A 
ATOM      5  C4  UNL d   1      -1.400  -1.421   0.397  0.00  0.00    -0.005 A 
ATOM      6  C5  UNL d   1      -0.712  -0.372   1.015  0.00  0.00    -0.074 A 
ATOM      7  C6  UNL d   1      -1.451   0.769   1.649  0.00  0.00     0.077 C 
ATOM      8  C7  UNL d   1       0.689  -0.402   1.051  0.00  0.00    -0.001 A 
ENDROOT
TORSDOF 0
ENDMDL
