MODEL 1
REMARK minimizedAffinity 0.0752782524
REMARK minimizedRMSD -1
REMARK  0 active torsions:
REMARK  status: ('A' for Active; 'I' for Inactive)
ROOT
ATOM      1  C   UNL d   1      -0.857   0.134   5.317  0.00  0.00     0.077 C 
ATOM      2  C1  UNL d   1      -1.206   0.100   3.859  0.00  0.00    -0.074 A 
ATOM      3  C2  UNL d   1      -1.809   1.198   3.238  0.00  0.00    -0.005 A 
ATOM      4  C3  UNL d   1      -2.120   1.155   1.879  0.00  0.00     0.006 A 
ATOM      5  C4  UNL d   1      -1.830   0.014   1.128  0.00  0.00    -0.005 A 
ATOM      6  C5  UNL d   1      -1.226  -1.093   1.731  0.00  0.00    -0.074 A 
ATOM      7  C6  UNL d   1      -0.900  -2.323   0.937  0.00  0.00     0.077 C 
ATOM      8  C7  UNL d   1      -0.911  -1.039   3.096  0.00  0.00    -0.001 A 
ENDROOT
TORSDOF 0
ENDMDL
