MODEL 1
REMARK minimizedAffinity 1.02438605
REMARK minimizedRMSD -1
REMARK  0 active torsions:
REMARK  status: ('A' for Active; 'I' for Inactive)
ROOT
ATOM      1  C   UNL d   1       1.939   0.955   1.531  0.00  0.00     0.077 C 
ATOM      2  C1  UNL d   1       1.216  -0.264   1.040  0.00  0.00    -0.074 A 
ATOM      3  C2  UNL d   1      -0.181  -0.321   1.043  0.00  0.00    -0.005 A 
ATOM      4  C3  UNL d   1      -0.839  -1.458   0.574  0.00  0.00     0.006 A 
ATOM      5  C4  UNL d   1      -0.108  -2.547   0.098  0.00  0.00    -0.005 A 
ATOM      6  C5  UNL d   1       1.290  -2.507   0.086  0.00  0.00    -0.074 A 
ATOM      7  C6  UNL d   1       2.090  -3.665  -0.432  0.00  0.00     0.077 C 
ATOM      8  C7  UNL d   1       1.944  -1.359   0.552  0.00  0.00    -0.001 A 
ENDROOT
TORSDOF 0
ENDMDL
