MODEL 1
REMARK minimizedAffinity 0.235777125
REMARK minimizedRMSD -1
REMARK  0 active torsions:
REMARK  status: ('A' for Active; 'I' for Inactive)
ROOT
ATOM      1  C   UNL d   1       0.426  -4.358  -1.134  0.00  0.00     0.077 C 
ATOM      2  C1  UNL d   1       0.823  -3.043  -0.531  0.00  0.00    -0.074 A 
ATOM      3  C2  UNL d   1       2.143  -2.587  -0.606  0.00  0.00    -0.005 A 
ATOM      4  C3  UNL d   1       2.496  -1.358  -0.049  0.00  0.00     0.006 A 
ATOM      5  C4  UNL d   1       1.533  -0.573   0.588  0.00  0.00    -0.005 A 
ATOM      6  C5  UNL d   1       0.208  -1.012   0.671  0.00  0.00    -0.074 A 
ATOM      7  C6  UNL d   1      -0.841  -0.176   1.343  0.00  0.00     0.077 C 
ATOM      8  C7  UNL d   1      -0.140  -2.245   0.103  0.00  0.00    -0.001 A 
ENDROOT
TORSDOF 0
ENDMDL
