MODEL 1
REMARK minimizedAffinity 4.28943014
REMARK minimizedRMSD -1
REMARK  0 active torsions:
REMARK  status: ('A' for Active; 'I' for Inactive)
ROOT
ATOM      1  C   UNL d   1      -1.817  -2.250   0.741  0.00  0.00     0.077 C 
ATOM      2  C1  UNL d   1      -0.403  -2.603   0.385  0.00  0.00    -0.074 A 
ATOM      3  C2  UNL d   1      -0.091  -3.850  -0.164  0.00  0.00    -0.005 A 
ATOM      4  C3  UNL d   1       1.227  -4.161  -0.499  0.00  0.00     0.006 A 
ATOM      5  C4  UNL d   1       2.244  -3.229  -0.288  0.00  0.00    -0.005 A 
ATOM      6  C5  UNL d   1       1.950  -1.977   0.260  0.00  0.00    -0.074 A 
ATOM      7  C6  UNL d   1       3.030  -0.960   0.484  0.00  0.00     0.077 C 
ATOM      8  C7  UNL d   1       0.623  -1.669   0.587  0.00  0.00    -0.001 A 
ENDROOT
TORSDOF 0
ENDMDL
