MODEL 1
REMARK minimizedAffinity 1.80708957
REMARK minimizedRMSD -1
REMARK  0 active torsions:
REMARK  status: ('A' for Active; 'I' for Inactive)
ROOT
ATOM      1  C   UNL d   1      -2.203  -0.640   0.823  0.00  0.00     0.077 C 
ATOM      2  C1  UNL d   1      -0.733  -0.921   0.716  0.00  0.00    -0.074 A 
ATOM      3  C2  UNL d   1       0.211   0.047   1.073  0.00  0.00    -0.005 A 
ATOM      4  C3  UNL d   1       1.575  -0.232   0.977  0.00  0.00     0.006 A 
ATOM      5  C4  UNL d   1       2.006  -1.479   0.525  0.00  0.00    -0.005 A 
ATOM      6  C5  UNL d   1       1.077  -2.460   0.165  0.00  0.00    -0.074 A 
ATOM      7  C6  UNL d   1       1.524  -3.809  -0.314  0.00  0.00     0.077 C 
ATOM      8  C7  UNL d   1      -0.292  -2.174   0.270  0.00  0.00    -0.001 A 
ENDROOT
TORSDOF 0
ENDMDL
