MODEL 1
REMARK minimizedAffinity 9.42690849
REMARK minimizedRMSD -1
REMARK  0 active torsions:
REMARK  status: ('A' for Active; 'I' for Inactive)
ROOT
ATOM      1  C   UNL d   1       3.179   5.146  -1.070  0.00  0.00     0.077 C 
ATOM      2  C1  UNL d   1       3.382   3.780  -1.655  0.00  0.00    -0.074 A 
ATOM      3  C2  UNL d   1       4.557   3.061  -1.413  0.00  0.00    -0.005 A 
ATOM      4  C3  UNL d   1       4.727   1.787  -1.956  0.00  0.00     0.006 A 
ATOM      5  C4  UNL d   1       3.726   1.221  -2.746  0.00  0.00    -0.005 A 
ATOM      6  C5  UNL d   1       2.544   1.924  -2.998  0.00  0.00    -0.074 A 
ATOM      7  C6  UNL d   1       1.453   1.326  -3.836  0.00  0.00     0.077 C 
ATOM      8  C7  UNL d   1       2.377   3.200  -2.443  0.00  0.00    -0.001 A 
ENDROOT
TORSDOF 0
ENDMDL
