MODEL 1
REMARK minimizedAffinity 4.63869667
REMARK minimizedRMSD -1
REMARK  0 active torsions:
REMARK  status: ('A' for Active; 'I' for Inactive)
ROOT
ATOM      1  C   UNL d   1       3.636  -1.467   0.785  0.00  0.00     0.077 C 
ATOM      2  C1  UNL d   1       2.152  -1.683   0.801  0.00  0.00    -0.074 A 
ATOM      3  C2  UNL d   1       1.323  -0.917   1.627  0.00  0.00    -0.005 A 
ATOM      4  C3  UNL d   1      -0.057  -1.123   1.624  0.00  0.00     0.006 A 
ATOM      5  C4  UNL d   1      -0.621  -2.095   0.797  0.00  0.00    -0.005 A 
ATOM      6  C5  UNL d   1       0.192  -2.870  -0.036  0.00  0.00    -0.074 A 
ATOM      7  C6  UNL d   1      -0.398  -3.913  -0.938  0.00  0.00     0.077 C 
ATOM      8  C7  UNL d   1       1.577  -2.653  -0.032  0.00  0.00    -0.001 A 
ENDROOT
TORSDOF 0
ENDMDL
