MODEL 1
REMARK minimizedAffinity -1.7258265
REMARK minimizedRMSD -1
REMARK  0 active torsions:
REMARK  status: ('A' for Active; 'I' for Inactive)
ROOT
ATOM      1  C   UNL d   1       1.509  -0.725   0.434  0.00  0.00     0.124 A 
ATOM      2  C1  UNL d   1       0.243  -1.140   0.823  0.00  0.00     0.062 A 
ATOM      3  C2  UNL d   1      -0.879  -0.721   0.115  0.00  0.00     0.162 A 
ATOM      4  C3  UNL d   1      -0.741   0.119  -0.990  0.00  0.00    -0.034 A 
ATOM      5  C4  UNL d   1       0.535   0.534  -1.374  0.00  0.00     0.162 A 
ATOM      6  C5  UNL d   1       1.654   0.112  -0.663  0.00  0.00     0.062 A 
ATOM      7  F   UNL d   1       2.876   0.514  -1.040  0.00  0.00    -0.097 F 
ATOM      8  F1  UNL d   1       0.704   1.342  -2.432  0.00  0.00    -0.096 F 
ATOM      9  I   UNL d   1      -2.417   0.750  -2.051  0.00  0.00    -0.060 I 
ATOM     10  F2  UNL d   1      -2.090  -1.138   0.513  0.00  0.00    -0.096 F 
ATOM     11  F3  UNL d   1       0.100  -1.948   1.884  0.00  0.00    -0.097 F 
ATOM     12  F4  UNL d   1       2.587  -1.130   1.118  0.00  0.00    -0.092 F 
ENDROOT
TORSDOF 0
ENDMDL
