MODEL 1
REMARK minimizedAffinity -2.44348645
REMARK minimizedRMSD -1
REMARK  0 active torsions:
REMARK  status: ('A' for Active; 'I' for Inactive)
ROOT
ATOM      1  C   UNL d   1       1.740  -0.177   1.067  0.00  0.00     0.124 A 
ATOM      2  C1  UNL d   1       0.645  -1.029   1.028  0.00  0.00     0.062 A 
ATOM      3  C2  UNL d   1      -0.459  -0.715   0.241  0.00  0.00     0.162 A 
ATOM      4  C3  UNL d   1      -0.474   0.457  -0.515  0.00  0.00    -0.034 A 
ATOM      5  C4  UNL d   1       0.630   1.310  -0.470  0.00  0.00     0.162 A 
ATOM      6  C5  UNL d   1       1.731   0.991   0.318  0.00  0.00     0.062 A 
ATOM      7  F   UNL d   1       2.788   1.816   0.354  0.00  0.00    -0.097 F 
ATOM      8  F1  UNL d   1       0.649   2.445  -1.184  0.00  0.00    -0.096 F 
ATOM      9  I   UNL d   1      -2.123   0.930  -1.693  0.00  0.00    -0.060 I 
ATOM     10  F2  UNL d   1      -1.503  -1.558   0.223  0.00  0.00    -0.096 F 
ATOM     11  F3  UNL d   1       0.650  -2.158   1.751  0.00  0.00    -0.097 F 
ATOM     12  F4  UNL d   1       2.800  -0.481   1.826  0.00  0.00    -0.092 F 
ENDROOT
TORSDOF 0
ENDMDL
