MODEL 1
REMARK minimizedAffinity -3.54391217
REMARK minimizedRMSD -1
REMARK  0 active torsions:
REMARK  status: ('A' for Active; 'I' for Inactive)
ROOT
ATOM      1  C   UNL d   1       2.195  -0.451   0.928  0.00  0.00     0.124 A 
ATOM      2  C1  UNL d   1       1.987   0.840   0.462  0.00  0.00     0.062 A 
ATOM      3  C2  UNL d   1       0.790   1.173  -0.164  0.00  0.00     0.162 A 
ATOM      4  C3  UNL d   1      -0.210   0.214  -0.327  0.00  0.00    -0.034 A 
ATOM      5  C4  UNL d   1       0.007  -1.082   0.143  0.00  0.00     0.162 A 
ATOM      6  C5  UNL d   1       1.206  -1.410   0.768  0.00  0.00     0.062 A 
ATOM      7  F   UNL d   1       1.405  -2.658   1.218  0.00  0.00    -0.097 F 
ATOM      8  F1  UNL d   1      -0.933  -2.029   0.003  0.00  0.00    -0.096 F 
ATOM      9  I   UNL d   1      -2.002   0.709  -1.263  0.00  0.00    -0.060 I 
ATOM     10  F2  UNL d   1       0.615   2.428  -0.605  0.00  0.00    -0.096 F 
ATOM     11  F3  UNL d   1       2.942   1.769   0.614  0.00  0.00    -0.097 F 
ATOM     12  F4  UNL d   1       3.349  -0.769   1.529  0.00  0.00    -0.092 F 
ENDROOT
TORSDOF 0
ENDMDL
