MODEL 1
REMARK minimizedAffinity 0.630883634
REMARK minimizedRMSD -1
REMARK  0 active torsions:
REMARK  status: ('A' for Active; 'I' for Inactive)
ROOT
ATOM      1  C   UNL d   1      -1.819  -1.217  -0.068  0.00  0.00     0.124 A 
ATOM      2  C1  UNL d   1      -1.051  -2.075   0.706  0.00  0.00     0.062 A 
ATOM      3  C2  UNL d   1       0.233  -1.705   1.096  0.00  0.00     0.162 A 
ATOM      4  C3  UNL d   1       0.757  -0.470   0.714  0.00  0.00    -0.034 A 
ATOM      5  C4  UNL d   1      -0.022   0.387  -0.066  0.00  0.00     0.162 A 
ATOM      6  C5  UNL d   1      -1.305   0.012  -0.453  0.00  0.00     0.062 A 
ATOM      7  F   UNL d   1      -2.046   0.843  -1.201  0.00  0.00    -0.097 F 
ATOM      8  F1  UNL d   1       0.450   1.582  -0.451  0.00  0.00    -0.096 F 
ATOM      9  I   UNL d   1       2.676   0.087   1.295  0.00  0.00    -0.060 I 
ATOM     10  F2  UNL d   1       0.954  -2.554   1.844  0.00  0.00    -0.096 F 
ATOM     11  F3  UNL d   1      -1.545  -3.265   1.079  0.00  0.00    -0.097 F 
ATOM     12  F4  UNL d   1      -3.054  -1.576  -0.443  0.00  0.00    -0.092 F 
ENDROOT
TORSDOF 0
ENDMDL
