MODEL 1
REMARK minimizedAffinity -4.23131418
REMARK minimizedRMSD -1
REMARK  0 active torsions:
REMARK  status: ('A' for Active; 'I' for Inactive)
ROOT
ATOM      1  C   UNL d   1       3.182  -0.652   1.486  0.00  0.00     0.124 A 
ATOM      2  C1  UNL d   1       2.333  -1.747   1.571  0.00  0.00     0.062 A 
ATOM      3  C2  UNL d   1       1.018  -1.649   1.127  0.00  0.00     0.162 A 
ATOM      4  C3  UNL d   1       0.543  -0.451   0.593  0.00  0.00    -0.034 A 
ATOM      5  C4  UNL d   1       1.402   0.646   0.511  0.00  0.00     0.162 A 
ATOM      6  C5  UNL d   1       2.716   0.543   0.956  0.00  0.00     0.062 A 
ATOM      7  F   UNL d   1       3.534   1.602   0.873  0.00  0.00    -0.097 F 
ATOM      8  F1  UNL d   1       0.978   1.812   0.003  0.00  0.00    -0.096 F 
ATOM      9  I   UNL d   1      -1.424  -0.301  -0.072  0.00  0.00    -0.060 I 
ATOM     10  F2  UNL d   1       0.220  -2.723   1.221  0.00  0.00    -0.096 F 
ATOM     11  F3  UNL d   1       2.781  -2.902   2.083  0.00  0.00    -0.097 F 
ATOM     12  F4  UNL d   1       4.447  -0.749   1.914  0.00  0.00    -0.092 F 
ENDROOT
TORSDOF 0
ENDMDL
