MODEL 1
REMARK minimizedAffinity -2.60418987
REMARK minimizedRMSD -1
REMARK  0 active torsions:
REMARK  status: ('A' for Active; 'I' for Inactive)
ROOT
ATOM      1  C   UNL d   1      -1.825  -0.751   0.196  0.00  0.00     0.124 A 
ATOM      2  C1  UNL d   1      -1.171   0.223  -0.546  0.00  0.00     0.062 A 
ATOM      3  C2  UNL d   1       0.207   0.380  -0.434  0.00  0.00     0.162 A 
ATOM      4  C3  UNL d   1       0.942  -0.440   0.423  0.00  0.00    -0.034 A 
ATOM      5  C4  UNL d   1       0.277  -1.416   1.167  0.00  0.00     0.162 A 
ATOM      6  C5  UNL d   1      -1.101  -1.570   1.051  0.00  0.00     0.062 A 
ATOM      7  F   UNL d   1      -1.731  -2.511   1.769  0.00  0.00    -0.097 F 
ATOM      8  F1  UNL d   1       0.952  -2.221   2.000  0.00  0.00    -0.096 F 
ATOM      9  I   UNL d   1       3.003  -0.207   0.594  0.00  0.00    -0.060 I 
ATOM     10  F2  UNL d   1       0.813   1.329  -1.162  0.00  0.00    -0.096 F 
ATOM     11  F3  UNL d   1      -1.869   1.015  -1.372  0.00  0.00    -0.097 F 
ATOM     12  F4  UNL d   1      -3.152  -0.900   0.087  0.00  0.00    -0.092 F 
ENDROOT
TORSDOF 0
ENDMDL
