MODEL 1
REMARK minimizedAffinity -2.78888965
REMARK minimizedRMSD -1
REMARK  0 active torsions:
REMARK  status: ('A' for Active; 'I' for Inactive)
ROOT
ATOM      1  C   UNL d   1      -2.164   0.080  -1.224  0.00  0.00     0.124 A 
ATOM      2  C1  UNL d   1      -1.933  -0.590  -0.031  0.00  0.00     0.062 A 
ATOM      3  C2  UNL d   1      -0.635  -0.731   0.452  0.00  0.00     0.162 A 
ATOM      4  C3  UNL d   1       0.442  -0.199  -0.257  0.00  0.00    -0.034 A 
ATOM      5  C4  UNL d   1       0.201   0.473  -1.457  0.00  0.00     0.162 A 
ATOM      6  C5  UNL d   1      -1.098   0.611  -1.936  0.00  0.00     0.062 A 
ATOM      7  F   UNL d   1      -1.320   1.259  -3.089  0.00  0.00    -0.097 F 
ATOM      8  F1  UNL d   1       1.213   0.996  -2.164  0.00  0.00    -0.096 F 
ATOM      9  I   UNL d   1       2.383  -0.408   0.462  0.00  0.00    -0.060 I 
ATOM     10  F2  UNL d   1      -0.441  -1.383   1.608  0.00  0.00    -0.096 F 
ATOM     11  F3  UNL d   1      -2.962  -1.104   0.658  0.00  0.00    -0.097 F 
ATOM     12  F4  UNL d   1      -3.414   0.213  -1.687  0.00  0.00    -0.092 F 
ENDROOT
TORSDOF 0
ENDMDL
