MODEL 1
REMARK minimizedAffinity -3.62612557
REMARK minimizedRMSD -1
REMARK  0 active torsions:
REMARK  status: ('A' for Active; 'I' for Inactive)
ROOT
ATOM      1  C   UNL d   1      -1.837  -0.661   0.384  0.00  0.00     0.124 A 
ATOM      2  C1  UNL d   1      -1.167   0.399  -0.211  0.00  0.00     0.062 A 
ATOM      3  C2  UNL d   1       0.222   0.473  -0.150  0.00  0.00     0.162 A 
ATOM      4  C3  UNL d   1       0.951  -0.518   0.508  0.00  0.00    -0.034 A 
ATOM      5  C4  UNL d   1       0.270  -1.581   1.104  0.00  0.00     0.162 A 
ATOM      6  C5  UNL d   1      -1.118  -1.650   1.041  0.00  0.00     0.062 A 
ATOM      7  F   UNL d   1      -1.763  -2.675   1.616  0.00  0.00    -0.097 F 
ATOM      8  F1  UNL d   1       0.940  -2.551   1.745  0.00  0.00    -0.096 F 
ATOM      9  I   UNL d   1       3.027  -0.412   0.601  0.00  0.00    -0.060 I 
ATOM     10  F2  UNL d   1       0.842   1.509  -0.734  0.00  0.00    -0.096 F 
ATOM     11  F3  UNL d   1      -1.859   1.356  -0.846  0.00  0.00    -0.097 F 
ATOM     12  F4  UNL d   1      -3.173  -0.729   0.324  0.00  0.00    -0.092 F 
ENDROOT
TORSDOF 0
ENDMDL
