MODEL 1
REMARK minimizedAffinity -3.27904892
REMARK minimizedRMSD -1
REMARK  1 active torsions:
REMARK  status: ('A' for Active; 'I' for Inactive)
REMARK    1  A    between atoms: C1_2  and  C2_3 
ROOT
ATOM      1  C2  UNL d   1       0.742  -0.770   3.639  0.00  0.00    -0.073 A 
ATOM      2  C3  UNL d   1       0.231   0.192   4.518  0.00  0.00    -0.002 A 
ATOM      3  C4  UNL d   1      -0.717   1.116   4.079  0.00  0.00     0.004 A 
ATOM      4  C5  UNL d   1      -1.170   1.083   2.760  0.00  0.00    -0.004 A 
ATOM      5  C6  UNL d   1      -0.681   0.122   1.869  0.00  0.00    -0.075 A 
ATOM      6  C7  UNL d   1      -1.157   0.075   0.447  0.00  0.00     0.076 C 
ATOM      7  C8  UNL d   1       0.273  -0.801   2.318  0.00  0.00     0.001 A 
ENDROOT
BRANCH   1   8
ATOM      8  C1  UNL d   1       1.762  -1.774   4.111  0.00  0.00     0.053 C 
ATOM      9  C   UNL d   1       2.738  -1.170   5.108  0.00  0.00     0.018 C 
ENDBRANCH   1   8
TORSDOF 1
ENDMDL
