MODEL 1
REMARK minimizedAffinity -0.681473494
REMARK minimizedRMSD -1
REMARK  1 active torsions:
REMARK  status: ('A' for Active; 'I' for Inactive)
REMARK    1  A    between atoms: C1_2  and  C2_3 
ROOT
ATOM      1  C2  UNL d   1      -0.013  -0.767   3.364  0.00  0.00    -0.073 A 
ATOM      2  C3  UNL d   1      -0.814  -1.703   4.028  0.00  0.00    -0.002 A 
ATOM      3  C4  UNL d   1      -0.491  -2.117   5.321  0.00  0.00     0.004 A 
ATOM      4  C5  UNL d   1       0.631  -1.595   5.965  0.00  0.00    -0.004 A 
ATOM      5  C6  UNL d   1       1.437  -0.650   5.322  0.00  0.00    -0.075 A 
ATOM      6  C7  UNL d   1       2.649  -0.080   6.000  0.00  0.00     0.076 C 
ATOM      7  C8  UNL d   1       1.107  -0.241   4.023  0.00  0.00     0.001 A 
ENDROOT
BRANCH   1   8
ATOM      8  C1  UNL d   1      -0.363  -0.312   1.971  0.00  0.00     0.053 C 
ATOM      9  C   UNL d   1      -1.716   0.378   1.919  0.00  0.00     0.018 C 
ENDBRANCH   1   8
TORSDOF 1
ENDMDL
