MODEL 1
REMARK minimizedAffinity 9.34160423
REMARK minimizedRMSD -1
REMARK  1 active torsions:
REMARK  status: ('A' for Active; 'I' for Inactive)
REMARK    1  A    between atoms: C1_2  and  C2_3 
ROOT
ATOM      1  C2  UNL d   1      -3.185  -1.055  -0.481  0.00  0.00    -0.073 A 
ATOM      2  C3  UNL d   1      -3.546   0.040  -1.275  0.00  0.00    -0.002 A 
ATOM      3  C4  UNL d   1      -2.765   1.196  -1.280  0.00  0.00     0.004 A 
ATOM      4  C5  UNL d   1      -1.612   1.267  -0.498  0.00  0.00    -0.004 A 
ATOM      5  C6  UNL d   1      -1.228   0.179   0.292  0.00  0.00    -0.075 A 
ATOM      6  C7  UNL d   1       0.009   0.240   1.141  0.00  0.00     0.076 C 
ATOM      7  C8  UNL d   1      -2.019  -0.977   0.294  0.00  0.00     0.001 A 
ENDROOT
BRANCH   1   8
ATOM      8  C1  UNL d   1      -4.023  -2.307  -0.478  0.00  0.00     0.053 C 
ATOM      9  C   UNL d   1      -5.014  -2.334  -1.630  0.00  0.00     0.018 C 
ENDBRANCH   1   8
TORSDOF 1
ENDMDL
