MODEL 1
REMARK minimizedAffinity -1.31213927
REMARK minimizedRMSD -1
REMARK  1 active torsions:
REMARK  status: ('A' for Active; 'I' for Inactive)
REMARK    1  A    between atoms: C1_2  and  C2_3 
ROOT
ATOM      1  C2  UNL d   1      -1.672  -0.550   0.112  0.00  0.00    -0.073 A 
ATOM      2  C3  UNL d   1      -0.934  -1.212  -0.876  0.00  0.00    -0.002 A 
ATOM      3  C4  UNL d   1       0.407  -1.531  -0.660  0.00  0.00     0.004 A 
ATOM      4  C5  UNL d   1       1.022  -1.199   0.547  0.00  0.00    -0.004 A 
ATOM      5  C6  UNL d   1       0.298  -0.548   1.552  0.00  0.00    -0.075 A 
ATOM      6  C7  UNL d   1       0.946  -0.182   2.855  0.00  0.00     0.076 C 
ATOM      7  C8  UNL d   1      -1.047  -0.229   1.326  0.00  0.00     0.001 A 
ENDROOT
BRANCH   1   8
ATOM      8  C1  UNL d   1      -3.122  -0.210  -0.114  0.00  0.00     0.053 C 
ATOM      9  C   UNL d   1      -3.863  -1.323  -0.838  0.00  0.00     0.018 C 
ENDBRANCH   1   8
TORSDOF 1
ENDMDL
