MODEL 1
REMARK minimizedAffinity 5.19865704
REMARK minimizedRMSD -1
REMARK  0 active torsions:
REMARK  status: ('A' for Active; 'I' for Inactive)
ROOT
ATOM      1  C   UNL d   1      -2.646   0.412   2.223  0.00  0.00    -0.002 A 
ATOM      2  C1  UNL d   1      -3.231   0.295   0.970  0.00  0.00     0.010 A 
ATOM      3  C2  UNL d   1      -2.440   0.167  -0.173  0.00  0.00     0.041 A 
ATOM      4  C3  UNL d   1      -1.038   0.157  -0.035  0.00  0.00    -0.075 A 
ATOM      5  S   UNL d   1       0.130   0.010  -1.294  0.00  0.00     0.015 SA
ATOM      6  C4  UNL d   1       1.432   0.097  -0.199  0.00  0.00     0.022 A 
ATOM      7  C5  UNL d   1       1.005   0.235   1.101  0.00  0.00     0.026 A 
ATOM      8  C6  UNL d   1      -0.426   0.271   1.217  0.00  0.00    -0.082 A 
ATOM      9  C7  UNL d   1      -1.255   0.401   2.357  0.00  0.00     0.045 A 
ENDROOT
TORSDOF 0
ENDMDL
