MODEL 1
REMARK minimizedAffinity 7.05864811
REMARK minimizedRMSD -1
REMARK  0 active torsions:
REMARK  status: ('A' for Active; 'I' for Inactive)
ROOT
ATOM      1  C   UNL d   1      -2.761   0.217   2.082  0.00  0.00    -0.002 A 
ATOM      2  C1  UNL d   1      -2.229   0.746   0.914  0.00  0.00     0.010 A 
ATOM      3  C2  UNL d   1      -0.853   0.712   0.682  0.00  0.00     0.041 A 
ATOM      4  C3  UNL d   1      -0.012   0.131   1.652  0.00  0.00    -0.075 A 
ATOM      5  S   UNL d   1       1.704  -0.023   1.582  0.00  0.00     0.015 SA
ATOM      6  C4  UNL d   1       1.771  -0.795   3.100  0.00  0.00     0.022 A 
ATOM      7  C5  UNL d   1       0.524  -0.940   3.661  0.00  0.00     0.026 A 
ATOM      8  C6  UNL d   1      -0.524  -0.409   2.835  0.00  0.00    -0.082 A 
ATOM      9  C7  UNL d   1      -1.924  -0.359   3.041  0.00  0.00     0.045 A 
ENDROOT
TORSDOF 0
ENDMDL
