MODEL 1
REMARK minimizedAffinity 7.50692892
REMARK minimizedRMSD -1
REMARK  0 active torsions:
REMARK  status: ('A' for Active; 'I' for Inactive)
ROOT
ATOM      1  C   UNL d   1      -2.088  -0.346  -1.296  0.00  0.00    -0.002 A 
ATOM      2  C1  UNL d   1      -0.859   0.087  -0.818  0.00  0.00     0.010 A 
ATOM      3  C2  UNL d   1      -0.585   0.073   0.551  0.00  0.00     0.041 A 
ATOM      4  C3  UNL d   1      -1.575  -0.389   1.440  0.00  0.00    -0.075 A 
ATOM      5  S   UNL d   1      -1.463  -0.497   3.157  0.00  0.00     0.015 SA
ATOM      6  C4  UNL d   1      -3.043  -1.120   3.297  0.00  0.00     0.022 A 
ATOM      7  C5  UNL d   1      -3.656  -1.249   2.073  0.00  0.00     0.026 A 
ATOM      8  C6  UNL d   1      -2.820  -0.830   0.983  0.00  0.00    -0.082 A 
ATOM      9  C7  UNL d   1      -3.068  -0.803  -0.411  0.00  0.00     0.045 A 
ENDROOT
TORSDOF 0
ENDMDL
