MODEL 1
REMARK minimizedAffinity 3.98095775
REMARK minimizedRMSD -1
REMARK  0 active torsions:
REMARK  status: ('A' for Active; 'I' for Inactive)
ROOT
ATOM      1  C1  DEN d   1      -0.312  -5.987  -6.000  0.00  0.00     0.130 A 
ATOM      2  C2  DEN d   1       1.144  -5.943  -5.906  0.00  0.00    -0.031 A 
ATOM      3  C3  DEN d   1       1.510  -5.925  -4.476  0.00  0.00     0.027 A 
ATOM      4  C4  DEN d   1      -0.031  -5.964  -2.407  0.00  0.00     0.027 A 
ATOM      5  C5  DEN d   1      -1.341  -5.989  -1.984  0.00  0.00    -0.003 A 
ATOM      6  C6  DEN d   1      -2.392  -5.981  -2.862  0.00  0.00     0.001 A 
ATOM      7  C7  DEN d   1      -2.151  -5.993  -4.210  0.00  0.00     0.017 A 
ATOM      8  C8  DEN d   1      -0.832  -5.960  -4.645  0.00  0.00    -0.094 A 
ATOM      9  C9  DEN d   1       0.217  -5.980  -3.741  0.00  0.00    -0.072 A 
ENDROOT
TORSDOF 0
ENDMDL
