MODEL 1
REMARK minimizedAffinity 3.41426134
REMARK minimizedRMSD -1
REMARK  0 active torsions:
REMARK  status: ('A' for Active; 'I' for Inactive)
ROOT
ATOM      1  C1  DEN d   1      -0.225  -5.998  -5.789  0.00  0.00     0.130 A 
ATOM      2  C2  DEN d   1       1.194  -5.966  -5.445  0.00  0.00    -0.031 A 
ATOM      3  C3  DEN d   1       1.306  -5.952  -3.972  0.00  0.00     0.027 A 
ATOM      4  C4  DEN d   1      -0.569  -5.983  -2.202  0.00  0.00     0.027 A 
ATOM      5  C5  DEN d   1      -1.934  -5.999  -2.012  0.00  0.00    -0.003 A 
ATOM      6  C6  DEN d   1      -2.817  -5.981  -3.059  0.00  0.00     0.001 A 
ATOM      7  C7  DEN d   1      -2.345  -5.993  -4.345  0.00  0.00     0.017 A 
ATOM      8  C8  DEN d   1      -0.971  -5.969  -4.544  0.00  0.00    -0.094 A 
ATOM      9  C9  DEN d   1      -0.095  -5.999  -3.473  0.00  0.00    -0.072 A 
ENDROOT
TORSDOF 0
ENDMDL
