MODEL 1
REMARK minimizedAffinity 4.09777689
REMARK minimizedRMSD -1
REMARK  0 active torsions:
REMARK  status: ('A' for Active; 'I' for Inactive)
ROOT
ATOM      1  C1  DEN d   1      -2.249  -5.937  -2.857  0.00  0.00     0.130 A 
ATOM      2  C2  DEN d   1      -1.592  -5.968  -1.553  0.00  0.00    -0.031 A 
ATOM      3  C3  DEN d   1      -0.133  -6.000  -1.777  0.00  0.00     0.027 A 
ATOM      4  C4  DEN d   1       1.167  -6.000  -4.005  0.00  0.00     0.027 A 
ATOM      5  C5  DEN d   1       1.043  -5.992  -5.377  0.00  0.00    -0.003 A 
ATOM      6  C6  DEN d   1      -0.177  -6.000  -6.000  0.00  0.00     0.001 A 
ATOM      7  C7  DEN d   1      -1.322  -5.970  -5.250  0.00  0.00     0.017 A 
ATOM      8  C8  DEN d   1      -1.206  -5.985  -3.866  0.00  0.00    -0.094 A 
ATOM      9  C9  DEN d   1       0.036  -5.965  -3.255  0.00  0.00    -0.072 A 
ENDROOT
TORSDOF 0
ENDMDL
