MODEL 1
REMARK minimizedAffinity 3.12933326
REMARK minimizedRMSD -1
REMARK  0 active torsions:
REMARK  status: ('A' for Active; 'I' for Inactive)
ROOT
ATOM      1  C1  DEN d   1       4.268   3.296  -0.821  0.00  0.00     0.130 A 
ATOM      2  C2  DEN d   1       5.294   4.225  -0.354  0.00  0.00    -0.031 A 
ATOM      3  C3  DEN d   1       4.647   5.211   0.534  0.00  0.00     0.027 A 
ATOM      4  C4  DEN d   1       2.170   5.387   1.231  0.00  0.00     0.027 A 
ATOM      5  C5  DEN d   1       0.919   4.830   1.080  0.00  0.00    -0.003 A 
ATOM      6  C6  DEN d   1       0.693   3.753   0.265  0.00  0.00     0.001 A 
ATOM      7  C7  DEN d   1       1.741   3.169  -0.396  0.00  0.00     0.017 A 
ATOM      8  C8  DEN d   1       3.004   3.730  -0.255  0.00  0.00    -0.094 A 
ATOM      9  C9  DEN d   1       3.214   4.811   0.583  0.00  0.00    -0.072 A 
ENDROOT
TORSDOF 0
ENDMDL
