MODEL 1
REMARK minimizedAffinity -2.23319077
REMARK minimizedRMSD -1
REMARK  0 active torsions:
REMARK  status: ('A' for Active; 'I' for Inactive)
ROOT
ATOM      1  C1  DEN d   1       0.009  -5.656  -6.000  0.00  0.00     0.130 A 
ATOM      2  C2  DEN d   1       1.427  -5.719  -5.656  0.00  0.00    -0.031 A 
ATOM      3  C3  DEN d   1       1.535  -5.862  -4.190  0.00  0.00     0.027 A 
ATOM      4  C4  DEN d   1      -0.346  -5.997  -2.430  0.00  0.00     0.027 A 
ATOM      5  C5  DEN d   1      -1.710  -5.976  -2.241  0.00  0.00    -0.003 A 
ATOM      6  C6  DEN d   1      -2.589  -5.813  -3.279  0.00  0.00     0.001 A 
ATOM      7  C7  DEN d   1      -2.114  -5.711  -4.560  0.00  0.00     0.017 A 
ATOM      8  C8  DEN d   1      -0.740  -5.725  -4.758  0.00  0.00    -0.094 A 
ATOM      9  C9  DEN d   1       0.132  -5.902  -3.697  0.00  0.00    -0.072 A 
ENDROOT
TORSDOF 0
ENDMDL
