MODEL 1
REMARK minimizedAffinity -2.32553935
REMARK minimizedRMSD -1
REMARK  0 active torsions:
REMARK  status: ('A' for Active; 'I' for Inactive)
ROOT
ATOM      1  C1  DEN d   1       0.522  -5.850  -6.000  0.00  0.00     0.130 A 
ATOM      2  C2  DEN d   1       1.497  -5.744  -4.918  0.00  0.00    -0.031 A 
ATOM      3  C3  DEN d   1       0.760  -5.738  -3.638  0.00  0.00     0.027 A 
ATOM      4  C4  DEN d   1      -1.783  -5.887  -3.230  0.00  0.00     0.027 A 
ATOM      5  C5  DEN d   1      -3.014  -5.979  -3.840  0.00  0.00    -0.003 A 
ATOM      6  C6  DEN d   1      -3.154  -6.000  -5.202  0.00  0.00     0.001 A 
ATOM      7  C7  DEN d   1      -2.040  -5.974  -6.000  0.00  0.00     0.017 A 
ATOM      8  C8  DEN d   1      -0.796  -5.873  -5.392  0.00  0.00    -0.094 A 
ATOM      9  C9  DEN d   1      -0.674  -5.866  -4.013  0.00  0.00    -0.072 A 
ENDROOT
TORSDOF 0
ENDMDL
