MODEL 1
REMARK minimizedAffinity 2.67915106
REMARK minimizedRMSD -1
REMARK  0 active torsions:
REMARK  status: ('A' for Active; 'I' for Inactive)
ROOT
ATOM      1  C1  DEN d   1       1.090   0.738   0.217  0.00  0.00     0.130 A 
ATOM      2  C2  DEN d   1       1.297   0.954  -1.212  0.00  0.00    -0.031 A 
ATOM      3  C3  DEN d   1       1.206  -0.355  -1.890  0.00  0.00     0.027 A 
ATOM      4  C4  DEN d   1       0.764  -2.682  -0.870  0.00  0.00     0.027 A 
ATOM      5  C5  DEN d   1       0.538  -3.370   0.302  0.00  0.00    -0.003 A 
ATOM      6  C6  DEN d   1       0.514  -2.747   1.521  0.00  0.00     0.001 A 
ATOM      7  C7  DEN d   1       0.675  -1.388   1.592  0.00  0.00     0.017 A 
ATOM      8  C8  DEN d   1       0.911  -0.689   0.416  0.00  0.00    -0.094 A 
ATOM      9  C9  DEN d   1       0.919  -1.336  -0.809  0.00  0.00    -0.072 A 
ENDROOT
TORSDOF 0
ENDMDL
