MODEL 1
REMARK minimizedAffinity 4.00840187
REMARK minimizedRMSD -1
REMARK  0 active torsions:
REMARK  status: ('A' for Active; 'I' for Inactive)
ROOT
ATOM      1  C1  DEN d   1       1.740  -5.967  -4.135  0.00  0.00     0.130 A 
ATOM      2  C2  DEN d   1       1.687  -5.989  -5.595  0.00  0.00    -0.031 A 
ATOM      3  C3  DEN d   1       0.267  -6.000  -6.000  0.00  0.00     0.027 A 
ATOM      4  C4  DEN d   1      -1.844  -5.979  -4.517  0.00  0.00     0.027 A 
ATOM      5  C5  DEN d   1      -2.303  -5.972  -3.219  0.00  0.00    -0.003 A 
ATOM      6  C6  DEN d   1      -1.455  -5.997  -2.144  0.00  0.00     0.001 A 
ATOM      7  C7  DEN d   1      -0.101  -5.985  -2.348  0.00  0.00     0.017 A 
ATOM      8  C8  DEN d   1       0.370  -6.000  -3.654  0.00  0.00    -0.094 A 
ATOM      9  C9  DEN d   1      -0.503  -5.962  -4.727  0.00  0.00    -0.072 A 
ENDROOT
TORSDOF 0
ENDMDL
