MODEL 1
REMARK minimizedAffinity -0.731097639
REMARK minimizedRMSD -1
REMARK  0 active torsions:
REMARK  status: ('A' for Active; 'I' for Inactive)
ROOT
ATOM      1  C1  DEN d   1       1.248   0.708   0.219  0.00  0.00     0.130 A 
ATOM      2  C2  DEN d   1       2.629   0.242   0.133  0.00  0.00    -0.031 A 
ATOM      3  C3  DEN d   1       2.641  -1.206   0.424  0.00  0.00     0.027 A 
ATOM      4  C4  DEN d   1       0.664  -2.763   0.994  0.00  0.00     0.027 A 
ATOM      5  C5  DEN d   1      -0.697  -2.821   1.196  0.00  0.00    -0.003 A 
ATOM      6  C6  DEN d   1      -1.494  -1.709   1.120  0.00  0.00     0.001 A 
ATOM      7  C7  DEN d   1      -0.943  -0.499   0.791  0.00  0.00     0.017 A 
ATOM      8  C8  DEN d   1       0.430  -0.432   0.593  0.00  0.00    -0.094 A 
ATOM      9  C9  DEN d   1       1.217  -1.568   0.662  0.00  0.00    -0.072 A 
ENDROOT
TORSDOF 0
ENDMDL
