MODEL 1
REMARK minimizedAffinity 1.34994912
REMARK minimizedRMSD -1
REMARK  0 active torsions:
REMARK  status: ('A' for Active; 'I' for Inactive)
ROOT
ATOM      1  C1  DEN d   1       0.395   0.983   0.852  0.00  0.00     0.130 A 
ATOM      2  C2  DEN d   1       1.763   0.883   0.349  0.00  0.00    -0.031 A 
ATOM      3  C3  DEN d   1       2.054  -0.542   0.097  0.00  0.00     0.027 A 
ATOM      4  C4  DEN d   1       0.526  -2.593   0.430  0.00  0.00     0.027 A 
ATOM      5  C5  DEN d   1      -0.719  -3.010   0.847  0.00  0.00    -0.003 A 
ATOM      6  C6  DEN d   1      -1.660  -2.136   1.323  0.00  0.00     0.001 A 
ATOM      7  C7  DEN d   1      -1.387  -0.794   1.351  0.00  0.00     0.017 A 
ATOM      8  C8  DEN d   1      -0.131  -0.367   0.939  0.00  0.00    -0.094 A 
ATOM      9  C9  DEN d   1       0.802  -1.265   0.450  0.00  0.00    -0.072 A 
ENDROOT
TORSDOF 0
ENDMDL
