MODEL 1
REMARK minimizedAffinity 0.56929481
REMARK minimizedRMSD -1
REMARK  0 active torsions:
REMARK  status: ('A' for Active; 'I' for Inactive)
ROOT
ATOM      1  C1  DEN d   1       1.113  -2.394   0.919  0.00  0.00     0.130 A 
ATOM      2  C2  DEN d   1      -0.223  -1.980   0.501  0.00  0.00    -0.031 A 
ATOM      3  C3  DEN d   1      -0.126  -0.613  -0.051  0.00  0.00     0.027 A 
ATOM      4  C4  DEN d   1       1.954   0.891  -0.301  0.00  0.00     0.027 A 
ATOM      5  C5  DEN d   1       3.310   0.978  -0.076  0.00  0.00    -0.003 A 
ATOM      6  C6  DEN d   1       4.017  -0.031   0.523  0.00  0.00     0.001 A 
ATOM      7  C7  DEN d   1       3.378  -1.190   0.876  0.00  0.00     0.017 A 
ATOM      8  C8  DEN d   1       2.010  -1.282   0.659  0.00  0.00    -0.094 A 
ATOM      9  C9  DEN d   1       1.315  -0.256   0.041  0.00  0.00    -0.072 A 
ENDROOT
TORSDOF 0
ENDMDL
