MODEL 1
REMARK minimizedAffinity 2.65121722
REMARK minimizedRMSD -1
REMARK  0 active torsions:
REMARK  status: ('A' for Active; 'I' for Inactive)
ROOT
ATOM      1  C1  DEN d   1      -3.097  -5.951  -3.980  0.00  0.00     0.130 A 
ATOM      2  C2  DEN d   1      -3.034  -5.977  -2.521  0.00  0.00    -0.031 A 
ATOM      3  C3  DEN d   1      -1.612  -5.999  -2.126  0.00  0.00     0.027 A 
ATOM      4  C4  DEN d   1       0.489  -5.991  -3.622  0.00  0.00     0.027 A 
ATOM      5  C5  DEN d   1       0.940  -5.984  -4.923  0.00  0.00    -0.003 A 
ATOM      6  C6  DEN d   1       0.085  -6.000  -5.993  0.00  0.00     0.001 A 
ATOM      7  C7  DEN d   1      -1.268  -5.978  -5.780  0.00  0.00     0.017 A 
ATOM      8  C8  DEN d   1      -1.731  -5.992  -4.471  0.00  0.00    -0.094 A 
ATOM      9  C9  DEN d   1      -0.850  -5.964  -3.403  0.00  0.00    -0.072 A 
ENDROOT
TORSDOF 0
ENDMDL
