MODEL 1
REMARK minimizedAffinity 6.9018321
REMARK minimizedRMSD -1
REMARK  2 active torsions:
REMARK  status: ('A' for Active; 'I' for Inactive)
REMARK    1  A    between atoms: C2'_3  and  C1'_4 
REMARK    2  A    between atoms: C1'_4  and  C1_5 
ROOT
ATOM      1  C1  I4B d   1       3.436  -0.846  -0.401  0.00  0.00    -0.075 A 
ATOM      2  C2  I4B d   1       3.047   0.453  -0.616  0.00  0.00     0.003 A 
ATOM      3  C3  I4B d   1       2.154   0.764  -1.670  0.00  0.00     0.002 A 
ATOM      4  C4  I4B d   1       1.716  -0.240  -2.509  0.00  0.00    -0.004 A 
ATOM      5  C5  I4B d   1       2.093  -1.559  -2.275  0.00  0.00     0.002 A 
ATOM      6  C6  I4B d   1       2.948  -1.866  -1.207  0.00  0.00     0.003 A 
ENDROOT
BRANCH   1   7
ATOM      7  C1' I4B d   1       4.406  -1.135   0.700  0.00  0.00     0.060 C 
BRANCH   7   8
ATOM      8  C2' I4B d   1       4.233  -0.072   1.766  0.00  0.00    -0.013 C 
ATOM      9  C4' I4B d   1       3.291  -0.533   2.848  0.00  0.00     0.013 C 
ATOM     10  C3' I4B d   1       5.586   0.247   2.327  0.00  0.00     0.013 C 
ENDBRANCH   7   8
ENDBRANCH   1   7
TORSDOF 2
ENDMDL
