MODEL 1
REMARK minimizedAffinity 5.92303133
REMARK minimizedRMSD -1
REMARK  2 active torsions:
REMARK  status: ('A' for Active; 'I' for Inactive)
REMARK    1  A    between atoms: C2'_3  and  C1'_4 
REMARK    2  A    between atoms: C1'_4  and  C1_5 
ROOT
ATOM      1  C1  I4B d   1       0.296   1.823  -0.508  0.00  0.00    -0.075 A 
ATOM      2  C2  I4B d   1      -1.050   2.036  -0.344  0.00  0.00     0.003 A 
ATOM      3  C3  I4B d   1      -1.556   2.470   0.905  0.00  0.00     0.002 A 
ATOM      4  C4  I4B d   1      -0.693   2.629   1.970  0.00  0.00    -0.004 A 
ATOM      5  C5  I4B d   1       0.675   2.434   1.796  0.00  0.00     0.002 A 
ATOM      6  C6  I4B d   1       1.174   2.041   0.546  0.00  0.00     0.003 A 
ENDROOT
BRANCH   1   7
ATOM      7  C1' I4B d   1       0.793   1.333  -1.831  0.00  0.00     0.060 C 
BRANCH   7   8
ATOM      8  C2' I4B d   1       1.902   0.333  -1.573  0.00  0.00    -0.013 C 
ATOM      9  C4' I4B d   1       1.533  -1.034  -2.086  0.00  0.00     0.013 C 
ATOM     10  C3' I4B d   1       3.147   0.842  -2.234  0.00  0.00     0.013 C 
ENDBRANCH   7   8
ENDBRANCH   1   7
TORSDOF 2
ENDMDL
