MODEL 1
REMARK minimizedAffinity 24.0309124
REMARK minimizedRMSD -1
REMARK  2 active torsions:
REMARK  status: ('A' for Active; 'I' for Inactive)
REMARK    1  A    between atoms: C2'_3  and  C1'_4 
REMARK    2  A    between atoms: C1'_4  and  C1_5 
ROOT
ATOM      1  C1  I4B d   1      -3.865  -0.490   3.346  0.00  0.00    -0.075 A 
ATOM      2  C2  I4B d   1      -3.873  -1.217   4.511  0.00  0.00     0.003 A 
ATOM      3  C3  I4B d   1      -4.967  -1.118   5.405  0.00  0.00     0.002 A 
ATOM      4  C4  I4B d   1      -6.000  -0.248   5.121  0.00  0.00    -0.004 A 
ATOM      5  C5  I4B d   1      -6.000   0.471   3.929  0.00  0.00     0.002 A 
ATOM      6  C6  I4B d   1      -4.932   0.340   3.030  0.00  0.00     0.003 A 
ENDROOT
BRANCH   1   7
ATOM      7  C1' I4B d   1      -2.679  -0.594   2.441  0.00  0.00     0.060 C 
BRANCH   7   8
ATOM      8  C2' I4B d   1      -2.959  -1.684   1.427  0.00  0.00    -0.013 C 
ATOM      9  C4' I4B d   1      -2.731  -1.194   0.021  0.00  0.00     0.013 C 
ATOM     10  C3' I4B d   1      -2.073  -2.851   1.744  0.00  0.00     0.013 C 
ENDBRANCH   7   8
ENDBRANCH   1   7
TORSDOF 2
ENDMDL
