MODEL 1
REMARK minimizedAffinity 13.4238091
REMARK minimizedRMSD -1
REMARK  2 active torsions:
REMARK  status: ('A' for Active; 'I' for Inactive)
REMARK    1  A    between atoms: C2'_3  and  C1'_4 
REMARK    2  A    between atoms: C1'_4  and  C1_5 
ROOT
ATOM      1  C1  I4B d   1       2.863   2.121  -4.489  0.00  0.00    -0.075 A 
ATOM      2  C2  I4B d   1       2.801   3.321  -3.826  0.00  0.00     0.003 A 
ATOM      3  C3  I4B d   1       1.813   3.537  -2.834  0.00  0.00     0.002 A 
ATOM      4  C4  I4B d   1       0.883   2.551  -2.575  0.00  0.00    -0.004 A 
ATOM      5  C5  I4B d   1       0.962   1.327  -3.232  0.00  0.00     0.002 A 
ATOM      6  C6  I4B d   1       1.965   1.105  -4.186  0.00  0.00     0.003 A 
ENDROOT
BRANCH   1   7
ATOM      7  C1' I4B d   1       3.897   1.938  -5.554  0.00  0.00     0.060 C 
BRANCH   7   8
ATOM      8  C2' I4B d   1       5.064   1.186  -4.947  0.00  0.00    -0.013 C 
ATOM      9  C4' I4B d   1       5.834   0.433  -5.999  0.00  0.00     0.013 C 
ATOM     10  C3' I4B d   1       5.939   2.179  -4.242  0.00  0.00     0.013 C 
ENDBRANCH   7   8
ENDBRANCH   1   7
TORSDOF 2
ENDMDL
