MODEL 1
REMARK minimizedAffinity 1.27862787
REMARK minimizedRMSD -1
REMARK  2 active torsions:
REMARK  status: ('A' for Active; 'I' for Inactive)
REMARK    1  A    between atoms: C2'_3  and  C1'_4 
REMARK    2  A    between atoms: C1'_4  and  C1_5 
ROOT
ATOM      1  C1  I4B d   1       2.328  -0.803  -1.658  0.00  0.00    -0.075 A 
ATOM      2  C2  I4B d   1       3.151  -1.428  -0.754  0.00  0.00     0.003 A 
ATOM      3  C3  I4B d   1       2.666  -2.506   0.025  0.00  0.00     0.002 A 
ATOM      4  C4  I4B d   1       1.347  -2.891  -0.094  0.00  0.00    -0.004 A 
ATOM      5  C5  I4B d   1       0.520  -2.272  -1.027  0.00  0.00     0.002 A 
ATOM      6  C6  I4B d   1       1.017  -1.229  -1.823  0.00  0.00     0.003 A 
ENDROOT
BRANCH   1   7
ATOM      7  C1' I4B d   1       2.864   0.353  -2.441  0.00  0.00     0.060 C 
BRANCH   7   8
ATOM      8  C2' I4B d   1       1.696   1.240  -2.822  0.00  0.00    -0.013 C 
ATOM      9  C4' I4B d   1       1.972   2.681  -2.485  0.00  0.00     0.013 C 
ATOM     10  C3' I4B d   1       1.442   1.066  -4.290  0.00  0.00     0.013 C 
ENDBRANCH   7   8
ENDBRANCH   1   7
TORSDOF 2
ENDMDL
