MODEL 1
REMARK minimizedAffinity 2.81690741
REMARK minimizedRMSD -1
REMARK  2 active torsions:
REMARK  status: ('A' for Active; 'I' for Inactive)
REMARK    1  A    between atoms: C2'_3  and  C1'_4 
REMARK    2  A    between atoms: C1'_4  and  C1_5 
ROOT
ATOM      1  C1  I4B d   1       2.302  -0.336  -1.650  0.00  0.00    -0.075 A 
ATOM      2  C2  I4B d   1       3.023  -0.569  -0.505  0.00  0.00     0.003 A 
ATOM      3  C3  I4B d   1       2.733  -1.695   0.303  0.00  0.00     0.002 A 
ATOM      4  C4  I4B d   1       1.689  -2.528  -0.041  0.00  0.00    -0.004 A 
ATOM      5  C5  I4B d   1       0.975  -2.304  -1.215  0.00  0.00     0.002 A 
ATOM      6  C6  I4B d   1       1.290  -1.208  -2.031  0.00  0.00     0.003 A 
ENDROOT
BRANCH   1   7
ATOM      7  C1' I4B d   1       2.612   0.881  -2.462  0.00  0.00     0.060 C 
BRANCH   7   8
ATOM      8  C2' I4B d   1       1.323   1.360  -3.097  0.00  0.00    -0.013 C 
ATOM      9  C4' I4B d   1       1.192   2.857  -3.002  0.00  0.00     0.013 C 
ATOM     10  C3' I4B d   1       1.312   0.904  -4.525  0.00  0.00     0.013 C 
ENDBRANCH   7   8
ENDBRANCH   1   7
TORSDOF 2
ENDMDL
