MODEL 1
REMARK minimizedAffinity 9.83633709
REMARK minimizedRMSD -1
REMARK  2 active torsions:
REMARK  status: ('A' for Active; 'I' for Inactive)
REMARK    1  A    between atoms: C2'_3  and  C1'_4 
REMARK    2  A    between atoms: C1'_4  and  C1_5 
ROOT
ATOM      1  C1  I4B d   1       2.040  -0.075  -1.384  0.00  0.00    -0.075 A 
ATOM      2  C2  I4B d   1       2.839  -0.752  -0.496  0.00  0.00     0.003 A 
ATOM      3  C3  I4B d   1       2.795  -2.165  -0.431  0.00  0.00     0.002 A 
ATOM      4  C4  I4B d   1       1.906  -2.855  -1.230  0.00  0.00    -0.004 A 
ATOM      5  C5  I4B d   1       1.113  -2.169  -2.146  0.00  0.00     0.002 A 
ATOM      6  C6  I4B d   1       1.189  -0.772  -2.232  0.00  0.00     0.003 A 
ENDROOT
BRANCH   1   7
ATOM      7  C1' I4B d   1       2.089   1.420  -1.403  0.00  0.00     0.060 C 
BRANCH   7   8
ATOM      8  C2' I4B d   1       0.761   1.923  -1.932  0.00  0.00    -0.013 C 
ATOM      9  C4' I4B d   1      -0.227   2.132  -0.815  0.00  0.00     0.013 C 
ATOM     10  C3' I4B d   1       1.014   3.199  -2.678  0.00  0.00     0.013 C 
ENDBRANCH   7   8
ENDBRANCH   1   7
TORSDOF 2
ENDMDL
