MODEL 1
REMARK minimizedAffinity 1.44155216
REMARK minimizedRMSD -1
REMARK  2 active torsions:
REMARK  status: ('A' for Active; 'I' for Inactive)
REMARK    1  A    between atoms: C2'_3  and  C1'_4 
REMARK    2  A    between atoms: C1'_4  and  C1_5 
ROOT
ATOM      1  C1  I4B d   1       2.094  -1.010  -1.244  0.00  0.00    -0.075 A 
ATOM      2  C2  I4B d   1       2.847  -1.774  -0.388  0.00  0.00     0.003 A 
ATOM      3  C3  I4B d   1       2.247  -2.829   0.342  0.00  0.00     0.002 A 
ATOM      4  C4  I4B d   1       0.890  -3.051   0.223  0.00  0.00    -0.004 A 
ATOM      5  C5  I4B d   1       0.133  -2.290  -0.662  0.00  0.00     0.002 A 
ATOM      6  C6  I4B d   1       0.740  -1.271  -1.410  0.00  0.00     0.003 A 
ENDROOT
BRANCH   1   7
ATOM      7  C1' I4B d   1       2.753   0.118  -1.973  0.00  0.00     0.060 C 
BRANCH   7   8
ATOM      8  C2' I4B d   1       1.871   1.342  -1.835  0.00  0.00    -0.013 C 
ATOM      9  C4' I4B d   1       2.688   2.571  -1.532  0.00  0.00     0.013 C 
ATOM     10  C3' I4B d   1       1.101   1.505  -3.111  0.00  0.00     0.013 C 
ENDBRANCH   7   8
ENDBRANCH   1   7
TORSDOF 2
ENDMDL
