MODEL 1
REMARK minimizedAffinity 3.58350325
REMARK minimizedRMSD -1
REMARK  2 active torsions:
REMARK  status: ('A' for Active; 'I' for Inactive)
REMARK    1  A    between atoms: C2'_3  and  C1'_4 
REMARK    2  A    between atoms: C1'_4  and  C1_5 
ROOT
ATOM      1  C1  I4B d   1       1.865   0.933  -1.930  0.00  0.00    -0.075 A 
ATOM      2  C2  I4B d   1       3.088   1.326  -1.446  0.00  0.00     0.003 A 
ATOM      3  C3  I4B d   1       4.111   0.371  -1.232  0.00  0.00     0.002 A 
ATOM      4  C4  I4B d   1       3.853  -0.964  -1.467  0.00  0.00    -0.004 A 
ATOM      5  C5  I4B d   1       2.620  -1.358  -1.980  0.00  0.00     0.002 A 
ATOM      6  C6  I4B d   1       1.624  -0.402  -2.225  0.00  0.00     0.003 A 
ENDROOT
BRANCH   1   7
ATOM      7  C1' I4B d   1       0.797   1.964  -2.112  0.00  0.00     0.060 C 
BRANCH   7   8
ATOM      8  C2' I4B d   1      -0.241   1.758  -1.028  0.00  0.00    -0.013 C 
ATOM      9  C4' I4B d   1      -0.824   0.371  -1.088  0.00  0.00     0.013 C 
ATOM     10  C3' I4B d   1       0.416   2.012   0.296  0.00  0.00     0.013 C 
ENDBRANCH   7   8
ENDBRANCH   1   7
TORSDOF 2
ENDMDL
