MODEL 1
REMARK minimizedAffinity 2.53271461
REMARK minimizedRMSD -1
REMARK  2 active torsions:
REMARK  status: ('A' for Active; 'I' for Inactive)
REMARK    1  A    between atoms: C2'_3  and  C1'_4 
REMARK    2  A    between atoms: C1'_4  and  C1_5 
ROOT
ATOM      1  C1  I4B d   1       1.438   1.647  -0.706  0.00  0.00    -0.075 A 
ATOM      2  C2  I4B d   1       2.439   1.854   0.210  0.00  0.00     0.003 A 
ATOM      3  C3  I4B d   1       2.135   1.943   1.590  0.00  0.00     0.002 A 
ATOM      4  C4  I4B d   1       0.820   1.870   2.003  0.00  0.00    -0.004 A 
ATOM      5  C5  I4B d   1      -0.191   1.637   1.075  0.00  0.00     0.002 A 
ATOM      6  C6  I4B d   1       0.121   1.512  -0.287  0.00  0.00     0.003 A 
ENDROOT
BRANCH   1   7
ATOM      7  C1' I4B d   1       1.791   1.591  -2.158  0.00  0.00     0.060 C 
BRANCH   7   8
ATOM      8  C2' I4B d   1       2.490   0.272  -2.419  0.00  0.00    -0.013 C 
ATOM      9  C4' I4B d   1       3.823   0.214  -1.719  0.00  0.00     0.013 C 
ATOM     10  C3' I4B d   1       1.587  -0.831  -1.954  0.00  0.00     0.013 C 
ENDBRANCH   7   8
ENDBRANCH   1   7
TORSDOF 2
ENDMDL
