MODEL 1
REMARK minimizedAffinity 4.70139074
REMARK minimizedRMSD -1
REMARK  2 active torsions:
REMARK  status: ('A' for Active; 'I' for Inactive)
REMARK    1  A    between atoms: C2'_3  and  C1'_4 
REMARK    2  A    between atoms: C1'_4  and  C1_5 
ROOT
ATOM      1  C1  I4B d   1      -0.583   1.406   2.974  0.00  0.00    -0.075 A 
ATOM      2  C2  I4B d   1      -1.699   0.619   2.827  0.00  0.00     0.003 A 
ATOM      3  C3  I4B d   1      -1.718  -0.696   3.353  0.00  0.00     0.002 A 
ATOM      4  C4  I4B d   1      -0.590  -1.198   3.969  0.00  0.00    -0.004 A 
ATOM      5  C5  I4B d   1       0.532  -0.391   4.138  0.00  0.00     0.002 A 
ATOM      6  C6  I4B d   1       0.531   0.923   3.648  0.00  0.00     0.003 A 
ENDROOT
BRANCH   1   7
ATOM      7  C1' I4B d   1      -0.586   2.778   2.378  0.00  0.00     0.060 C 
BRANCH   7   8
ATOM      8  C2' I4B d   1       0.527   2.842   1.352  0.00  0.00    -0.013 C 
ATOM      9  C4' I4B d   1       0.047   3.462   0.066  0.00  0.00     0.013 C 
ATOM     10  C3' I4B d   1       1.658   3.630   1.944  0.00  0.00     0.013 C 
ENDBRANCH   7   8
ENDBRANCH   1   7
TORSDOF 2
ENDMDL
