MODEL 1
REMARK minimizedAffinity 8.71723366
REMARK minimizedRMSD -1
REMARK  2 active torsions:
REMARK  status: ('A' for Active; 'I' for Inactive)
REMARK    1  A    between atoms: C2'_3  and  C1'_4 
REMARK    2  A    between atoms: C1'_4  and  C1_5 
ROOT
ATOM      1  C1  I4B d   1      -1.638   4.700  -1.726  0.00  0.00    -0.075 A 
ATOM      2  C2  I4B d   1      -0.685   5.675  -1.882  0.00  0.00     0.003 A 
ATOM      3  C3  I4B d   1       0.607   5.505  -1.326  0.00  0.00     0.002 A 
ATOM      4  C4  I4B d   1       0.884   4.376  -0.584  0.00  0.00    -0.004 A 
ATOM      5  C5  I4B d   1      -0.077   3.378  -0.446  0.00  0.00     0.002 A 
ATOM      6  C6  I4B d   1      -1.342   3.535  -1.031  0.00  0.00     0.003 A 
ENDROOT
BRANCH   1   7
ATOM      7  C1' I4B d   1      -3.001   4.927  -2.298  0.00  0.00     0.060 C 
BRANCH   7   8
ATOM      8  C2' I4B d   1      -3.398   3.683  -3.065  0.00  0.00    -0.013 C 
ATOM      9  C4' I4B d   1      -4.392   2.858  -2.291  0.00  0.00     0.013 C 
ATOM     10  C3' I4B d   1      -3.965   4.114  -4.385  0.00  0.00     0.013 C 
ENDBRANCH   7   8
ENDBRANCH   1   7
TORSDOF 2
ENDMDL
