MODEL 1
REMARK minimizedAffinity 13.5729465
REMARK minimizedRMSD -1
REMARK  2 active torsions:
REMARK  status: ('A' for Active; 'I' for Inactive)
REMARK    1  A    between atoms: C2'_3  and  C1'_4 
REMARK    2  A    between atoms: C1'_4  and  C1_5 
ROOT
ATOM      1  C1  I4B d   1       0.180   3.285  -0.039  0.00  0.00    -0.075 A 
ATOM      2  C2  I4B d   1       1.273   3.398   0.783  0.00  0.00     0.003 A 
ATOM      3  C3  I4B d   1       1.332   2.668   1.995  0.00  0.00     0.002 A 
ATOM      4  C4  I4B d   1       0.261   1.881   2.367  0.00  0.00    -0.004 A 
ATOM      5  C5  I4B d   1      -0.836   1.749   1.521  0.00  0.00     0.002 A 
ATOM      6  C6  I4B d   1      -0.872   2.446   0.304  0.00  0.00     0.003 A 
ENDROOT
BRANCH   1   7
ATOM      7  C1' I4B d   1       0.136   4.096  -1.296  0.00  0.00     0.060 C 
BRANCH   7   8
ATOM      8  C2' I4B d   1      -1.108   4.959  -1.251  0.00  0.00    -0.013 C 
ATOM      9  C4' I4B d   1      -1.014   5.995  -0.161  0.00  0.00     0.013 C 
ATOM     10  C3' I4B d   1      -1.274   5.602  -2.595  0.00  0.00     0.013 C 
ENDBRANCH   7   8
ENDBRANCH   1   7
TORSDOF 2
ENDMDL
