MODEL 1
REMARK minimizedAffinity 8.46033859
REMARK minimizedRMSD -1
REMARK  2 active torsions:
REMARK  status: ('A' for Active; 'I' for Inactive)
REMARK    1  A    between atoms: C2'_3  and  C1'_4 
REMARK    2  A    between atoms: C1'_4  and  C1_5 
ROOT
ATOM      1  C1  I4B d   1      -1.504   4.600  -2.028  0.00  0.00    -0.075 A 
ATOM      2  C2  I4B d   1      -0.626   5.613  -2.322  0.00  0.00     0.003 A 
ATOM      3  C3  I4B d   1       0.746   5.484  -1.997  0.00  0.00     0.002 A 
ATOM      4  C4  I4B d   1       1.185   4.355  -1.337  0.00  0.00    -0.004 A 
ATOM      5  C5  I4B d   1       0.298   3.319  -1.059  0.00  0.00     0.002 A 
ATOM      6  C6  I4B d   1      -1.053   3.436  -1.418  0.00  0.00     0.003 A 
ENDROOT
BRANCH   1   7
ATOM      7  C1' I4B d   1      -2.952   4.782  -2.356  0.00  0.00     0.060 C 
BRANCH   7   8
ATOM      8  C2' I4B d   1      -3.459   3.491  -2.966  0.00  0.00    -0.013 C 
ATOM      9  C4' I4B d   1      -4.626   2.942  -2.189  0.00  0.00     0.013 C 
ATOM     10  C3' I4B d   1      -3.839   3.770  -4.389  0.00  0.00     0.013 C 
ENDBRANCH   7   8
ENDBRANCH   1   7
TORSDOF 2
ENDMDL
