MODEL 1
REMARK minimizedAffinity 7.8715868
REMARK minimizedRMSD -1
REMARK  2 active torsions:
REMARK  status: ('A' for Active; 'I' for Inactive)
REMARK    1  A    between atoms: C2'_3  and  C1'_4 
REMARK    2  A    between atoms: C1'_4  and  C1_5 
ROOT
ATOM      1  C1  I4B d   1      -1.082  -4.616  -4.433  0.00  0.00    -0.075 A 
ATOM      2  C2  I4B d   1      -2.187  -3.816  -4.288  0.00  0.00     0.003 A 
ATOM      3  C3  I4B d   1      -3.378  -4.109  -4.997  0.00  0.00     0.002 A 
ATOM      4  C4  I4B d   1      -3.402  -5.176  -5.872  0.00  0.00    -0.004 A 
ATOM      5  C5  I4B d   1      -2.287  -6.000  -6.000  0.00  0.00     0.002 A 
ATOM      6  C6  I4B d   1      -1.124  -5.726  -5.267  0.00  0.00     0.003 A 
ENDROOT
BRANCH   1   7
ATOM      7  C1' I4B d   1       0.169  -4.258  -3.694  0.00  0.00     0.060 C 
BRANCH   7   8
ATOM      8  C2' I4B d   1       0.006  -4.707  -2.256  0.00  0.00    -0.013 C 
ATOM      9  C4' I4B d   1       1.123  -5.629  -1.843  0.00  0.00     0.013 C 
ATOM     10  C3' I4B d   1      -0.033  -3.482  -1.391  0.00  0.00     0.013 C 
ENDBRANCH   7   8
ENDBRANCH   1   7
TORSDOF 2
ENDMDL
