MODEL 1
REMARK minimizedAffinity 3.41820598
REMARK minimizedRMSD -1
REMARK  1 active torsions:
REMARK  status: ('A' for Active; 'I' for Inactive)
REMARK    1  A    between atoms: C1_2  and  C2_3 
ROOT
ATOM      1  C2  UNL d   1      -1.488   1.669   0.272  0.00  0.00    -0.081 A 
ATOM      2  C3  UNL d   1      -1.392   3.066   0.272  0.00  0.00     0.006 A 
ATOM      3  C4  UNL d   1      -2.251   3.835   1.060  0.00  0.00     0.002 A 
ATOM      4  C5  UNL d   1      -3.215   3.221   1.866  0.00  0.00    -0.080 A 
ATOM      5  C6  UNL d   1      -4.124   4.033   2.740  0.00  0.00     0.076 C 
ATOM      6  C7  UNL d   1      -3.323   1.826   1.853  0.00  0.00     0.002 A 
ATOM      7  C8  UNL d   1      -2.465   1.057   1.065  0.00  0.00     0.006 A 
ENDROOT
BRANCH   1   8
ATOM      8  C1  UNL d   1      -0.520   0.835  -0.527  0.00  0.00     0.054 C 
ATOM      9  C   UNL d   1       0.803   0.667   0.206  0.00  0.00     0.018 C 
ENDBRANCH   1   8
TORSDOF 1
ENDMDL
