MODEL 1
REMARK minimizedAffinity 4.74694395
REMARK minimizedRMSD -1
REMARK  1 active torsions:
REMARK  status: ('A' for Active; 'I' for Inactive)
REMARK    1  A    between atoms: C1_2  and  C2_3 
ROOT
ATOM      1  C2  UNL d   1       1.422   1.477   0.756  0.00  0.00    -0.081 A 
ATOM      2  C3  UNL d   1       0.905   0.919   1.932  0.00  0.00     0.006 A 
ATOM      3  C4  UNL d   1      -0.141   1.547   2.613  0.00  0.00     0.002 A 
ATOM      4  C5  UNL d   1      -0.692   2.737   2.126  0.00  0.00    -0.080 A 
ATOM      5  C6  UNL d   1      -1.835   3.404   2.831  0.00  0.00     0.076 C 
ATOM      6  C7  UNL d   1      -0.164   3.303   0.961  0.00  0.00     0.002 A 
ATOM      7  C8  UNL d   1       0.882   2.676   0.280  0.00  0.00     0.006 A 
ENDROOT
BRANCH   1   8
ATOM      8  C1  UNL d   1       2.506   0.768  -0.016  0.00  0.00     0.054 C 
ATOM      9  C   UNL d   1       3.709   1.674  -0.237  0.00  0.00     0.018 C 
ENDBRANCH   1   8
TORSDOF 1
ENDMDL
