MODEL 1
REMARK minimizedAffinity 7.99481392
REMARK minimizedRMSD -1
REMARK  1 active torsions:
REMARK  status: ('A' for Active; 'I' for Inactive)
REMARK    1  A    between atoms: C1_2  and  C2_3 
ROOT
ATOM      1  C2  UNL d   1      -5.200   0.896  -1.322  0.00  0.00    -0.081 A 
ATOM      2  C3  UNL d   1      -5.997   1.969  -1.739  0.00  0.00     0.006 A 
ATOM      3  C4  UNL d   1      -5.784   2.569  -2.982  0.00  0.00     0.002 A 
ATOM      4  C5  UNL d   1      -4.777   2.102  -3.832  0.00  0.00    -0.080 A 
ATOM      5  C6  UNL d   1      -4.557   2.717  -5.182  0.00  0.00     0.076 C 
ATOM      6  C7  UNL d   1      -3.969   1.041  -3.409  0.00  0.00     0.002 A 
ATOM      7  C8  UNL d   1      -4.180   0.441  -2.166  0.00  0.00     0.006 A 
ENDROOT
BRANCH   1   8
ATOM      8  C1  UNL d   1      -5.469   0.205  -0.010  0.00  0.00     0.054 C 
ATOM      9  C   UNL d   1      -5.025   1.061   1.167  0.00  0.00     0.018 C 
ENDBRANCH   1   8
TORSDOF 1
ENDMDL
