MODEL 1
REMARK minimizedAffinity 17.1601486
REMARK minimizedRMSD -1
REMARK  1 active torsions:
REMARK  status: ('A' for Active; 'I' for Inactive)
REMARK    1  A    between atoms: C1_2  and  C2_3 
ROOT
ATOM      1  C2  UNL d   1      -1.618   2.326   2.268  0.00  0.00    -0.081 A 
ATOM      2  C3  UNL d   1      -1.309   3.154   1.182  0.00  0.00     0.006 A 
ATOM      3  C4  UNL d   1      -0.023   3.153   0.635  0.00  0.00     0.002 A 
ATOM      4  C5  UNL d   1       0.971   2.321   1.159  0.00  0.00    -0.080 A 
ATOM      5  C6  UNL d   1       2.346   2.288   0.561  0.00  0.00     0.076 C 
ATOM      6  C7  UNL d   1       0.667   1.506   2.255  0.00  0.00     0.002 A 
ATOM      7  C8  UNL d   1      -0.618   1.507   2.803  0.00  0.00     0.006 A 
ENDROOT
BRANCH   1   8
ATOM      8  C1  UNL d   1      -3.020   2.277   2.819  0.00  0.00     0.054 C 
ATOM      9  C   UNL d   1      -3.966   1.565   1.862  0.00  0.00     0.018 C 
ENDBRANCH   1   8
TORSDOF 1
ENDMDL
