MODEL 1
REMARK minimizedAffinity -4.58245087
REMARK minimizedRMSD -1
REMARK  0 active torsions:
REMARK  status: ('A' for Active; 'I' for Inactive)
ROOT
ATOM      1  C1  DEN d   1      -0.302  -0.861   0.496  0.00  0.00     0.130 A 
ATOM      2  C2  DEN d   1       0.691  -0.963  -0.570  0.00  0.00    -0.031 A 
ATOM      3  C3  DEN d   1       0.959   0.398  -1.076  0.00  0.00     0.027 A 
ATOM      4  C4  DEN d   1      -0.058   2.642  -0.313  0.00  0.00     0.027 A 
ATOM      5  C5  DEN d   1      -0.952   3.233   0.552  0.00  0.00    -0.003 A 
ATOM      6  C6  DEN d   1      -1.711   2.504   1.428  0.00  0.00     0.001 A 
ATOM      7  C7  DEN d   1      -1.557   1.144   1.491  0.00  0.00     0.017 A 
ATOM      8  C8  DEN d   1      -0.663   0.540   0.617  0.00  0.00    -0.094 A 
ATOM      9  C9  DEN d   1       0.104   1.296  -0.254  0.00  0.00    -0.072 A 
ENDROOT
TORSDOF 0
ENDMDL
