MODEL 1
REMARK minimizedAffinity -4.29439354
REMARK minimizedRMSD -1
REMARK  0 active torsions:
REMARK  status: ('A' for Active; 'I' for Inactive)
ROOT
ATOM      1  C1  DEN d   1      -0.060   3.047  -1.107  0.00  0.00     0.130 A 
ATOM      2  C2  DEN d   1      -0.825   4.106  -0.454  0.00  0.00    -0.031 A 
ATOM      3  C3  DEN d   1      -1.403   3.553   0.787  0.00  0.00     0.027 A 
ATOM      4  C4  DEN d   1      -1.185   1.173   1.759  0.00  0.00     0.027 A 
ATOM      5  C5  DEN d   1      -0.645  -0.078   1.554  0.00  0.00    -0.003 A 
ATOM      6  C6  DEN d   1       0.093  -0.382   0.441  0.00  0.00     0.001 A 
ATOM      7  C7  DEN d   1       0.349   0.591  -0.489  0.00  0.00     0.017 A 
ATOM      8  C8  DEN d   1      -0.197   1.852  -0.294  0.00  0.00    -0.094 A 
ATOM      9  C9  DEN d   1      -0.930   2.143   0.844  0.00  0.00    -0.072 A 
ENDROOT
TORSDOF 0
ENDMDL
