MODEL 1
REMARK minimizedAffinity -4.58216381
REMARK minimizedRMSD -1
REMARK  0 active torsions:
REMARK  status: ('A' for Active; 'I' for Inactive)
ROOT
ATOM      1  C1  DEN d   1      -1.155   2.027  -0.501  0.00  0.00     0.130 A 
ATOM      2  C2  DEN d   1      -1.965   2.319   0.679  0.00  0.00    -0.031 A 
ATOM      3  C3  DEN d   1      -1.727   1.252   1.672  0.00  0.00     0.027 A 
ATOM      4  C4  DEN d   1      -0.188  -0.810   1.500  0.00  0.00     0.027 A 
ATOM      5  C5  DEN d   1       0.692  -1.490   0.687  0.00  0.00    -0.003 A 
ATOM      6  C6  DEN d   1       0.989  -1.067  -0.582  0.00  0.00     0.001 A 
ATOM      7  C7  DEN d   1       0.436   0.092  -1.058  0.00  0.00     0.017 A 
ATOM      8  C8  DEN d   1      -0.458   0.779  -0.246  0.00  0.00    -0.094 A 
ATOM      9  C9  DEN d   1      -0.736   0.342   1.038  0.00  0.00    -0.072 A 
ENDROOT
TORSDOF 0
ENDMDL
