MODEL 1
REMARK minimizedAffinity -5.09369612
REMARK minimizedRMSD -1
REMARK  0 active torsions:
REMARK  status: ('A' for Active; 'I' for Inactive)
ROOT
ATOM      1  C1  DEN d   1      -1.123  -0.531   1.614  0.00  0.00     0.130 A 
ATOM      2  C2  DEN d   1      -1.914   0.658   1.918  0.00  0.00    -0.031 A 
ATOM      3  C3  DEN d   1      -1.510   1.727   0.982  0.00  0.00     0.027 A 
ATOM      4  C4  DEN d   1       0.251   1.655  -0.900  0.00  0.00     0.027 A 
ATOM      5  C5  DEN d   1       1.188   0.866  -1.531  0.00  0.00    -0.003 A 
ATOM      6  C6  DEN d   1       1.442  -0.422  -1.140  0.00  0.00     0.001 A 
ATOM      7  C7  DEN d   1       0.719  -0.975  -0.116  0.00  0.00     0.017 A 
ATOM      8  C8  DEN d   1      -0.222  -0.184   0.530  0.00  0.00    -0.094 A 
ATOM      9  C9  DEN d   1      -0.473   1.112   0.111  0.00  0.00    -0.072 A 
ENDROOT
TORSDOF 0
ENDMDL
