MODEL 1
REMARK minimizedAffinity -3.41542506
REMARK minimizedRMSD -1
REMARK  0 active torsions:
REMARK  status: ('A' for Active; 'I' for Inactive)
ROOT
ATOM      1  C1  DEN d   1       0.740  -1.410  -0.268  0.00  0.00     0.130 A 
ATOM      2  C2  DEN d   1       1.454  -1.124  -1.510  0.00  0.00    -0.031 A 
ATOM      3  C3  DEN d   1       1.116   0.252  -1.924  0.00  0.00     0.027 A 
ATOM      4  C4  DEN d   1      -0.432   1.961  -0.768  0.00  0.00     0.027 A 
ATOM      5  C5  DEN d   1      -1.269   2.171   0.306  0.00  0.00    -0.003 A 
ATOM      6  C6  DEN d   1      -1.519   1.199   1.238  0.00  0.00     0.001 A 
ATOM      7  C7  DEN d   1      -0.891  -0.015   1.138  0.00  0.00     0.017 A 
ATOM      8  C8  DEN d   1      -0.051  -0.236   0.054  0.00  0.00    -0.094 A 
ATOM      9  C9  DEN d   1       0.198   0.764  -0.870  0.00  0.00    -0.072 A 
ENDROOT
TORSDOF 0
ENDMDL
