MODEL 1
REMARK minimizedAffinity -2.70593262
REMARK minimizedRMSD -1
REMARK  0 active torsions:
REMARK  status: ('A' for Active; 'I' for Inactive)
ROOT
ATOM      1  C1  DEN d   1      -1.242   1.572   1.972  0.00  0.00     0.130 A 
ATOM      2  C2  DEN d   1      -1.556   2.515   0.903  0.00  0.00    -0.031 A 
ATOM      3  C3  DEN d   1      -0.939   2.015  -0.342  0.00  0.00     0.027 A 
ATOM      4  C4  DEN d   1       0.461  -0.118  -0.716  0.00  0.00     0.027 A 
ATOM      5  C5  DEN d   1       1.004  -1.226  -0.104  0.00  0.00    -0.003 A 
ATOM      6  C6  DEN d   1       0.866  -1.460   1.239  0.00  0.00     0.001 A 
ATOM      7  C7  DEN d   1       0.130  -0.596   2.006  0.00  0.00     0.017 A 
ATOM      8  C8  DEN d   1      -0.414   0.527   1.397  0.00  0.00    -0.094 A 
ATOM      9  C9  DEN d   1      -0.274   0.739   0.036  0.00  0.00    -0.072 A 
ENDROOT
TORSDOF 0
ENDMDL
