MODEL 1
REMARK minimizedAffinity -3.98551106
REMARK minimizedRMSD -1
REMARK  0 active torsions:
REMARK  status: ('A' for Active; 'I' for Inactive)
ROOT
ATOM      1  C1  DEN d   1      -1.651   2.029  -0.109  0.00  0.00     0.130 A 
ATOM      2  C2  DEN d   1      -2.242   1.969   1.225  0.00  0.00    -0.031 A 
ATOM      3  C3  DEN d   1      -1.568   0.891   1.976  0.00  0.00     0.027 A 
ATOM      4  C4  DEN d   1       0.328  -0.680   1.208  0.00  0.00     0.027 A 
ATOM      5  C5  DEN d   1       1.149  -1.017   0.155  0.00  0.00    -0.003 A 
ATOM      6  C6  DEN d   1       1.072  -0.391  -1.061  0.00  0.00     0.001 A 
ATOM      7  C7  DEN d   1       0.185   0.637  -1.239  0.00  0.00     0.017 A 
ATOM      8  C8  DEN d   1      -0.652   0.978  -0.185  0.00  0.00    -0.094 A 
ATOM      9  C9  DEN d   1      -0.550   0.341   1.040  0.00  0.00    -0.072 A 
ENDROOT
TORSDOF 0
ENDMDL
