MODEL 1
REMARK minimizedAffinity -2.07534003
REMARK minimizedRMSD -1
REMARK  0 active torsions:
REMARK  status: ('A' for Active; 'I' for Inactive)
ROOT
ATOM      1  C1  DEN d   1       0.177   0.541  -0.712  0.00  0.00     0.130 A 
ATOM      2  C2  DEN d   1      -0.103   0.497   0.721  0.00  0.00    -0.031 A 
ATOM      3  C3  DEN d   1      -0.078  -0.917   1.148  0.00  0.00     0.027 A 
ATOM      4  C4  DEN d   1       0.372  -3.029  -0.262  0.00  0.00     0.027 A 
ATOM      5  C5  DEN d   1       0.648  -3.496  -1.529  0.00  0.00    -0.003 A 
ATOM      6  C6  DEN d   1       0.752  -2.660  -2.609  0.00  0.00     0.001 A 
ATOM      7  C7  DEN d   1       0.623  -1.307  -2.434  0.00  0.00     0.017 A 
ATOM      8  C8  DEN d   1       0.337  -0.830  -1.162  0.00  0.00    -0.094 A 
ATOM      9  C9  DEN d   1       0.248  -1.690  -0.081  0.00  0.00    -0.072 A 
ENDROOT
TORSDOF 0
ENDMDL
