MODEL 1
REMARK minimizedAffinity -4.58467245
REMARK minimizedRMSD -1
REMARK  0 active torsions:
REMARK  status: ('A' for Active; 'I' for Inactive)
ROOT
ATOM      1  C1  DEN d   1      -1.246   1.936  -0.164  0.00  0.00     0.130 A 
ATOM      2  C2  DEN d   1      -1.918   2.064   1.126  0.00  0.00    -0.031 A 
ATOM      3  C3  DEN d   1      -1.530   0.909   1.959  0.00  0.00     0.027 A 
ATOM      4  C4  DEN d   1       0.043  -1.052   1.382  0.00  0.00     0.027 A 
ATOM      5  C5  DEN d   1       0.840  -1.601   0.402  0.00  0.00    -0.003 A 
ATOM      6  C6  DEN d   1       0.970  -1.032  -0.837  0.00  0.00     0.001 A 
ATOM      7  C7  DEN d   1       0.327   0.146  -1.114  0.00  0.00     0.017 A 
ATOM      8  C8  DEN d   1      -0.484   0.701  -0.133  0.00  0.00    -0.094 A 
ATOM      9  C9  DEN d   1      -0.592   0.117   1.118  0.00  0.00    -0.072 A 
ENDROOT
TORSDOF 0
ENDMDL
