MODEL 1
REMARK minimizedAffinity 0.431986064
REMARK minimizedRMSD -1
REMARK  0 active torsions:
REMARK  status: ('A' for Active; 'I' for Inactive)
ROOT
ATOM      1  C1  DEN d   1       0.568  -0.769   0.902  0.00  0.00     0.130 A 
ATOM      2  C2  DEN d   1       0.685  -1.098  -0.516  0.00  0.00    -0.031 A 
ATOM      3  C3  DEN d   1      -0.292  -0.274  -1.257  0.00  0.00     0.027 A 
ATOM      4  C4  DEN d   1      -1.960   1.472  -0.352  0.00  0.00     0.027 A 
ATOM      5  C5  DEN d   1      -2.435   2.086   0.786  0.00  0.00    -0.003 A 
ATOM      6  C6  DEN d   1      -1.970   1.770   2.035  0.00  0.00     0.001 A 
ATOM      7  C7  DEN d   1      -0.969   0.846   2.172  0.00  0.00     0.017 A 
ATOM      8  C8  DEN d   1      -0.490   0.217   1.031  0.00  0.00    -0.094 A 
ATOM      9  C9  DEN d   1      -0.964   0.559  -0.224  0.00  0.00    -0.072 A 
ENDROOT
TORSDOF 0
ENDMDL
