MODEL 1
REMARK minimizedAffinity -2.29142714
REMARK minimizedRMSD -1
REMARK  0 active torsions:
REMARK  status: ('A' for Active; 'I' for Inactive)
ROOT
ATOM      1  C1  DEN d   1      -0.113  -2.296  -3.172  0.00  0.00     0.130 A 
ATOM      2  C2  DEN d   1       0.677  -3.467  -2.800  0.00  0.00    -0.031 A 
ATOM      3  C3  DEN d   1       1.116  -3.296  -1.400  0.00  0.00     0.027 A 
ATOM      4  C4  DEN d   1       0.647  -1.346   0.221  0.00  0.00     0.027 A 
ATOM      5  C5  DEN d   1       0.032  -0.120   0.354  0.00  0.00    -0.003 A 
ATOM      6  C6  DEN d   1      -0.640   0.476  -0.679  0.00  0.00     0.001 A 
ATOM      7  C7  DEN d   1      -0.751  -0.173  -1.881  0.00  0.00     0.017 A 
ATOM      8  C8  DEN d   1      -0.128  -1.405  -2.025  0.00  0.00    -0.094 A 
ATOM      9  C9  DEN d   1       0.536  -1.997  -0.965  0.00  0.00    -0.072 A 
ENDROOT
TORSDOF 0
ENDMDL
