MODEL 1
REMARK minimizedAffinity -2.32910323
REMARK minimizedRMSD -1
REMARK  0 active torsions:
REMARK  status: ('A' for Active; 'I' for Inactive)
ROOT
ATOM      1  C1  DEN d   1       0.431  -1.463   0.662  0.00  0.00     0.130 A 
ATOM      2  C2  DEN d   1       0.724  -1.575  -0.765  0.00  0.00    -0.031 A 
ATOM      3  C3  DEN d   1       0.142  -0.400  -1.444  0.00  0.00     0.027 A 
ATOM      4  C4  DEN d   1      -1.175   1.573  -0.430  0.00  0.00     0.027 A 
ATOM      5  C5  DEN d   1      -1.685   2.102   0.735  0.00  0.00    -0.003 A 
ATOM      6  C6  DEN d   1      -1.555   1.468   1.943  0.00  0.00     0.001 A 
ATOM      7  C7  DEN d   1      -0.861   0.289   2.019  0.00  0.00     0.017 A 
ATOM      8  C8  DEN d   1      -0.351  -0.254   0.848  0.00  0.00    -0.094 A 
ATOM      9  C9  DEN d   1      -0.481   0.409  -0.361  0.00  0.00    -0.072 A 
ENDROOT
TORSDOF 0
ENDMDL
