MODEL 1
REMARK minimizedAffinity -4.30529165
REMARK minimizedRMSD -1
REMARK  0 active torsions:
REMARK  status: ('A' for Active; 'I' for Inactive)
ROOT
ATOM      1  C1  DEN d   1       0.595  -0.632   1.598  0.00  0.00     0.130 A 
ATOM      2  C2  DEN d   1       0.934  -1.251   0.319  0.00  0.00    -0.031 A 
ATOM      3  C3  DEN d   1       0.217  -0.520  -0.745  0.00  0.00     0.027 A 
ATOM      4  C4  DEN d   1      -1.371   1.502  -0.539  0.00  0.00     0.027 A 
ATOM      5  C5  DEN d   1      -1.974   2.371   0.343  0.00  0.00    -0.003 A 
ATOM      6  C6  DEN d   1      -1.791   2.279   1.698  0.00  0.00     0.001 A 
ATOM      7  C7  DEN d   1      -0.949   1.325   2.206  0.00  0.00     0.017 A 
ATOM      8  C8  DEN d   1      -0.344   0.441   1.323  0.00  0.00    -0.094 A 
ATOM      9  C9  DEN d   1      -0.532   0.557  -0.044  0.00  0.00    -0.072 A 
ENDROOT
TORSDOF 0
ENDMDL
