MODEL 1
REMARK minimizedAffinity 0.644864857
REMARK minimizedRMSD -1
REMARK  0 active torsions:
REMARK  status: ('A' for Active; 'I' for Inactive)
ROOT
ATOM      1  C1  DEN d   1      -0.708  -0.552   0.035  0.00  0.00     0.130 A 
ATOM      2  C2  DEN d   1       0.685  -0.895  -0.236  0.00  0.00    -0.031 A 
ATOM      3  C3  DEN d   1       1.337   0.286  -0.838  0.00  0.00     0.027 A 
ATOM      4  C4  DEN d   1       0.331   2.601  -1.368  0.00  0.00     0.027 A 
ATOM      5  C5  DEN d   1      -0.816   3.363  -1.326  0.00  0.00    -0.003 A 
ATOM      6  C6  DEN d   1      -2.006   2.866  -0.864  0.00  0.00     0.001 A 
ATOM      7  C7  DEN d   1      -2.066   1.586  -0.381  0.00  0.00     0.017 A 
ATOM      8  C8  DEN d   1      -0.915   0.809  -0.427  0.00  0.00    -0.094 A 
ATOM      9  C9  DEN d   1       0.281   1.333  -0.887  0.00  0.00    -0.072 A 
ENDROOT
TORSDOF 0
ENDMDL
