MODEL 1
REMARK minimizedAffinity -2.93112469
REMARK minimizedRMSD -1
REMARK  0 active torsions:
REMARK  status: ('A' for Active; 'I' for Inactive)
ROOT
ATOM      1  C1  DEN d   1       0.610  -1.453   0.115  0.00  0.00     0.130 A 
ATOM      2  C2  DEN d   1       1.610  -1.486  -0.949  0.00  0.00    -0.031 A 
ATOM      3  C3  DEN d   1       1.617  -0.165  -1.610  0.00  0.00     0.027 A 
ATOM      4  C4  DEN d   1       0.187   1.917  -1.090  0.00  0.00     0.027 A 
ATOM      5  C5  DEN d   1      -0.808   2.422  -0.282  0.00  0.00    -0.003 A 
ATOM      6  C6  DEN d   1      -1.419   1.667   0.683  0.00  0.00     0.001 A 
ATOM      7  C7  DEN d   1      -1.009   0.378   0.897  0.00  0.00     0.017 A 
ATOM      8  C8  DEN d   1      -0.011  -0.141   0.082  0.00  0.00    -0.094 A 
ATOM      9  C9  DEN d   1       0.602   0.642  -0.881  0.00  0.00    -0.072 A 
ENDROOT
TORSDOF 0
ENDMDL
