MODEL 1
REMARK minimizedAffinity -3.03853726
REMARK minimizedRMSD -1
REMARK  3 active torsions:
REMARK  status: ('A' for Active; 'I' for Inactive)
REMARK    1  A    between atoms: C3'_2  and  C2'_3 
REMARK    2  A    between atoms: C2'_3  and  C1'_4 
REMARK    3  A    between atoms: C1'_4  and  C1_5 
ROOT
ATOM      1  C1  N4B d   1      -0.455   0.394   0.252  0.00  0.00    -0.075 A 
ATOM      2  C2  N4B d   1      -1.129   1.575  -0.130  0.00  0.00     0.002 A 
ATOM      3  C3  N4B d   1      -0.971   2.724   0.605  0.00  0.00     0.002 A 
ATOM      4  C4  N4B d   1      -0.162   2.712   1.731  0.00  0.00    -0.004 A 
ATOM      5  C5  N4B d   1       0.506   1.574   2.079  0.00  0.00     0.002 A 
ATOM      6  C6  N4B d   1       0.359   0.413   1.347  0.00  0.00     0.002 A 
ENDROOT
BRANCH   1   7
ATOM      7  C1' N4B d   1      -0.664  -0.909  -0.471  0.00  0.00     0.057 C 
BRANCH   7   8
ATOM      8  C2' N4B d   1       0.664  -1.655  -0.552  0.00  0.00     0.009 C 
BRANCH   8   9
ATOM      9  C3' N4B d   1       0.477  -3.103  -0.975  0.00  0.00     0.004 C 
ATOM     10  C4' N4B d   1       1.679  -3.952  -0.685  0.00  0.00     0.003 C 
ENDBRANCH   8   9
ENDBRANCH   7   8
ENDBRANCH   1   7
TORSDOF 3
ENDMDL
