MODEL 1
REMARK minimizedAffinity -5.52353525
REMARK minimizedRMSD -1
REMARK  3 active torsions:
REMARK  status: ('A' for Active; 'I' for Inactive)
REMARK    1  A    between atoms: C3'_2  and  C2'_3 
REMARK    2  A    between atoms: C2'_3  and  C1'_4 
REMARK    3  A    between atoms: C1'_4  and  C1_5 
ROOT
ATOM      1  C1  N4B d   1       0.268  -1.513  -0.803  0.00  0.00    -0.075 A 
ATOM      2  C2  N4B d   1      -0.976  -2.080  -0.448  0.00  0.00     0.002 A 
ATOM      3  C3  N4B d   1      -1.509  -3.094  -1.206  0.00  0.00     0.002 A 
ATOM      4  C4  N4B d   1      -0.829  -3.543  -2.328  0.00  0.00    -0.004 A 
ATOM      5  C5  N4B d   1       0.384  -3.007  -2.649  0.00  0.00     0.002 A 
ATOM      6  C6  N4B d   1       0.933  -1.990  -1.895  0.00  0.00     0.002 A 
ENDROOT
BRANCH   1   7
ATOM      7  C1' N4B d   1       0.850  -0.344  -0.056  0.00  0.00     0.057 C 
BRANCH   7   8
ATOM      8  C2' N4B d   1      -0.269   0.631   0.298  0.00  0.00     0.009 C 
BRANCH   8   9
ATOM      9  C3' N4B d   1      -0.386   0.841   1.798  0.00  0.00     0.004 C 
ATOM     10  C4' N4B d   1      -1.124   2.098   2.153  0.00  0.00     0.003 C 
ENDBRANCH   8   9
ENDBRANCH   7   8
ENDBRANCH   1   7
TORSDOF 3
ENDMDL
