MODEL 1
REMARK minimizedAffinity -5.42004347
REMARK minimizedRMSD -1
REMARK  3 active torsions:
REMARK  status: ('A' for Active; 'I' for Inactive)
REMARK    1  A    between atoms: C3'_2  and  C2'_3 
REMARK    2  A    between atoms: C2'_3  and  C1'_4 
REMARK    3  A    between atoms: C1'_4  and  C1_5 
ROOT
ATOM      1  C1  N4B d   1       0.159   0.333   0.677  0.00  0.00    -0.075 A 
ATOM      2  C2  N4B d   1      -0.878   0.845  -0.134  0.00  0.00     0.002 A 
ATOM      3  C3  N4B d   1      -1.683   1.853   0.336  0.00  0.00     0.002 A 
ATOM      4  C4  N4B d   1      -1.483   2.350   1.615  0.00  0.00    -0.004 A 
ATOM      5  C5  N4B d   1      -0.463   1.868   2.382  0.00  0.00     0.002 A 
ATOM      6  C6  N4B d   1       0.357   0.858   1.921  0.00  0.00     0.002 A 
ENDROOT
BRANCH   1   7
ATOM      7  C1' N4B d   1       1.011  -0.827   0.239  0.00  0.00     0.057 C 
BRANCH   7   8
ATOM      8  C2' N4B d   1       0.666  -1.185  -1.204  0.00  0.00     0.009 C 
BRANCH   8   9
ATOM      9  C3' N4B d   1       0.418  -2.674  -1.376  0.00  0.00     0.004 C 
ATOM     10  C4' N4B d   1      -1.019  -3.051  -1.171  0.00  0.00     0.003 C 
ENDBRANCH   8   9
ENDBRANCH   7   8
ENDBRANCH   1   7
TORSDOF 3
ENDMDL
