MODEL 1
REMARK minimizedAffinity -3.89671588
REMARK minimizedRMSD -1
REMARK  3 active torsions:
REMARK  status: ('A' for Active; 'I' for Inactive)
REMARK    1  A    between atoms: C3'_2  and  C2'_3 
REMARK    2  A    between atoms: C2'_3  and  C1'_4 
REMARK    3  A    between atoms: C1'_4  and  C1_5 
ROOT
ATOM      1  C1  N4B d   1       0.340   0.015  -0.262  0.00  0.00    -0.075 A 
ATOM      2  C2  N4B d   1      -0.032   1.047  -1.151  0.00  0.00     0.002 A 
ATOM      3  C3  N4B d   1      -0.700   2.151  -0.681  0.00  0.00     0.002 A 
ATOM      4  C4  N4B d   1      -1.022   2.236   0.665  0.00  0.00    -0.004 A 
ATOM      5  C5  N4B d   1      -0.637   1.246   1.522  0.00  0.00     0.002 A 
ATOM      6  C6  N4B d   1       0.038   0.133   1.064  0.00  0.00     0.002 A 
ENDROOT
BRANCH   1   7
ATOM      7  C1' N4B d   1       0.996  -1.250  -0.744  0.00  0.00     0.057 C 
BRANCH   7   8
ATOM      8  C2' N4B d   1       0.010  -2.025  -1.613  0.00  0.00     0.009 C 
BRANCH   8   9
ATOM      9  C3' N4B d   1      -0.024  -3.501  -1.255  0.00  0.00     0.004 C 
ATOM     10  C4' N4B d   1      -1.327  -4.155  -1.609  0.00  0.00     0.003 C 
ENDBRANCH   8   9
ENDBRANCH   7   8
ENDBRANCH   1   7
TORSDOF 3
ENDMDL
