MODEL 1
REMARK minimizedAffinity -0.766405523
REMARK minimizedRMSD -1
REMARK  3 active torsions:
REMARK  status: ('A' for Active; 'I' for Inactive)
REMARK    1  A    between atoms: C3'_2  and  C2'_3 
REMARK    2  A    between atoms: C2'_3  and  C1'_4 
REMARK    3  A    between atoms: C1'_4  and  C1_5 
ROOT
ATOM      1  C1  N4B d   1       0.175   0.553   0.346  0.00  0.00    -0.075 A 
ATOM      2  C2  N4B d   1      -0.726   0.822  -0.708  0.00  0.00     0.002 A 
ATOM      3  C3  N4B d   1      -1.580   1.894  -0.623  0.00  0.00     0.002 A 
ATOM      4  C4  N4B d   1      -1.564   2.696   0.509  0.00  0.00    -0.004 A 
ATOM      5  C5  N4B d   1      -0.673   2.444   1.510  0.00  0.00     0.002 A 
ATOM      6  C6  N4B d   1       0.194   1.372   1.437  0.00  0.00     0.002 A 
ENDROOT
BRANCH   1   7
ATOM      7  C1' N4B d   1       1.069  -0.658   0.337  0.00  0.00     0.057 C 
BRANCH   7   8
ATOM      8  C2' N4B d   1       0.620  -1.603  -0.774  0.00  0.00     0.009 C 
BRANCH   8   9
ATOM      9  C3' N4B d   1       1.088  -3.028  -0.532  0.00  0.00     0.004 C 
ATOM     10  C4' N4B d   1      -0.036  -4.020  -0.555  0.00  0.00     0.003 C 
ENDBRANCH   8   9
ENDBRANCH   7   8
ENDBRANCH   1   7
TORSDOF 3
ENDMDL
