MODEL 1
REMARK minimizedAffinity -1.01570714
REMARK minimizedRMSD -1
REMARK  1 active torsions:
REMARK  status: ('A' for Active; 'I' for Inactive)
REMARK    1  A    between atoms: C1_2  and  C2_3 
ROOT
ATOM      1  C2  UNL d   1      -1.599  -0.577   2.558  0.00  0.00    -0.073 A 
ATOM      2  C3  UNL d   1      -2.443  -1.359   3.354  0.00  0.00    -0.002 A 
ATOM      3  C4  UNL d   1      -1.911  -2.176   4.353  0.00  0.00     0.004 A 
ATOM      4  C5  UNL d   1      -0.534  -2.214   4.571  0.00  0.00    -0.004 A 
ATOM      5  C6  UNL d   1       0.325  -1.430   3.793  0.00  0.00    -0.075 A 
ATOM      6  C7  UNL d   1       1.809  -1.461   4.013  0.00  0.00     0.076 C 
ATOM      7  C8  UNL d   1      -0.216  -0.615   2.790  0.00  0.00     0.001 A 
ENDROOT
BRANCH   1   8
ATOM      8  C1  UNL d   1      -2.168   0.311   1.482  0.00  0.00     0.053 C 
ATOM      9  C   UNL d   1      -2.153  -0.363   0.119  0.00  0.00     0.018 C 
ENDBRANCH   1   8
TORSDOF 1
ENDMDL
