MODEL 1
REMARK minimizedAffinity -1.67521107
REMARK minimizedRMSD -1
REMARK  1 active torsions:
REMARK  status: ('A' for Active; 'I' for Inactive)
REMARK    1  A    between atoms: C1_2  and  C2_3 
ROOT
ATOM      1  C2  UNL d   1      -0.031  -0.498   0.593  0.00  0.00    -0.073 A 
ATOM      2  C3  UNL d   1      -0.556   0.059   1.764  0.00  0.00    -0.002 A 
ATOM      3  C4  UNL d   1      -1.929   0.275   1.888  0.00  0.00     0.004 A 
ATOM      4  C5  UNL d   1      -2.791  -0.070   0.847  0.00  0.00    -0.004 A 
ATOM      5  C6  UNL d   1      -2.286  -0.639  -0.326  0.00  0.00    -0.075 A 
ATOM      6  C7  UNL d   1      -3.200  -1.014  -1.456  0.00  0.00     0.076 C 
ATOM      7  C8  UNL d   1      -0.906  -0.850  -0.444  0.00  0.00     0.001 A 
ENDROOT
BRANCH   1   8
ATOM      8  C1  UNL d   1       1.450  -0.739   0.457  0.00  0.00     0.053 C 
ATOM      9  C   UNL d   1       2.218   0.551   0.216  0.00  0.00     0.018 C 
ENDBRANCH   1   8
TORSDOF 1
ENDMDL
