MODEL 1
REMARK minimizedAffinity -1.76358056
REMARK minimizedRMSD -1
REMARK  1 active torsions:
REMARK  status: ('A' for Active; 'I' for Inactive)
REMARK    1  A    between atoms: C1_2  and  C2_3 
ROOT
ATOM      1  C2  UNL d   1      -1.343  -1.615   4.073  0.00  0.00    -0.073 A 
ATOM      2  C3  UNL d   1      -0.290  -2.043   4.889  0.00  0.00    -0.002 A 
ATOM      3  C4  UNL d   1       1.033  -1.888   4.471  0.00  0.00     0.004 A 
ATOM      4  C5  UNL d   1       1.316  -1.298   3.239  0.00  0.00    -0.004 A 
ATOM      5  C6  UNL d   1       0.277  -0.853   2.415  0.00  0.00    -0.075 A 
ATOM      6  C7  UNL d   1       0.564  -0.219   1.086  0.00  0.00     0.076 C 
ATOM      7  C8  UNL d   1      -1.049  -1.015   2.840  0.00  0.00     0.001 A 
ENDROOT
BRANCH   1   8
ATOM      8  C1  UNL d   1      -2.773  -1.775   4.522  0.00  0.00     0.053 C 
ATOM      9  C   UNL d   1      -3.745  -1.731   3.354  0.00  0.00     0.018 C 
ENDBRANCH   1   8
TORSDOF 1
ENDMDL
