MODEL 1
REMARK minimizedAffinity 0.656327069
REMARK minimizedRMSD -1
REMARK  1 active torsions:
REMARK  status: ('A' for Active; 'I' for Inactive)
REMARK    1  A    between atoms: C1_2  and  C2_3 
ROOT
ATOM      1  C2  UNL d   1      -1.865  -0.497   2.862  0.00  0.00    -0.073 A 
ATOM      2  C3  UNL d   1      -2.705  -1.339   3.601  0.00  0.00    -0.002 A 
ATOM      3  C4  UNL d   1      -2.168  -2.227   4.533  0.00  0.00     0.004 A 
ATOM      4  C5  UNL d   1      -0.790  -2.279   4.742  0.00  0.00    -0.004 A 
ATOM      5  C6  UNL d   1       0.064  -1.437   4.022  0.00  0.00    -0.075 A 
ATOM      6  C7  UNL d   1       1.549  -1.482   4.233  0.00  0.00     0.076 C 
ATOM      7  C8  UNL d   1      -0.482  -0.550   3.085  0.00  0.00     0.001 A 
ENDROOT
BRANCH   1   8
ATOM      8  C1  UNL d   1      -2.440   0.468   1.858  0.00  0.00     0.053 C 
ATOM      9  C   UNL d   1      -1.997   0.148   0.440  0.00  0.00     0.018 C 
ENDBRANCH   1   8
TORSDOF 1
ENDMDL
