MODEL 1
REMARK minimizedAffinity 3.02263832
REMARK minimizedRMSD -1
REMARK  1 active torsions:
REMARK  status: ('A' for Active; 'I' for Inactive)
REMARK    1  A    between atoms: C1_2  and  C2_3 
ROOT
ATOM      1  C2  UNL d   1      -0.730  -0.191   0.427  0.00  0.00    -0.073 A 
ATOM      2  C3  UNL d   1      -1.018   0.306   1.703  0.00  0.00    -0.002 A 
ATOM      3  C4  UNL d   1      -2.298   0.772   2.006  0.00  0.00     0.004 A 
ATOM      4  C5  UNL d   1      -3.303   0.740   1.040  0.00  0.00    -0.004 A 
ATOM      5  C6  UNL d   1      -3.038   0.236  -0.238  0.00  0.00    -0.075 A 
ATOM      6  C7  UNL d   1      -4.108   0.197  -1.289  0.00  0.00     0.076 C 
ATOM      7  C8  UNL d   1      -1.750  -0.227  -0.535  0.00  0.00     0.001 A 
ENDROOT
BRANCH   1   8
ATOM      8  C1  UNL d   1       0.649  -0.701   0.097  0.00  0.00     0.053 C 
ATOM      9  C   UNL d   1       1.688  -0.226   1.101  0.00  0.00     0.018 C 
ENDBRANCH   1   8
TORSDOF 1
ENDMDL
