MODEL 1
REMARK minimizedAffinity -0.398707837
REMARK minimizedRMSD -1
REMARK  1 active torsions:
REMARK  status: ('A' for Active; 'I' for Inactive)
REMARK    1  A    between atoms: C1_2  and  C2_3 
ROOT
ATOM      1  C2  UNL d   1      -0.223  -0.977   2.924  0.00  0.00    -0.073 A 
ATOM      2  C3  UNL d   1       0.977  -1.097   2.214  0.00  0.00    -0.002 A 
ATOM      3  C4  UNL d   1       1.013  -0.844   0.843  0.00  0.00     0.004 A 
ATOM      4  C5  UNL d   1      -0.146  -0.461   0.168  0.00  0.00    -0.004 A 
ATOM      5  C6  UNL d   1      -1.353  -0.324   0.862  0.00  0.00    -0.075 A 
ATOM      6  C7  UNL d   1      -2.610   0.084   0.151  0.00  0.00     0.076 C 
ATOM      7  C8  UNL d   1      -1.382  -0.583   2.239  0.00  0.00     0.001 A 
ENDROOT
BRANCH   1   8
ATOM      8  C1  UNL d   1      -0.266  -1.244   4.406  0.00  0.00     0.053 C 
ATOM      9  C   UNL d   1       1.080  -0.998   5.069  0.00  0.00     0.018 C 
ENDBRANCH   1   8
TORSDOF 1
ENDMDL
