MODEL 1
REMARK minimizedAffinity -1.82717276
REMARK minimizedRMSD -1
REMARK  0 active torsions:
REMARK  status: ('A' for Active; 'I' for Inactive)
ROOT
ATOM      1  C   UNL d   1      -0.202   2.374   2.354  0.00  0.00     0.172 C 
ATOM      2  N   UNL d   1      -0.389   1.259   1.455  0.00  0.00    -0.070 N 
ATOM      3  C1  UNL d   1       0.494   0.854   0.491  0.00  0.00    -0.004 A 
ATOM      4  C2  UNL d   1      -0.050  -0.239  -0.148  0.00  0.00    -0.047 A 
ATOM      5  C3  UNL d   1      -1.305  -0.499   0.452  0.00  0.00    -0.047 A 
ATOM      6  C4  UNL d   1      -1.490   0.443   1.441  0.00  0.00    -0.004 A 
ENDROOT
TORSDOF 0
ENDMDL
