MODEL 1
REMARK minimizedAffinity -2.30256677
REMARK minimizedRMSD -1
REMARK  0 active torsions:
REMARK  status: ('A' for Active; 'I' for Inactive)
ROOT
ATOM      1  C   UNL d   1       0.346  -0.635  -1.175  0.00  0.00     0.172 C 
ATOM      2  N   UNL d   1      -0.071   0.054   0.024  0.00  0.00    -0.070 N 
ATOM      3  C1  UNL d   1       0.753   0.460   1.038  0.00  0.00    -0.004 A 
ATOM      4  C2  UNL d   1      -0.025   1.076   1.994  0.00  0.00    -0.047 A 
ATOM      5  C3  UNL d   1      -1.364   1.039   1.538  0.00  0.00    -0.047 A 
ATOM      6  C4  UNL d   1      -1.364   0.400   0.316  0.00  0.00    -0.004 A 
ENDROOT
TORSDOF 0
ENDMDL
