MODEL 1
REMARK minimizedAffinity -3.96314049
REMARK minimizedRMSD -1
REMARK  0 active torsions:
REMARK  status: ('A' for Active; 'I' for Inactive)
ROOT
ATOM      1  C   UNL d   1       0.498  -0.480  -0.884  0.00  0.00     0.172 C 
ATOM      2  N   UNL d   1      -0.187   0.155   0.217  0.00  0.00    -0.070 N 
ATOM      3  C1  UNL d   1       0.371   1.039   1.102  0.00  0.00    -0.004 A 
ATOM      4  C2  UNL d   1      -0.608   1.414   1.997  0.00  0.00    -0.047 A 
ATOM      5  C3  UNL d   1      -1.794   0.732   1.638  0.00  0.00    -0.047 A 
ATOM      6  C4  UNL d   1      -1.506  -0.040   0.533  0.00  0.00    -0.004 A 
ENDROOT
TORSDOF 0
ENDMDL
