MODEL 1
REMARK minimizedAffinity -3.60314941
REMARK minimizedRMSD -1
REMARK  0 active torsions:
REMARK  status: ('A' for Active; 'I' for Inactive)
ROOT
ATOM      1  C   UNL d   1      -0.988   1.059   2.157  0.00  0.00     0.172 C 
ATOM      2  N   UNL d   1      -0.469   0.486   0.937  0.00  0.00    -0.070 N 
ATOM      3  C1  UNL d   1      -1.218   0.058  -0.126  0.00  0.00    -0.004 A 
ATOM      4  C2  UNL d   1      -0.353  -0.419  -1.087  0.00  0.00    -0.047 A 
ATOM      5  C3  UNL d   1       0.962  -0.273  -0.584  0.00  0.00    -0.047 A 
ATOM      6  C4  UNL d   1       0.861   0.290   0.671  0.00  0.00    -0.004 A 
ENDROOT
TORSDOF 0
ENDMDL
