MODEL 1
REMARK minimizedAffinity -2.93036532
REMARK minimizedRMSD -1
REMARK  0 active torsions:
REMARK  status: ('A' for Active; 'I' for Inactive)
ROOT
ATOM      1  C   UNL d   1       0.657  -0.281  -0.660  0.00  0.00     0.172 C 
ATOM      2  N   UNL d   1      -0.180   0.202   0.414  0.00  0.00    -0.070 N 
ATOM      3  C1  UNL d   1      -1.541   0.071   0.485  0.00  0.00    -0.004 A 
ATOM      4  C2  UNL d   1      -1.960   0.661   1.659  0.00  0.00    -0.047 A 
ATOM      5  C3  UNL d   1      -0.812   1.164   2.314  0.00  0.00    -0.047 A 
ATOM      6  C4  UNL d   1       0.277   0.867   1.521  0.00  0.00    -0.004 A 
ENDROOT
TORSDOF 0
ENDMDL
