MODEL 1
REMARK minimizedAffinity -1.80028141
REMARK minimizedRMSD -1
REMARK  0 active torsions:
REMARK  status: ('A' for Active; 'I' for Inactive)
ROOT
ATOM      1  C   UNL d   1      -0.308  -0.272  -5.570  0.00  0.00     0.172 C 
ATOM      2  N   UNL d   1       0.833   0.274  -4.873  0.00  0.00    -0.070 N 
ATOM      3  C1  UNL d   1       0.782   1.169  -3.838  0.00  0.00    -0.004 A 
ATOM      4  C2  UNL d   1       2.077   1.440  -3.451  0.00  0.00    -0.047 A 
ATOM      5  C3  UNL d   1       2.935   0.682  -4.282  0.00  0.00    -0.047 A 
ATOM      6  C4  UNL d   1       2.138  -0.031  -5.153  0.00  0.00    -0.004 A 
ENDROOT
TORSDOF 0
ENDMDL
