MODEL 1
REMARK minimizedAffinity -3.60463595
REMARK minimizedRMSD -1
REMARK  0 active torsions:
REMARK  status: ('A' for Active; 'I' for Inactive)
ROOT
ATOM      1  C   UNL d   1       0.417  -0.474  -0.926  0.00  0.00     0.172 C 
ATOM      2  N   UNL d   1      -0.120   0.224   0.219  0.00  0.00    -0.070 N 
ATOM      3  C1  UNL d   1      -1.447   0.329   0.540  0.00  0.00    -0.004 A 
ATOM      4  C2  UNL d   1      -1.543   1.068   1.699  0.00  0.00    -0.047 A 
ATOM      5  C3  UNL d   1      -0.228   1.421   2.087  0.00  0.00    -0.047 A 
ATOM      6  C4  UNL d   1       0.633   0.885   1.153  0.00  0.00    -0.004 A 
ENDROOT
TORSDOF 0
ENDMDL
