MODEL 1
REMARK minimizedAffinity 8.33966446
REMARK minimizedRMSD -1
REMARK  0 active torsions:
REMARK  status: ('A' for Active; 'I' for Inactive)
ROOT
ATOM      1  C   UNL d   1      -1.512   0.757  -0.260  0.00  0.00     0.020 A 
ATOM      2  C1  UNL d   1      -0.727  -0.344   0.081  0.00  0.00     0.020 A 
ATOM      3  C2  UNL d   1       0.625  -0.170   0.384  0.00  0.00     0.034 A 
ATOM      4  C3  UNL d   1       1.196   1.107   0.348  0.00  0.00     0.017 A 
ATOM      5  C4  UNL d   1       0.407   2.212   0.006  0.00  0.00     0.017 A 
ATOM      6  C5  UNL d   1      -0.946   2.032  -0.297  0.00  0.00     0.034 A 
ATOM      7 Cl   UNL d   1       1.040   3.819  -0.060  0.00  0.00    -0.070 Cl
ATOM      8 Cl1  UNL d   1       2.874   1.249   0.735  0.00  0.00    -0.070 Cl
ENDROOT
TORSDOF 0
ENDMDL
