MODEL 1
REMARK minimizedAffinity 4.8067584
REMARK minimizedRMSD -1
REMARK  0 active torsions:
REMARK  status: ('A' for Active; 'I' for Inactive)
ROOT
ATOM      1  C   UNL d   1       2.612  -5.927  -2.577  0.00  0.00     0.020 A 
ATOM      2  C1  UNL d   1       3.958  -5.755  -2.898  0.00  0.00     0.020 A 
ATOM      3  C2  UNL d   1       4.910  -5.656  -1.882  0.00  0.00     0.034 A 
ATOM      4  C3  UNL d   1       4.519  -5.728  -0.540  0.00  0.00     0.017 A 
ATOM      5  C4  UNL d   1       3.167  -5.901  -0.219  0.00  0.00     0.017 A 
ATOM      6  C5  UNL d   1       2.218  -6.000  -1.241  0.00  0.00     0.034 A 
ATOM      7 Cl   UNL d   1       2.608  -5.999   1.413  0.00  0.00    -0.070 Cl
ATOM      8 Cl1  UNL d   1       5.750  -5.598   0.664  0.00  0.00    -0.070 Cl
ENDROOT
TORSDOF 0
ENDMDL
