MODEL 1
REMARK minimizedAffinity 5.47093201
REMARK minimizedRMSD -1
REMARK  0 active torsions:
REMARK  status: ('A' for Active; 'I' for Inactive)
ROOT
ATOM      1  C   UNL d   1       2.615  -5.992  -1.417  0.00  0.00     0.020 A 
ATOM      2  C1  UNL d   1       3.945  -5.998  -0.998  0.00  0.00     0.020 A 
ATOM      3  C2  UNL d   1       4.975  -6.000  -1.942  0.00  0.00     0.034 A 
ATOM      4  C3  UNL d   1       4.676  -5.995  -3.309  0.00  0.00     0.017 A 
ATOM      5  C4  UNL d   1       3.341  -5.988  -3.729  0.00  0.00     0.017 A 
ATOM      6  C5  UNL d   1       2.314  -5.986  -2.779  0.00  0.00     0.034 A 
ATOM      7 Cl   UNL d   1       2.894  -5.981  -5.398  0.00  0.00    -0.070 Cl
ATOM      8 Cl1  UNL d   1       5.999  -5.996  -4.420  0.00  0.00    -0.070 Cl
ENDROOT
TORSDOF 0
ENDMDL
