MODEL 1
REMARK minimizedAffinity 2.18077302
REMARK minimizedRMSD -1
REMARK  0 active torsions:
REMARK  status: ('A' for Active; 'I' for Inactive)
ROOT
ATOM      1  C   UNL d   1       5.631  -5.997  -4.949  0.00  0.00     0.020 A 
ATOM      2  C1  UNL d   1       4.706  -5.997  -5.992  0.00  0.00     0.020 A 
ATOM      3  C2  UNL d   1       3.338  -5.998  -5.712  0.00  0.00     0.034 A 
ATOM      4  C3  UNL d   1       2.891  -5.999  -4.386  0.00  0.00     0.017 A 
ATOM      5  C4  UNL d   1       3.820  -5.999  -3.339  0.00  0.00     0.017 A 
ATOM      6  C5  UNL d   1       5.189  -5.998  -3.625  0.00  0.00     0.034 A 
ATOM      7 Cl   UNL d   1       3.345  -6.000  -1.678  0.00  0.00    -0.070 Cl
ATOM      8 Cl1  UNL d   1       1.185  -5.999  -4.113  0.00  0.00    -0.070 Cl
ENDROOT
TORSDOF 0
ENDMDL
