MODEL 1
REMARK minimizedAffinity 7.23421764
REMARK minimizedRMSD -1
REMARK  0 active torsions:
REMARK  status: ('A' for Active; 'I' for Inactive)
ROOT
ATOM      1  C   UNL d   1       4.870  -5.891  -2.304  0.00  0.00     0.020 A 
ATOM      2  C1  UNL d   1       3.485  -5.745  -2.232  0.00  0.00     0.020 A 
ATOM      3  C2  UNL d   1       2.854  -5.676  -0.988  0.00  0.00     0.034 A 
ATOM      4  C3  UNL d   1       3.608  -5.751   0.188  0.00  0.00     0.017 A 
ATOM      5  C4  UNL d   1       4.998  -5.898   0.115  0.00  0.00     0.017 A 
ATOM      6  C5  UNL d   1       5.625  -5.967  -1.133  0.00  0.00     0.034 A 
ATOM      7 Cl   UNL d   1       5.995  -5.998   1.523  0.00  0.00    -0.070 Cl
ATOM      8 Cl1  UNL d   1       2.762  -5.658   1.692  0.00  0.00    -0.070 Cl
ENDROOT
TORSDOF 0
ENDMDL
