MODEL 1
REMARK minimizedAffinity 7.98616743
REMARK minimizedRMSD -1
REMARK  0 active torsions:
REMARK  status: ('A' for Active; 'I' for Inactive)
ROOT
ATOM      1  C   UNL d   1       1.598  -4.827   4.234  0.00  0.00     0.020 A 
ATOM      2  C1  UNL d   1       0.654  -4.097   3.512  0.00  0.00     0.020 A 
ATOM      3  C2  UNL d   1       1.004  -2.868   2.950  0.00  0.00     0.034 A 
ATOM      4  C3  UNL d   1       2.300  -2.364   3.109  0.00  0.00     0.017 A 
ATOM      5  C4  UNL d   1       3.246  -3.097   3.833  0.00  0.00     0.017 A 
ATOM      6  C5  UNL d   1       2.891  -4.328   4.394  0.00  0.00     0.034 A 
ATOM      7 Cl   UNL d   1       4.865  -2.541   4.072  0.00  0.00    -0.070 Cl
ATOM      8 Cl1  UNL d   1       2.663  -0.837   2.386  0.00  0.00    -0.070 Cl
ENDROOT
TORSDOF 0
ENDMDL
