MODEL 1
REMARK minimizedAffinity 6.27043533
REMARK minimizedRMSD -1
REMARK  0 active torsions:
REMARK  status: ('A' for Active; 'I' for Inactive)
ROOT
ATOM      1  C   UNL d   1       1.406  -5.989  -5.976  0.00  0.00     0.020 A 
ATOM      2  C1  UNL d   1       0.706  -5.999  -4.770  0.00  0.00     0.020 A 
ATOM      3  C2  UNL d   1       1.401  -5.999  -3.559  0.00  0.00     0.034 A 
ATOM      4  C3  UNL d   1       2.801  -5.989  -3.552  0.00  0.00     0.017 A 
ATOM      5  C4  UNL d   1       3.503  -5.979  -4.763  0.00  0.00     0.017 A 
ATOM      6  C5  UNL d   1       2.801  -5.979  -5.972  0.00  0.00     0.034 A 
ATOM      7 Cl   UNL d   1       5.230  -5.967  -4.833  0.00  0.00    -0.070 Cl
ATOM      8 Cl1  UNL d   1       3.596  -5.990  -2.017  0.00  0.00    -0.070 Cl
ENDROOT
TORSDOF 0
ENDMDL
