MODEL 1
REMARK minimizedAffinity 4.0867734
REMARK minimizedRMSD -1
REMARK  0 active torsions:
REMARK  status: ('A' for Active; 'I' for Inactive)
ROOT
ATOM      1  C   UNL d   1       4.512  -5.638  -3.345  0.00  0.00     0.020 A 
ATOM      2  C1  UNL d   1       3.323  -5.892  -4.027  0.00  0.00     0.020 A 
ATOM      3  C2  UNL d   1       2.122  -6.000  -3.321  0.00  0.00     0.034 A 
ATOM      4  C3  UNL d   1       2.109  -5.854  -1.929  0.00  0.00     0.017 A 
ATOM      5  C4  UNL d   1       3.303  -5.600  -1.245  0.00  0.00     0.017 A 
ATOM      6  C5  UNL d   1       4.502  -5.493  -1.957  0.00  0.00     0.034 A 
ATOM      7 Cl   UNL d   1       3.366  -5.408   0.471  0.00  0.00    -0.070 Cl
ATOM      8 Cl1  UNL d   1       0.589  -6.000  -1.121  0.00  0.00    -0.070 Cl
ENDROOT
TORSDOF 0
ENDMDL
