MODEL 1
REMARK minimizedAffinity 2.7136116
REMARK minimizedRMSD -1
REMARK  0 active torsions:
REMARK  status: ('A' for Active; 'I' for Inactive)
ROOT
ATOM      1  C   UNL d   1       1.652  -5.999  -0.115  0.00  0.00     0.020 A 
ATOM      2  C1  UNL d   1       2.980  -5.983   0.309  0.00  0.00     0.020 A 
ATOM      3  C2  UNL d   1       4.013  -5.967  -0.631  0.00  0.00     0.034 A 
ATOM      4  C3  UNL d   1       3.719  -5.968  -2.000  0.00  0.00     0.017 A 
ATOM      5  C4  UNL d   1       2.385  -5.984  -2.424  0.00  0.00     0.017 A 
ATOM      6  C5  UNL d   1       1.355  -5.999  -1.479  0.00  0.00     0.034 A 
ATOM      7 Cl   UNL d   1       1.945  -5.985  -4.095  0.00  0.00    -0.070 Cl
ATOM      8 Cl1  UNL d   1       5.046  -5.948  -3.106  0.00  0.00    -0.070 Cl
ENDROOT
TORSDOF 0
ENDMDL
