MODEL 1
REMARK minimizedAffinity -2.91581774
REMARK minimizedRMSD -1
REMARK  0 active torsions:
REMARK  status: ('A' for Active; 'I' for Inactive)
ROOT
ATOM      1  C   UNL d   1       0.918   1.061   0.298  0.00  0.00     0.172 C 
ATOM      2  N   UNL d   1       1.560  -0.223   0.460  0.00  0.00    -0.070 N 
ATOM      3  C1  UNL d   1       1.512  -1.258  -0.436  0.00  0.00    -0.004 A 
ATOM      4  C2  UNL d   1       2.248  -2.300   0.085  0.00  0.00    -0.047 A 
ATOM      5  C3  UNL d   1       2.755  -1.878   1.337  0.00  0.00    -0.047 A 
ATOM      6  C4  UNL d   1       2.313  -0.588   1.544  0.00  0.00    -0.004 A 
ENDROOT
TORSDOF 0
ENDMDL
