MODEL 1
REMARK minimizedAffinity -3.65657592
REMARK minimizedRMSD -1
REMARK  0 active torsions:
REMARK  status: ('A' for Active; 'I' for Inactive)
ROOT
ATOM      1  C   UNL d   1      -0.318   0.651  -0.160  0.00  0.00     0.172 C 
ATOM      2  N   UNL d   1       0.557  -0.481   0.037  0.00  0.00    -0.070 N 
ATOM      3  C1  UNL d   1       1.313  -0.720   1.153  0.00  0.00    -0.004 A 
ATOM      4  C2  UNL d   1       2.005  -1.894   0.951  0.00  0.00    -0.047 A 
ATOM      5  C3  UNL d   1       1.652  -2.378  -0.332  0.00  0.00    -0.047 A 
ATOM      6  C4  UNL d   1       0.754  -1.483  -0.875  0.00  0.00    -0.004 A 
ENDROOT
TORSDOF 0
ENDMDL
