MODEL 1
REMARK minimizedAffinity -2.68078756
REMARK minimizedRMSD -1
REMARK  0 active torsions:
REMARK  status: ('A' for Active; 'I' for Inactive)
ROOT
ATOM      1  C   UNL d   1      -1.657   0.762  -0.217  0.00  0.00     0.172 C 
ATOM      2  N   UNL d   1      -0.544  -0.150  -0.095  0.00  0.00    -0.070 N 
ATOM      3  C1  UNL d   1      -0.404  -1.333  -0.770  0.00  0.00    -0.004 A 
ATOM      4  C2  UNL d   1       0.787  -1.905  -0.378  0.00  0.00    -0.047 A 
ATOM      5  C3  UNL d   1       1.382  -1.036   0.567  0.00  0.00    -0.047 A 
ATOM      6  C4  UNL d   1       0.537   0.042   0.724  0.00  0.00    -0.004 A 
ENDROOT
TORSDOF 0
ENDMDL
