MODEL 1
REMARK minimizedAffinity -3.69944501
REMARK minimizedRMSD -1
REMARK  0 active torsions:
REMARK  status: ('A' for Active; 'I' for Inactive)
ROOT
ATOM      1  C   UNL d   1      -0.681  -0.033  -0.009  0.00  0.00     0.172 C 
ATOM      2  N   UNL d   1       0.549  -0.772   0.145  0.00  0.00    -0.070 N 
ATOM      3  C1  UNL d   1       0.932  -1.851  -0.605  0.00  0.00    -0.004 A 
ATOM      4  C2  UNL d   1       2.163  -2.268  -0.149  0.00  0.00    -0.047 A 
ATOM      5  C3  UNL d   1       2.534  -1.410   0.914  0.00  0.00    -0.047 A 
ATOM      6  C4  UNL d   1       1.517  -0.493   1.075  0.00  0.00    -0.004 A 
ENDROOT
TORSDOF 0
ENDMDL
