MODEL 1
REMARK minimizedAffinity -2.94593525
REMARK minimizedRMSD -1
REMARK  0 active torsions:
REMARK  status: ('A' for Active; 'I' for Inactive)
ROOT
ATOM      1  C   UNL d   1      -0.930   0.821  -0.195  0.00  0.00     0.172 C 
ATOM      2  N   UNL d   1       0.181  -0.077   0.014  0.00  0.00    -0.070 N 
ATOM      3  C1  UNL d   1       0.541  -1.108  -0.812  0.00  0.00    -0.004 A 
ATOM      4  C2  UNL d   1       1.648  -1.721  -0.265  0.00  0.00    -0.047 A 
ATOM      5  C3  UNL d   1       1.964  -1.034   0.931  0.00  0.00    -0.047 A 
ATOM      6  C4  UNL d   1       1.040  -0.022   1.080  0.00  0.00    -0.004 A 
ENDROOT
TORSDOF 0
ENDMDL
