MODEL 1
REMARK minimizedAffinity -3.29457712
REMARK minimizedRMSD -1
REMARK  0 active torsions:
REMARK  status: ('A' for Active; 'I' for Inactive)
ROOT
ATOM      1  C   UNL d   1      -0.137   0.659  -0.198  0.00  0.00     0.172 C 
ATOM      2  N   UNL d   1       1.012  -0.210  -0.105  0.00  0.00    -0.070 N 
ATOM      3  C1  UNL d   1       2.306   0.195   0.083  0.00  0.00    -0.004 A 
ATOM      4  C2  UNL d   1       3.101  -0.931   0.116  0.00  0.00    -0.047 A 
ATOM      5  C3  UNL d   1       2.254  -2.051  -0.059  0.00  0.00    -0.047 A 
ATOM      6  C4  UNL d   1       0.967  -1.576  -0.194  0.00  0.00    -0.004 A 
ENDROOT
TORSDOF 0
ENDMDL
