MODEL 1
REMARK minimizedAffinity -3.97292185
REMARK minimizedRMSD -1
REMARK  0 active torsions:
REMARK  status: ('A' for Active; 'I' for Inactive)
ROOT
ATOM      1  C   UNL d   1      -1.102   0.590  -0.238  0.00  0.00     0.172 C 
ATOM      2  N   UNL d   1       0.125  -0.135  -0.005  0.00  0.00    -0.070 N 
ATOM      3  C1  UNL d   1       0.389  -1.412  -0.422  0.00  0.00    -0.004 A 
ATOM      4  C2  UNL d   1       1.661  -1.738  -0.004  0.00  0.00    -0.047 A 
ATOM      5  C3  UNL d   1       2.179  -0.619   0.690  0.00  0.00    -0.047 A 
ATOM      6  C4  UNL d   1       1.207   0.359   0.674  0.00  0.00    -0.004 A 
ENDROOT
TORSDOF 0
ENDMDL
