MODEL 1
REMARK minimizedAffinity -4.94537878
REMARK minimizedRMSD -1
REMARK  0 active torsions:
REMARK  status: ('A' for Active; 'I' for Inactive)
ROOT
ATOM      1  C2' OXE d   1      -0.567   0.776  -0.680  0.00  0.00     0.078 C 
ATOM      2  C1' OXE d   1       1.545   2.216   0.481  0.00  0.00     0.078 C 
ATOM      3  C1  OXE d   1       1.652   0.711   0.451  0.00  0.00    -0.078 A 
ATOM      4  C2  OXE d   1       0.593   0.013  -0.077  0.00  0.00    -0.078 A 
ATOM      5  C3  OXE d   1       0.664  -1.373  -0.180  0.00  0.00     0.003 A 
ATOM      6  C4  OXE d   1       1.736  -2.072   0.389  0.00  0.00    -0.002 A 
ATOM      7  C5  OXE d   1       2.806  -1.382   0.967  0.00  0.00    -0.002 A 
ATOM      8  C6  OXE d   1       2.800   0.009   0.968  0.00  0.00     0.003 A 
ENDROOT
TORSDOF 0
ENDMDL
