MODEL 1
REMARK minimizedAffinity -4.94048834
REMARK minimizedRMSD -1
REMARK  0 active torsions:
REMARK  status: ('A' for Active; 'I' for Inactive)
ROOT
ATOM      1  C2' OXE d   1      -0.781  -1.543  -1.028  0.00  0.00     0.078 C 
ATOM      2  C1' OXE d   1      -1.108   0.940   0.241  0.00  0.00     0.078 C 
ATOM      3  C1  OXE d   1       0.201   0.217   0.436  0.00  0.00    -0.078 A 
ATOM      4  C2  OXE d   1       0.335  -1.019  -0.150  0.00  0.00    -0.078 A 
ATOM      5  C3  OXE d   1       1.542  -1.703  -0.048  0.00  0.00     0.003 A 
ATOM      6  C4  OXE d   1       2.566  -1.216   0.774  0.00  0.00    -0.002 A 
ATOM      7  C5  OXE d   1       2.435   0.022   1.412  0.00  0.00    -0.002 A 
ATOM      8  C6  OXE d   1       1.278   0.769   1.220  0.00  0.00     0.003 A 
ENDROOT
TORSDOF 0
ENDMDL
