MODEL 1
REMARK minimizedAffinity -2.6359961
REMARK minimizedRMSD -1
REMARK  0 active torsions:
REMARK  status: ('A' for Active; 'I' for Inactive)
ROOT
ATOM      1  C2' OXE d   1      -1.363   0.556   0.103  0.00  0.00     0.078 C 
ATOM      2  C1' OXE d   1      -0.979  -1.531  -1.735  0.00  0.00     0.078 C 
ATOM      3  C1  OXE d   1       0.109  -1.276  -0.722  0.00  0.00    -0.078 A 
ATOM      4  C2  OXE d   1      -0.067  -0.224   0.143  0.00  0.00    -0.078 A 
ATOM      5  C3  OXE d   1       0.881   0.021   1.133  0.00  0.00     0.003 A 
ATOM      6  C4  OXE d   1       2.082  -0.698   1.158  0.00  0.00    -0.002 A 
ATOM      7  C5  OXE d   1       2.299  -1.749   0.260  0.00  0.00    -0.002 A 
ATOM      8  C6  OXE d   1       1.306  -2.078  -0.657  0.00  0.00     0.003 A 
ENDROOT
TORSDOF 0
ENDMDL
