MODEL 1
REMARK minimizedAffinity -5.26724195
REMARK minimizedRMSD -1
REMARK  0 active torsions:
REMARK  status: ('A' for Active; 'I' for Inactive)
ROOT
ATOM      1  C2' OXE d   1      -0.697  -0.273  -0.393  0.00  0.00     0.078 C 
ATOM      2  C1' OXE d   1       0.715   2.146  -0.210  0.00  0.00     0.078 C 
ATOM      3  C1  OXE d   1       1.506   0.864  -0.150  0.00  0.00    -0.078 A 
ATOM      4  C2  OXE d   1       0.803  -0.316  -0.193  0.00  0.00    -0.078 A 
ATOM      5  C3  OXE d   1       1.488  -1.528  -0.197  0.00  0.00     0.003 A 
ATOM      6  C4  OXE d   1       2.875  -1.558  -0.002  0.00  0.00    -0.002 A 
ATOM      7  C5  OXE d   1       3.606  -0.369   0.085  0.00  0.00    -0.002 A 
ATOM      8  C6  OXE d   1       2.943   0.848  -0.030  0.00  0.00     0.003 A 
ENDROOT
TORSDOF 0
ENDMDL
