MODEL 1
REMARK minimizedAffinity -4.3333559
REMARK minimizedRMSD -1
REMARK  0 active torsions:
REMARK  status: ('A' for Active; 'I' for Inactive)
ROOT
ATOM      1  C2' OXE d   1       1.274   1.755   0.772  0.00  0.00     0.078 C 
ATOM      2  C1' OXE d   1      -1.003   0.689  -0.478  0.00  0.00     0.078 C 
ATOM      3  C1  OXE d   1       0.136  -0.251  -0.170  0.00  0.00    -0.078 A 
ATOM      4  C2  OXE d   1       1.265   0.288   0.399  0.00  0.00    -0.078 A 
ATOM      5  C3  OXE d   1       2.323  -0.544   0.753  0.00  0.00     0.003 A 
ATOM      6  C4  OXE d   1       2.311  -1.898   0.395  0.00  0.00    -0.002 A 
ATOM      7  C5  OXE d   1       1.187  -2.459  -0.221  0.00  0.00    -0.002 A 
ATOM      8  C6  OXE d   1       0.077  -1.660  -0.472  0.00  0.00     0.003 A 
ENDROOT
TORSDOF 0
ENDMDL
