MODEL 1
REMARK minimizedAffinity 1.4321568
REMARK minimizedRMSD -1
REMARK  0 active torsions:
REMARK  status: ('A' for Active; 'I' for Inactive)
ROOT
ATOM      1  N1  IND d   1       4.168  -5.913  -6.000  0.00  0.00    -0.196 N 
ATOM      2  C2  IND d   1       5.532  -5.999  -5.966  0.00  0.00     0.054 A 
ATOM      3  C3  IND d   1       5.974  -5.965  -4.688  0.00  0.00    -0.031 A 
ATOM      4  C4  IND d   1       4.629  -5.875  -2.495  0.00  0.00     0.051 A 
ATOM      5  C5  IND d   1       3.355  -5.748  -2.017  0.00  0.00    -0.031 A 
ATOM      6  C6  IND d   1       2.264  -5.671  -2.859  0.00  0.00     0.015 A 
ATOM      7  C7  IND d   1       2.407  -5.730  -4.217  0.00  0.00    -0.016 A 
ATOM      8  C8  IND d   1       3.700  -5.851  -4.706  0.00  0.00    -0.047 A 
ATOM      9  C9  IND d   1       4.814  -5.887  -3.857  0.00  0.00    -0.096 A 
ATOM     10  HN1 IND d   1       3.684  -5.901  -6.710  0.00  0.00     0.298 HD
ENDROOT
TORSDOF 0
ENDMDL
