MODEL 1
REMARK minimizedAffinity -1.11494732
REMARK minimizedRMSD -1
REMARK  0 active torsions:
REMARK  status: ('A' for Active; 'I' for Inactive)
ROOT
ATOM      1  N1  IND d   1       2.026  -5.333  -3.848  0.00  0.00    -0.196 N 
ATOM      2  C2  IND d   1       1.377  -5.736  -4.982  0.00  0.00     0.054 A 
ATOM      3  C3  IND d   1       2.256  -5.886  -5.999  0.00  0.00    -0.031 A 
ATOM      4  C4  IND d   1       4.817  -5.623  -6.000  0.00  0.00     0.051 A 
ATOM      5  C5  IND d   1       5.860  -5.234  -5.207  0.00  0.00    -0.031 A 
ATOM      6  C6  IND d   1       5.675  -4.853  -3.894  0.00  0.00     0.015 A 
ATOM      7  C7  IND d   1       4.436  -4.857  -3.318  0.00  0.00    -0.016 A 
ATOM      8  C8  IND d   1       3.374  -5.246  -4.122  0.00  0.00    -0.047 A 
ATOM      9  C9  IND d   1       3.549  -5.593  -5.468  0.00  0.00    -0.096 A 
ATOM     10  HN1 IND d   1       1.655  -5.163  -3.091  0.00  0.00     0.298 HD
ENDROOT
TORSDOF 0
ENDMDL
