MODEL 1
REMARK minimizedAffinity -2.42666841
REMARK minimizedRMSD -1
REMARK  0 active torsions:
REMARK  status: ('A' for Active; 'I' for Inactive)
ROOT
ATOM      1  N1  IND d   1       2.432  -5.720  -4.723  0.00  0.00    -0.196 N 
ATOM      2  C2  IND d   1       2.877  -5.468  -5.991  0.00  0.00     0.054 A 
ATOM      3  C3  IND d   1       4.222  -5.335  -6.000  0.00  0.00    -0.031 A 
ATOM      4  C4  IND d   1       5.904  -5.593  -4.068  0.00  0.00     0.051 A 
ATOM      5  C5  IND d   1       5.971  -5.786  -2.716  0.00  0.00    -0.031 A 
ATOM      6  C6  IND d   1       4.839  -5.974  -1.950  0.00  0.00     0.015 A 
ATOM      7  C7  IND d   1       3.593  -5.986  -2.511  0.00  0.00    -0.016 A 
ATOM      8  C8  IND d   1       3.521  -5.784  -3.881  0.00  0.00    -0.047 A 
ATOM      9  C9  IND d   1       4.663  -5.550  -4.658  0.00  0.00    -0.096 A 
ATOM     10  HN1 IND d   1       1.611  -5.822  -4.491  0.00  0.00     0.298 HD
ENDROOT
TORSDOF 0
ENDMDL
