MODEL 1
REMARK minimizedAffinity 2.11556244
REMARK minimizedRMSD -1
REMARK  0 active torsions:
REMARK  status: ('A' for Active; 'I' for Inactive)
ROOT
ATOM      1  N1  IND d   1      -2.296   3.501  -5.990  0.00  0.00    -0.196 N 
ATOM      2  C2  IND d   1      -1.548   2.564  -5.333  0.00  0.00     0.054 A 
ATOM      3  C3  IND d   1      -2.332   1.823  -4.518  0.00  0.00    -0.031 A 
ATOM      4  C4  IND d   1      -4.883   1.906  -4.184  0.00  0.00     0.051 A 
ATOM      5  C5  IND d   1      -5.993   2.620  -4.540  0.00  0.00    -0.031 A 
ATOM      6  C6  IND d   1      -5.927   3.683  -5.417  0.00  0.00     0.015 A 
ATOM      7  C7  IND d   1      -4.744   4.067  -5.982  0.00  0.00    -0.016 A 
ATOM      8  C8  IND d   1      -3.613   3.349  -5.618  0.00  0.00    -0.047 A 
ATOM      9  C9  IND d   1      -3.668   2.296  -4.696  0.00  0.00    -0.096 A 
ATOM     10  HN1 IND d   1      -1.994   4.086  -6.543  0.00  0.00     0.298 HD
ENDROOT
TORSDOF 0
ENDMDL
