MODEL 1
REMARK minimizedAffinity 1.71192932
REMARK minimizedRMSD -1
REMARK  0 active torsions:
REMARK  status: ('A' for Active; 'I' for Inactive)
ROOT
ATOM      1  N1  IND d   1      -4.683   6.000  -5.609  0.00  0.00    -0.196 N 
ATOM      2  C2  IND d   1      -5.923   5.576  -6.000  0.00  0.00     0.054 A 
ATOM      3  C3  IND d   1      -5.997   4.227  -5.948  0.00  0.00    -0.031 A 
ATOM      4  C4  IND d   1      -4.239   2.522  -5.155  0.00  0.00     0.051 A 
ATOM      5  C5  IND d   1      -2.940   2.428  -4.738  0.00  0.00    -0.031 A 
ATOM      6  C6  IND d   1      -2.141   3.543  -4.585  0.00  0.00     0.015 A 
ATOM      7  C7  IND d   1      -2.616   4.799  -4.833  0.00  0.00    -0.016 A 
ATOM      8  C8  IND d   1      -3.932   4.898  -5.263  0.00  0.00    -0.047 A 
ATOM      9  C9  IND d   1      -4.735   3.767  -5.461  0.00  0.00    -0.096 A 
ATOM     10  HN1 IND d   1      -4.417   6.817  -5.584  0.00  0.00     0.298 HD
ENDROOT
TORSDOF 0
ENDMDL
