MODEL 1
REMARK minimizedAffinity 6.0637722
REMARK minimizedRMSD -1
REMARK  0 active torsions:
REMARK  status: ('A' for Active; 'I' for Inactive)
ROOT
ATOM      1  N1  IND d   1       2.650  -4.647  -5.255  0.00  0.00    -0.196 N 
ATOM      2  C2  IND d   1       3.752  -4.323  -5.997  0.00  0.00     0.054 A 
ATOM      3  C3  IND d   1       4.880  -4.560  -5.291  0.00  0.00    -0.031 A 
ATOM      4  C4  IND d   1       5.157  -5.575  -2.941  0.00  0.00     0.051 A 
ATOM      5  C5  IND d   1       4.437  -5.996  -1.858  0.00  0.00    -0.031 A 
ATOM      6  C6  IND d   1       3.057  -5.991  -1.853  0.00  0.00     0.015 A 
ATOM      7  C7  IND d   1       2.342  -5.574  -2.940  0.00  0.00    -0.016 A 
ATOM      8  C8  IND d   1       3.070  -5.139  -4.039  0.00  0.00    -0.047 A 
ATOM      9  C9  IND d   1       4.470  -5.102  -4.034  0.00  0.00    -0.096 A 
ATOM     10  HN1 IND d   1       1.833  -4.558  -5.506  0.00  0.00     0.298 HD
ENDROOT
TORSDOF 0
ENDMDL
