MODEL 1
REMARK minimizedAffinity -0.550007164
REMARK minimizedRMSD -1
REMARK  0 active torsions:
REMARK  status: ('A' for Active; 'I' for Inactive)
ROOT
ATOM      1  N1  IND d   1      -2.389   4.162  -4.907  0.00  0.00    -0.196 N 
ATOM      2  C2  IND d   1      -1.606   3.049  -5.037  0.00  0.00     0.054 A 
ATOM      3  C3  IND d   1      -2.354   1.991  -5.423  0.00  0.00    -0.031 A 
ATOM      4  C4  IND d   1      -4.860   1.883  -5.999  0.00  0.00     0.051 A 
ATOM      5  C5  IND d   1      -6.000   2.637  -5.996  0.00  0.00    -0.031 A 
ATOM      6  C6  IND d   1      -5.993   3.966  -5.625  0.00  0.00     0.015 A 
ATOM      7  C7  IND d   1      -4.840   4.596  -5.252  0.00  0.00    -0.016 A 
ATOM      8  C8  IND d   1      -3.682   3.831  -5.248  0.00  0.00    -0.047 A 
ATOM      9  C9  IND d   1      -3.690   2.471  -5.582  0.00  0.00    -0.096 A 
ATOM     10  HN1 IND d   1      -2.119   4.939  -4.655  0.00  0.00     0.298 HD
ENDROOT
TORSDOF 0
ENDMDL
