MODEL 1
REMARK minimizedAffinity 0.63512069
REMARK minimizedRMSD -1
REMARK  0 active torsions:
REMARK  status: ('A' for Active; 'I' for Inactive)
ROOT
ATOM      1  N1  IND d   1      -2.521   4.471  -5.987  0.00  0.00    -0.196 N 
ATOM      2  C2  IND d   1      -1.498   3.754  -5.433  0.00  0.00     0.054 A 
ATOM      3  C3  IND d   1      -1.983   2.688  -4.758  0.00  0.00    -0.031 A 
ATOM      4  C4  IND d   1      -4.413   1.872  -4.517  0.00  0.00     0.051 A 
ATOM      5  C5  IND d   1      -5.701   2.219  -4.817  0.00  0.00    -0.031 A 
ATOM      6  C6  IND d   1      -6.000   3.356  -5.539  0.00  0.00     0.015 A 
ATOM      7  C7  IND d   1      -5.018   4.186  -6.000  0.00  0.00    -0.016 A 
ATOM      8  C8  IND d   1      -3.710   3.841  -5.691  0.00  0.00    -0.047 A 
ATOM      9  C9  IND d   1      -3.402   2.711  -4.922  0.00  0.00    -0.096 A 
ATOM     10  HN1 IND d   1      -2.436   5.195  -6.443  0.00  0.00     0.298 HD
ENDROOT
TORSDOF 0
ENDMDL
