MODEL 1
REMARK minimizedAffinity 1.95660329
REMARK minimizedRMSD -1
REMARK  0 active torsions:
REMARK  status: ('A' for Active; 'I' for Inactive)
ROOT
ATOM      1  N1  IND d   1       3.540  -4.916  -5.994  0.00  0.00    -0.196 N 
ATOM      2  C2  IND d   1       2.283  -5.454  -5.988  0.00  0.00     0.054 A 
ATOM      3  C3  IND d   1       2.004  -5.985  -4.777  0.00  0.00    -0.031 A 
ATOM      4  C4  IND d   1       3.425  -5.996  -2.630  0.00  0.00     0.051 A 
ATOM      5  C5  IND d   1       4.660  -5.657  -2.154  0.00  0.00    -0.031 A 
ATOM      6  C6  IND d   1       5.604  -5.039  -2.949  0.00  0.00     0.015 A 
ATOM      7  C7  IND d   1       5.341  -4.725  -4.253  0.00  0.00    -0.016 A 
ATOM      8  C8  IND d   1       4.090  -5.074  -4.741  0.00  0.00    -0.047 A 
ATOM      9  C9  IND d   1       3.144  -5.740  -3.951  0.00  0.00    -0.096 A 
ATOM     10  HN1 IND d   1       3.922  -4.542  -6.667  0.00  0.00     0.298 HD
ENDROOT
TORSDOF 0
ENDMDL
