MODEL 1
REMARK minimizedAffinity -2.1175344
REMARK minimizedRMSD -1
REMARK  0 active torsions:
REMARK  status: ('A' for Active; 'I' for Inactive)
ROOT
ATOM      1  N1  IND d   1       5.993  -5.254  -4.317  0.00  0.00    -0.196 N 
ATOM      2  C2  IND d   1       5.833  -5.232  -5.674  0.00  0.00     0.054 A 
ATOM      3  C3  IND d   1       4.545  -5.481  -6.000  0.00  0.00    -0.031 A 
ATOM      4  C4  IND d   1       2.512  -5.853  -4.465  0.00  0.00     0.051 A 
ATOM      5  C5  IND d   1       2.167  -5.999  -3.150  0.00  0.00    -0.031 A 
ATOM      6  C6  IND d   1       3.099  -5.900  -2.137  0.00  0.00     0.015 A 
ATOM      7  C7  IND d   1       4.413  -5.638  -2.401  0.00  0.00    -0.016 A 
ATOM      8  C8  IND d   1       4.768  -5.496  -3.735  0.00  0.00    -0.047 A 
ATOM      9  C9  IND d   1       3.835  -5.638  -4.770  0.00  0.00    -0.096 A 
ATOM     10  HN1 IND d   1       6.734  -5.137  -3.897  0.00  0.00     0.298 HD
ENDROOT
TORSDOF 0
ENDMDL
