MODEL 1
REMARK minimizedAffinity -0.97519511
REMARK minimizedRMSD -1
REMARK  0 active torsions:
REMARK  status: ('A' for Active; 'I' for Inactive)
ROOT
ATOM      1  N1  IND d   1       4.264  -5.367  -2.020  0.00  0.00    -0.196 N 
ATOM      2  C2  IND d   1       2.970  -5.194  -1.614  0.00  0.00     0.054 A 
ATOM      3  C3  IND d   1       2.130  -5.281  -2.670  0.00  0.00    -0.031 A 
ATOM      4  C4  IND d   1       2.653  -5.802  -5.137  0.00  0.00     0.051 A 
ATOM      5  C5  IND d   1       3.695  -6.000  -5.999  0.00  0.00    -0.031 A 
ATOM      6  C6  IND d   1       5.006  -5.999  -5.569  0.00  0.00     0.015 A 
ATOM      7  C7  IND d   1       5.325  -5.811  -4.254  0.00  0.00    -0.016 A 
ATOM      8  C8  IND d   1       4.270  -5.603  -3.377  0.00  0.00    -0.047 A 
ATOM      9  C9  IND d   1       2.940  -5.561  -3.814  0.00  0.00    -0.096 A 
ATOM     10  HN1 IND d   1       4.958  -5.333  -1.513  0.00  0.00     0.298 HD
ENDROOT
TORSDOF 0
ENDMDL
