MODEL 1
REMARK minimizedAffinity -4.03789186
REMARK minimizedRMSD -1
REMARK  0 active torsions:
REMARK  status: ('A' for Active; 'I' for Inactive)
ROOT
ATOM      1  N1  IND d   1       3.456  -5.925  -5.965  0.00  0.00    -0.196 N 
ATOM      2  C2  IND d   1       2.133  -5.997  -5.628  0.00  0.00     0.054 A 
ATOM      3  C3  IND d   1       1.983  -5.906  -4.287  0.00  0.00    -0.031 A 
ATOM      4  C4  IND d   1       3.763  -5.532  -2.465  0.00  0.00     0.051 A 
ATOM      5  C5  IND d   1       5.114  -5.440  -2.282  0.00  0.00    -0.031 A 
ATOM      6  C6  IND d   1       5.999  -5.504  -3.339  0.00  0.00     0.015 A 
ATOM      7  C7  IND d   1       5.564  -5.651  -4.625  0.00  0.00    -0.016 A 
ATOM      8  C8  IND d   1       4.193  -5.751  -4.814  0.00  0.00    -0.047 A 
ATOM      9  C9  IND d   1       3.292  -5.730  -3.742  0.00  0.00    -0.096 A 
ATOM     10  HN1 IND d   1       3.774  -5.979  -6.762  0.00  0.00     0.298 HD
ENDROOT
TORSDOF 0
ENDMDL
