MODEL 1
REMARK minimizedAffinity 0.275158376
REMARK minimizedRMSD -1
REMARK  0 active torsions:
REMARK  status: ('A' for Active; 'I' for Inactive)
ROOT
ATOM      1  N1  IND d   1      -2.332   2.256  -5.021  0.00  0.00    -0.196 N 
ATOM      2  C2  IND d   1      -1.532   3.251  -5.511  0.00  0.00     0.054 A 
ATOM      3  C3  IND d   1      -2.285   4.263  -5.997  0.00  0.00    -0.031 A 
ATOM      4  C4  IND d   1      -4.844   4.543  -6.000  0.00  0.00     0.051 A 
ATOM      5  C5  IND d   1      -6.000   3.882  -5.694  0.00  0.00    -0.031 A 
ATOM      6  C6  IND d   1      -5.992   2.620  -5.135  0.00  0.00     0.015 A 
ATOM      7  C7  IND d   1      -4.823   1.975  -4.848  0.00  0.00    -0.016 A 
ATOM      8  C8  IND d   1      -3.647   2.640  -5.164  0.00  0.00    -0.047 A 
ATOM      9  C9  IND d   1      -3.648   3.903  -5.771  0.00  0.00    -0.096 A 
ATOM     10  HN1 IND d   1      -2.059   1.514  -4.681  0.00  0.00     0.298 HD
ENDROOT
TORSDOF 0
ENDMDL
