MODEL 1
REMARK minimizedAffinity -0.110444508
REMARK minimizedRMSD -1
REMARK  0 active torsions:
REMARK  status: ('A' for Active; 'I' for Inactive)
ROOT
ATOM      1  N1  IND d   1      -2.224   2.112  -5.900  0.00  0.00    -0.196 N 
ATOM      2  C2  IND d   1      -1.496   3.269  -5.931  0.00  0.00     0.054 A 
ATOM      3  C3  IND d   1      -2.318   4.340  -5.998  0.00  0.00    -0.031 A 
ATOM      4  C4  IND d   1      -4.890   4.433  -5.966  0.00  0.00     0.051 A 
ATOM      5  C5  IND d   1      -5.997   3.631  -5.983  0.00  0.00    -0.031 A 
ATOM      6  C6  IND d   1      -5.901   2.255  -5.969  0.00  0.00     0.015 A 
ATOM      7  C7  IND d   1      -4.689   1.626  -5.927  0.00  0.00    -0.016 A 
ATOM      8  C8  IND d   1      -3.563   2.436  -5.918  0.00  0.00    -0.047 A 
ATOM      9  C9  IND d   1      -3.653   3.833  -5.974  0.00  0.00    -0.096 A 
ATOM     10  HN1 IND d   1      -1.900   1.316  -5.874  0.00  0.00     0.298 HD
ENDROOT
TORSDOF 0
ENDMDL
