MODEL 1
REMARK minimizedAffinity -0.484623373
REMARK minimizedRMSD -1
REMARK  0 active torsions:
REMARK  status: ('A' for Active; 'I' for Inactive)
ROOT
ATOM      1  N1  IND d   1      -2.349   4.350  -5.970  0.00  0.00    -0.196 N 
ATOM      2  C2  IND d   1      -1.535   3.377  -5.463  0.00  0.00     0.054 A 
ATOM      3  C3  IND d   1      -2.270   2.419  -4.854  0.00  0.00    -0.031 A 
ATOM      4  C4  IND d   1      -4.828   2.195  -4.663  0.00  0.00     0.051 A 
ATOM      5  C5  IND d   1      -5.991   2.857  -4.939  0.00  0.00    -0.031 A 
ATOM      6  C6  IND d   1      -6.000   4.074  -5.590  0.00  0.00     0.015 A 
ATOM      7  C7  IND d   1      -4.842   4.671  -5.999  0.00  0.00    -0.016 A 
ATOM      8  C8  IND d   1      -3.658   4.005  -5.714  0.00  0.00    -0.047 A 
ATOM      9  C9  IND d   1      -3.640   2.791  -5.016  0.00  0.00    -0.096 A 
ATOM     10  HN1 IND d   1      -2.088   5.059  -6.381  0.00  0.00     0.298 HD
ENDROOT
TORSDOF 0
ENDMDL
