MODEL 1
REMARK minimizedAffinity -2.21206832
REMARK minimizedRMSD -1
REMARK  0 active torsions:
REMARK  status: ('A' for Active; 'I' for Inactive)
ROOT
ATOM      1  N1  IND d   1       1.029   3.118  -5.866  0.00  0.00    -0.196 N 
ATOM      2  C2  IND d   1       1.884   2.227  -5.281  0.00  0.00     0.054 A 
ATOM      3  C3  IND d   1       1.190   1.254  -4.648  0.00  0.00    -0.031 A 
ATOM      4  C4  IND d   1      -1.353   0.873  -4.530  0.00  0.00     0.051 A 
ATOM      5  C5  IND d   1      -2.545   1.442  -4.880  0.00  0.00    -0.031 A 
ATOM      6  C6  IND d   1      -2.608   2.621  -5.594  0.00  0.00     0.015 A 
ATOM      7  C7  IND d   1      -1.476   3.272  -5.995  0.00  0.00    -0.016 A 
ATOM      8  C8  IND d   1      -0.264   2.701  -5.635  0.00  0.00    -0.047 A 
ATOM      9  C9  IND d   1      -0.194   1.527  -4.875  0.00  0.00    -0.096 A 
ATOM     10  HN1 IND d   1       1.259   3.820  -6.305  0.00  0.00     0.298 HD
ENDROOT
TORSDOF 0
ENDMDL
