MODEL 1
REMARK minimizedAffinity 5.26927376
REMARK minimizedRMSD -1
REMARK  2 active torsions:
REMARK  status: ('A' for Active; 'I' for Inactive)
REMARK    1  A    between atoms: C1_2  and  C2_3 
REMARK    2  A    between atoms: C2_3  and  C3_4 
ROOT
ATOM      1  C3  UNL d   1       0.626   2.225   0.376  0.00  0.00    -0.075 A 
ATOM      2  C4  UNL d   1      -0.350   3.043  -0.212  0.00  0.00     0.002 A 
ATOM      3  C5  UNL d   1      -0.030   4.334  -0.635  0.00  0.00     0.002 A 
ATOM      4  C6  UNL d   1       1.263   4.825  -0.467  0.00  0.00    -0.004 A 
ATOM      5  C7  UNL d   1       2.235   4.027   0.132  0.00  0.00     0.002 A 
ATOM      6  C8  UNL d   1       1.919   2.734   0.551  0.00  0.00     0.002 A 
ENDROOT
BRANCH   1   7
ATOM      7  C2  UNL d   1       0.293   0.817   0.809  0.00  0.00     0.056 C 
BRANCH   7   8
ATOM      8  C1  UNL d   1       1.491  -0.139   0.794  0.00  0.00     0.007 C 
ATOM      9  C   UNL d   1       1.917  -0.546  -0.610  0.00  0.00     0.009 C 
ENDBRANCH   7   8
ENDBRANCH   1   7
TORSDOF 2
ENDMDL
