MODEL 1
REMARK minimizedAffinity 0.512760103
REMARK minimizedRMSD -1
REMARK  2 active torsions:
REMARK  status: ('A' for Active; 'I' for Inactive)
REMARK    1  A    between atoms: C1_2  and  C2_3 
REMARK    2  A    between atoms: C2_3  and  C3_4 
ROOT
ATOM      1  C3  UNL d   1      -3.097   4.054   0.750  0.00  0.00    -0.075 A 
ATOM      2  C4  UNL d   1      -3.355   5.177  -0.049  0.00  0.00     0.002 A 
ATOM      3  C5  UNL d   1      -4.450   6.000   0.216  0.00  0.00     0.002 A 
ATOM      4  C6  UNL d   1      -5.306   5.705   1.276  0.00  0.00    -0.004 A 
ATOM      5  C7  UNL d   1      -5.069   4.583   2.066  0.00  0.00     0.002 A 
ATOM      6  C8  UNL d   1      -3.971   3.761   1.806  0.00  0.00     0.002 A 
ENDROOT
BRANCH   1   7
ATOM      7  C2  UNL d   1      -1.897   3.177   0.486  0.00  0.00     0.056 C 
BRANCH   7   8
ATOM      8  C1  UNL d   1      -1.048   3.624  -0.709  0.00  0.00     0.007 C 
ATOM      9  C   UNL d   1       0.413   3.210  -0.596  0.00  0.00     0.009 C 
ENDBRANCH   7   8
ENDBRANCH   1   7
TORSDOF 2
ENDMDL
