MODEL 1
REMARK minimizedAffinity 6.39997435
REMARK minimizedRMSD -1
REMARK  2 active torsions:
REMARK  status: ('A' for Active; 'I' for Inactive)
REMARK    1  A    between atoms: C1_2  and  C2_3 
REMARK    2  A    between atoms: C2_3  and  C3_4 
ROOT
ATOM      1  C3  UNL d   1      -0.907   2.202  -2.039  0.00  0.00    -0.075 A 
ATOM      2  C4  UNL d   1      -0.117   1.233  -2.674  0.00  0.00     0.002 A 
ATOM      3  C5  UNL d   1      -0.546   0.636  -3.860  0.00  0.00     0.002 A 
ATOM      4  C6  UNL d   1      -1.771   0.991  -4.419  0.00  0.00    -0.004 A 
ATOM      5  C7  UNL d   1      -2.572   1.941  -3.788  0.00  0.00     0.002 A 
ATOM      6  C8  UNL d   1      -2.143   2.543  -2.604  0.00  0.00     0.002 A 
ENDROOT
BRANCH   1   7
ATOM      7  C2  UNL d   1      -0.436   2.874  -0.771  0.00  0.00     0.056 C 
BRANCH   7   8
ATOM      8  C1  UNL d   1       0.555   4.020  -1.004  0.00  0.00     0.007 C 
ATOM      9  C   UNL d   1      -0.116   5.312  -1.450  0.00  0.00     0.009 C 
ENDBRANCH   7   8
ENDBRANCH   1   7
TORSDOF 2
ENDMDL
