MODEL 1
REMARK minimizedAffinity 9.42399979
REMARK minimizedRMSD -1
REMARK  2 active torsions:
REMARK  status: ('A' for Active; 'I' for Inactive)
REMARK    1  A    between atoms: C1_2  and  C2_3 
REMARK    2  A    between atoms: C2_3  and  C3_4 
ROOT
ATOM      1  C3  UNL d   1      -2.571   1.076  -3.953  0.00  0.00    -0.075 A 
ATOM      2  C4  UNL d   1      -2.663   2.423  -3.572  0.00  0.00     0.002 A 
ATOM      3  C5  UNL d   1      -3.627   2.834  -2.651  0.00  0.00     0.002 A 
ATOM      4  C6  UNL d   1      -4.516   1.909  -2.108  0.00  0.00    -0.004 A 
ATOM      5  C7  UNL d   1      -4.445   0.572  -2.492  0.00  0.00     0.002 A 
ATOM      6  C8  UNL d   1      -3.479   0.157  -3.410  0.00  0.00     0.002 A 
ENDROOT
BRANCH   1   7
ATOM      7  C2  UNL d   1      -1.511   0.619  -4.926  0.00  0.00     0.056 C 
BRANCH   7   8
ATOM      8  C1  UNL d   1      -0.383  -0.194  -4.283  0.00  0.00     0.007 C 
ATOM      9  C   UNL d   1       0.232   0.489  -3.068  0.00  0.00     0.009 C 
ENDBRANCH   7   8
ENDBRANCH   1   7
TORSDOF 2
ENDMDL
