MODEL 1
REMARK minimizedAffinity 2.25528169
REMARK minimizedRMSD -1
REMARK  2 active torsions:
REMARK  status: ('A' for Active; 'I' for Inactive)
REMARK    1  A    between atoms: C1_2  and  C2_3 
REMARK    2  A    between atoms: C2_3  and  C3_4 
ROOT
ATOM      1  C3  UNL d   1      -0.518   3.829  -0.384  0.00  0.00    -0.075 A 
ATOM      2  C4  UNL d   1       0.871   4.003  -0.465  0.00  0.00     0.002 A 
ATOM      3  C5  UNL d   1       1.410   5.085  -1.160  0.00  0.00     0.002 A 
ATOM      4  C6  UNL d   1       0.570   6.000  -1.792  0.00  0.00    -0.004 A 
ATOM      5  C7  UNL d   1      -0.811   5.827  -1.732  0.00  0.00     0.002 A 
ATOM      6  C8  UNL d   1      -1.354   4.748  -1.033  0.00  0.00     0.002 A 
ENDROOT
BRANCH   1   7
ATOM      7  C2  UNL d   1      -1.108   2.676   0.392  0.00  0.00     0.056 C 
BRANCH   7   8
ATOM      8  C1  UNL d   1      -2.604   2.825   0.690  0.00  0.00     0.007 C 
ATOM      9  C   UNL d   1      -2.886   3.503   2.024  0.00  0.00     0.009 C 
ENDBRANCH   7   8
ENDBRANCH   1   7
TORSDOF 2
ENDMDL
