MODEL 1
REMARK minimizedAffinity 5.62647438
REMARK minimizedRMSD -1
REMARK  2 active torsions:
REMARK  status: ('A' for Active; 'I' for Inactive)
REMARK    1  A    between atoms: C1_2  and  C2_3 
REMARK    2  A    between atoms: C2_3  and  C3_4 
ROOT
ATOM      1  C3  UNL d   1       2.661  -1.884   0.413  0.00  0.00    -0.075 A 
ATOM      2  C4  UNL d   1       3.904  -2.415   0.040  0.00  0.00     0.002 A 
ATOM      3  C5  UNL d   1       4.952  -2.480   0.959  0.00  0.00     0.002 A 
ATOM      4  C6  UNL d   1       4.774  -2.006   2.257  0.00  0.00    -0.004 A 
ATOM      5  C7  UNL d   1       3.548  -1.461   2.634  0.00  0.00     0.002 A 
ATOM      6  C8  UNL d   1       2.497  -1.399   1.718  0.00  0.00     0.002 A 
ENDROOT
BRANCH   1   7
ATOM      7  C2  UNL d   1       1.514  -1.838  -0.568  0.00  0.00     0.056 C 
BRANCH   7   8
ATOM      8  C1  UNL d   1       0.421  -2.877  -0.299  0.00  0.00     0.007 C 
ATOM      9  C   UNL d   1       0.665  -4.202  -1.009  0.00  0.00     0.009 C 
ENDBRANCH   7   8
ENDBRANCH   1   7
TORSDOF 2
ENDMDL
