MODEL 1
REMARK minimizedAffinity 5.89867544
REMARK minimizedRMSD -1
REMARK  2 active torsions:
REMARK  status: ('A' for Active; 'I' for Inactive)
REMARK    1  A    between atoms: C1_2  and  C2_3 
REMARK    2  A    between atoms: C2_3  and  C3_4 
ROOT
ATOM      1  C3  UNL d   1      -0.057   3.504  -1.468  0.00  0.00    -0.075 A 
ATOM      2  C4  UNL d   1      -0.132   2.348  -2.258  0.00  0.00     0.002 A 
ATOM      3  C5  UNL d   1      -1.301   2.039  -2.954  0.00  0.00     0.002 A 
ATOM      4  C6  UNL d   1      -2.412   2.875  -2.861  0.00  0.00    -0.004 A 
ATOM      5  C7  UNL d   1      -2.355   4.017  -2.065  0.00  0.00     0.002 A 
ATOM      6  C8  UNL d   1      -1.185   4.331  -1.372  0.00  0.00     0.002 A 
ENDROOT
BRANCH   1   7
ATOM      7  C2  UNL d   1       1.215   3.860  -0.737  0.00  0.00     0.056 C 
BRANCH   7   8
ATOM      8  C1  UNL d   1       2.057   4.933  -1.435  0.00  0.00     0.007 C 
ATOM      9  C   UNL d   1       1.217   5.994  -2.134  0.00  0.00     0.009 C 
ENDBRANCH   7   8
ENDBRANCH   1   7
TORSDOF 2
ENDMDL
