MODEL 1
REMARK minimizedAffinity 8.22156048
REMARK minimizedRMSD -1
REMARK  2 active torsions:
REMARK  status: ('A' for Active; 'I' for Inactive)
REMARK    1  A    between atoms: C1_2  and  C2_3 
REMARK    2  A    between atoms: C2_3  and  C3_4 
ROOT
ATOM      1  C3  UNL d   1       3.439  -1.569   2.258  0.00  0.00    -0.075 A 
ATOM      2  C4  UNL d   1       4.208  -1.687   1.091  0.00  0.00     0.002 A 
ATOM      3  C5  UNL d   1       5.185  -2.677   0.984  0.00  0.00     0.002 A 
ATOM      4  C6  UNL d   1       5.413  -3.553   2.043  0.00  0.00    -0.004 A 
ATOM      5  C7  UNL d   1       4.667  -3.434   3.214  0.00  0.00     0.002 A 
ATOM      6  C8  UNL d   1       3.686  -2.447   3.322  0.00  0.00     0.002 A 
ENDROOT
BRANCH   1   7
ATOM      7  C2  UNL d   1       2.360  -0.519   2.370  0.00  0.00     0.056 C 
BRANCH   7   8
ATOM      8  C1  UNL d   1       1.015  -0.940   1.768  0.00  0.00     0.007 C 
ATOM      9  C   UNL d   1       1.138  -1.505   0.360  0.00  0.00     0.009 C 
ENDBRANCH   7   8
ENDBRANCH   1   7
TORSDOF 2
ENDMDL
