MODEL 1
REMARK minimizedAffinity -3.23124409
REMARK minimizedRMSD -1
REMARK  2 active torsions:
REMARK  status: ('A' for Active; 'I' for Inactive)
REMARK    1  A    between atoms: C1_2  and  C2_3 
REMARK    2  A    between atoms: C2_3  and  C3_4 
ROOT
ATOM      1  C3  UNL d   1      -3.032   3.695   1.472  0.00  0.00    -0.075 A 
ATOM      2  C4  UNL d   1      -2.757   5.070   1.473  0.00  0.00     0.002 A 
ATOM      3  C5  UNL d   1      -3.796   6.000   1.493  0.00  0.00     0.002 A 
ATOM      4  C6  UNL d   1      -5.121   5.569   1.502  0.00  0.00    -0.004 A 
ATOM      5  C7  UNL d   1      -5.406   4.205   1.484  0.00  0.00     0.002 A 
ATOM      6  C8  UNL d   1      -4.368   3.272   1.468  0.00  0.00     0.002 A 
ENDROOT
BRANCH   1   7
ATOM      7  C2  UNL d   1      -1.911   2.683   1.480  0.00  0.00     0.056 C 
BRANCH   7   8
ATOM      8  C1  UNL d   1      -0.888   2.876   0.355  0.00  0.00     0.007 C 
ATOM      9  C   UNL d   1      -1.522   3.263  -0.974  0.00  0.00     0.009 C 
ENDBRANCH   7   8
ENDBRANCH   1   7
TORSDOF 2
ENDMDL
