MODEL 1
REMARK minimizedAffinity -4.65581751
REMARK minimizedRMSD -1
REMARK  2 active torsions:
REMARK  status: ('A' for Active; 'I' for Inactive)
REMARK    1  A    between atoms: C2'_3  and  C1'_4 
REMARK    2  A    between atoms: C1'_4  and  C1_5 
ROOT
ATOM      1  C1  I4B d   1       0.415   0.101  -0.987  0.00  0.00    -0.075 A 
ATOM      2  C2  I4B d   1       0.050   0.464   0.286  0.00  0.00     0.003 A 
ATOM      3  C3  I4B d   1      -0.094  -0.520   1.294  0.00  0.00     0.002 A 
ATOM      4  C4  I4B d   1       0.086  -1.850   0.976  0.00  0.00    -0.004 A 
ATOM      5  C5  I4B d   1       0.478  -2.215  -0.309  0.00  0.00     0.002 A 
ATOM      6  C6  I4B d   1       0.656  -1.232  -1.294  0.00  0.00     0.003 A 
ENDROOT
BRANCH   1   7
ATOM      7  C1' I4B d   1       0.526   1.162  -2.035  0.00  0.00     0.060 C 
BRANCH   7   8
ATOM      8  C2' I4B d   1       1.975   1.235  -2.474  0.00  0.00    -0.013 C 
ATOM      9  C4' I4B d   1       2.904   1.232  -1.289  0.00  0.00     0.013 C 
ATOM     10  C3' I4B d   1       2.244   0.068  -3.376  0.00  0.00     0.013 C 
ENDBRANCH   7   8
ENDBRANCH   1   7
TORSDOF 2
ENDMDL
