MODEL 1
REMARK minimizedAffinity -3.55662918
REMARK minimizedRMSD -1
REMARK  2 active torsions:
REMARK  status: ('A' for Active; 'I' for Inactive)
REMARK    1  A    between atoms: C2'_3  and  C1'_4 
REMARK    2  A    between atoms: C1'_4  and  C1_5 
ROOT
ATOM      1  C1  I4B d   1      -0.311  -0.218   0.815  0.00  0.00    -0.075 A 
ATOM      2  C2  I4B d   1       0.010  -1.084  -0.200  0.00  0.00     0.003 A 
ATOM      3  C3  I4B d   1       0.915  -0.689  -1.215  0.00  0.00     0.002 A 
ATOM      4  C4  I4B d   1       1.432   0.590  -1.204  0.00  0.00    -0.004 A 
ATOM      5  C5  I4B d   1       1.123   1.460  -0.162  0.00  0.00     0.002 A 
ATOM      6  C6  I4B d   1       0.256   1.049   0.861  0.00  0.00     0.003 A 
ENDROOT
BRANCH   1   7
ATOM      7  C1' I4B d   1      -1.295  -0.656   1.853  0.00  0.00     0.060 C 
BRANCH   7   8
ATOM      8  C2' I4B d   1      -2.343   0.429   1.990  0.00  0.00    -0.013 C 
ATOM      9  C4' I4B d   1      -3.719  -0.100   1.680  0.00  0.00     0.013 C 
ATOM     10  C3' I4B d   1      -2.272   0.967   3.388  0.00  0.00     0.013 C 
ENDBRANCH   7   8
ENDBRANCH   1   7
TORSDOF 2
ENDMDL
