MODEL 1
REMARK minimizedAffinity -6.06057405
REMARK minimizedRMSD -1
REMARK  2 active torsions:
REMARK  status: ('A' for Active; 'I' for Inactive)
REMARK    1  A    between atoms: C2'_3  and  C1'_4 
REMARK    2  A    between atoms: C1'_4  and  C1_5 
ROOT
ATOM      1  C1  I4B d   1       1.597  -0.068  -1.645  0.00  0.00    -0.075 A 
ATOM      2  C2  I4B d   1       0.797  -0.096  -0.530  0.00  0.00     0.003 A 
ATOM      3  C3  I4B d   1       0.485   1.103   0.154  0.00  0.00     0.002 A 
ATOM      4  C4  I4B d   1       1.032   2.294  -0.279  0.00  0.00    -0.004 A 
ATOM      5  C5  I4B d   1       1.824   2.324  -1.424  0.00  0.00     0.002 A 
ATOM      6  C6  I4B d   1       2.098   1.137  -2.118  0.00  0.00     0.003 A 
ENDROOT
BRANCH   1   7
ATOM      7  C1' I4B d   1       1.933  -1.358  -2.324  0.00  0.00     0.060 C 
BRANCH   7   8
ATOM      8  C2' I4B d   1       2.033  -2.433  -1.261  0.00  0.00    -0.013 C 
ATOM      9  C4' I4B d   1       1.187  -3.628  -1.612  0.00  0.00     0.013 C 
ATOM     10  C3' I4B d   1       3.477  -2.813  -1.121  0.00  0.00     0.013 C 
ENDBRANCH   7   8
ENDBRANCH   1   7
TORSDOF 2
ENDMDL
