MODEL 1
REMARK minimizedAffinity -3.74337697
REMARK minimizedRMSD -1
REMARK  2 active torsions:
REMARK  status: ('A' for Active; 'I' for Inactive)
REMARK    1  A    between atoms: C2'_3  and  C1'_4 
REMARK    2  A    between atoms: C1'_4  and  C1_5 
ROOT
ATOM      1  C1  I4B d   1      -0.315   0.145   0.639  0.00  0.00    -0.075 A 
ATOM      2  C2  I4B d   1      -0.046  -0.972  -0.112  0.00  0.00     0.003 A 
ATOM      3  C3  I4B d   1       0.836  -0.893  -1.216  0.00  0.00     0.002 A 
ATOM      4  C4  I4B d   1       1.384   0.325  -1.563  0.00  0.00    -0.004 A 
ATOM      5  C5  I4B d   1       1.128   1.452  -0.787  0.00  0.00     0.002 A 
ATOM      6  C6  I4B d   1       0.284   1.360   0.329  0.00  0.00     0.003 A 
ENDROOT
BRANCH   1   7
ATOM      7  C1' I4B d   1      -1.277   0.033   1.779  0.00  0.00     0.060 C 
BRANCH   7   8
ATOM      8  C2' I4B d   1      -2.564   0.723   1.374  0.00  0.00    -0.013 C 
ATOM      9  C4' I4B d   1      -3.720  -0.242   1.364  0.00  0.00     0.013 C 
ATOM     10  C3' I4B d   1      -2.807   1.850   2.332  0.00  0.00     0.013 C 
ENDBRANCH   7   8
ENDBRANCH   1   7
TORSDOF 2
ENDMDL
