MODEL 1
REMARK minimizedAffinity -3.28765321
REMARK minimizedRMSD -1
REMARK  2 active torsions:
REMARK  status: ('A' for Active; 'I' for Inactive)
REMARK    1  A    between atoms: C2'_3  and  C1'_4 
REMARK    2  A    between atoms: C1'_4  and  C1_5 
ROOT
ATOM      1  C1  I4B d   1       0.606   0.624  -0.702  0.00  0.00    -0.075 A 
ATOM      2  C2  I4B d   1       1.911   1.044  -0.648  0.00  0.00     0.003 A 
ATOM      3  C3  I4B d   1       2.794   0.766  -1.720  0.00  0.00     0.002 A 
ATOM      4  C4  I4B d   1       2.346   0.028  -2.796  0.00  0.00    -0.004 A 
ATOM      5  C5  I4B d   1       1.016  -0.377  -2.860  0.00  0.00     0.002 A 
ATOM      6  C6  I4B d   1       0.136  -0.067  -1.812  0.00  0.00     0.003 A 
ENDROOT
BRANCH   1   7
ATOM      7  C1' I4B d   1      -0.291   0.906   0.462  0.00  0.00     0.060 C 
BRANCH   7   8
ATOM      8  C2' I4B d   1      -1.197  -0.293   0.654  0.00  0.00    -0.013 C 
ATOM      9  C4' I4B d   1      -0.446  -1.454   1.251  0.00  0.00     0.013 C 
ATOM     10  C3' I4B d   1      -2.337   0.124   1.534  0.00  0.00     0.013 C 
ENDBRANCH   7   8
ENDBRANCH   1   7
TORSDOF 2
ENDMDL
