MODEL 1
REMARK minimizedAffinity -4.98424578
REMARK minimizedRMSD -1
REMARK  2 active torsions:
REMARK  status: ('A' for Active; 'I' for Inactive)
REMARK    1  A    between atoms: C2'_3  and  C1'_4 
REMARK    2  A    between atoms: C1'_4  and  C1_5 
ROOT
ATOM      1  C1  I4B d   1       0.064   0.376  -0.740  0.00  0.00    -0.075 A 
ATOM      2  C2  I4B d   1       0.178  -0.227  -1.968  0.00  0.00     0.003 A 
ATOM      3  C3  I4B d   1       1.381  -0.117  -2.707  0.00  0.00     0.002 A 
ATOM      4  C4  I4B d   1       2.419   0.641  -2.206  0.00  0.00    -0.004 A 
ATOM      5  C5  I4B d   1       2.310   1.233  -0.951  0.00  0.00     0.002 A 
ATOM      6  C6  I4B d   1       1.130   1.089  -0.207  0.00  0.00     0.003 A 
ENDROOT
BRANCH   1   7
ATOM      7  C1' I4B d   1      -1.232   0.268  -0.001  0.00  0.00     0.060 C 
BRANCH   7   8
ATOM      8  C2' I4B d   1      -0.918  -0.016   1.453  0.00  0.00    -0.013 C 
ATOM      9  C4' I4B d   1      -1.959   0.583   2.363  0.00  0.00     0.013 C 
ATOM     10  C3' I4B d   1      -0.838  -1.504   1.628  0.00  0.00     0.013 C 
ENDBRANCH   7   8
ENDBRANCH   1   7
TORSDOF 2
ENDMDL
