MODEL 1
REMARK minimizedAffinity -4.57044601
REMARK minimizedRMSD -1
REMARK  2 active torsions:
REMARK  status: ('A' for Active; 'I' for Inactive)
REMARK    1  A    between atoms: C2'_3  and  C1'_4 
REMARK    2  A    between atoms: C1'_4  and  C1_5 
ROOT
ATOM      1  C1  I4B d   1       2.438   0.178  -1.670  0.00  0.00    -0.075 A 
ATOM      2  C2  I4B d   1       3.353   1.084  -1.196  0.00  0.00     0.003 A 
ATOM      3  C3  I4B d   1       4.697   0.693  -0.980  0.00  0.00     0.002 A 
ATOM      4  C4  I4B d   1       5.067  -0.618  -1.201  0.00  0.00    -0.004 A 
ATOM      5  C5  I4B d   1       4.143  -1.529  -1.703  0.00  0.00     0.002 A 
ATOM      6  C6  I4B d   1       2.823  -1.127  -1.951  0.00  0.00     0.003 A 
ENDROOT
BRANCH   1   7
ATOM      7  C1' I4B d   1       1.019   0.616  -1.855  0.00  0.00     0.060 C 
BRANCH   7   8
ATOM      8  C2' I4B d   1       0.456   0.963  -0.492  0.00  0.00    -0.013 C 
ATOM      9  C4' I4B d   1      -0.447   2.166  -0.566  0.00  0.00     0.013 C 
ATOM     10  C3' I4B d   1      -0.282  -0.237   0.023  0.00  0.00     0.013 C 
ENDBRANCH   7   8
ENDBRANCH   1   7
TORSDOF 2
ENDMDL
