MODEL 1
REMARK minimizedAffinity -5.02344561
REMARK minimizedRMSD -1
REMARK  2 active torsions:
REMARK  status: ('A' for Active; 'I' for Inactive)
REMARK    1  A    between atoms: C2'_3  and  C1'_4 
REMARK    2  A    between atoms: C1'_4  and  C1_5 
ROOT
ATOM      1  C1  I4B d   1       0.121   0.527  -0.189  0.00  0.00    -0.075 A 
ATOM      2  C2  I4B d   1       0.741   1.617   0.370  0.00  0.00     0.003 A 
ATOM      3  C3  I4B d   1       1.987   2.064  -0.133  0.00  0.00     0.002 A 
ATOM      4  C4  I4B d   1       2.597   1.365  -1.155  0.00  0.00    -0.004 A 
ATOM      5  C5  I4B d   1       1.957   0.274  -1.735  0.00  0.00     0.002 A 
ATOM      6  C6  I4B d   1       0.705  -0.141  -1.257  0.00  0.00     0.003 A 
ENDROOT
BRANCH   1   7
ATOM      7  C1' I4B d   1      -1.178   0.062   0.388  0.00  0.00     0.060 C 
BRANCH   7   8
ATOM      8  C2' I4B d   1      -0.968  -0.193   1.867  0.00  0.00    -0.013 C 
ATOM      9  C4' I4B d   1      -2.185   0.191   2.666  0.00  0.00     0.013 C 
ATOM     10  C3' I4B d   1      -0.641  -1.646   2.044  0.00  0.00     0.013 C 
ENDBRANCH   7   8
ENDBRANCH   1   7
TORSDOF 2
ENDMDL
