MODEL 1
REMARK minimizedAffinity -4.87106562
REMARK minimizedRMSD -1
REMARK  2 active torsions:
REMARK  status: ('A' for Active; 'I' for Inactive)
REMARK    1  A    between atoms: C2'_3  and  C1'_4 
REMARK    2  A    between atoms: C1'_4  and  C1_5 
ROOT
ATOM      1  C1  I4B d   1      -0.253  -0.660   0.269  0.00  0.00    -0.075 A 
ATOM      2  C2  I4B d   1       0.254   0.290  -0.583  0.00  0.00     0.003 A 
ATOM      3  C3  I4B d   1       0.930  -0.100  -1.764  0.00  0.00     0.002 A 
ATOM      4  C4  I4B d   1       1.119  -1.442  -2.028  0.00  0.00    -0.004 A 
ATOM      5  C5  I4B d   1       0.584  -2.403  -1.176  0.00  0.00     0.002 A 
ATOM      6  C6  I4B d   1      -0.117  -2.010  -0.026  0.00  0.00     0.003 A 
ENDROOT
BRANCH   1   7
ATOM      7  C1' I4B d   1      -0.932  -0.214   1.524  0.00  0.00     0.060 C 
BRANCH   7   8
ATOM      8  C2' I4B d   1      -2.300   0.320   1.151  0.00  0.00    -0.013 C 
ATOM      9  C4' I4B d   1      -3.252  -0.801   0.825  0.00  0.00     0.013 C 
ATOM     10  C3' I4B d   1      -2.805   1.143   2.298  0.00  0.00     0.013 C 
ENDBRANCH   7   8
ENDBRANCH   1   7
TORSDOF 2
ENDMDL
