MODEL 1
REMARK minimizedAffinity -4.36950064
REMARK minimizedRMSD -1
REMARK  2 active torsions:
REMARK  status: ('A' for Active; 'I' for Inactive)
REMARK    1  A    between atoms: C2'_3  and  C1'_4 
REMARK    2  A    between atoms: C1'_4  and  C1_5 
ROOT
ATOM      1  C1  I4B d   1       0.133  -0.313   0.192  0.00  0.00    -0.075 A 
ATOM      2  C2  I4B d   1       0.323  -1.318  -0.723  0.00  0.00     0.003 A 
ATOM      3  C3  I4B d   1       1.057  -1.073  -1.909  0.00  0.00     0.002 A 
ATOM      4  C4  I4B d   1       1.536   0.196  -2.162  0.00  0.00    -0.004 A 
ATOM      5  C5  I4B d   1       1.362   1.208  -1.222  0.00  0.00     0.002 A 
ATOM      6  C6  I4B d   1       0.667   0.950  -0.032  0.00  0.00     0.003 A 
ENDROOT
BRANCH   1   7
ATOM      7  C1' I4B d   1      -0.675  -0.598   1.418  0.00  0.00     0.060 C 
BRANCH   7   8
ATOM      8  C2' I4B d   1      -1.741   0.473   1.534  0.00  0.00    -0.013 C 
ATOM      9  C4' I4B d   1      -3.092  -0.057   1.131  0.00  0.00     0.013 C 
ATOM     10  C3' I4B d   1      -1.753   0.963   2.951  0.00  0.00     0.013 C 
ENDBRANCH   7   8
ENDBRANCH   1   7
TORSDOF 2
ENDMDL
