MODEL 1
REMARK minimizedAffinity -4.3039732
REMARK minimizedRMSD -1
REMARK  2 active torsions:
REMARK  status: ('A' for Active; 'I' for Inactive)
REMARK    1  A    between atoms: C2'_3  and  C1'_4 
REMARK    2  A    between atoms: C1'_4  and  C1_5 
ROOT
ATOM      1  C1  I4B d   1      -0.100   0.123   0.017  0.00  0.00    -0.075 A 
ATOM      2  C2  I4B d   1       0.381   1.370   0.332  0.00  0.00     0.003 A 
ATOM      3  C3  I4B d   1       1.218   2.061  -0.577  0.00  0.00     0.002 A 
ATOM      4  C4  I4B d   1       1.588   1.452  -1.758  0.00  0.00    -0.004 A 
ATOM      5  C5  I4B d   1       1.082   0.198  -2.086  0.00  0.00     0.002 A 
ATOM      6  C6  I4B d   1       0.222  -0.466  -1.199  0.00  0.00     0.003 A 
ENDROOT
BRANCH   1   7
ATOM      7  C1' I4B d   1      -0.955  -0.593   1.014  0.00  0.00     0.060 C 
BRANCH   7   8
ATOM      8  C2' I4B d   1      -2.098   0.326   1.393  0.00  0.00    -0.013 C 
ATOM      9  C4' I4B d   1      -3.425  -0.375   1.269  0.00  0.00     0.013 C 
ATOM     10  C3' I4B d   1      -1.865   0.800   2.797  0.00  0.00     0.013 C 
ENDBRANCH   7   8
ENDBRANCH   1   7
TORSDOF 2
ENDMDL
