MODEL 1
REMARK minimizedAffinity -4.77064657
REMARK minimizedRMSD -1
REMARK  3 active torsions:
REMARK  status: ('A' for Active; 'I' for Inactive)
REMARK    1  A    between atoms: C3'_2  and  C2'_3 
REMARK    2  A    between atoms: C2'_3  and  C1'_4 
REMARK    3  A    between atoms: C1'_4  and  C1_5 
ROOT
ATOM      1  C1  N4B d   1       0.525  -0.739  -0.311  0.00  0.00    -0.075 A 
ATOM      2  C2  N4B d   1       1.923  -0.558  -0.398  0.00  0.00     0.002 A 
ATOM      3  C3  N4B d   1       2.660  -1.318  -1.273  0.00  0.00     0.002 A 
ATOM      4  C4  N4B d   1       2.027  -2.274  -2.052  0.00  0.00    -0.004 A 
ATOM      5  C5  N4B d   1       0.673  -2.425  -1.980  0.00  0.00     0.002 A 
ATOM      6  C6  N4B d   1      -0.081  -1.665  -1.109  0.00  0.00     0.002 A 
ENDROOT
BRANCH   1   7
ATOM      7  C1' N4B d   1      -0.311   0.009   0.691  0.00  0.00     0.057 C 
BRANCH   7   8
ATOM      8  C2' N4B d   1      -1.701  -0.619   0.751  0.00  0.00     0.009 C 
BRANCH   8   9
ATOM      9  C3' N4B d   1      -2.605   0.097   1.740  0.00  0.00     0.004 C 
ATOM     10  C4' N4B d   1      -3.765   0.779   1.079  0.00  0.00     0.003 C 
ENDBRANCH   8   9
ENDBRANCH   7   8
ENDBRANCH   1   7
TORSDOF 3
ENDMDL
