MODEL 1
REMARK minimizedAffinity -5.01978445
REMARK minimizedRMSD -1
REMARK  3 active torsions:
REMARK  status: ('A' for Active; 'I' for Inactive)
REMARK    1  A    between atoms: C3'_2  and  C2'_3 
REMARK    2  A    between atoms: C2'_3  and  C1'_4 
REMARK    3  A    between atoms: C1'_4  and  C1_5 
ROOT
ATOM      1  C1  N4B d   1       1.090  -0.429   0.675  0.00  0.00    -0.075 A 
ATOM      2  C2  N4B d   1      -0.321  -0.426   0.747  0.00  0.00     0.002 A 
ATOM      3  C3  N4B d   1      -1.049  -1.304  -0.018  0.00  0.00     0.002 A 
ATOM      4  C4  N4B d   1      -0.392  -2.177  -0.872  0.00  0.00    -0.004 A 
ATOM      5  C5  N4B d   1       0.971  -2.191  -0.917  0.00  0.00     0.002 A 
ATOM      6  C6  N4B d   1       1.716  -1.317  -0.151  0.00  0.00     0.002 A 
ENDROOT
BRANCH   1   7
ATOM      7  C1' N4B d   1       1.925   0.570   1.428  0.00  0.00     0.057 C 
BRANCH   7   8
ATOM      8  C2' N4B d   1       1.528   1.980   0.999  0.00  0.00     0.009 C 
BRANCH   8   9
ATOM      9  C3' N4B d   1       2.459   3.033   1.575  0.00  0.00     0.004 C 
ATOM     10  C4' N4B d   1       3.310   2.507   2.692  0.00  0.00     0.003 C 
ENDBRANCH   8   9
ENDBRANCH   7   8
ENDBRANCH   1   7
TORSDOF 3
ENDMDL
