MODEL 1
REMARK minimizedAffinity -4.91208744
REMARK minimizedRMSD -1
REMARK  3 active torsions:
REMARK  status: ('A' for Active; 'I' for Inactive)
REMARK    1  A    between atoms: C3'_2  and  C2'_3 
REMARK    2  A    between atoms: C2'_3  and  C1'_4 
REMARK    3  A    between atoms: C1'_4  and  C1_5 
ROOT
ATOM      1  C1  N4B d   1      -0.866  -0.036   1.015  0.00  0.00    -0.075 A 
ATOM      2  C2  N4B d   1      -0.442   0.063   2.359  0.00  0.00     0.002 A 
ATOM      3  C3  N4B d   1      -1.335   0.431   3.335  0.00  0.00     0.002 A 
ATOM      4  C4  N4B d   1      -2.647   0.721   2.991  0.00  0.00    -0.004 A 
ATOM      5  C5  N4B d   1      -3.055   0.598   1.695  0.00  0.00     0.002 A 
ATOM      6  C6  N4B d   1      -2.169   0.226   0.704  0.00  0.00     0.002 A 
ENDROOT
BRANCH   1   7
ATOM      7  C1' N4B d   1       0.094  -0.350  -0.099  0.00  0.00     0.057 C 
BRANCH   7   8
ATOM      8  C2' N4B d   1       0.266  -1.863  -0.200  0.00  0.00     0.009 C 
BRANCH   8   9
ATOM      9  C3' N4B d   1       0.621  -2.302  -1.610  0.00  0.00     0.004 C 
ATOM     10  C4' N4B d   1       0.289  -1.265  -2.642  0.00  0.00     0.003 C 
ENDBRANCH   8   9
ENDBRANCH   7   8
ENDBRANCH   1   7
TORSDOF 3
ENDMDL
