MODEL 1
REMARK minimizedAffinity 1.54868603
REMARK minimizedRMSD -1
REMARK  3 active torsions:
REMARK  status: ('A' for Active; 'I' for Inactive)
REMARK    1  A    between atoms: C3'_2  and  C2'_3 
REMARK    2  A    between atoms: C2'_3  and  C1'_4 
REMARK    3  A    between atoms: C1'_4  and  C1_5 
ROOT
ATOM      1  C1  N4B d   1      -1.208  -1.418  -0.361  0.00  0.00    -0.075 A 
ATOM      2  C2  N4B d   1      -2.484  -1.671   0.189  0.00  0.00     0.002 A 
ATOM      3  C3  N4B d   1      -2.814  -1.161   1.421  0.00  0.00     0.002 A 
ATOM      4  C4  N4B d   1      -1.882  -0.415   2.126  0.00  0.00    -0.004 A 
ATOM      5  C5  N4B d   1      -0.661  -0.155   1.577  0.00  0.00     0.002 A 
ATOM      6  C6  N4B d   1      -0.317  -0.657   0.338  0.00  0.00     0.002 A 
ENDROOT
BRANCH   1   7
ATOM      7  C1' N4B d   1      -0.772  -2.026  -1.666  0.00  0.00     0.057 C 
BRANCH   7   8
ATOM      8  C2' N4B d   1       0.423  -1.246  -2.207  0.00  0.00     0.009 C 
BRANCH   8   9
ATOM      9  C3' N4B d   1       0.531  -1.347  -3.718  0.00  0.00     0.004 C 
ATOM     10  C4' N4B d   1       1.395  -0.275  -4.312  0.00  0.00     0.003 C 
ENDBRANCH   8   9
ENDBRANCH   7   8
ENDBRANCH   1   7
TORSDOF 3
ENDMDL
