MODEL 1
REMARK minimizedAffinity -3.28442264
REMARK minimizedRMSD -1
REMARK  3 active torsions:
REMARK  status: ('A' for Active; 'I' for Inactive)
REMARK    1  A    between atoms: C3'_2  and  C2'_3 
REMARK    2  A    between atoms: C2'_3  and  C1'_4 
REMARK    3  A    between atoms: C1'_4  and  C1_5 
ROOT
ATOM      1  C1  N4B d   1      -1.948  -1.666   0.246  0.00  0.00    -0.075 A 
ATOM      2  C2  N4B d   1      -1.071  -0.854   0.997  0.00  0.00     0.002 A 
ATOM      3  C3  N4B d   1      -1.523   0.321   1.546  0.00  0.00     0.002 A 
ATOM      4  C4  N4B d   1      -2.838   0.711   1.342  0.00  0.00    -0.004 A 
ATOM      5  C5  N4B d   1      -3.686  -0.091   0.637  0.00  0.00     0.002 A 
ATOM      6  C6  N4B d   1      -3.246  -1.277   0.083  0.00  0.00     0.002 A 
ENDROOT
BRANCH   1   7
ATOM      7  C1' N4B d   1      -1.477  -2.916  -0.446  0.00  0.00     0.057 C 
BRANCH   7   8
ATOM      8  C2' N4B d   1      -0.484  -2.539  -1.541  0.00  0.00     0.009 C 
BRANCH   8   9
ATOM      9  C3' N4B d   1       0.794  -3.355  -1.455  0.00  0.00     0.004 C 
ATOM     10  C4' N4B d   1       1.417  -3.317  -0.092  0.00  0.00     0.003 C 
ENDBRANCH   8   9
ENDBRANCH   7   8
ENDBRANCH   1   7
TORSDOF 3
ENDMDL
