MODEL 1
REMARK minimizedAffinity -1.22880471
REMARK minimizedRMSD -1
REMARK  3 active torsions:
REMARK  status: ('A' for Active; 'I' for Inactive)
REMARK    1  A    between atoms: C3'_2  and  C2'_3 
REMARK    2  A    between atoms: C2'_3  and  C1'_4 
REMARK    3  A    between atoms: C1'_4  and  C1_5 
ROOT
ATOM      1  C1  N4B d   1      -1.436  -0.380   0.214  0.00  0.00    -0.075 A 
ATOM      2  C2  N4B d   1      -1.880  -1.295   1.194  0.00  0.00     0.002 A 
ATOM      3  C3  N4B d   1      -1.941  -0.913   2.512  0.00  0.00     0.002 A 
ATOM      4  C4  N4B d   1      -1.546   0.366   2.875  0.00  0.00    -0.004 A 
ATOM      5  C5  N4B d   1      -1.143   1.251   1.919  0.00  0.00     0.002 A 
ATOM      6  C6  N4B d   1      -1.081   0.883   0.590  0.00  0.00     0.002 A 
ENDROOT
BRANCH   1   7
ATOM      7  C1' N4B d   1      -1.271  -0.778  -1.227  0.00  0.00     0.057 C 
BRANCH   7   8
ATOM      8  C2' N4B d   1      -0.172  -1.832  -1.333  0.00  0.00     0.009 C 
BRANCH   8   9
ATOM      9  C3' N4B d   1       0.094  -2.232  -2.774  0.00  0.00     0.004 C 
ATOM     10  C4' N4B d   1      -0.431  -1.232  -3.761  0.00  0.00     0.003 C 
ENDBRANCH   8   9
ENDBRANCH   7   8
ENDBRANCH   1   7
TORSDOF 3
ENDMDL
