MODEL 1
REMARK minimizedAffinity -3.12595272
REMARK minimizedRMSD -1
REMARK  0 active torsions:
REMARK  status: ('A' for Active; 'I' for Inactive)
ROOT
ATOM      1  C   UNL d   1      -0.627  -2.718   0.921  0.00  0.00    -0.002 A 
ATOM      2  C1  UNL d   1       0.627  -2.797   0.331  0.00  0.00     0.010 A 
ATOM      3  C2  UNL d   1       1.273  -1.644  -0.118  0.00  0.00     0.041 A 
ATOM      4  C3  UNL d   1       0.634  -0.398   0.039  0.00  0.00    -0.075 A 
ATOM      5  S   UNL d   1       1.236   1.146  -0.434  0.00  0.00     0.015 SA
ATOM      6  C4  UNL d   1      -0.157   1.947   0.137  0.00  0.00     0.022 A 
ATOM      7  C5  UNL d   1      -1.069   1.072   0.678  0.00  0.00     0.026 A 
ATOM      8  C6  UNL d   1      -0.628  -0.294   0.632  0.00  0.00    -0.082 A 
ATOM      9  C7  UNL d   1      -1.258  -1.481   1.076  0.00  0.00     0.045 A 
ENDROOT
TORSDOF 0
ENDMDL
