MODEL 1
REMARK minimizedAffinity 1.18359756
REMARK minimizedRMSD -1
REMARK  0 active torsions:
REMARK  status: ('A' for Active; 'I' for Inactive)
ROOT
ATOM      1  C   UNL d   1       0.774  -2.165  -0.175  0.00  0.00    -0.002 A 
ATOM      2  C1  UNL d   1       1.065  -2.037  -1.526  0.00  0.00     0.010 A 
ATOM      3  C2  UNL d   1       1.190  -0.774  -2.109  0.00  0.00     0.041 A 
ATOM      4  C3  UNL d   1       1.018   0.369  -1.303  0.00  0.00    -0.075 A 
ATOM      5  S   UNL d   1       1.125   2.016  -1.800  0.00  0.00     0.015 SA
ATOM      6  C4  UNL d   1       0.789   2.589  -0.230  0.00  0.00     0.022 A 
ATOM      7  C5  UNL d   1       0.597   1.562   0.663  0.00  0.00     0.026 A 
ATOM      8  C6  UNL d   1       0.726   0.265   0.060  0.00  0.00    -0.082 A 
ATOM      9  C7  UNL d   1       0.605  -1.029   0.621  0.00  0.00     0.045 A 
ENDROOT
TORSDOF 0
ENDMDL
