MODEL 1
REMARK minimizedAffinity -2.78859758
REMARK minimizedRMSD -1
REMARK  0 active torsions:
REMARK  status: ('A' for Active; 'I' for Inactive)
ROOT
ATOM      1  C   UNL d   1       0.187  -3.083   0.799  0.00  0.00    -0.002 A 
ATOM      2  C1  UNL d   1       1.225  -2.935  -0.110  0.00  0.00     0.010 A 
ATOM      3  C2  UNL d   1       1.450  -1.709  -0.739  0.00  0.00     0.041 A 
ATOM      4  C3  UNL d   1       0.606  -0.623  -0.434  0.00  0.00    -0.075 A 
ATOM      5  S   UNL d   1       0.692   0.973  -1.080  0.00  0.00     0.015 SA
ATOM      6  C4  UNL d   1      -0.646   1.497  -0.164  0.00  0.00     0.022 A 
ATOM      7  C5  UNL d   1      -1.158   0.492   0.621  0.00  0.00     0.026 A 
ATOM      8  C6  UNL d   1      -0.445  -0.746   0.479  0.00  0.00    -0.082 A 
ATOM      9  C7  UNL d   1      -0.647  -2.003   1.099  0.00  0.00     0.045 A 
ENDROOT
TORSDOF 0
ENDMDL
