MODEL 1
REMARK minimizedAffinity -2.29004598
REMARK minimizedRMSD -1
REMARK  0 active torsions:
REMARK  status: ('A' for Active; 'I' for Inactive)
ROOT
ATOM      1  C   UNL d   1      -0.225  -2.835   0.780  0.00  0.00    -0.002 A 
ATOM      2  C1  UNL d   1       0.111  -3.106  -0.539  0.00  0.00     0.010 A 
ATOM      3  C2  UNL d   1       0.345  -2.066  -1.440  0.00  0.00     0.041 A 
ATOM      4  C3  UNL d   1       0.236  -0.736  -0.989  0.00  0.00    -0.075 A 
ATOM      5  S   UNL d   1       0.479   0.698  -1.914  0.00  0.00     0.015 SA
ATOM      6  C4  UNL d   1       0.143   1.705  -0.580  0.00  0.00     0.022 A 
ATOM      7  C5  UNL d   1      -0.150   0.981   0.551  0.00  0.00     0.026 A 
ATOM      8  C6  UNL d   1      -0.100  -0.438   0.334  0.00  0.00    -0.082 A 
ATOM      9  C7  UNL d   1      -0.332  -1.515   1.224  0.00  0.00     0.045 A 
ENDROOT
TORSDOF 0
ENDMDL
