MODEL 1
REMARK minimizedAffinity -3.92613125
REMARK minimizedRMSD -1
REMARK  0 active torsions:
REMARK  status: ('A' for Active; 'I' for Inactive)
ROOT
ATOM      1  C   UNL d   1      -0.021  -3.128   1.046  0.00  0.00    -0.002 A 
ATOM      2  C1  UNL d   1       0.992  -3.031   0.103  0.00  0.00     0.010 A 
ATOM      3  C2  UNL d   1       1.179  -1.851  -0.620  0.00  0.00     0.041 A 
ATOM      4  C3  UNL d   1       0.324  -0.759  -0.374  0.00  0.00    -0.075 A 
ATOM      5  S   UNL d   1       0.366   0.786  -1.138  0.00  0.00     0.015 SA
ATOM      6  C4  UNL d   1      -0.960   1.354  -0.230  0.00  0.00     0.022 A 
ATOM      7  C5  UNL d   1      -1.435   0.401   0.640  0.00  0.00     0.026 A 
ATOM      8  C6  UNL d   1      -0.703  -0.832   0.571  0.00  0.00    -0.082 A 
ATOM      9  C7  UNL d   1      -0.867  -2.043   1.287  0.00  0.00     0.045 A 
ENDROOT
TORSDOF 0
ENDMDL
