MODEL 1
REMARK minimizedAffinity -1.15629494
REMARK minimizedRMSD -1
REMARK  0 active torsions:
REMARK  status: ('A' for Active; 'I' for Inactive)
ROOT
ATOM      1  C   UNL d   1      -0.386  -0.031  -0.757  0.00  0.00    -0.002 A 
ATOM      2  C1  UNL d   1       0.453  -0.606   0.188  0.00  0.00     0.010 A 
ATOM      3  C2  UNL d   1       1.313   0.186   0.950  0.00  0.00     0.041 A 
ATOM      4  C3  UNL d   1       1.316   1.580   0.746  0.00  0.00    -0.075 A 
ATOM      5  S   UNL d   1       2.285   2.748   1.564  0.00  0.00     0.015 SA
ATOM      6  C4  UNL d   1       1.608   4.038   0.680  0.00  0.00     0.022 A 
ATOM      7  C5  UNL d   1       0.665   3.606  -0.222  0.00  0.00     0.026 A 
ATOM      8  C6  UNL d   1       0.480   2.183  -0.199  0.00  0.00    -0.082 A 
ATOM      9  C7  UNL d   1      -0.380   1.352  -0.956  0.00  0.00     0.045 A 
ENDROOT
TORSDOF 0
ENDMDL
