MODEL 1
REMARK minimizedAffinity -1.7186619
REMARK minimizedRMSD -1
REMARK  0 active torsions:
REMARK  status: ('A' for Active; 'I' for Inactive)
ROOT
ATOM      1  C   UNL d   1      -0.341  -2.770   0.728  0.00  0.00    -0.002 A 
ATOM      2  C1  UNL d   1       0.761  -2.481  -0.064  0.00  0.00     0.010 A 
ATOM      3  C2  UNL d   1       1.028  -1.168  -0.459  0.00  0.00     0.041 A 
ATOM      4  C3  UNL d   1       0.161  -0.141  -0.039  0.00  0.00    -0.075 A 
ATOM      5  S   UNL d   1       0.289   1.540  -0.399  0.00  0.00     0.015 SA
ATOM      6  C4  UNL d   1      -1.115   1.915   0.491  0.00  0.00     0.022 A 
ATOM      7  C5  UNL d   1      -1.681   0.797   1.056  0.00  0.00     0.026 A 
ATOM      8  C6  UNL d   1      -0.955  -0.406   0.760  0.00  0.00    -0.082 A 
ATOM      9  C7  UNL d   1      -1.199  -1.747   1.143  0.00  0.00     0.045 A 
ENDROOT
TORSDOF 0
ENDMDL
