MODEL 1
REMARK minimizedAffinity -2.55035996
REMARK minimizedRMSD -1
REMARK  0 active torsions:
REMARK  status: ('A' for Active; 'I' for Inactive)
ROOT
ATOM      1  C   UNL d   1      -0.593  -1.974   1.787  0.00  0.00    -0.002 A 
ATOM      2  C1  UNL d   1      -0.731  -2.363   0.462  0.00  0.00     0.010 A 
ATOM      3  C2  UNL d   1      -0.436  -1.475  -0.574  0.00  0.00     0.041 A 
ATOM      4  C3  UNL d   1       0.007  -0.176  -0.253  0.00  0.00    -0.075 A 
ATOM      5  S   UNL d   1       0.428   1.081  -1.355  0.00  0.00     0.015 SA
ATOM      6  C4  UNL d   1       0.802   2.164  -0.093  0.00  0.00     0.022 A 
ATOM      7  C5  UNL d   1       0.616   1.597   1.146  0.00  0.00     0.026 A 
ATOM      8  C6  UNL d   1       0.155   0.238   1.074  0.00  0.00    -0.082 A 
ATOM      9  C7  UNL d   1      -0.154  -0.686   2.101  0.00  0.00     0.045 A 
ENDROOT
TORSDOF 0
ENDMDL
