MODEL 1
REMARK minimizedAffinity -0.448131323
REMARK minimizedRMSD -1
REMARK  0 active torsions:
REMARK  status: ('A' for Active; 'I' for Inactive)
ROOT
ATOM      1  C   UNL d   1      -1.341  -2.529   0.936  0.00  0.00    -0.002 A 
ATOM      2  C1  UNL d   1      -0.389  -2.925   0.008  0.00  0.00     0.010 A 
ATOM      3  C2  UNL d   1       0.504  -1.998  -0.533  0.00  0.00     0.041 A 
ATOM      4  C3  UNL d   1       0.425  -0.654  -0.119  0.00  0.00    -0.075 A 
ATOM      5  S   UNL d   1       1.416   0.655  -0.645  0.00  0.00     0.015 SA
ATOM      6  C4  UNL d   1       0.599   1.771   0.351  0.00  0.00     0.022 A 
ATOM      7  C5  UNL d   1      -0.408   1.177   1.074  0.00  0.00     0.026 A 
ATOM      8  C6  UNL d   1      -0.524  -0.231   0.815  0.00  0.00    -0.082 A 
ATOM      9  C7  UNL d   1      -1.417  -1.194   1.344  0.00  0.00     0.045 A 
ENDROOT
TORSDOF 0
ENDMDL
