MODEL 1
REMARK minimizedAffinity 1.89715517
REMARK minimizedRMSD -1
REMARK  0 active torsions:
REMARK  status: ('A' for Active; 'I' for Inactive)
ROOT
ATOM      1  C   UNL d   1      -0.760  -1.758   1.849  0.00  0.00    -0.002 A 
ATOM      2  C1  UNL d   1      -0.946  -2.288   0.580  0.00  0.00     0.010 A 
ATOM      3  C2  UNL d   1      -0.641  -1.536  -0.556  0.00  0.00     0.041 A 
ATOM      4  C3  UNL d   1      -0.137  -0.230  -0.394  0.00  0.00    -0.075 A 
ATOM      5  S   UNL d   1       0.308   0.875  -1.640  0.00  0.00     0.015 SA
ATOM      6  C4  UNL d   1       0.757   2.076  -0.518  0.00  0.00     0.022 A 
ATOM      7  C5  UNL d   1       0.578   1.662   0.781  0.00  0.00     0.026 A 
ATOM      8  C6  UNL d   1       0.060   0.325   0.874  0.00  0.00    -0.082 A 
ATOM      9  C7  UNL d   1      -0.260  -0.462   2.006  0.00  0.00     0.045 A 
ENDROOT
TORSDOF 0
ENDMDL
