MODEL 1
REMARK minimizedAffinity -2.29540491
REMARK minimizedRMSD -1
REMARK  0 active torsions:
REMARK  status: ('A' for Active; 'I' for Inactive)
ROOT
ATOM      1  C   UNL d   1      -1.020  -2.133   1.310  0.00  0.00    -0.002 A 
ATOM      2  C1  UNL d   1       0.004  -2.560   0.477  0.00  0.00     0.010 A 
ATOM      3  C2  UNL d   1       0.705  -1.645  -0.312  0.00  0.00     0.041 A 
ATOM      4  C3  UNL d   1       0.356  -0.282  -0.248  0.00  0.00    -0.075 A 
ATOM      5  S   UNL d   1       1.076   1.018  -1.123  0.00  0.00     0.015 SA
ATOM      6  C4  UNL d   1       0.041   2.169  -0.411  0.00  0.00     0.022 A 
ATOM      7  C5  UNL d   1      -0.839   1.594   0.475  0.00  0.00     0.026 A 
ATOM      8  C6  UNL d   1      -0.671   0.172   0.584  0.00  0.00    -0.082 A 
ATOM      9  C7  UNL d   1      -1.364  -0.780   1.371  0.00  0.00     0.045 A 
ENDROOT
TORSDOF 0
ENDMDL
