MODEL 1
REMARK minimizedAffinity 0.116665021
REMARK minimizedRMSD -1
REMARK  0 active torsions:
REMARK  status: ('A' for Active; 'I' for Inactive)
ROOT
ATOM      1  C   UNL d   1      -3.158   3.872  -3.069  0.00  0.00     0.172 C 
ATOM      2  N   UNL d   1      -2.049   2.977  -2.835  0.00  0.00    -0.070 N 
ATOM      3  C1  UNL d   1      -0.727   3.279  -3.021  0.00  0.00    -0.004 A 
ATOM      4  C2  UNL d   1       0.012   2.164  -2.688  0.00  0.00    -0.047 A 
ATOM      5  C3  UNL d   1      -0.899   1.157  -2.289  0.00  0.00    -0.047 A 
ATOM      6  C4  UNL d   1      -2.168   1.687  -2.390  0.00  0.00    -0.004 A 
ENDROOT
TORSDOF 0
ENDMDL
