MODEL 1
REMARK minimizedAffinity 5.19257259
REMARK minimizedRMSD -1
REMARK  0 active torsions:
REMARK  status: ('A' for Active; 'I' for Inactive)
ROOT
ATOM      1  C   UNL d   1      -0.001  -1.043  -2.027  0.00  0.00     0.172 C 
ATOM      2  N   UNL d   1       1.012  -1.288  -1.027  0.00  0.00    -0.070 N 
ATOM      3  C1  UNL d   1       1.951  -2.284  -1.069  0.00  0.00    -0.004 A 
ATOM      4  C2  UNL d   1       2.727  -2.180   0.065  0.00  0.00    -0.047 A 
ATOM      5  C3  UNL d   1       2.236  -1.086   0.816  0.00  0.00    -0.047 A 
ATOM      6  C4  UNL d   1       1.174  -0.552   0.117  0.00  0.00    -0.004 A 
ENDROOT
TORSDOF 0
ENDMDL
