MODEL 1
REMARK minimizedAffinity 4.28840494
REMARK minimizedRMSD -1
REMARK  0 active torsions:
REMARK  status: ('A' for Active; 'I' for Inactive)
ROOT
ATOM      1  C   UNL d   1       0.006  -1.789   2.622  0.00  0.00     0.172 C 
ATOM      2  N   UNL d   1       0.978  -2.278   1.673  0.00  0.00    -0.070 N 
ATOM      3  C1  UNL d   1       1.639  -3.474   1.752  0.00  0.00    -0.004 A 
ATOM      4  C2  UNL d   1       2.475  -3.568   0.660  0.00  0.00    -0.047 A 
ATOM      5  C3  UNL d   1       2.312  -2.386  -0.101  0.00  0.00    -0.047 A 
ATOM      6  C4  UNL d   1       1.379  -1.605   0.549  0.00  0.00    -0.004 A 
ENDROOT
TORSDOF 0
ENDMDL
