MODEL 1
REMARK minimizedAffinity -1.14679778
REMARK minimizedRMSD -1
REMARK  0 active torsions:
REMARK  status: ('A' for Active; 'I' for Inactive)
ROOT
ATOM      1  C   UNL d   1       1.463  -2.761   0.917  0.00  0.00     0.172 C 
ATOM      2  N   UNL d   1       0.602  -1.913   1.707  0.00  0.00    -0.070 N 
ATOM      3  C1  UNL d   1      -0.156  -0.878   1.230  0.00  0.00    -0.004 A 
ATOM      4  C2  UNL d   1      -0.832  -0.323   2.295  0.00  0.00    -0.047 A 
ATOM      5  C3  UNL d   1      -0.467  -1.050   3.453  0.00  0.00    -0.047 A 
ATOM      6  C4  UNL d   1       0.422  -2.029   3.060  0.00  0.00    -0.004 A 
ENDROOT
TORSDOF 0
ENDMDL
