MODEL 1
REMARK minimizedAffinity 4.60487509
REMARK minimizedRMSD -1
REMARK  0 active torsions:
REMARK  status: ('A' for Active; 'I' for Inactive)
ROOT
ATOM      1  C   UNL d   1      -0.290  -1.266   2.847  0.00  0.00     0.172 C 
ATOM      2  N   UNL d   1       0.668  -1.826   1.922  0.00  0.00    -0.070 N 
ATOM      3  C1  UNL d   1       0.977  -1.318   0.688  0.00  0.00    -0.004 A 
ATOM      4  C2  UNL d   1       1.931  -2.137   0.122  0.00  0.00    -0.047 A 
ATOM      5  C3  UNL d   1       2.203  -3.172   1.048  0.00  0.00    -0.047 A 
ATOM      6  C4  UNL d   1       1.408  -2.955   2.153  0.00  0.00    -0.004 A 
ENDROOT
TORSDOF 0
ENDMDL
