MODEL 1
REMARK minimizedAffinity -0.0335728154
REMARK minimizedRMSD -1
REMARK  0 active torsions:
REMARK  status: ('A' for Active; 'I' for Inactive)
ROOT
ATOM      1  C   UNL d   1       0.310  -1.534   2.898  0.00  0.00     0.172 C 
ATOM      2  N   UNL d   1       1.113  -2.058   1.819  0.00  0.00    -0.070 N 
ATOM      3  C1  UNL d   1       1.688  -1.319   0.820  0.00  0.00    -0.004 A 
ATOM      4  C2  UNL d   1       2.369  -2.186  -0.008  0.00  0.00    -0.047 A 
ATOM      5  C3  UNL d   1       2.196  -3.491   0.511  0.00  0.00    -0.047 A 
ATOM      6  C4  UNL d   1       1.414  -3.383   1.642  0.00  0.00    -0.004 A 
ENDROOT
TORSDOF 0
ENDMDL
