MODEL 1
REMARK minimizedAffinity -3.90516949
REMARK minimizedRMSD -1
REMARK  1 active torsions:
REMARK  status: ('A' for Active; 'I' for Inactive)
REMARK    1  A    between atoms: C1_2  and  C2_3 
ROOT
ATOM      1  C2  UNL d   1       0.779  -0.745  -1.664  0.00  0.00    -0.081 A 
ATOM      2  C3  UNL d   1       0.313   0.535  -1.341  0.00  0.00     0.006 A 
ATOM      3  C4  UNL d   1       0.041   0.875  -0.014  0.00  0.00     0.002 A 
ATOM      4  C5  UNL d   1       0.238  -0.055   1.012  0.00  0.00    -0.080 A 
ATOM      5  C6  UNL d   1      -0.021   0.307   2.444  0.00  0.00     0.076 C 
ATOM      6  C7  UNL d   1       0.686  -1.340   0.687  0.00  0.00     0.002 A 
ATOM      7  C8  UNL d   1       0.958  -1.681  -0.640  0.00  0.00     0.006 A 
ENDROOT
BRANCH   1   8
ATOM      8  C1  UNL d   1       1.134  -1.095  -3.087  0.00  0.00     0.054 C 
ATOM      9  C   UNL d   1       1.470  -2.573  -3.226  0.00  0.00     0.018 C 
ENDBRANCH   1   8
TORSDOF 1
ENDMDL
