MODEL 1
REMARK minimizedAffinity -1.6147573
REMARK minimizedRMSD -1
REMARK  1 active torsions:
REMARK  status: ('A' for Active; 'I' for Inactive)
REMARK    1  A    between atoms: C1_2  and  C2_3 
ROOT
ATOM      1  C2  UNL d   1       0.655   0.108  -1.242  0.00  0.00    -0.081 A 
ATOM      2  C3  UNL d   1       1.393  -0.147  -0.079  0.00  0.00     0.006 A 
ATOM      3  C4  UNL d   1       0.839   0.098   1.179  0.00  0.00     0.002 A 
ATOM      4  C5  UNL d   1      -0.464   0.595   1.297  0.00  0.00    -0.080 A 
ATOM      5  C6  UNL d   1      -1.081   0.834   2.643  0.00  0.00     0.076 C 
ATOM      6  C7  UNL d   1      -1.195   0.866   0.135  0.00  0.00     0.002 A 
ATOM      7  C8  UNL d   1      -0.641   0.622  -1.123  0.00  0.00     0.006 A 
ENDROOT
BRANCH   1   8
ATOM      8  C1  UNL d   1       1.226  -0.217  -2.598  0.00  0.00     0.054 C 
ATOM      9  C   UNL d   1       0.779  -1.593  -3.072  0.00  0.00     0.018 C 
ENDBRANCH   1   8
TORSDOF 1
ENDMDL
