MODEL 1
REMARK minimizedAffinity -3.27191162
REMARK minimizedRMSD -1
REMARK  1 active torsions:
REMARK  status: ('A' for Active; 'I' for Inactive)
REMARK    1  A    between atoms: C1_2  and  C2_3 
ROOT
ATOM      1  C2  UNL d   1       0.938  -1.089  -2.768  0.00  0.00    -0.081 A 
ATOM      2  C3  UNL d   1       1.254   0.096  -2.093  0.00  0.00     0.006 A 
ATOM      3  C4  UNL d   1       0.367   0.638  -1.160  0.00  0.00     0.002 A 
ATOM      4  C5  UNL d   1      -0.847   0.000  -0.881  0.00  0.00    -0.080 A 
ATOM      5  C6  UNL d   1      -1.795   0.555   0.140  0.00  0.00     0.076 C 
ATOM      6  C7  UNL d   1      -1.170  -1.175  -1.568  0.00  0.00     0.002 A 
ATOM      7  C8  UNL d   1      -0.284  -1.716  -2.502  0.00  0.00     0.006 A 
ENDROOT
BRANCH   1   8
ATOM      8  C1  UNL d   1       1.922  -1.710  -3.727  0.00  0.00     0.054 C 
ATOM      9  C   UNL d   1       3.313  -1.117  -3.554  0.00  0.00     0.018 C 
ENDBRANCH   1   8
TORSDOF 1
ENDMDL
