MODEL 1
REMARK minimizedAffinity -2.16043925
REMARK minimizedRMSD -1
REMARK  1 active torsions:
REMARK  status: ('A' for Active; 'I' for Inactive)
REMARK    1  A    between atoms: C1_2  and  C2_3 
ROOT
ATOM      1  C2  UNL d   1       0.437   0.248  -1.339  0.00  0.00    -0.081 A 
ATOM      2  C3  UNL d   1       1.502   0.243  -0.429  0.00  0.00     0.006 A 
ATOM      3  C4  UNL d   1       1.262   0.345   0.943  0.00  0.00     0.002 A 
ATOM      4  C5  UNL d   1      -0.046   0.446   1.429  0.00  0.00    -0.080 A 
ATOM      5  C6  UNL d   1      -0.319   0.526   2.902  0.00  0.00     0.076 C 
ATOM      6  C7  UNL d   1      -1.109   0.469   0.520  0.00  0.00     0.002 A 
ATOM      7  C8  UNL d   1      -0.869   0.368  -0.852  0.00  0.00     0.006 A 
ENDROOT
BRANCH   1   8
ATOM      8  C1  UNL d   1       0.689   0.073  -2.814  0.00  0.00     0.054 C 
ATOM      9  C   UNL d   1       0.408  -1.356  -3.258  0.00  0.00     0.018 C 
ENDBRANCH   1   8
TORSDOF 1
ENDMDL
