MODEL 1
REMARK minimizedAffinity -3.46718693
REMARK minimizedRMSD -1
REMARK  1 active torsions:
REMARK  status: ('A' for Active; 'I' for Inactive)
REMARK    1  A    between atoms: C1_2  and  C2_3 
ROOT
ATOM      1  C2  UNL d   1       0.172  -0.547  -1.184  0.00  0.00    -0.081 A 
ATOM      2  C3  UNL d   1      -0.991  -0.734  -0.426  0.00  0.00     0.006 A 
ATOM      3  C4  UNL d   1      -1.047  -0.301   0.901  0.00  0.00     0.002 A 
ATOM      4  C5  UNL d   1       0.053   0.332   1.489  0.00  0.00    -0.080 A 
ATOM      5  C6  UNL d   1      -0.005   0.828   2.903  0.00  0.00     0.076 C 
ATOM      6  C7  UNL d   1       1.220   0.503   0.737  0.00  0.00     0.002 A 
ATOM      7  C8  UNL d   1       1.278   0.070  -0.590  0.00  0.00     0.006 A 
ENDROOT
BRANCH   1   8
ATOM      8  C1  UNL d   1       0.214  -0.954  -2.635  0.00  0.00     0.054 C 
ATOM      9  C   UNL d   1       1.517  -1.664  -2.973  0.00  0.00     0.018 C 
ENDBRANCH   1   8
TORSDOF 1
ENDMDL
