MODEL 1
REMARK minimizedAffinity -0.96932441
REMARK minimizedRMSD -1
REMARK  1 active torsions:
REMARK  status: ('A' for Active; 'I' for Inactive)
REMARK    1  A    between atoms: C1_2  and  C2_3 
ROOT
ATOM      1  C2  UNL d   1       4.033  -4.661   3.678  0.00  0.00    -0.081 A 
ATOM      2  C3  UNL d   1       4.852  -4.282   4.749  0.00  0.00     0.006 A 
ATOM      3  C4  UNL d   1       5.445  -3.017   4.773  0.00  0.00     0.002 A 
ATOM      4  C5  UNL d   1       5.224  -2.109   3.732  0.00  0.00    -0.080 A 
ATOM      5  C6  UNL d   1       5.831  -0.738   3.761  0.00  0.00     0.076 C 
ATOM      6  C7  UNL d   1       4.421  -2.495   2.654  0.00  0.00     0.002 A 
ATOM      7  C8  UNL d   1       3.827  -3.759   2.629  0.00  0.00     0.006 A 
ENDROOT
BRANCH   1   8
ATOM      8  C1  UNL d   1       3.340  -6.000   3.681  0.00  0.00     0.054 C 
ATOM      9  C   UNL d   1       2.141  -6.000   4.618  0.00  0.00     0.018 C 
ENDBRANCH   1   8
TORSDOF 1
ENDMDL
