MODEL 1
REMARK minimizedAffinity 1.4238354
REMARK minimizedRMSD -1
REMARK  1 active torsions:
REMARK  status: ('A' for Active; 'I' for Inactive)
REMARK    1  A    between atoms: C1_2  and  C2_3 
ROOT
ATOM      1  C2  UNL d   1       1.130   0.358  -1.288  0.00  0.00    -0.081 A 
ATOM      2  C3  UNL d   1      -0.264   0.332  -1.154  0.00  0.00     0.006 A 
ATOM      3  C4  UNL d   1      -0.854   0.362   0.112  0.00  0.00     0.002 A 
ATOM      4  C5  UNL d   1      -0.061   0.426   1.263  0.00  0.00    -0.080 A 
ATOM      5  C6  UNL d   1      -0.682   0.489   2.627  0.00  0.00     0.076 C 
ATOM      6  C7  UNL d   1       1.331   0.434   1.129  0.00  0.00     0.002 A 
ATOM      7  C8  UNL d   1       1.922   0.403  -0.136  0.00  0.00     0.006 A 
ENDROOT
BRANCH   1   8
ATOM      8  C1  UNL d   1       1.767   0.391  -2.654  0.00  0.00     0.054 C 
ATOM      9  C   UNL d   1       2.278  -0.984  -3.060  0.00  0.00     0.018 C 
ENDBRANCH   1   8
TORSDOF 1
ENDMDL
