MODEL 1
REMARK minimizedAffinity -3.95793295
REMARK minimizedRMSD -1
REMARK  1 active torsions:
REMARK  status: ('A' for Active; 'I' for Inactive)
REMARK    1  A    between atoms: C1_2  and  C2_3 
ROOT
ATOM      1  C2  UNL d   1       0.925   0.277  -1.380  0.00  0.00    -0.081 A 
ATOM      2  C3  UNL d   1       1.883   0.380  -0.364  0.00  0.00     0.006 A 
ATOM      3  C4  UNL d   1       1.491   0.448   0.975  0.00  0.00     0.002 A 
ATOM      4  C5  UNL d   1       0.136   0.406   1.321  0.00  0.00    -0.080 A 
ATOM      5  C6  UNL d   1      -0.296   0.448   2.757  0.00  0.00     0.076 C 
ATOM      6  C7  UNL d   1      -0.822   0.321   0.305  0.00  0.00     0.002 A 
ATOM      7  C8  UNL d   1      -0.431   0.254  -1.034  0.00  0.00     0.006 A 
ENDROOT
BRANCH   1   8
ATOM      8  C1  UNL d   1       1.347   0.138  -2.820  0.00  0.00     0.054 C 
ATOM      9  C   UNL d   1       1.365  -1.321  -3.253  0.00  0.00     0.018 C 
ENDBRANCH   1   8
TORSDOF 1
ENDMDL
