MODEL 1
REMARK minimizedAffinity -3.07170773
REMARK minimizedRMSD -1
REMARK  1 active torsions:
REMARK  status: ('A' for Active; 'I' for Inactive)
REMARK    1  A    between atoms: C1_2  and  C2_3 
ROOT
ATOM      1  C2  UNL d   1       0.319   0.037  -0.955  0.00  0.00    -0.081 A 
ATOM      2  C3  UNL d   1       1.042  -0.347   0.180  0.00  0.00     0.006 A 
ATOM      3  C4  UNL d   1       0.466  -0.261   1.450  0.00  0.00     0.002 A 
ATOM      4  C5  UNL d   1      -0.845   0.202   1.605  0.00  0.00    -0.080 A 
ATOM      5  C6  UNL d   1      -1.486   0.270   2.959  0.00  0.00     0.076 C 
ATOM      6  C7  UNL d   1      -1.562   0.602   0.472  0.00  0.00     0.002 A 
ATOM      7  C8  UNL d   1      -0.986   0.518  -0.798  0.00  0.00     0.006 A 
ENDROOT
BRANCH   1   8
ATOM      8  C1  UNL d   1       0.915  -0.115  -2.331  0.00  0.00     0.054 C 
ATOM      9  C   UNL d   1       0.150  -1.142  -3.155  0.00  0.00     0.018 C 
ENDBRANCH   1   8
TORSDOF 1
ENDMDL
