MODEL 1
REMARK minimizedAffinity -2.01132298
REMARK minimizedRMSD -1
REMARK  1 active torsions:
REMARK  status: ('A' for Active; 'I' for Inactive)
REMARK    1  A    between atoms: C1_2  and  C2_3 
ROOT
ATOM      1  C2  UNL d   1      -0.622   0.345   1.737  0.00  0.00    -0.081 A 
ATOM      2  C3  UNL d   1       0.741   0.375   1.416  0.00  0.00     0.006 A 
ATOM      3  C4  UNL d   1       1.155   0.343   0.083  0.00  0.00     0.002 A 
ATOM      4  C5  UNL d   1       0.215   0.290  -0.952  0.00  0.00    -0.080 A 
ATOM      5  C6  UNL d   1       0.645   0.286  -2.388  0.00  0.00     0.076 C 
ATOM      6  C7  UNL d   1      -1.146   0.242  -0.631  0.00  0.00     0.002 A 
ATOM      7  C8  UNL d   1      -1.561   0.273   0.703  0.00  0.00     0.006 A 
ENDROOT
BRANCH   1   8
ATOM      8  C1  UNL d   1      -1.074   0.444   3.172  0.00  0.00     0.054 C 
ATOM      9  C   UNL d   1      -2.472   1.039   3.272  0.00  0.00     0.018 C 
ENDBRANCH   1   8
TORSDOF 1
ENDMDL
