MODEL 1
REMARK minimizedAffinity -3.59086418
REMARK minimizedRMSD -1
REMARK  1 active torsions:
REMARK  status: ('A' for Active; 'I' for Inactive)
REMARK    1  A    between atoms: C1_2  and  C2_3 
ROOT
ATOM      1  C2  UNL d   1       0.703  -0.267  -1.490  0.00  0.00    -0.081 A 
ATOM      2  C3  UNL d   1      -0.432   0.463  -1.117  0.00  0.00     0.006 A 
ATOM      3  C4  UNL d   1      -0.695   0.723   0.231  0.00  0.00     0.002 A 
ATOM      4  C5  UNL d   1       0.176   0.265   1.225  0.00  0.00    -0.080 A 
ATOM      5  C6  UNL d   1      -0.079   0.563   2.673  0.00  0.00     0.076 C 
ATOM      6  C7  UNL d   1       1.300  -0.480   0.853  0.00  0.00     0.002 A 
ATOM      7  C8  UNL d   1       1.563  -0.741  -0.494  0.00  0.00     0.006 A 
ENDROOT
BRANCH   1   8
ATOM      8  C1  UNL d   1       1.023  -0.494  -2.946  0.00  0.00     0.054 C 
ATOM      9  C   UNL d   1       0.730  -1.929  -3.360  0.00  0.00     0.018 C 
ENDBRANCH   1   8
TORSDOF 1
ENDMDL
