MODEL 1
REMARK minimizedAffinity -3.71327734
REMARK minimizedRMSD -1
REMARK  1 active torsions:
REMARK  status: ('A' for Active; 'I' for Inactive)
REMARK    1  A    between atoms: C1_2  and  C2_3 
ROOT
ATOM      1  C2  UNL d   1       0.034   0.024  -0.849  0.00  0.00    -0.081 A 
ATOM      2  C3  UNL d   1      -1.307   0.261  -0.521  0.00  0.00     0.006 A 
ATOM      3  C4  UNL d   1      -1.726   0.236   0.811  0.00  0.00     0.002 A 
ATOM      4  C5  UNL d   1      -0.810  -0.019   1.838  0.00  0.00    -0.080 A 
ATOM      5  C6  UNL d   1      -1.241  -0.019   3.275  0.00  0.00     0.076 C 
ATOM      6  C7  UNL d   1       0.526  -0.273   1.510  0.00  0.00     0.002 A 
ATOM      7  C8  UNL d   1       0.945  -0.248   0.178  0.00  0.00     0.006 A 
ENDROOT
BRANCH   1   8
ATOM      8  C1  UNL d   1       0.501   0.115  -2.279  0.00  0.00     0.054 C 
ATOM      9  C   UNL d   1       0.596  -1.263  -2.918  0.00  0.00     0.018 C 
ENDBRANCH   1   8
TORSDOF 1
ENDMDL
