MODEL 1
REMARK minimizedAffinity 4.06670284
REMARK minimizedRMSD -1
REMARK  0 active torsions:
REMARK  status: ('A' for Active; 'I' for Inactive)
ROOT
ATOM      1  C   UNL d   1      -2.132  -5.988  -2.359  0.00  0.00     0.124 A 
ATOM      2  C1  UNL d   1      -2.566  -5.993  -3.678  0.00  0.00     0.062 A 
ATOM      3  C2  UNL d   1      -1.641  -5.994  -4.719  0.00  0.00     0.162 A 
ATOM      4  C3  UNL d   1      -0.274  -5.991  -4.445  0.00  0.00    -0.034 A 
ATOM      5  C4  UNL d   1       0.155  -5.985  -3.117  0.00  0.00     0.162 A 
ATOM      6  C5  UNL d   1      -0.773  -5.984  -2.080  0.00  0.00     0.062 A 
ATOM      7  F   UNL d   1      -0.352  -5.979  -0.807  0.00  0.00    -0.097 F 
ATOM      8  F1  UNL d   1       1.463  -5.982  -2.818  0.00  0.00    -0.096 F 
ATOM      9  I   UNL d   1       1.111  -5.992  -5.999  0.00  0.00    -0.060 I 
ATOM     10  F2  UNL d   1      -2.089  -5.998  -5.983  0.00  0.00    -0.096 F 
ATOM     11  F3  UNL d   1      -3.878  -5.995  -3.950  0.00  0.00    -0.097 F 
ATOM     12  F4  UNL d   1      -3.023  -5.986  -1.360  0.00  0.00    -0.092 F 
ENDROOT
TORSDOF 0
ENDMDL
