MODEL 1
REMARK minimizedAffinity 8.90124035
REMARK minimizedRMSD -1
REMARK  0 active torsions:
REMARK  status: ('A' for Active; 'I' for Inactive)
ROOT
ATOM      1  C   UNL d   1      -0.581  -1.596   0.990  0.00  0.00     0.124 A 
ATOM      2  C1  UNL d   1       0.732  -2.037   0.910  0.00  0.00     0.062 A 
ATOM      3  C2  UNL d   1       1.742  -1.164   0.517  0.00  0.00     0.162 A 
ATOM      4  C3  UNL d   1       1.442   0.161   0.200  0.00  0.00    -0.034 A 
ATOM      5  C4  UNL d   1       0.118   0.598   0.282  0.00  0.00     0.162 A 
ATOM      6  C5  UNL d   1      -0.887  -0.279   0.676  0.00  0.00     0.062 A 
ATOM      7  F   UNL d   1      -2.155   0.150   0.752  0.00  0.00    -0.097 F 
ATOM      8  F1  UNL d   1      -0.205   1.865  -0.015  0.00  0.00    -0.096 F 
ATOM      9  I   UNL d   1       2.949   1.470  -0.389  0.00  0.00    -0.060 I 
ATOM     10  F2  UNL d   1       3.002  -1.618   0.449  0.00  0.00    -0.096 F 
ATOM     11  F3  UNL d   1       1.030  -3.309   1.213  0.00  0.00    -0.097 F 
ATOM     12  F4  UNL d   1      -1.551  -2.438   1.368  0.00  0.00    -0.092 F 
ENDROOT
TORSDOF 0
ENDMDL
