MODEL 1
REMARK minimizedAffinity 16.8968849
REMARK minimizedRMSD -1
REMARK  0 active torsions:
REMARK  status: ('A' for Active; 'I' for Inactive)
ROOT
ATOM      1  C   UNL d   1      -5.342   2.645  -1.315  0.00  0.00     0.124 A 
ATOM      2  C1  UNL d   1      -5.570   4.014  -1.343  0.00  0.00     0.062 A 
ATOM      3  C2  UNL d   1      -5.758   4.668  -2.557  0.00  0.00     0.162 A 
ATOM      4  C3  UNL d   1      -5.720   3.953  -3.754  0.00  0.00    -0.034 A 
ATOM      5  C4  UNL d   1      -5.489   2.576  -3.718  0.00  0.00     0.162 A 
ATOM      6  C5  UNL d   1      -5.302   1.928  -2.502  0.00  0.00     0.062 A 
ATOM      7  F   UNL d   1      -5.082   0.605  -2.477  0.00  0.00    -0.097 F 
ATOM      8  F1  UNL d   1      -5.446   1.858  -4.850  0.00  0.00    -0.096 F 
ATOM      9  I   UNL d   1      -6.000   4.926  -5.572  0.00  0.00    -0.060 I 
ATOM     10  F2  UNL d   1      -5.976   5.991  -2.554  0.00  0.00    -0.096 F 
ATOM     11  F3  UNL d   1      -5.608   4.709  -0.197  0.00  0.00    -0.097 F 
ATOM     12  F4  UNL d   1      -5.161   2.019  -0.145  0.00  0.00    -0.092 F 
ENDROOT
TORSDOF 0
ENDMDL
