MODEL 1
REMARK minimizedAffinity 7.50309753
REMARK minimizedRMSD -1
REMARK  0 active torsions:
REMARK  status: ('A' for Active; 'I' for Inactive)
ROOT
ATOM      1  C   UNL d   1       2.557   0.948  -0.059  0.00  0.00     0.124 A 
ATOM      2  C1  UNL d   1       3.211  -0.162   0.459  0.00  0.00     0.062 A 
ATOM      3  C2  UNL d   1       2.481  -1.262   0.900  0.00  0.00     0.162 A 
ATOM      4  C3  UNL d   1       1.088  -1.258   0.825  0.00  0.00    -0.034 A 
ATOM      5  C4  UNL d   1       0.438  -0.138   0.304  0.00  0.00     0.162 A 
ATOM      6  C5  UNL d   1       1.172   0.959  -0.135  0.00  0.00     0.062 A 
ATOM      7  F   UNL d   1       0.539   2.030  -0.634  0.00  0.00    -0.097 F 
ATOM      8  F1  UNL d   1      -0.900  -0.101   0.218  0.00  0.00    -0.096 F 
ATOM      9  I   UNL d   1      -0.007  -2.901   1.483  0.00  0.00    -0.060 I 
ATOM     10  F2  UNL d   1       3.139  -2.321   1.395  0.00  0.00    -0.096 F 
ATOM     11  F3  UNL d   1       4.550  -0.175   0.535  0.00  0.00    -0.097 F 
ATOM     12  F4  UNL d   1       3.262   2.005  -0.481  0.00  0.00    -0.092 F 
ENDROOT
TORSDOF 0
ENDMDL
