MODEL 1
REMARK minimizedAffinity 9.22813511
REMARK minimizedRMSD -1
REMARK  0 active torsions:
REMARK  status: ('A' for Active; 'I' for Inactive)
ROOT
ATOM      1  C   UNL d   1      -0.598  -5.991  -4.492  0.00  0.00     0.124 A 
ATOM      2  C1  UNL d   1       0.004  -5.993  -3.242  0.00  0.00     0.062 A 
ATOM      3  C2  UNL d   1      -0.776  -5.995  -2.089  0.00  0.00     0.162 A 
ATOM      4  C3  UNL d   1      -2.168  -5.994  -2.182  0.00  0.00    -0.034 A 
ATOM      5  C4  UNL d   1      -2.766  -5.990  -3.443  0.00  0.00     0.162 A 
ATOM      6  C5  UNL d   1      -1.982  -5.989  -4.592  0.00  0.00     0.062 A 
ATOM      7  F   UNL d   1      -2.565  -5.987  -5.799  0.00  0.00    -0.097 F 
ATOM      8  F1  UNL d   1      -4.102  -5.990  -3.568  0.00  0.00    -0.096 F 
ATOM      9  I   UNL d   1      -3.338  -5.996  -0.461  0.00  0.00    -0.060 I 
ATOM     10  F2  UNL d   1      -0.167  -5.997  -0.894  0.00  0.00    -0.096 F 
ATOM     11  F3  UNL d   1       1.342  -5.994  -3.143  0.00  0.00    -0.097 F 
ATOM     12  F4  UNL d   1       0.155  -5.989  -5.600  0.00  0.00    -0.092 F 
ENDROOT
TORSDOF 0
ENDMDL
