MODEL 1
REMARK minimizedAffinity 5.7188859
REMARK minimizedRMSD -1
REMARK  0 active torsions:
REMARK  status: ('A' for Active; 'I' for Inactive)
ROOT
ATOM      1  C   UNL d   1       2.637  -0.967   0.348  0.00  0.00     0.124 A 
ATOM      2  C1  UNL d   1       2.037   0.251   0.061  0.00  0.00     0.062 A 
ATOM      3  C2  UNL d   1       0.659   0.400   0.189  0.00  0.00     0.162 A 
ATOM      4  C3  UNL d   1      -0.130  -0.673   0.606  0.00  0.00    -0.034 A 
ATOM      5  C4  UNL d   1       0.481  -1.895   0.892  0.00  0.00     0.162 A 
ATOM      6  C5  UNL d   1       1.858  -2.039   0.763  0.00  0.00     0.062 A 
ATOM      7  F   UNL d   1       2.436  -3.217   1.041  0.00  0.00    -0.097 F 
ATOM      8  F1  UNL d   1      -0.247  -2.947   1.296  0.00  0.00    -0.096 F 
ATOM      9  I   UNL d   1      -2.190  -0.454   0.798  0.00  0.00    -0.060 I 
ATOM     10  F2  UNL d   1       0.106   1.589  -0.095  0.00  0.00    -0.096 F 
ATOM     11  F3  UNL d   1       2.786   1.288  -0.341  0.00  0.00    -0.097 F 
ATOM     12  F4  UNL d   1       3.962  -1.108   0.224  0.00  0.00    -0.092 F 
ENDROOT
TORSDOF 0
ENDMDL
