MODEL 1
REMARK minimizedAffinity 14.8058681
REMARK minimizedRMSD -1
REMARK  0 active torsions:
REMARK  status: ('A' for Active; 'I' for Inactive)
ROOT
ATOM      1  C   UNL d   1       2.833   0.866   0.113  0.00  0.00     0.124 A 
ATOM      2  C1  UNL d   1       3.423  -0.375   0.312  0.00  0.00     0.062 A 
ATOM      3  C2  UNL d   1       2.635  -1.487   0.598  0.00  0.00     0.162 A 
ATOM      4  C3  UNL d   1       1.248  -1.363   0.684  0.00  0.00    -0.034 A 
ATOM      5  C4  UNL d   1       0.662  -0.112   0.482  0.00  0.00     0.162 A 
ATOM      6  C5  UNL d   1       1.454   0.996   0.198  0.00  0.00     0.062 A 
ATOM      7  F   UNL d   1       0.882   2.193   0.005  0.00  0.00    -0.097 F 
ATOM      8  F1  UNL d   1      -0.668   0.042   0.558  0.00  0.00    -0.096 F 
ATOM      9  I   UNL d   1       0.067  -3.023   1.110  0.00  0.00    -0.060 I 
ATOM     10  F2  UNL d   1       3.232  -2.673   0.786  0.00  0.00    -0.096 F 
ATOM     11  F3  UNL d   1       4.755  -0.503   0.232  0.00  0.00    -0.097 F 
ATOM     12  F4  UNL d   1       3.593   1.934  -0.161  0.00  0.00    -0.092 F 
ENDROOT
TORSDOF 0
ENDMDL
