MODEL 1
REMARK minimizedAffinity 14.688571
REMARK minimizedRMSD -1
REMARK  0 active torsions:
REMARK  status: ('A' for Active; 'I' for Inactive)
ROOT
ATOM      1  C   UNL d   1       0.706  -5.749  -3.647  0.00  0.00     0.124 A 
ATOM      2  C1  UNL d   1      -0.136  -5.820  -4.748  0.00  0.00     0.062 A 
ATOM      3  C2  UNL d   1      -1.515  -5.887  -4.572  0.00  0.00     0.162 A 
ATOM      4  C3  UNL d   1      -2.062  -5.883  -3.289  0.00  0.00    -0.034 A 
ATOM      5  C4  UNL d   1      -1.209  -5.813  -2.186  0.00  0.00     0.162 A 
ATOM      6  C5  UNL d   1       0.169  -5.746  -2.367  0.00  0.00     0.062 A 
ATOM      7  F   UNL d   1       0.980  -5.678  -1.302  0.00  0.00    -0.097 F 
ATOM      8  F1  UNL d   1      -1.701  -5.807  -0.939  0.00  0.00    -0.096 F 
ATOM      9  I   UNL d   1      -4.123  -5.983  -3.022  0.00  0.00    -0.060 I 
ATOM     10  F2  UNL d   1      -2.304  -5.954  -5.655  0.00  0.00    -0.096 F 
ATOM     11  F3  UNL d   1       0.381  -5.824  -5.985  0.00  0.00    -0.097 F 
ATOM     12  F4  UNL d   1       2.032  -5.686  -3.818  0.00  0.00    -0.092 F 
ENDROOT
TORSDOF 0
ENDMDL
