MODEL 1
REMARK minimizedAffinity 12.1921902
REMARK minimizedRMSD -1
REMARK  0 active torsions:
REMARK  status: ('A' for Active; 'I' for Inactive)
ROOT
ATOM      1  C   UNL d   1       0.368  -2.058   1.012  0.00  0.00     0.124 A 
ATOM      2  C1  UNL d   1      -0.160  -0.876   0.511  0.00  0.00     0.062 A 
ATOM      3  C2  UNL d   1       0.685   0.118   0.027  0.00  0.00     0.162 A 
ATOM      4  C3  UNL d   1       2.068  -0.064   0.041  0.00  0.00    -0.034 A 
ATOM      5  C4  UNL d   1       2.591  -1.255   0.548  0.00  0.00     0.162 A 
ATOM      6  C5  UNL d   1       1.743  -2.246   1.030  0.00  0.00     0.062 A 
ATOM      7  F   UNL d   1       2.255  -3.387   1.515  0.00  0.00    -0.097 F 
ATOM      8  F1  UNL d   1       3.916  -1.464   0.576  0.00  0.00    -0.096 F 
ATOM      9  I   UNL d   1       3.334   1.420  -0.682  0.00  0.00    -0.060 I 
ATOM     10  F2  UNL d   1       0.147   1.250  -0.452  0.00  0.00    -0.096 F 
ATOM     11  F3  UNL d   1      -1.488  -0.691   0.493  0.00  0.00    -0.097 F 
ATOM     12  F4  UNL d   1      -0.447  -3.012   1.478  0.00  0.00    -0.092 F 
ENDROOT
TORSDOF 0
ENDMDL
