MODEL 1
REMARK minimizedAffinity 3.90032673
REMARK minimizedRMSD -1
REMARK  0 active torsions:
REMARK  status: ('A' for Active; 'I' for Inactive)
ROOT
ATOM      1  C   UNL d   1       2.681  -0.799   0.830  0.00  0.00     0.124 A 
ATOM      2  C1  UNL d   1       2.037   0.353   0.401  0.00  0.00     0.062 A 
ATOM      3  C2  UNL d   1       0.648   0.398   0.340  0.00  0.00     0.162 A 
ATOM      4  C3  UNL d   1      -0.109  -0.714   0.710  0.00  0.00    -0.034 A 
ATOM      5  C4  UNL d   1       0.545  -1.870   1.139  0.00  0.00     0.162 A 
ATOM      6  C5  UNL d   1       1.934  -1.910   1.198  0.00  0.00     0.062 A 
ATOM      7  F   UNL d   1       2.554  -3.024   1.613  0.00  0.00    -0.097 F 
ATOM      8  F1  UNL d   1      -0.152  -2.957   1.503  0.00  0.00    -0.096 F 
ATOM      9  I   UNL d   1      -2.188  -0.651   0.620  0.00  0.00    -0.060 I 
ATOM     10  F2  UNL d   1       0.053   1.525  -0.079  0.00  0.00    -0.096 F 
ATOM     11  F3  UNL d   1       2.756   1.427   0.043  0.00  0.00    -0.097 F 
ATOM     12  F4  UNL d   1       4.018  -0.840   0.886  0.00  0.00    -0.092 F 
ENDROOT
TORSDOF 0
ENDMDL
