MODEL 1
REMARK minimizedAffinity 6.94473696
REMARK minimizedRMSD -1
REMARK  0 active torsions:
REMARK  status: ('A' for Active; 'I' for Inactive)
ROOT
ATOM      1  C   UNL d   1       1.607  -0.641   0.966  0.00  0.00     0.124 A 
ATOM      2  C1  UNL d   1       1.739  -2.022   0.998  0.00  0.00     0.062 A 
ATOM      3  C2  UNL d   1       0.624  -2.837   0.827  0.00  0.00     0.162 A 
ATOM      4  C3  UNL d   1      -0.635  -2.272   0.622  0.00  0.00    -0.034 A 
ATOM      5  C4  UNL d   1      -0.761  -0.882   0.592  0.00  0.00     0.162 A 
ATOM      6  C5  UNL d   1       0.358  -0.072   0.763  0.00  0.00     0.062 A 
ATOM      7  F   UNL d   1       0.228   1.262   0.732  0.00  0.00    -0.097 F 
ATOM      8  F1  UNL d   1      -1.956  -0.305   0.397  0.00  0.00    -0.096 F 
ATOM      9  I   UNL d   1      -2.306  -3.486   0.367  0.00  0.00    -0.060 I 
ATOM     10  F2  UNL d   1       0.781  -4.168   0.863  0.00  0.00    -0.096 F 
ATOM     11  F3  UNL d   1       2.945  -2.574   1.194  0.00  0.00    -0.097 F 
ATOM     12  F4  UNL d   1       2.682   0.140   1.131  0.00  0.00    -0.092 F 
ENDROOT
TORSDOF 0
ENDMDL
