MODEL 1
REMARK minimizedAffinity 0.300099045
REMARK minimizedRMSD -1
REMARK  0 active torsions:
REMARK  status: ('A' for Active; 'I' for Inactive)
ROOT
ATOM      1  C   UNL d   1      -2.788  -5.987  -3.624  0.00  0.00     0.124 A 
ATOM      2  C1  UNL d   1      -2.121  -5.986  -2.407  0.00  0.00     0.062 A 
ATOM      3  C2  UNL d   1      -0.729  -5.989  -2.371  0.00  0.00     0.162 A 
ATOM      4  C3  UNL d   1       0.005  -5.991  -3.557  0.00  0.00    -0.034 A 
ATOM      5  C4  UNL d   1      -0.673  -5.992  -4.777  0.00  0.00     0.162 A 
ATOM      6  C5  UNL d   1      -2.064  -5.990  -4.808  0.00  0.00     0.062 A 
ATOM      7  F   UNL d   1      -2.706  -5.990  -5.985  0.00  0.00    -0.097 F 
ATOM      8  F1  UNL d   1       0.002  -5.994  -5.936  0.00  0.00    -0.096 F 
ATOM      9  I   UNL d   1       2.086  -5.995  -3.508  0.00  0.00    -0.060 I 
ATOM     10  F2  UNL d   1      -0.111  -5.989  -1.181  0.00  0.00    -0.096 F 
ATOM     11  F3  UNL d   1      -2.818  -5.984  -1.262  0.00  0.00    -0.097 F 
ATOM     12  F4  UNL d   1      -4.127  -5.985  -3.655  0.00  0.00    -0.092 F 
ENDROOT
TORSDOF 0
ENDMDL
