MODEL 1
REMARK minimizedAffinity 10.0049191
REMARK minimizedRMSD -1
REMARK  0 active torsions:
REMARK  status: ('A' for Active; 'I' for Inactive)
ROOT
ATOM      1  C   UNL d   1       1.162  -5.527  -3.644  0.00  0.00     0.124 A 
ATOM      2  C1  UNL d   1       0.466  -5.495  -2.444  0.00  0.00     0.062 A 
ATOM      3  C2  UNL d   1      -0.919  -5.629  -2.434  0.00  0.00     0.162 A 
ATOM      4  C3  UNL d   1      -1.619  -5.798  -3.629  0.00  0.00    -0.034 A 
ATOM      5  C4  UNL d   1      -0.912  -5.829  -4.832  0.00  0.00     0.162 A 
ATOM      6  C5  UNL d   1       0.472  -5.694  -4.837  0.00  0.00     0.062 A 
ATOM      7  F   UNL d   1       1.143  -5.725  -5.998  0.00  0.00    -0.097 F 
ATOM      8  F1  UNL d   1      -1.553  -5.990  -5.999  0.00  0.00    -0.096 F 
ATOM      9  I   UNL d   1      -3.690  -6.000  -3.618  0.00  0.00    -0.060 I 
ATOM     10  F2  UNL d   1      -1.566  -5.594  -1.259  0.00  0.00    -0.096 F 
ATOM     11  F3  UNL d   1       1.130  -5.333  -1.290  0.00  0.00    -0.097 F 
ATOM     12  F4  UNL d   1       2.494  -5.396  -3.651  0.00  0.00    -0.092 F 
ENDROOT
TORSDOF 0
ENDMDL
