MODEL 1
REMARK minimizedAffinity 4.75361776
REMARK minimizedRMSD -1
REMARK  0 active torsions:
REMARK  status: ('A' for Active; 'I' for Inactive)
ROOT
ATOM      1  C   UNL d   1       1.352  -5.704  -3.641  0.00  0.00     0.124 A 
ATOM      2  C1  UNL d   1       0.673  -5.684  -2.430  0.00  0.00     0.062 A 
ATOM      3  C2  UNL d   1      -0.716  -5.768  -2.405  0.00  0.00     0.162 A 
ATOM      4  C3  UNL d   1      -1.437  -5.874  -3.595  0.00  0.00    -0.034 A 
ATOM      5  C4  UNL d   1      -0.747  -5.892  -4.808  0.00  0.00     0.162 A 
ATOM      6  C5  UNL d   1       0.641  -5.808  -4.828  0.00  0.00     0.062 A 
ATOM      7  F   UNL d   1       1.295  -5.827  -5.999  0.00  0.00    -0.097 F 
ATOM      8  F1  UNL d   1      -1.408  -5.993  -5.971  0.00  0.00    -0.096 F 
ATOM      9  I   UNL d   1      -3.514  -6.000  -3.561  0.00  0.00    -0.060 I 
ATOM     10  F2  UNL d   1      -1.346  -5.747  -1.221  0.00  0.00    -0.096 F 
ATOM     11  F3  UNL d   1       1.357  -5.583  -1.281  0.00  0.00    -0.097 F 
ATOM     12  F4  UNL d   1       2.688  -5.622  -3.662  0.00  0.00    -0.092 F 
ENDROOT
TORSDOF 0
ENDMDL
