MODEL 1
REMARK minimizedAffinity 9.16562557
REMARK minimizedRMSD -1
REMARK  0 active torsions:
REMARK  status: ('A' for Active; 'I' for Inactive)
ROOT
ATOM      1  C   UNL d   1      -0.832  -1.511   1.069  0.00  0.00     0.124 A 
ATOM      2  C1  UNL d   1       0.457  -1.931   1.368  0.00  0.00     0.062 A 
ATOM      3  C2  UNL d   1       1.550  -1.151   1.001  0.00  0.00     0.162 A 
ATOM      4  C3  UNL d   1       1.359   0.057   0.331  0.00  0.00    -0.034 A 
ATOM      5  C4  UNL d   1       0.060   0.472   0.032  0.00  0.00     0.162 A 
ATOM      6  C5  UNL d   1      -1.029  -0.311   0.401  0.00  0.00     0.062 A 
ATOM      7  F   UNL d   1      -2.273   0.096   0.111  0.00  0.00    -0.097 F 
ATOM      8  F1  UNL d   1      -0.159   1.628  -0.612  0.00  0.00    -0.096 F 
ATOM      9  I   UNL d   1       2.991   1.225  -0.220  0.00  0.00    -0.060 I 
ATOM     10  F2  UNL d   1       2.784  -1.581   1.304  0.00  0.00    -0.096 F 
ATOM     11  F3  UNL d   1       0.650  -3.091   2.013  0.00  0.00    -0.097 F 
ATOM     12  F4  UNL d   1      -1.882  -2.264   1.422  0.00  0.00    -0.092 F 
ENDROOT
TORSDOF 0
ENDMDL
