MODEL 1
REMARK minimizedAffinity 2.05026984
REMARK minimizedRMSD -1
REMARK  0 active torsions:
REMARK  status: ('A' for Active; 'I' for Inactive)
ROOT
ATOM      1  C   UNL d   1       1.313  -5.401  -3.093  0.00  0.00     0.124 A 
ATOM      2  C1  UNL d   1       0.623  -5.353  -1.889  0.00  0.00     0.062 A 
ATOM      3  C2  UNL d   1      -0.759  -5.523  -1.868  0.00  0.00     0.162 A 
ATOM      4  C3  UNL d   1      -1.459  -5.744  -3.053  0.00  0.00    -0.034 A 
ATOM      5  C4  UNL d   1      -0.758  -5.790  -4.260  0.00  0.00     0.162 A 
ATOM      6  C5  UNL d   1       0.622  -5.619  -4.276  0.00  0.00     0.062 A 
ATOM      7  F   UNL d   1       1.288  -5.665  -5.440  0.00  0.00    -0.097 F 
ATOM      8  F1  UNL d   1      -1.401  -6.000  -5.418  0.00  0.00    -0.096 F 
ATOM      9  I   UNL d   1      -3.525  -5.999  -3.025  0.00  0.00    -0.060 I 
ATOM     10  F2  UNL d   1      -1.400  -5.473  -0.691  0.00  0.00    -0.096 F 
ATOM     11  F3  UNL d   1       1.288  -5.141  -0.744  0.00  0.00    -0.097 F 
ATOM     12  F4  UNL d   1       2.642  -5.235  -3.111  0.00  0.00    -0.092 F 
ENDROOT
TORSDOF 0
ENDMDL
