MODEL 1
REMARK minimizedAffinity 21.2131195
REMARK minimizedRMSD -1
REMARK  0 active torsions:
REMARK  status: ('A' for Active; 'I' for Inactive)
ROOT
ATOM      1  N1  IND d   1       1.462  -1.295   4.070  0.00  0.00    -0.196 N 
ATOM      2  C2  IND d   1       2.114  -2.472   3.828  0.00  0.00     0.054 A 
ATOM      3  C3  IND d   1       1.425  -3.215   2.933  0.00  0.00    -0.031 A 
ATOM      4  C4  IND d   1      -0.740  -2.651   1.660  0.00  0.00     0.051 A 
ATOM      5  C5  IND d   1      -1.723  -1.706   1.573  0.00  0.00    -0.031 A 
ATOM      6  C6  IND d   1      -1.693  -0.550   2.326  0.00  0.00     0.015 A 
ATOM      7  C7  IND d   1      -0.667  -0.291   3.191  0.00  0.00    -0.016 A 
ATOM      8  C8  IND d   1       0.329  -1.252   3.288  0.00  0.00    -0.047 A 
ATOM      9  C9  IND d   1       0.282  -2.446   2.557  0.00  0.00    -0.096 A 
ATOM     10  HN1 IND d   1       1.718  -0.683   4.618  0.00  0.00     0.298 HD
ENDROOT
TORSDOF 0
ENDMDL
