MODEL 1
REMARK minimizedAffinity 10.5019417
REMARK minimizedRMSD -1
REMARK  0 active torsions:
REMARK  status: ('A' for Active; 'I' for Inactive)
ROOT
ATOM      1  N1  IND d   1      -0.830   3.437  -5.340  0.00  0.00    -0.196 N 
ATOM      2  C2  IND d   1      -1.672   4.512  -5.264  0.00  0.00     0.054 A 
ATOM      3  C3  IND d   1      -1.322   5.311  -4.231  0.00  0.00    -0.031 A 
ATOM      4  C4  IND d   1       0.658   5.101  -2.599  0.00  0.00     0.051 A 
ATOM      5  C5  IND d   1       1.683   4.267  -2.250  0.00  0.00    -0.031 A 
ATOM      6  C6  IND d   1       1.930   3.092  -2.929  0.00  0.00     0.015 A 
ATOM      7  C7  IND d   1       1.164   2.710  -3.994  0.00  0.00    -0.016 A 
ATOM      8  C8  IND d   1       0.117   3.551  -4.347  0.00  0.00    -0.047 A 
ATOM      9  C9  IND d   1      -0.164   4.724  -3.634  0.00  0.00    -0.096 A 
ATOM     10  HN1 IND d   1      -0.883   2.798  -5.913  0.00  0.00     0.298 HD
ENDROOT
TORSDOF 0
ENDMDL
