MODEL 1
REMARK minimizedAffinity 15.7222719
REMARK minimizedRMSD -1
REMARK  0 active torsions:
REMARK  status: ('A' for Active; 'I' for Inactive)
ROOT
ATOM      1  N1  IND d   1       5.477   4.519  -4.875  0.00  0.00    -0.196 N 
ATOM      2  C2  IND d   1       5.994   5.569  -4.169  0.00  0.00     0.054 A 
ATOM      3  C3  IND d   1       5.196   5.868  -3.119  0.00  0.00    -0.031 A 
ATOM      4  C4  IND d   1       3.049   4.699  -2.312  0.00  0.00     0.051 A 
ATOM      5  C5  IND d   1       2.165   3.715  -2.654  0.00  0.00    -0.031 A 
ATOM      6  C6  IND d   1       2.345   2.930  -3.775  0.00  0.00     0.015 A 
ATOM      7  C7  IND d   1       3.427   3.094  -4.593  0.00  0.00    -0.016 A 
ATOM      8  C8  IND d   1       4.322   4.098  -4.253  0.00  0.00    -0.047 A 
ATOM      9  C9  IND d   1       4.123   4.926  -3.141  0.00  0.00    -0.096 A 
ATOM     10  HN1 IND d   1       5.816   4.179  -5.588  0.00  0.00     0.298 HD
ENDROOT
TORSDOF 0
ENDMDL
