MODEL 1
REMARK minimizedAffinity 19.2533073
REMARK minimizedRMSD -1
REMARK  0 active torsions:
REMARK  status: ('A' for Active; 'I' for Inactive)
ROOT
ATOM      1  N1  IND d   1      -6.000   0.902  -3.418  0.00  0.00    -0.196 N 
ATOM      2  C2  IND d   1      -5.808  -0.371  -3.879  0.00  0.00     0.054 A 
ATOM      3  C3  IND d   1      -5.341  -1.164  -2.889  0.00  0.00    -0.031 A 
ATOM      4  C4  IND d   1      -4.913  -0.608  -0.412  0.00  0.00     0.051 A 
ATOM      5  C5  IND d   1      -4.908   0.433   0.473  0.00  0.00    -0.031 A 
ATOM      6  C6  IND d   1      -5.276   1.709   0.099  0.00  0.00     0.015 A 
ATOM      7  C7  IND d   1      -5.676   1.990  -1.177  0.00  0.00    -0.016 A 
ATOM      8  C8  IND d   1      -5.676   0.937  -2.080  0.00  0.00    -0.047 A 
ATOM      9  C9  IND d   1      -5.263  -0.352  -1.717  0.00  0.00    -0.096 A 
ATOM     10  HN1 IND d   1      -6.276   1.568  -3.886  0.00  0.00     0.298 HD
ENDROOT
TORSDOF 0
ENDMDL
