MODEL 1
REMARK minimizedAffinity 11.1657209
REMARK minimizedRMSD -1
REMARK  0 active torsions:
REMARK  status: ('A' for Active; 'I' for Inactive)
ROOT
ATOM      1  N1  IND d   1       4.892   3.787  -5.539  0.00  0.00    -0.196 N 
ATOM      2  C2  IND d   1       5.998   4.526  -5.223  0.00  0.00     0.054 A 
ATOM      3  C3  IND d   1       5.806   5.185  -4.058  0.00  0.00    -0.031 A 
ATOM      4  C4  IND d   1       3.795   5.117  -2.452  0.00  0.00     0.051 A 
ATOM      5  C5  IND d   1       2.530   4.613  -2.330  0.00  0.00    -0.031 A 
ATOM      6  C6  IND d   1       1.978   3.789  -3.289  0.00  0.00     0.015 A 
ATOM      7  C7  IND d   1       2.678   3.427  -4.406  0.00  0.00    -0.016 A 
ATOM      8  C8  IND d   1       3.959   3.943  -4.537  0.00  0.00    -0.047 A 
ATOM      9  C9  IND d   1       4.509   4.814  -3.587  0.00  0.00    -0.096 A 
ATOM     10  HN1 IND d   1       4.795   3.306  -6.244  0.00  0.00     0.298 HD
ENDROOT
TORSDOF 0
ENDMDL
