MODEL 1
REMARK minimizedAffinity 26.1245861
REMARK minimizedRMSD -1
REMARK  0 active torsions:
REMARK  status: ('A' for Active; 'I' for Inactive)
ROOT
ATOM      1  N1  IND d   1       2.038   2.161  -3.746  0.00  0.00    -0.196 N 
ATOM      2  C2  IND d   1       1.675   2.339  -2.440  0.00  0.00     0.054 A 
ATOM      3  C3  IND d   1       2.628   3.031  -1.777  0.00  0.00    -0.031 A 
ATOM      4  C4  IND d   1       4.816   4.059  -2.661  0.00  0.00     0.051 A 
ATOM      5  C5  IND d   1       5.598   4.131  -3.779  0.00  0.00    -0.031 A 
ATOM      6  C6  IND d   1       5.224   3.540  -4.969  0.00  0.00     0.015 A 
ATOM      7  C7  IND d   1       4.044   2.862  -5.088  0.00  0.00    -0.016 A 
ATOM      8  C8  IND d   1       3.251   2.781  -3.952  0.00  0.00    -0.047 A 
ATOM      9  C9  IND d   1       3.645   3.343  -2.730  0.00  0.00    -0.096 A 
ATOM     10  HN1 IND d   1       1.585   1.735  -4.340  0.00  0.00     0.298 HD
ENDROOT
TORSDOF 0
ENDMDL
