MODEL 1
REMARK minimizedAffinity 19.4255257
REMARK minimizedRMSD -1
REMARK  0 active torsions:
REMARK  status: ('A' for Active; 'I' for Inactive)
ROOT
ATOM      1  N1  IND d   1       2.752   4.118  -5.999  0.00  0.00    -0.196 N 
ATOM      2  C2  IND d   1       3.935   3.432  -5.999  0.00  0.00     0.054 A 
ATOM      3  C3  IND d   1       4.122   2.818  -4.810  0.00  0.00    -0.031 A 
ATOM      4  C4  IND d   1       2.571   2.718  -2.758  0.00  0.00     0.051 A 
ATOM      5  C5  IND d   1       1.397   3.219  -2.270  0.00  0.00    -0.031 A 
ATOM      6  C6  IND d   1       0.597   4.060  -3.016  0.00  0.00     0.015 A 
ATOM      7  C7  IND d   1       0.937   4.424  -4.288  0.00  0.00    -0.016 A 
ATOM      8  C8  IND d   1       2.133   3.923  -4.784  0.00  0.00    -0.047 A 
ATOM      9  C9  IND d   1       2.970   3.103  -4.016  0.00  0.00    -0.096 A 
ATOM     10  HN1 IND d   1       2.447   4.592  -6.648  0.00  0.00     0.298 HD
ENDROOT
TORSDOF 0
ENDMDL
