MODEL 1
REMARK minimizedAffinity 21.4197044
REMARK minimizedRMSD -1
REMARK  0 active torsions:
REMARK  status: ('A' for Active; 'I' for Inactive)
ROOT
ATOM      1  N1  IND d   1       3.080   2.776  -4.471  0.00  0.00    -0.196 N 
ATOM      2  C2  IND d   1       2.255   2.669  -3.386  0.00  0.00     0.054 A 
ATOM      3  C3  IND d   1       2.700   3.454  -2.379  0.00  0.00    -0.031 A 
ATOM      4  C4  IND d   1       4.699   5.075  -2.328  0.00  0.00     0.051 A 
ATOM      5  C5  IND d   1       5.769   5.489  -3.071  0.00  0.00    -0.031 A 
ATOM      6  C6  IND d   1       6.000   5.013  -4.345  0.00  0.00     0.015 A 
ATOM      7  C7  IND d   1       5.160   4.109  -4.931  0.00  0.00    -0.016 A 
ATOM      8  C8  IND d   1       4.076   3.680  -4.177  0.00  0.00    -0.047 A 
ATOM      9  C9  IND d   1       3.860   4.128  -2.868  0.00  0.00    -0.096 A 
ATOM     10  HN1 IND d   1       2.991   2.350  -5.213  0.00  0.00     0.298 HD
ENDROOT
TORSDOF 0
ENDMDL
