MODEL 1
REMARK minimizedAffinity 12.3143969
REMARK minimizedRMSD -1
REMARK  0 active torsions:
REMARK  status: ('A' for Active; 'I' for Inactive)
ROOT
ATOM      1  N1  IND d   1       0.686  -1.315   4.482  0.00  0.00    -0.196 N 
ATOM      2  C2  IND d   1       1.205  -2.364   3.776  0.00  0.00     0.054 A 
ATOM      3  C3  IND d   1       0.556  -2.507   2.599  0.00  0.00    -0.031 A 
ATOM      4  C4  IND d   1      -1.321  -1.068   1.581  0.00  0.00     0.051 A 
ATOM      5  C5  IND d   1      -2.151  -0.020   1.868  0.00  0.00    -0.031 A 
ATOM      6  C6  IND d   1      -2.074   0.665   3.063  0.00  0.00     0.015 A 
ATOM      7  C7  IND d   1      -1.153   0.333   4.016  0.00  0.00    -0.016 A 
ATOM      8  C8  IND d   1      -0.313  -0.734   3.732  0.00  0.00    -0.047 A 
ATOM      9  C9  IND d   1      -0.415  -1.460   2.538  0.00  0.00    -0.096 A 
ATOM     10  HN1 IND d   1       0.940  -1.060   5.262  0.00  0.00     0.298 HD
ENDROOT
TORSDOF 0
ENDMDL
