MODEL 1
REMARK minimizedAffinity 15.0706587
REMARK minimizedRMSD -1
REMARK  0 active torsions:
REMARK  status: ('A' for Active; 'I' for Inactive)
ROOT
ATOM      1  N1  IND d   1       0.395  -0.157   4.320  0.00  0.00    -0.196 N 
ATOM      2  C2  IND d   1       1.239  -1.192   4.029  0.00  0.00     0.054 A 
ATOM      3  C3  IND d   1       0.813  -1.852   2.929  0.00  0.00    -0.031 A 
ATOM      4  C4  IND d   1      -1.188  -1.345   1.390  0.00  0.00     0.051 A 
ATOM      5  C5  IND d   1      -2.273  -0.522   1.270  0.00  0.00    -0.031 A 
ATOM      6  C6  IND d   1      -2.527   0.486   2.176  0.00  0.00     0.015 A 
ATOM      7  C7  IND d   1      -1.697   0.718   3.236  0.00  0.00    -0.016 A 
ATOM      8  C8  IND d   1      -0.598  -0.120   3.366  0.00  0.00    -0.047 A 
ATOM      9  C9  IND d   1      -0.358  -1.172   2.473  0.00  0.00    -0.096 A 
ATOM     10  HN1 IND d   1       0.470   0.380   4.987  0.00  0.00     0.298 HD
ENDROOT
TORSDOF 0
ENDMDL
