MODEL 1
REMARK minimizedAffinity 10.8024216
REMARK minimizedRMSD -1
REMARK  0 active torsions:
REMARK  status: ('A' for Active; 'I' for Inactive)
ROOT
ATOM      1  N1  IND d   1      -0.839   1.996   2.164  0.00  0.00    -0.196 N 
ATOM      2  C2  IND d   1      -1.718   1.253   2.901  0.00  0.00     0.054 A 
ATOM      3  C3  IND d   1      -1.274  -0.018   3.023  0.00  0.00    -0.031 A 
ATOM      4  C4  IND d   1       0.919  -1.072   2.180  0.00  0.00     0.051 A 
ATOM      5  C5  IND d   1       2.025  -0.798   1.425  0.00  0.00    -0.031 A 
ATOM      6  C6  IND d   1       2.239   0.446   0.869  0.00  0.00     0.015 A 
ATOM      7  C7  IND d   1       1.356   1.472   1.057  0.00  0.00    -0.016 A 
ATOM      8  C8  IND d   1       0.228   1.196   1.818  0.00  0.00    -0.047 A 
ATOM      9  C9  IND d   1      -0.015  -0.077   2.349  0.00  0.00    -0.096 A 
ATOM     10  HN1 IND d   1      -0.935   2.824   1.952  0.00  0.00     0.298 HD
ENDROOT
TORSDOF 0
ENDMDL
