MODEL 1
REMARK minimizedAffinity 13.0705109
REMARK minimizedRMSD -1
REMARK  0 active torsions:
REMARK  status: ('A' for Active; 'I' for Inactive)
ROOT
ATOM      1  N1  IND d   1      -1.029   0.016   2.849  0.00  0.00    -0.196 N 
ATOM      2  C2  IND d   1      -0.692  -1.199   2.321  0.00  0.00     0.054 A 
ATOM      3  C3  IND d   1      -1.676  -1.648   1.510  0.00  0.00    -0.031 A 
ATOM      4  C4  IND d   1      -3.879  -0.505   0.823  0.00  0.00     0.051 A 
ATOM      5  C5  IND d   1      -4.644   0.599   1.076  0.00  0.00    -0.031 A 
ATOM      6  C6  IND d   1      -4.233   1.587   1.948  0.00  0.00     0.015 A 
ATOM      7  C7  IND d   1      -3.032   1.512   2.594  0.00  0.00    -0.016 A 
ATOM      8  C8  IND d   1      -2.256   0.389   2.346  0.00  0.00    -0.047 A 
ATOM      9  C9  IND d   1      -2.686  -0.637   1.495  0.00  0.00    -0.096 A 
ATOM     10  HN1 IND d   1      -0.554   0.471   3.403  0.00  0.00     0.298 HD
ENDROOT
TORSDOF 0
ENDMDL
