MODEL 1
REMARK minimizedAffinity 13.6394997
REMARK minimizedRMSD -1
REMARK  0 active torsions:
REMARK  status: ('A' for Active; 'I' for Inactive)
ROOT
ATOM      1  N1  IND d   1       2.233   2.934  -3.809  0.00  0.00    -0.196 N 
ATOM      2  C2  IND d   1       1.631   3.272  -2.629  0.00  0.00     0.054 A 
ATOM      3  C3  IND d   1       2.522   3.856  -1.797  0.00  0.00    -0.031 A 
ATOM      4  C4  IND d   1       4.994   4.450  -2.203  0.00  0.00     0.051 A 
ATOM      5  C5  IND d   1       6.000   4.307  -3.116  0.00  0.00    -0.031 A 
ATOM      6  C6  IND d   1       5.797   3.688  -4.333  0.00  0.00     0.015 A 
ATOM      7  C7  IND d   1       4.573   3.198  -4.688  0.00  0.00    -0.016 A 
ATOM      8  C8  IND d   1       3.550   3.336  -3.760  0.00  0.00    -0.047 A 
ATOM      9  C9  IND d   1       3.760   3.925  -2.507  0.00  0.00    -0.096 A 
ATOM     10  HN1 IND d   1       1.853   2.538  -4.471  0.00  0.00     0.298 HD
ENDROOT
TORSDOF 0
ENDMDL
