MODEL 1
REMARK minimizedAffinity 16.5790253
REMARK minimizedRMSD -1
REMARK  0 active torsions:
REMARK  status: ('A' for Active; 'I' for Inactive)
ROOT
ATOM      1  N1  IND d   1       4.741   5.992  -1.497  0.00  0.00    -0.196 N 
ATOM      2  C2  IND d   1       5.928   5.466  -1.924  0.00  0.00     0.054 A 
ATOM      3  C3  IND d   1       5.710   4.375  -2.693  0.00  0.00    -0.031 A 
ATOM      4  C4  IND d   1       3.484   3.336  -3.462  0.00  0.00     0.051 A 
ATOM      5  C5  IND d   1       2.131   3.443  -3.298  0.00  0.00    -0.031 A 
ATOM      6  C6  IND d   1       1.568   4.428  -2.512  0.00  0.00     0.015 A 
ATOM      7  C7  IND d   1       2.340   5.352  -1.866  0.00  0.00    -0.016 A 
ATOM      8  C8  IND d   1       3.714   5.242  -2.024  0.00  0.00    -0.047 A 
ATOM      9  C9  IND d   1       4.293   4.219  -2.787  0.00  0.00    -0.096 A 
ATOM     10  HN1 IND d   1       4.652   6.677  -0.984  0.00  0.00     0.298 HD
ENDROOT
TORSDOF 0
ENDMDL
