MODEL 1
REMARK minimizedAffinity 8.20466137
REMARK minimizedRMSD -1
REMARK  1 active torsions:
REMARK  status: ('A' for Active; 'I' for Inactive)
REMARK    1  A    between atoms: N_2  and  C1_3 
ROOT
ATOM      1  C1  UNL d   1      -2.626  -4.822  -4.944  0.00  0.00     0.143 A 
ATOM      2  C2  UNL d   1      -3.407  -5.982  -4.910  0.00  0.00    -0.057 A 
ATOM      3  C3  UNL d   1      -4.705  -5.998  -5.434  0.00  0.00     0.033 A 
ATOM      4  C4  UNL d   1      -5.257  -4.843  -5.978  0.00  0.00    -0.042 A 
ATOM      5  C5  UNL d   1      -4.507  -3.672  -6.000  0.00  0.00     0.033 A 
ATOM      6  C6  UNL d   1      -3.209  -3.664  -5.481  0.00  0.00    -0.057 A 
ENDROOT
BRANCH   1   7
ATOM      7  N   UNL d   1      -1.365  -4.716  -4.350  0.00  0.00    -0.732 N 
ATOM      8  C   UNL d   1      -1.177  -5.050  -2.955  0.00  0.00     0.284 C 
ATOM      9  H3  UNL d   1      -0.620  -5.042  -4.960  0.00  0.00     0.395 HD
ENDBRANCH   1   7
TORSDOF 1
ENDMDL
