MODEL 1
REMARK minimizedAffinity 9.14349556
REMARK minimizedRMSD -1
REMARK  1 active torsions:
REMARK  status: ('A' for Active; 'I' for Inactive)
REMARK    1  A    between atoms: N_2  and  C1_3 
ROOT
ATOM      1  C1  UNL d   1       0.638  -0.047   2.825  0.00  0.00     0.143 A 
ATOM      2  C2  UNL d   1       1.391   0.466   1.763  0.00  0.00    -0.057 A 
ATOM      3  C3  UNL d   1       1.066   1.691   1.168  0.00  0.00     0.033 A 
ATOM      4  C4  UNL d   1      -0.039   2.413   1.607  0.00  0.00    -0.042 A 
ATOM      5  C5  UNL d   1      -0.816   1.910   2.645  0.00  0.00     0.033 A 
ATOM      6  C6  UNL d   1      -0.482   0.690   3.240  0.00  0.00    -0.057 A 
ENDROOT
BRANCH   1   7
ATOM      7  N   UNL d   1       0.852  -1.306   3.394  0.00  0.00    -0.732 N 
ATOM      8  C   UNL d   1       0.480  -1.567   4.768  0.00  0.00     0.284 C 
ATOM      9  H3  UNL d   1       0.632  -2.064   2.752  0.00  0.00     0.395 HD
ENDBRANCH   1   7
TORSDOF 1
ENDMDL
