MODEL 1
REMARK minimizedAffinity 6.18375206
REMARK minimizedRMSD -1
REMARK  1 active torsions:
REMARK  status: ('A' for Active; 'I' for Inactive)
REMARK    1  A    between atoms: N_2  and  C1_3 
ROOT
ATOM      1  C1  UNL d   1      -0.109   0.847   3.380  0.00  0.00     0.143 A 
ATOM      2  C2  UNL d   1      -1.111   1.785   3.113  0.00  0.00    -0.057 A 
ATOM      3  C3  UNL d   1      -1.001   2.680   2.042  0.00  0.00     0.033 A 
ATOM      4  C4  UNL d   1       0.132   2.672   1.234  0.00  0.00    -0.042 A 
ATOM      5  C5  UNL d   1       1.152   1.764   1.497  0.00  0.00     0.033 A 
ATOM      6  C6  UNL d   1       1.033   0.869   2.564  0.00  0.00    -0.057 A 
ENDROOT
BRANCH   1   7
ATOM      7  N   UNL d   1      -0.115  -0.003   4.489  0.00  0.00    -0.732 N 
ATOM      8  C   UNL d   1       0.604  -1.259   4.459  0.00  0.00     0.284 C 
ATOM      9  H3  UNL d   1      -0.030   0.503   5.367  0.00  0.00     0.395 HD
ENDBRANCH   1   7
TORSDOF 1
ENDMDL
