MODEL 1
REMARK minimizedAffinity 4.62237787
REMARK minimizedRMSD -1
REMARK  0 active torsions:
REMARK  status: ('A' for Active; 'I' for Inactive)
ROOT
ATOM      1  C1  BNZ d   1       1.766   1.549   0.857  0.00  0.00     0.000 A 
ATOM      2  C2  BNZ d   1       1.958   0.647  -0.156  0.00  0.00     0.000 A 
ATOM      3  C3  BNZ d   1       2.938   0.840  -1.089  0.00  0.00     0.000 A 
ATOM      4  C4  BNZ d   1       3.698   1.953  -1.032  0.00  0.00     0.000 A 
ATOM      5  C5  BNZ d   1       3.510   2.876  -0.022  0.00  0.00     0.000 A 
ATOM      6  C6  BNZ d   1       2.549   2.659   0.938  0.00  0.00     0.000 A 
ENDROOT
TORSDOF 0
ENDMDL
