MODEL 1
REMARK minimizedAffinity 6.66478539
REMARK minimizedRMSD -1
REMARK  0 active torsions:
REMARK  status: ('A' for Active; 'I' for Inactive)
ROOT
ATOM      1  C1  BNZ d   1       2.940   0.082   0.013  0.00  0.00     0.000 A 
ATOM      2  C2  BNZ d   1       2.967   0.060   1.382  0.00  0.00     0.000 A 
ATOM      3  C3  BNZ d   1       2.724   1.194   2.105  0.00  0.00     0.000 A 
ATOM      4  C4  BNZ d   1       2.494   2.356   1.460  0.00  0.00     0.000 A 
ATOM      5  C5  BNZ d   1       2.473   2.397   0.080  0.00  0.00     0.000 A 
ATOM      6  C6  BNZ d   1       2.679   1.245  -0.644  0.00  0.00     0.000 A 
ENDROOT
TORSDOF 0
ENDMDL
