MODEL 1
REMARK minimizedAffinity 10.8661156
REMARK minimizedRMSD -1
REMARK  0 active torsions:
REMARK  status: ('A' for Active; 'I' for Inactive)
ROOT
ATOM      1  C1  BNZ d   1       1.710   2.905   0.793  0.00  0.00     0.000 A 
ATOM      2  C2  BNZ d   1       0.992   2.998  -0.370  0.00  0.00     0.000 A 
ATOM      3  C3  BNZ d   1       0.229   1.952  -0.807  0.00  0.00     0.000 A 
ATOM      4  C4  BNZ d   1       0.218   0.800  -0.105  0.00  0.00     0.000 A 
ATOM      5  C5  BNZ d   1       0.944   0.687   1.064  0.00  0.00     0.000 A 
ATOM      6  C6  BNZ d   1       1.680   1.756   1.522  0.00  0.00     0.000 A 
ENDROOT
TORSDOF 0
ENDMDL
