MODEL 1
REMARK minimizedAffinity -2.52168489
REMARK minimizedRMSD -1
REMARK  0 active torsions:
REMARK  status: ('A' for Active; 'I' for Inactive)
ROOT
ATOM      1  C1  BNZ d   1       4.108   1.399  -0.956  0.00  0.00     0.000 A 
ATOM      2  C2  BNZ d   1       2.928   0.758  -1.224  0.00  0.00     0.000 A 
ATOM      3  C3  BNZ d   1       2.532  -0.318  -0.480  0.00  0.00     0.000 A 
ATOM      4  C4  BNZ d   1       3.333  -0.776   0.503  0.00  0.00     0.000 A 
ATOM      5  C5  BNZ d   1       4.530  -0.146   0.779  0.00  0.00     0.000 A 
ATOM      6  C6  BNZ d   1       4.908   0.961   0.054  0.00  0.00     0.000 A 
ENDROOT
TORSDOF 0
ENDMDL
