MODEL 1
REMARK minimizedAffinity 0.693479657
REMARK minimizedRMSD -1
REMARK  0 active torsions:
REMARK  status: ('A' for Active; 'I' for Inactive)
ROOT
ATOM      1  C1  BNZ d   1      -4.807   6.000   5.993  0.00  0.00     0.000 A 
ATOM      2  C2  BNZ d   1      -5.972   5.532   5.445  0.00  0.00     0.000 A 
ATOM      3  C3  BNZ d   1      -5.999   5.046   4.168  0.00  0.00     0.000 A 
ATOM      4  C4  BNZ d   1      -4.873   5.065   3.427  0.00  0.00     0.000 A 
ATOM      5  C5  BNZ d   1      -3.692   5.542   3.961  0.00  0.00     0.000 A 
ATOM      6  C6  BNZ d   1      -3.660   5.995   5.261  0.00  0.00     0.000 A 
ENDROOT
TORSDOF 0
ENDMDL
