MODEL 1
REMARK minimizedAffinity -0.139223754
REMARK minimizedRMSD -1
REMARK  0 active torsions:
REMARK  status: ('A' for Active; 'I' for Inactive)
ROOT
ATOM      1  C1  BNZ d   1       3.360  -1.814  -1.122  0.00  0.00     0.000 A 
ATOM      2  C2  BNZ d   1       3.746  -0.537  -1.431  0.00  0.00     0.000 A 
ATOM      3  C3  BNZ d   1       3.170   0.537  -0.813  0.00  0.00     0.000 A 
ATOM      4  C4  BNZ d   1       2.182   0.336   0.083  0.00  0.00     0.000 A 
ATOM      5  C5  BNZ d   1       1.775  -0.945   0.398  0.00  0.00     0.000 A 
ATOM      6  C6  BNZ d   1       2.384  -2.026  -0.198  0.00  0.00     0.000 A 
ENDROOT
TORSDOF 0
ENDMDL
