MODEL 1
REMARK minimizedAffinity -1.12917709
REMARK minimizedRMSD -1
REMARK  0 active torsions:
REMARK  status: ('A' for Active; 'I' for Inactive)
ROOT
ATOM      1  C1  BNZ d   1      -5.936   5.419   5.552  0.00  0.00     0.000 A 
ATOM      2  C2  BNZ d   1      -5.962   4.813   4.324  0.00  0.00     0.000 A 
ATOM      3  C3  BNZ d   1      -4.844   4.773   3.539  0.00  0.00     0.000 A 
ATOM      4  C4  BNZ d   1      -3.714   5.372   3.964  0.00  0.00     0.000 A 
ATOM      5  C5  BNZ d   1      -3.673   5.996   5.195  0.00  0.00     0.000 A 
ATOM      6  C6  BNZ d   1      -4.790   6.000   6.000  0.00  0.00     0.000 A 
ENDROOT
TORSDOF 0
ENDMDL
