MODEL 1
REMARK minimizedAffinity -3.18714833
REMARK minimizedRMSD -1
REMARK  0 active torsions:
REMARK  status: ('A' for Active; 'I' for Inactive)
ROOT
ATOM      1  C   UNL d   1      -0.379   3.821   0.232  0.00  0.00    -0.002 A 
ATOM      2  C1  UNL d   1      -1.413   3.045   0.734  0.00  0.00     0.010 A 
ATOM      3  C2  UNL d   1      -1.227   1.683   0.975  0.00  0.00     0.041 A 
ATOM      4  C3  UNL d   1       0.030   1.108   0.702  0.00  0.00    -0.075 A 
ATOM      5  S   UNL d   1       0.489  -0.539   0.919  0.00  0.00     0.015 SA
ATOM      6  C4  UNL d   1       2.070  -0.252   0.351  0.00  0.00     0.022 A 
ATOM      7  C5  UNL d   1       2.260   1.064  -0.001  0.00  0.00     0.026 A 
ATOM      8  C6  UNL d   1       1.088   1.869   0.196  0.00  0.00    -0.082 A 
ATOM      9  C7  UNL d   1       0.867   3.248  -0.038  0.00  0.00     0.045 A 
ENDROOT
TORSDOF 0
ENDMDL
