MODEL 1
REMARK minimizedAffinity -2.86059427
REMARK minimizedRMSD -1
REMARK  0 active torsions:
REMARK  status: ('A' for Active; 'I' for Inactive)
ROOT
ATOM      1  C   UNL d   1      -1.827   2.396   0.932  0.00  0.00    -0.002 A 
ATOM      2  C1  UNL d   1      -0.973   3.273   0.278  0.00  0.00     0.010 A 
ATOM      3  C2  UNL d   1       0.328   2.887  -0.049  0.00  0.00     0.041 A 
ATOM      4  C3  UNL d   1       0.760   1.590   0.293  0.00  0.00    -0.075 A 
ATOM      5  S   UNL d   1       2.310   0.898  -0.009  0.00  0.00     0.015 SA
ATOM      6  C4  UNL d   1       1.875  -0.579   0.722  0.00  0.00     0.022 A 
ATOM      7  C5  UNL d   1       0.583  -0.562   1.190  0.00  0.00     0.026 A 
ATOM      8  C6  UNL d   1      -0.081   0.689   0.950  0.00  0.00    -0.082 A 
ATOM      9  C7  UNL d   1      -1.394   1.111   1.270  0.00  0.00     0.045 A 
ENDROOT
TORSDOF 0
ENDMDL
