MODEL 1
REMARK minimizedAffinity -0.994737983
REMARK minimizedRMSD -1
REMARK  0 active torsions:
REMARK  status: ('A' for Active; 'I' for Inactive)
ROOT
ATOM      1  C   UNL d   1      -1.301   1.987   1.294  0.00  0.00    -0.002 A 
ATOM      2  C1  UNL d   1       0.017   2.192   0.910  0.00  0.00     0.010 A 
ATOM      3  C2  UNL d   1       0.749   1.167   0.309  0.00  0.00     0.041 A 
ATOM      4  C3  UNL d   1       0.129  -0.080   0.096  0.00  0.00    -0.075 A 
ATOM      5  S   UNL d   1       0.830  -1.481  -0.623  0.00  0.00     0.015 SA
ATOM      6  C4  UNL d   1      -0.603  -2.385  -0.439  0.00  0.00     0.022 A 
ATOM      7  C5  UNL d   1      -1.602  -1.651   0.156  0.00  0.00     0.026 A 
ATOM      8  C6  UNL d   1      -1.197  -0.311   0.473  0.00  0.00    -0.082 A 
ATOM      9  C7  UNL d   1      -1.913   0.749   1.081  0.00  0.00     0.045 A 
ENDROOT
TORSDOF 0
ENDMDL
