MODEL 1
REMARK minimizedAffinity -1.41800106
REMARK minimizedRMSD -1
REMARK  0 active torsions:
REMARK  status: ('A' for Active; 'I' for Inactive)
ROOT
ATOM      1  C   UNL d   1      -0.586  -3.318  -1.550  0.00  0.00    -0.002 A 
ATOM      2  C1  UNL d   1       0.515  -2.808  -2.223  0.00  0.00     0.010 A 
ATOM      3  C2  UNL d   1       1.050  -1.567  -1.871  0.00  0.00     0.041 A 
ATOM      4  C3  UNL d   1       0.455  -0.841  -0.820  0.00  0.00    -0.075 A 
ATOM      5  S   UNL d   1       0.939   0.699  -0.216  0.00  0.00     0.015 SA
ATOM      6  C4  UNL d   1      -0.304   0.715   0.951  0.00  0.00     0.022 A 
ATOM      7  C5  UNL d   1      -1.079  -0.419   0.894  0.00  0.00     0.026 A 
ATOM      8  C6  UNL d   1      -0.654  -1.335  -0.127  0.00  0.00    -0.082 A 
ATOM      9  C7  UNL d   1      -1.174  -2.596  -0.508  0.00  0.00     0.045 A 
ENDROOT
TORSDOF 0
ENDMDL
