MODEL 1
REMARK minimizedAffinity 0.628819466
REMARK minimizedRMSD -1
REMARK  0 active torsions:
REMARK  status: ('A' for Active; 'I' for Inactive)
ROOT
ATOM      1  C   UNL d   1       0.091  -1.376  -0.155  0.00  0.00    -0.002 A 
ATOM      2  C1  UNL d   1      -0.886  -1.371   0.830  0.00  0.00     0.010 A 
ATOM      3  C2  UNL d   1      -1.302  -0.172   1.412  0.00  0.00     0.041 A 
ATOM      4  C3  UNL d   1      -0.715   1.034   0.982  0.00  0.00    -0.075 A 
ATOM      5  S   UNL d   1      -1.067   2.623   1.551  0.00  0.00     0.015 SA
ATOM      6  C4  UNL d   1       0.071   3.333   0.499  0.00  0.00     0.022 A 
ATOM      7  C5  UNL d   1       0.713   2.395  -0.274  0.00  0.00     0.026 A 
ATOM      8  C6  UNL d   1       0.271   1.055  -0.010  0.00  0.00    -0.082 A 
ATOM      9  C7  UNL d   1       0.671  -0.177  -0.580  0.00  0.00     0.045 A 
ENDROOT
TORSDOF 0
ENDMDL
