MODEL 1
REMARK minimizedAffinity -2.91078925
REMARK minimizedRMSD -1
REMARK  0 active torsions:
REMARK  status: ('A' for Active; 'I' for Inactive)
ROOT
ATOM      1  C   UNL d   1       0.237  -0.906  -0.206  0.00  0.00    -0.002 A 
ATOM      2  C1  UNL d   1      -0.790  -0.849   0.725  0.00  0.00     0.010 A 
ATOM      3  C2  UNL d   1      -1.273   0.381   1.176  0.00  0.00     0.041 A 
ATOM      4  C3  UNL d   1      -0.701   1.565   0.668  0.00  0.00    -0.075 A 
ATOM      5  S   UNL d   1      -1.132   3.184   1.074  0.00  0.00     0.015 SA
ATOM      6  C4  UNL d   1       0.037   3.838   0.021  0.00  0.00     0.022 A 
ATOM      7  C5  UNL d   1       0.748   2.859  -0.633  0.00  0.00     0.026 A 
ATOM      8  C6  UNL d   1       0.334   1.533  -0.271  0.00  0.00    -0.082 A 
ATOM      9  C7  UNL d   1       0.802   0.270  -0.707  0.00  0.00     0.045 A 
ENDROOT
TORSDOF 0
ENDMDL
