MODEL 1
REMARK minimizedAffinity -3.44595265
REMARK minimizedRMSD -1
REMARK  0 active torsions:
REMARK  status: ('A' for Active; 'I' for Inactive)
ROOT
ATOM      1  C   UNL d   1      -1.823   2.397   1.112  0.00  0.00    -0.002 A 
ATOM      2  C1  UNL d   1      -0.815   2.871   0.285  0.00  0.00     0.010 A 
ATOM      3  C2  UNL d   1       0.059   1.985  -0.348  0.00  0.00     0.041 A 
ATOM      4  C3  UNL d   1      -0.100   0.602  -0.135  0.00  0.00    -0.075 A 
ATOM      5  S   UNL d   1       0.852  -0.669  -0.806  0.00  0.00     0.015 SA
ATOM      6  C4  UNL d   1      -0.058  -1.871  -0.011  0.00  0.00     0.022 A 
ATOM      7  C5  UNL d   1      -1.067  -1.334   0.752  0.00  0.00     0.026 A 
ATOM      8  C6  UNL d   1      -1.108   0.101   0.693  0.00  0.00    -0.082 A 
ATOM      9  C7  UNL d   1      -1.978   1.024   1.321  0.00  0.00     0.045 A 
ENDROOT
TORSDOF 0
ENDMDL
