MODEL 1
REMARK minimizedAffinity -0.867069364
REMARK minimizedRMSD -1
REMARK  0 active torsions:
REMARK  status: ('A' for Active; 'I' for Inactive)
ROOT
ATOM      1  C   UNL d   1       0.800   3.569   0.750  0.00  0.00    -0.002 A 
ATOM      2  C1  UNL d   1       2.048   2.977   0.617  0.00  0.00     0.010 A 
ATOM      3  C2  UNL d   1       2.163   1.603   0.393  0.00  0.00     0.041 A 
ATOM      4  C3  UNL d   1       0.991   0.827   0.302  0.00  0.00    -0.075 A 
ATOM      5  S   UNL d   1       0.887  -0.872   0.032  0.00  0.00     0.015 SA
ATOM      6  C4  UNL d   1      -0.816  -0.852   0.085  0.00  0.00     0.022 A 
ATOM      7  C5  UNL d   1      -1.311   0.412   0.303  0.00  0.00     0.026 A 
ATOM      8  C6  UNL d   1      -0.278   1.401   0.431  0.00  0.00    -0.082 A 
ATOM      9  C7  UNL d   1      -0.360   2.796   0.659  0.00  0.00     0.045 A 
ENDROOT
TORSDOF 0
ENDMDL
