MODEL 1
REMARK minimizedAffinity -2.8105948
REMARK minimizedRMSD -1
REMARK  0 active torsions:
REMARK  status: ('A' for Active; 'I' for Inactive)
ROOT
ATOM      1  C   UNL d   1       2.564  -0.551   0.522  0.00  0.00    -0.002 A 
ATOM      2  C1  UNL d   1       1.460  -1.376   0.685  0.00  0.00     0.010 A 
ATOM      3  C2  UNL d   1       0.167  -0.864   0.561  0.00  0.00     0.041 A 
ATOM      4  C3  UNL d   1       0.001   0.503   0.267  0.00  0.00    -0.075 A 
ATOM      5  S   UNL d   1      -1.488   1.350   0.069  0.00  0.00     0.015 SA
ATOM      6  C4  UNL d   1      -0.693   2.827  -0.237  0.00  0.00     0.022 A 
ATOM      7  C5  UNL d   1       0.674   2.695  -0.193  0.00  0.00     0.026 A 
ATOM      8  C6  UNL d   1       1.097   1.354   0.098  0.00  0.00    -0.082 A 
ATOM      9  C7  UNL d   1       2.395   0.805   0.230  0.00  0.00     0.045 A 
ENDROOT
TORSDOF 0
ENDMDL
