MODEL 1
REMARK minimizedAffinity -1.12107825
REMARK minimizedRMSD -1
REMARK  0 active torsions:
REMARK  status: ('A' for Active; 'I' for Inactive)
ROOT
ATOM      1  C   UNL d   1      -1.171   2.708   1.048  0.00  0.00    -0.002 A 
ATOM      2  C1  UNL d   1      -0.026   3.050   0.342  0.00  0.00     0.010 A 
ATOM      3  C2  UNL d   1       0.762   2.063  -0.254  0.00  0.00     0.041 A 
ATOM      4  C3  UNL d   1       0.375   0.715  -0.130  0.00  0.00    -0.075 A 
ATOM      5  S   UNL d   1       1.185  -0.663  -0.777  0.00  0.00     0.015 SA
ATOM      6  C4  UNL d   1       0.029  -1.738  -0.133  0.00  0.00     0.022 A 
ATOM      7  C5  UNL d   1      -0.957  -1.079   0.562  0.00  0.00     0.026 A 
ATOM      8  C6  UNL d   1      -0.774   0.346   0.575  0.00  0.00    -0.082 A 
ATOM      9  C7  UNL d   1      -1.551   1.369   1.169  0.00  0.00     0.045 A 
ENDROOT
TORSDOF 0
ENDMDL
