MODEL 1
REMARK minimizedAffinity -3.18347049
REMARK minimizedRMSD -1
REMARK  0 active torsions:
REMARK  status: ('A' for Active; 'I' for Inactive)
ROOT
ATOM      1  C2' OXE d   1      -2.628   3.264  -5.644  0.00  0.00     0.078 C 
ATOM      2  C1' OXE d   1      -1.530   0.751  -5.043  0.00  0.00     0.078 C 
ATOM      3  C1  OXE d   1      -2.999   0.815  -5.378  0.00  0.00    -0.078 A 
ATOM      4  C2  OXE d   1      -3.538   2.055  -5.626  0.00  0.00    -0.078 A 
ATOM      5  C3  OXE d   1      -4.876   2.164  -5.994  0.00  0.00     0.003 A 
ATOM      6  C4  OXE d   1      -5.713   1.043  -5.964  0.00  0.00    -0.002 A 
ATOM      7  C5  OXE d   1      -5.194  -0.224  -5.676  0.00  0.00    -0.002 A 
ATOM      8  C6  OXE d   1      -3.833  -0.361  -5.423  0.00  0.00     0.003 A 
ENDROOT
TORSDOF 0
ENDMDL
