MODEL 1
REMARK minimizedAffinity 4.77026987
REMARK minimizedRMSD -1
REMARK  0 active torsions:
REMARK  status: ('A' for Active; 'I' for Inactive)
ROOT
ATOM      1  C2' OXE d   1      -6.000  -1.687  -4.319  0.00  0.00     0.078 C 
ATOM      2  C1' OXE d   1      -3.962  -2.683  -5.973  0.00  0.00     0.078 C 
ATOM      3  C1  OXE d   1      -3.901  -1.228  -5.579  0.00  0.00    -0.078 A 
ATOM      4  C2  OXE d   1      -4.927  -0.738  -4.808  0.00  0.00    -0.078 A 
ATOM      5  C3  OXE d   1      -4.891   0.583  -4.371  0.00  0.00     0.003 A 
ATOM      6  C4  OXE d   1      -3.900   1.457  -4.836  0.00  0.00    -0.002 A 
ATOM      7  C5  OXE d   1      -2.868   0.988  -5.654  0.00  0.00    -0.002 A 
ATOM      8  C6  OXE d   1      -2.830  -0.359  -6.000  0.00  0.00     0.003 A 
ENDROOT
TORSDOF 0
ENDMDL
