MODEL 1
REMARK minimizedAffinity 0.887458324
REMARK minimizedRMSD -1
REMARK  0 active torsions:
REMARK  status: ('A' for Active; 'I' for Inactive)
ROOT
ATOM      1  C2' OXE d   1      -2.238   0.467  -5.998  0.00  0.00     0.078 C 
ATOM      2  C1' OXE d   1      -5.035   0.235  -5.988  0.00  0.00     0.078 C 
ATOM      3  C1  OXE d   1      -4.444   1.622  -5.983  0.00  0.00    -0.078 A 
ATOM      4  C2  OXE d   1      -3.075   1.726  -5.940  0.00  0.00    -0.078 A 
ATOM      5  C3  OXE d   1      -2.477   2.982  -5.989  0.00  0.00     0.003 A 
ATOM      6  C4  OXE d   1      -3.258   4.142  -5.926  0.00  0.00    -0.002 A 
ATOM      7  C5  OXE d   1      -4.655   4.059  -5.928  0.00  0.00    -0.002 A 
ATOM      8  C6  OXE d   1      -5.262   2.810  -5.999  0.00  0.00     0.003 A 
ENDROOT
TORSDOF 0
ENDMDL
