MODEL 1
REMARK minimizedAffinity -2.47404861
REMARK minimizedRMSD -1
REMARK  0 active torsions:
REMARK  status: ('A' for Active; 'I' for Inactive)
ROOT
ATOM      1  C2' OXE d   1      -3.241   4.433  -5.932  0.00  0.00     0.078 C 
ATOM      2  C1' OXE d   1      -5.998   3.909  -6.000  0.00  0.00     0.078 C 
ATOM      3  C1  OXE d   1      -5.059   2.730  -5.943  0.00  0.00    -0.078 A 
ATOM      4  C2  OXE d   1      -3.710   2.994  -5.957  0.00  0.00    -0.078 A 
ATOM      5  C3  OXE d   1      -2.801   1.946  -5.851  0.00  0.00     0.003 A 
ATOM      6  C4  OXE d   1      -3.244   0.618  -5.885  0.00  0.00    -0.002 A 
ATOM      7  C5  OXE d   1      -4.612   0.326  -5.911  0.00  0.00    -0.002 A 
ATOM      8  C6  OXE d   1      -5.532   1.369  -5.897  0.00  0.00     0.003 A 
ENDROOT
TORSDOF 0
ENDMDL
