MODEL 1
REMARK minimizedAffinity -1.27014565
REMARK minimizedRMSD -1
REMARK  0 active torsions:
REMARK  status: ('A' for Active; 'I' for Inactive)
ROOT
ATOM      1  C2' OXE d   1      -3.025   4.120  -5.926  0.00  0.00     0.078 C 
ATOM      2  C1' OXE d   1      -5.775   3.563  -6.000  0.00  0.00     0.078 C 
ATOM      3  C1  OXE d   1      -4.821   2.395  -5.973  0.00  0.00    -0.078 A 
ATOM      4  C2  OXE d   1      -3.476   2.676  -5.984  0.00  0.00    -0.078 A 
ATOM      5  C3  OXE d   1      -2.554   1.637  -5.905  0.00  0.00     0.003 A 
ATOM      6  C4  OXE d   1      -2.980   0.305  -5.969  0.00  0.00    -0.002 A 
ATOM      7  C5  OXE d   1      -4.344  -0.004  -5.999  0.00  0.00    -0.002 A 
ATOM      8  C6  OXE d   1      -5.277   1.026  -5.958  0.00  0.00     0.003 A 
ENDROOT
TORSDOF 0
ENDMDL
