MODEL 1
REMARK minimizedAffinity 1.59163058
REMARK minimizedRMSD -1
REMARK  0 active torsions:
REMARK  status: ('A' for Active; 'I' for Inactive)
ROOT
ATOM      1  C2' OXE d   1      -2.231   3.044  -5.981  0.00  0.00     0.078 C 
ATOM      2  C1' OXE d   1      -4.629   4.501  -5.887  0.00  0.00     0.078 C 
ATOM      3  C1  OXE d   1      -4.721   2.996  -5.906  0.00  0.00    -0.078 A 
ATOM      4  C2  OXE d   1      -3.544   2.292  -5.999  0.00  0.00    -0.078 A 
ATOM      5  C3  OXE d   1      -3.569   0.900  -5.966  0.00  0.00     0.003 A 
ATOM      6  C4  OXE d   1      -4.789   0.212  -5.993  0.00  0.00    -0.002 A 
ATOM      7  C5  OXE d   1      -5.999   0.911  -5.938  0.00  0.00    -0.002 A 
ATOM      8  C6  OXE d   1      -5.982   2.299  -5.852  0.00  0.00     0.003 A 
ENDROOT
TORSDOF 0
ENDMDL
