MODEL 1
REMARK minimizedAffinity -0.988341033
REMARK minimizedRMSD -1
REMARK  0 active torsions:
REMARK  status: ('A' for Active; 'I' for Inactive)
ROOT
ATOM      1  C2' OXE d   1      -2.053   0.676  -5.962  0.00  0.00     0.078 C 
ATOM      2  C1' OXE d   1      -4.835   0.300  -5.941  0.00  0.00     0.078 C 
ATOM      3  C1  OXE d   1      -4.317   1.716  -5.963  0.00  0.00    -0.078 A 
ATOM      4  C2  OXE d   1      -2.954   1.891  -5.926  0.00  0.00    -0.078 A 
ATOM      5  C3  OXE d   1      -2.422   3.176  -5.999  0.00  0.00     0.003 A 
ATOM      6  C4  OXE d   1      -3.262   4.295  -5.955  0.00  0.00    -0.002 A 
ATOM      7  C5  OXE d   1      -4.652   4.139  -5.953  0.00  0.00    -0.002 A 
ATOM      8  C6  OXE d   1      -5.195   2.859  -5.999  0.00  0.00     0.003 A 
ENDROOT
TORSDOF 0
ENDMDL
