MODEL 1
REMARK minimizedAffinity -1.99833333
REMARK minimizedRMSD -1
REMARK  0 active torsions:
REMARK  status: ('A' for Active; 'I' for Inactive)
ROOT
ATOM      1  C2' OXE d   1      -2.254  -0.061  -5.998  0.00  0.00     0.078 C 
ATOM      2  C1' OXE d   1      -4.975  -0.750  -5.982  0.00  0.00     0.078 C 
ATOM      3  C1  OXE d   1      -4.621   0.716  -5.982  0.00  0.00    -0.078 A 
ATOM      4  C2  OXE d   1      -3.287   1.044  -5.942  0.00  0.00    -0.078 A 
ATOM      5  C3  OXE d   1      -2.904   2.381  -5.996  0.00  0.00     0.003 A 
ATOM      6  C4  OXE d   1      -3.866   3.397  -5.934  0.00  0.00    -0.002 A 
ATOM      7  C5  OXE d   1      -5.229   3.085  -5.933  0.00  0.00    -0.002 A 
ATOM      8  C6  OXE d   1      -5.623   1.753  -6.000  0.00  0.00     0.003 A 
ENDROOT
TORSDOF 0
ENDMDL
