MODEL 1
REMARK minimizedAffinity -2.66772485
REMARK minimizedRMSD -1
REMARK  0 active torsions:
REMARK  status: ('A' for Active; 'I' for Inactive)
ROOT
ATOM      1  C2' OXE d   1      -3.001   3.012  -5.626  0.00  0.00     0.078 C 
ATOM      2  C1' OXE d   1      -1.495   0.705  -5.090  0.00  0.00     0.078 C 
ATOM      3  C1  OXE d   1      -2.956   0.530  -5.421  0.00  0.00    -0.078 A 
ATOM      4  C2  OXE d   1      -3.696   1.667  -5.637  0.00  0.00    -0.078 A 
ATOM      5  C3  OXE d   1      -5.035   1.560  -6.000  0.00  0.00     0.003 A 
ATOM      6  C4  OXE d   1      -5.672   0.314  -5.998  0.00  0.00    -0.002 A 
ATOM      7  C5  OXE d   1      -4.946  -0.855  -5.742  0.00  0.00    -0.002 A 
ATOM      8  C6  OXE d   1      -3.581  -0.768  -5.495  0.00  0.00     0.003 A 
ENDROOT
TORSDOF 0
ENDMDL
