MODEL 1
REMARK minimizedAffinity -1.60082805
REMARK minimizedRMSD -1
REMARK  0 active torsions:
REMARK  status: ('A' for Active; 'I' for Inactive)
ROOT
ATOM      1  C2' OXE d   1      -5.073   0.476  -5.949  0.00  0.00     0.078 C 
ATOM      2  C1' OXE d   1      -2.290   0.836  -6.000  0.00  0.00     0.078 C 
ATOM      3  C1  OXE d   1      -3.158   2.069  -5.972  0.00  0.00    -0.078 A 
ATOM      4  C2  OXE d   1      -4.520   1.884  -5.994  0.00  0.00    -0.078 A 
ATOM      5  C3  OXE d   1      -5.367   2.985  -5.915  0.00  0.00     0.003 A 
ATOM      6  C4  OXE d   1      -4.847   4.284  -5.968  0.00  0.00    -0.002 A 
ATOM      7  C5  OXE d   1      -3.464   4.496  -5.985  0.00  0.00    -0.002 A 
ATOM      8  C6  OXE d   1      -2.607   3.401  -5.945  0.00  0.00     0.003 A 
ENDROOT
TORSDOF 0
ENDMDL
