MODEL 1
REMARK minimizedAffinity -1.70158052
REMARK minimizedRMSD -1
REMARK  0 active torsions:
REMARK  status: ('A' for Active; 'I' for Inactive)
ROOT
ATOM      1  C2' OXE d   1      -5.113   0.459  -5.957  0.00  0.00     0.078 C 
ATOM      2  C1' OXE d   1      -2.381   1.104  -5.948  0.00  0.00     0.078 C 
ATOM      3  C1  OXE d   1      -3.372   2.241  -5.948  0.00  0.00    -0.078 A 
ATOM      4  C2  OXE d   1      -4.706   1.916  -6.000  0.00  0.00    -0.078 A 
ATOM      5  C3  OXE d   1      -5.663   2.926  -5.947  0.00  0.00     0.003 A 
ATOM      6  C4  OXE d   1      -5.278   4.271  -5.997  0.00  0.00    -0.002 A 
ATOM      7  C5  OXE d   1      -3.925   4.623  -5.985  0.00  0.00    -0.002 A 
ATOM      8  C6  OXE d   1      -2.961   3.623  -5.918  0.00  0.00     0.003 A 
ENDROOT
TORSDOF 0
ENDMDL
