MODEL 1
REMARK minimizedAffinity -1.85926032
REMARK minimizedRMSD -1
REMARK  0 active torsions:
REMARK  status: ('A' for Active; 'I' for Inactive)
ROOT
ATOM      1  C2' OXE d   1      -5.702   0.798  -5.873  0.00  0.00     0.078 C 
ATOM      2  C1' OXE d   1      -2.919   1.161  -5.895  0.00  0.00     0.078 C 
ATOM      3  C1  OXE d   1      -3.789   2.393  -5.913  0.00  0.00    -0.078 A 
ATOM      4  C2  OXE d   1      -5.150   2.205  -5.949  0.00  0.00    -0.078 A 
ATOM      5  C3  OXE d   1      -5.999   3.308  -5.911  0.00  0.00     0.003 A 
ATOM      6  C4  OXE d   1      -5.479   4.605  -5.991  0.00  0.00    -0.002 A 
ATOM      7  C5  OXE d   1      -4.097   4.818  -5.996  0.00  0.00    -0.002 A 
ATOM      8  C6  OXE d   1      -3.239   3.726  -5.914  0.00  0.00     0.003 A 
ENDROOT
TORSDOF 0
ENDMDL
