MODEL 1
REMARK minimizedAffinity -2.38193965
REMARK minimizedRMSD -1
REMARK  0 active torsions:
REMARK  status: ('A' for Active; 'I' for Inactive)
ROOT
ATOM      1  C2' OXE d   1      -2.253   0.630  -5.996  0.00  0.00     0.078 C 
ATOM      2  C1' OXE d   1      -4.888  -0.339  -5.977  0.00  0.00     0.078 C 
ATOM      3  C1  OXE d   1      -4.688   1.156  -5.980  0.00  0.00    -0.078 A 
ATOM      4  C2  OXE d   1      -3.396   1.621  -5.942  0.00  0.00    -0.078 A 
ATOM      5  C3  OXE d   1      -3.154   2.991  -5.998  0.00  0.00     0.003 A 
ATOM      6  C4  OXE d   1      -4.217   3.901  -5.938  0.00  0.00    -0.002 A 
ATOM      7  C5  OXE d   1      -5.540   3.448  -5.936  0.00  0.00    -0.002 A 
ATOM      8  C6  OXE d   1      -5.793   2.082  -6.000  0.00  0.00     0.003 A 
ENDROOT
TORSDOF 0
ENDMDL
