MODEL 1
REMARK minimizedAffinity -1.22636795
REMARK minimizedRMSD -1
REMARK  0 active torsions:
REMARK  status: ('A' for Active; 'I' for Inactive)
ROOT
ATOM      1  C2' OXE d   1      -3.964  -0.764  -5.938  0.00  0.00     0.078 C 
ATOM      2  C1' OXE d   1      -1.610   0.764  -5.985  0.00  0.00     0.078 C 
ATOM      3  C1  OXE d   1      -2.927   1.500  -5.968  0.00  0.00    -0.078 A 
ATOM      4  C2  OXE d   1      -4.074   0.744  -5.992  0.00  0.00    -0.078 A 
ATOM      5  C3  OXE d   1      -5.314   1.372  -5.923  0.00  0.00     0.003 A 
ATOM      6  C4  OXE d   1      -5.407   2.768  -5.984  0.00  0.00    -0.002 A 
ATOM      7  C5  OXE d   1      -4.252   3.556  -6.000  0.00  0.00    -0.002 A 
ATOM      8  C6  OXE d   1      -3.006   2.940  -5.950  0.00  0.00     0.003 A 
ENDROOT
TORSDOF 0
ENDMDL
