MODEL 1
REMARK minimizedAffinity -1.32255471
REMARK minimizedRMSD -1
REMARK  0 active torsions:
REMARK  status: ('A' for Active; 'I' for Inactive)
ROOT
ATOM      1  C2' OXE d   1      -4.921   1.625  -6.000  0.00  0.00     0.078 C 
ATOM      2  C1' OXE d   1      -5.833   4.280  -5.984  0.00  0.00     0.078 C 
ATOM      3  C1  OXE d   1      -4.343   4.048  -5.979  0.00  0.00    -0.078 A 
ATOM      4  C2  OXE d   1      -3.906   2.745  -5.940  0.00  0.00    -0.078 A 
ATOM      5  C3  OXE d   1      -2.541   2.474  -5.989  0.00  0.00     0.003 A 
ATOM      6  C4  OXE d   1      -1.609   3.516  -5.924  0.00  0.00    -0.002 A 
ATOM      7  C5  OXE d   1      -2.033   4.850  -5.923  0.00  0.00    -0.002 A 
ATOM      8  C6  OXE d   1      -3.392   5.132  -5.994  0.00  0.00     0.003 A 
ENDROOT
TORSDOF 0
ENDMDL
