MODEL 1
REMARK minimizedAffinity 0.411799371
REMARK minimizedRMSD -1
REMARK  0 active torsions:
REMARK  status: ('A' for Active; 'I' for Inactive)
ROOT
ATOM      1  C2' OXE d   1      -1.855  -3.956  -3.742  0.00  0.00     0.078 C 
ATOM      2  C1' OXE d   1      -3.006  -5.280  -5.934  0.00  0.00     0.078 C 
ATOM      3  C1  OXE d   1      -3.708  -4.054  -5.404  0.00  0.00    -0.078 A 
ATOM      4  C2  OXE d   1      -3.164  -3.440  -4.303  0.00  0.00    -0.078 A 
ATOM      5  C3  OXE d   1      -3.741  -2.275  -3.807  0.00  0.00     0.003 A 
ATOM      6  C4  OXE d   1      -4.956  -1.810  -4.325  0.00  0.00    -0.002 A 
ATOM      7  C5  OXE d   1      -5.549  -2.444  -5.422  0.00  0.00    -0.002 A 
ATOM      8  C6  OXE d   1      -4.917  -3.540  -5.999  0.00  0.00     0.003 A 
ENDROOT
TORSDOF 0
ENDMDL
