MODEL 1
REMARK minimizedAffinity 0.189793035
REMARK minimizedRMSD -1
REMARK  0 active torsions:
REMARK  status: ('A' for Active; 'I' for Inactive)
ROOT
ATOM      1  C2' OXE d   1      -2.583  -5.190  -5.971  0.00  0.00     0.078 C 
ATOM      2  C1' OXE d   1      -5.286  -5.948  -5.998  0.00  0.00     0.078 C 
ATOM      3  C1  OXE d   1      -4.969  -4.474  -5.973  0.00  0.00    -0.078 A 
ATOM      4  C2  OXE d   1      -3.644  -4.113  -5.913  0.00  0.00    -0.078 A 
ATOM      5  C3  OXE d   1      -3.295  -2.766  -5.943  0.00  0.00     0.003 A 
ATOM      6  C4  OXE d   1      -4.282  -1.775  -5.879  0.00  0.00    -0.002 A 
ATOM      7  C5  OXE d   1      -5.637  -2.122  -5.899  0.00  0.00    -0.002 A 
ATOM      8  C6  OXE d   1      -5.997  -3.462  -5.989  0.00  0.00     0.003 A 
ENDROOT
TORSDOF 0
ENDMDL
