MODEL 1
REMARK minimizedAffinity -0.856824577
REMARK minimizedRMSD -1
REMARK  0 active torsions:
REMARK  status: ('A' for Active; 'I' for Inactive)
ROOT
ATOM      1  C2' OXE d   1      -2.262  -3.380  -4.009  0.00  0.00     0.078 C 
ATOM      2  C1' OXE d   1      -2.002  -6.000  -4.985  0.00  0.00     0.078 C 
ATOM      3  C1  OXE d   1      -3.320  -5.298  -5.196  0.00  0.00    -0.078 A 
ATOM      4  C2  OXE d   1      -3.454  -4.034  -4.674  0.00  0.00    -0.078 A 
ATOM      5  C3  OXE d   1      -4.631  -3.321  -4.888  0.00  0.00     0.003 A 
ATOM      6  C4  OXE d   1      -5.732  -3.936  -5.495  0.00  0.00    -0.002 A 
ATOM      7  C5  OXE d   1      -5.630  -5.238  -5.998  0.00  0.00    -0.002 A 
ATOM      8  C6  OXE d   1      -4.420  -5.915  -5.895  0.00  0.00     0.003 A 
ENDROOT
TORSDOF 0
ENDMDL
