MODEL 1
REMARK minimizedAffinity 2.05153513
REMARK minimizedRMSD -1
REMARK  0 active torsions:
REMARK  status: ('A' for Active; 'I' for Inactive)
ROOT
ATOM      1  C2' OXE d   1      -2.205   1.431  -5.909  0.00  0.00     0.078 C 
ATOM      2  C1' OXE d   1      -2.122   4.236  -5.975  0.00  0.00     0.078 C 
ATOM      3  C1  OXE d   1      -3.477   3.573  -5.958  0.00  0.00    -0.078 A 
ATOM      4  C2  OXE d   1      -3.508   2.199  -5.973  0.00  0.00    -0.078 A 
ATOM      5  C3  OXE d   1      -4.730   1.537  -5.904  0.00  0.00     0.003 A 
ATOM      6  C4  OXE d   1      -5.930   2.254  -5.974  0.00  0.00    -0.002 A 
ATOM      7  C5  OXE d   1      -5.921   3.653  -6.000  0.00  0.00    -0.002 A 
ATOM      8  C6  OXE d   1      -4.706   4.327  -5.950  0.00  0.00     0.003 A 
ENDROOT
TORSDOF 0
ENDMDL
