MODEL 1
REMARK minimizedAffinity -0.197286218
REMARK minimizedRMSD -1
REMARK  0 active torsions:
REMARK  status: ('A' for Active; 'I' for Inactive)
ROOT
ATOM      1  C   UNL d   1      -0.583   0.459  -0.035  0.00  0.00     0.020 A 
ATOM      2  C1  UNL d   1      -0.468  -0.929  -0.095  0.00  0.00     0.020 A 
ATOM      3  C2  UNL d   1       0.792  -1.528  -0.035  0.00  0.00     0.034 A 
ATOM      4  C3  UNL d   1       1.942  -0.739   0.084  0.00  0.00     0.017 A 
ATOM      5  C4  UNL d   1       1.825   0.655   0.144  0.00  0.00     0.017 A 
ATOM      6  C5  UNL d   1       0.561   1.249   0.084  0.00  0.00     0.034 A 
ATOM      7 Cl   UNL d   1       3.198   1.694   0.291  0.00  0.00    -0.070 Cl
ATOM      8 Cl1  UNL d   1       3.468  -1.547   0.153  0.00  0.00    -0.070 Cl
ENDROOT
TORSDOF 0
ENDMDL
