MODEL 1
REMARK minimizedAffinity -2.05887127
REMARK minimizedRMSD -1
REMARK  0 active torsions:
REMARK  status: ('A' for Active; 'I' for Inactive)
ROOT
ATOM      1  C   UNL d   1       2.819  -1.302   0.345  0.00  0.00     0.020 A 
ATOM      2  C1  UNL d   1       2.316  -0.462   1.338  0.00  0.00     0.020 A 
ATOM      3  C2  UNL d   1       0.988  -0.034   1.284  0.00  0.00     0.034 A 
ATOM      4  C3  UNL d   1       0.158  -0.445   0.234  0.00  0.00     0.017 A 
ATOM      5  C4  UNL d   1       0.664  -1.288  -0.763  0.00  0.00     0.017 A 
ATOM      6  C5  UNL d   1       1.995  -1.713  -0.703  0.00  0.00     0.034 A 
ATOM      7 Cl   UNL d   1      -0.299  -1.837  -2.089  0.00  0.00    -0.070 Cl
ATOM      8 Cl1  UNL d   1      -1.474   0.122   0.231  0.00  0.00    -0.070 Cl
ENDROOT
TORSDOF 0
ENDMDL
