MODEL 1
REMARK minimizedAffinity -0.524027348
REMARK minimizedRMSD -1
REMARK  0 active torsions:
REMARK  status: ('A' for Active; 'I' for Inactive)
ROOT
ATOM      1  C   UNL d   1      -5.096  -0.392  -0.528  0.00  0.00     0.020 A 
ATOM      2  C1  UNL d   1      -6.000   0.173   0.371  0.00  0.00     0.020 A 
ATOM      3  C2  UNL d   1      -5.539   0.743   1.559  0.00  0.00     0.034 A 
ATOM      4  C3  UNL d   1      -4.170   0.750   1.852  0.00  0.00     0.017 A 
ATOM      5  C4  UNL d   1      -3.264   0.182   0.949  0.00  0.00     0.017 A 
ATOM      6  C5  UNL d   1      -3.731  -0.388  -0.239  0.00  0.00     0.034 A 
ATOM      7 Cl   UNL d   1      -1.560   0.152   1.242  0.00  0.00    -0.070 Cl
ATOM      8 Cl1  UNL d   1      -3.670   1.472   3.340  0.00  0.00    -0.070 Cl
ENDROOT
TORSDOF 0
ENDMDL
