MODEL 1
REMARK minimizedAffinity 0.610370576
REMARK minimizedRMSD -1
REMARK  0 active torsions:
REMARK  status: ('A' for Active; 'I' for Inactive)
ROOT
ATOM      1  C   UNL d   1      -0.864   0.464  -0.532  0.00  0.00     0.020 A 
ATOM      2  C1  UNL d   1      -0.633  -0.900  -0.701  0.00  0.00     0.020 A 
ATOM      3  C2  UNL d   1      -0.858  -1.498  -1.943  0.00  0.00     0.034 A 
ATOM      4  C3  UNL d   1      -1.314  -0.732  -3.021  0.00  0.00     0.017 A 
ATOM      5  C4  UNL d   1      -1.546   0.638  -2.851  0.00  0.00     0.017 A 
ATOM      6  C5  UNL d   1      -1.319   1.232  -1.605  0.00  0.00     0.034 A 
ATOM      7 Cl   UNL d   1      -2.109   1.650  -4.134  0.00  0.00    -0.070 Cl
ATOM      8 Cl1  UNL d   1      -1.570  -1.537  -4.528  0.00  0.00    -0.070 Cl
ENDROOT
TORSDOF 0
ENDMDL
