MODEL 1
REMARK minimizedAffinity -0.356943011
REMARK minimizedRMSD -1
REMARK  0 active torsions:
REMARK  status: ('A' for Active; 'I' for Inactive)
ROOT
ATOM      1  C   UNL d   1      -4.948  -0.004   0.001  0.00  0.00     0.020 A 
ATOM      2  C1  UNL d   1      -4.267   0.425   1.140  0.00  0.00     0.020 A 
ATOM      3  C2  UNL d   1      -2.947   0.871   1.038  0.00  0.00     0.034 A 
ATOM      4  C3  UNL d   1      -2.304   0.887  -0.205  0.00  0.00     0.017 A 
ATOM      5  C4  UNL d   1      -2.988   0.456  -1.348  0.00  0.00     0.017 A 
ATOM      6  C5  UNL d   1      -4.310   0.011  -1.240  0.00  0.00     0.034 A 
ATOM      7 Cl   UNL d   1      -2.261   0.447  -2.916  0.00  0.00    -0.070 Cl
ATOM      8 Cl1  UNL d   1      -0.672   1.451  -0.258  0.00  0.00    -0.070 Cl
ENDROOT
TORSDOF 0
ENDMDL
