MODEL 1
REMARK minimizedAffinity 0.653517127
REMARK minimizedRMSD -1
REMARK  0 active torsions:
REMARK  status: ('A' for Active; 'I' for Inactive)
ROOT
ATOM      1  C   UNL d   1      -0.538  -0.278  -0.083  0.00  0.00     0.020 A 
ATOM      2  C1  UNL d   1      -0.631   1.107  -0.218  0.00  0.00     0.020 A 
ATOM      3  C2  UNL d   1       0.424   1.921   0.199  0.00  0.00     0.034 A 
ATOM      4  C3  UNL d   1       1.577   1.352   0.753  0.00  0.00     0.017 A 
ATOM      5  C4  UNL d   1       1.669  -0.038   0.888  0.00  0.00     0.017 A 
ATOM      6  C5  UNL d   1       0.610  -0.849   0.469  0.00  0.00     0.034 A 
ATOM      7 Cl   UNL d   1       3.059  -0.813   1.562  0.00  0.00    -0.070 Cl
ATOM      8 Cl1  UNL d   1       2.842   2.420   1.247  0.00  0.00    -0.070 Cl
ENDROOT
TORSDOF 0
ENDMDL
