MODEL 1
REMARK minimizedAffinity -2.33283758
REMARK minimizedRMSD -1
REMARK  0 active torsions:
REMARK  status: ('A' for Active; 'I' for Inactive)
ROOT
ATOM      1  C   UNL d   1       2.451   1.653   0.884  0.00  0.00     0.020 A 
ATOM      2  C1  UNL d   1       2.388   0.796   1.982  0.00  0.00     0.020 A 
ATOM      3  C2  UNL d   1       1.301  -0.068   2.131  0.00  0.00     0.034 A 
ATOM      4  C3  UNL d   1       0.274  -0.078   1.180  0.00  0.00     0.017 A 
ATOM      5  C4  UNL d   1       0.339   0.782   0.078  0.00  0.00     0.017 A 
ATOM      6  C5  UNL d   1       1.429   1.646  -0.066  0.00  0.00     0.034 A 
ATOM      7 Cl   UNL d   1      -0.890   0.827  -1.137  0.00  0.00    -0.070 Cl
ATOM      8 Cl1  UNL d   1      -1.039  -1.174   1.427  0.00  0.00    -0.070 Cl
ENDROOT
TORSDOF 0
ENDMDL
