MODEL 1
REMARK minimizedAffinity -3.58085823
REMARK minimizedRMSD -1
REMARK  0 active torsions:
REMARK  status: ('A' for Active; 'I' for Inactive)
ROOT
ATOM      1  C   UNL d   1       1.035   1.669  -0.219  0.00  0.00     0.020 A 
ATOM      2  C1  UNL d   1       0.687   0.394   0.226  0.00  0.00     0.020 A 
ATOM      3  C2  UNL d   1      -0.608   0.144   0.685  0.00  0.00     0.034 A 
ATOM      4  C3  UNL d   1      -1.560   1.169   0.698  0.00  0.00     0.017 A 
ATOM      5  C4  UNL d   1      -1.211   2.448   0.251  0.00  0.00     0.017 A 
ATOM      6  C5  UNL d   1       0.088   2.694  -0.207  0.00  0.00     0.034 A 
ATOM      7 Cl   UNL d   1      -2.331   3.764   0.237  0.00  0.00    -0.070 Cl
ATOM      8 Cl1  UNL d   1      -3.143   0.788   1.278  0.00  0.00    -0.070 Cl
ENDROOT
TORSDOF 0
ENDMDL
