MODEL 1
REMARK minimizedAffinity 13.7292871
REMARK minimizedRMSD -1
REMARK  0 active torsions:
REMARK  status: ('A' for Active; 'I' for Inactive)
ROOT
ATOM      1  C2' OXE d   1       3.068   1.868   3.009  0.00  0.00     0.078 C 
ATOM      2  C1' OXE d   1       0.953   1.024   4.650  0.00  0.00     0.078 C 
ATOM      3  C1  OXE d   1       0.612   1.832   3.422  0.00  0.00    -0.078 A 
ATOM      4  C2  OXE d   1       1.657   2.280   2.650  0.00  0.00    -0.078 A 
ATOM      5  C3  OXE d   1       1.396   2.983   1.478  0.00  0.00     0.003 A 
ATOM      6  C4  OXE d   1       0.088   3.369   1.159  0.00  0.00    -0.002 A 
ATOM      7  C5  OXE d   1      -0.987   2.956   1.953  0.00  0.00    -0.002 A 
ATOM      8  C6  OXE d   1      -0.747   2.153   3.062  0.00  0.00     0.003 A 
ENDROOT
TORSDOF 0
ENDMDL
