MODEL 1
REMARK minimizedAffinity 7.19406223
REMARK minimizedRMSD -1
REMARK  0 active torsions:
REMARK  status: ('A' for Active; 'I' for Inactive)
ROOT
ATOM      1  C2' OXE d   1      -1.165   1.948   0.073  0.00  0.00     0.078 C 
ATOM      2  C1' OXE d   1       0.965   2.629   1.770  0.00  0.00     0.078 C 
ATOM      3  C1  OXE d   1       0.527   3.648   0.748  0.00  0.00    -0.078 A 
ATOM      4  C2  OXE d   1      -0.485   3.288  -0.109  0.00  0.00    -0.078 A 
ATOM      5  C3  OXE d   1      -0.965   4.211  -1.034  0.00  0.00     0.003 A 
ATOM      6  C4  OXE d   1      -0.324   5.444  -1.203  0.00  0.00    -0.002 A 
ATOM      7  C5  OXE d   1       0.735   5.814  -0.367  0.00  0.00    -0.002 A 
ATOM      8  C6  OXE d   1       1.144   4.947   0.639  0.00  0.00     0.003 A 
ENDROOT
TORSDOF 0
ENDMDL
