MODEL 1
REMARK minimizedAffinity 6.98490095
REMARK minimizedRMSD -1
REMARK  0 active torsions:
REMARK  status: ('A' for Active; 'I' for Inactive)
ROOT
ATOM      1  C2' OXE d   1       4.480  -4.895  -0.755  0.00  0.00     0.078 C 
ATOM      2  C1' OXE d   1       3.816  -5.189  -3.467  0.00  0.00     0.078 C 
ATOM      3  C1  OXE d   1       2.727  -5.413  -2.447  0.00  0.00    -0.078 A 
ATOM      4  C2  OXE d   1       3.072  -5.313  -1.121  0.00  0.00    -0.078 A 
ATOM      5  C3  OXE d   1       2.094  -5.457  -0.141  0.00  0.00     0.003 A 
ATOM      6  C4  OXE d   1       0.797  -5.853  -0.488  0.00  0.00    -0.002 A 
ATOM      7  C5  OXE d   1       0.434  -6.000  -1.831  0.00  0.00    -0.002 A 
ATOM      8  C6  OXE d   1       1.374  -5.742  -2.823  0.00  0.00     0.003 A 
ENDROOT
TORSDOF 0
ENDMDL
