MODEL 1
REMARK minimizedAffinity 9.08384037
REMARK minimizedRMSD -1
REMARK  0 active torsions:
REMARK  status: ('A' for Active; 'I' for Inactive)
ROOT
ATOM      1  C2' OXE d   1       0.719   1.983   0.379  0.00  0.00     0.078 C 
ATOM      2  C1' OXE d   1      -0.658   2.652   2.732  0.00  0.00     0.078 C 
ATOM      3  C1  OXE d   1      -0.506   3.720   1.678  0.00  0.00    -0.078 A 
ATOM      4  C2  OXE d   1       0.209   3.398   0.550  0.00  0.00    -0.078 A 
ATOM      5  C3  OXE d   1       0.332   4.328  -0.478  0.00  0.00     0.003 A 
ATOM      6  C4  OXE d   1      -0.134   5.638  -0.308  0.00  0.00    -0.002 A 
ATOM      7  C5  OXE d   1      -0.830   5.999   0.850  0.00  0.00    -0.002 A 
ATOM      8  C6  OXE d   1      -1.062   5.042   1.832  0.00  0.00     0.003 A 
ENDROOT
TORSDOF 0
ENDMDL
