MODEL 1
REMARK minimizedAffinity 15.9180555
REMARK minimizedRMSD -1
REMARK  0 active torsions:
REMARK  status: ('A' for Active; 'I' for Inactive)
ROOT
ATOM      1  C2' OXE d   1       3.018  -0.703   0.642  0.00  0.00     0.078 C 
ATOM      2  C1' OXE d   1       2.798  -3.458   1.138  0.00  0.00     0.078 C 
ATOM      3  C1  OXE d   1       3.944  -2.987   0.278  0.00  0.00    -0.078 A 
ATOM      4  C2  OXE d   1       4.017  -1.643   0.002  0.00  0.00    -0.078 A 
ATOM      5  C3  OXE d   1       5.086  -1.149  -0.740  0.00  0.00     0.003 A 
ATOM      6  C4  OXE d   1       6.000  -2.025  -1.337  0.00  0.00    -0.002 A 
ATOM      7  C5  OXE d   1       5.920  -3.402  -1.102  0.00  0.00    -0.002 A 
ATOM      8  C6  OXE d   1       4.926  -3.894  -0.264  0.00  0.00     0.003 A 
ENDROOT
TORSDOF 0
ENDMDL
