MODEL 1
REMARK minimizedAffinity 9.59330273
REMARK minimizedRMSD -1
REMARK  0 active torsions:
REMARK  status: ('A' for Active; 'I' for Inactive)
ROOT
ATOM      1  C2' OXE d   1      -1.145   2.496   2.180  0.00  0.00     0.078 C 
ATOM      2  C1' OXE d   1       1.073   1.889   0.571  0.00  0.00     0.078 C 
ATOM      3  C1  OXE d   1       0.433   3.244   0.404  0.00  0.00    -0.078 A 
ATOM      4  C2  OXE d   1      -0.681   3.515   1.162  0.00  0.00    -0.078 A 
ATOM      5  C3  OXE d   1      -1.278   4.770   1.086  0.00  0.00     0.003 A 
ATOM      6  C4  OXE d   1      -0.848   5.703   0.134  0.00  0.00    -0.002 A 
ATOM      7  C5  OXE d   1       0.260   5.432  -0.676  0.00  0.00    -0.002 A 
ATOM      8  C6  OXE d   1       0.936   4.227  -0.524  0.00  0.00     0.003 A 
ENDROOT
TORSDOF 0
ENDMDL
