MODEL 1
REMARK minimizedAffinity 5.57064342
REMARK minimizedRMSD -1
REMARK  0 active torsions:
REMARK  status: ('A' for Active; 'I' for Inactive)
ROOT
ATOM      1  C2' OXE d   1       0.341   1.719   0.012  0.00  0.00     0.078 C 
ATOM      2  C1' OXE d   1      -0.242   2.762   2.553  0.00  0.00     0.078 C 
ATOM      3  C1  OXE d   1      -0.113   3.733   1.406  0.00  0.00    -0.078 A 
ATOM      4  C2  OXE d   1       0.218   3.219   0.176  0.00  0.00    -0.078 A 
ATOM      5  C3  OXE d   1       0.296   4.065  -0.927  0.00  0.00     0.003 A 
ATOM      6  C4  OXE d   1       0.191   5.452  -0.765  0.00  0.00    -0.002 A 
ATOM      7  C5  OXE d   1      -0.106   6.000   0.487  0.00  0.00    -0.002 A 
ATOM      8  C6  OXE d   1      -0.303   5.153   1.572  0.00  0.00     0.003 A 
ENDROOT
TORSDOF 0
ENDMDL
