MODEL 1
REMARK minimizedAffinity 5.95392704
REMARK minimizedRMSD -1
REMARK  0 active torsions:
REMARK  status: ('A' for Active; 'I' for Inactive)
ROOT
ATOM      1  C2' OXE d   1       0.571   1.160   3.976  0.00  0.00     0.078 C 
ATOM      2  C1' OXE d   1      -2.043   1.869   3.236  0.00  0.00     0.078 C 
ATOM      3  C1  OXE d   1      -0.911   2.335   2.354  0.00  0.00    -0.078 A 
ATOM      4  C2  OXE d   1       0.368   2.023   2.749  0.00  0.00    -0.078 A 
ATOM      5  C3  OXE d   1       1.445   2.382   1.944  0.00  0.00     0.003 A 
ATOM      6  C4  OXE d   1       1.249   3.189   0.817  0.00  0.00    -0.002 A 
ATOM      7  C5  OXE d   1      -0.042   3.551   0.418  0.00  0.00    -0.002 A 
ATOM      8  C6  OXE d   1      -1.133   3.098   1.151  0.00  0.00     0.003 A 
ENDROOT
TORSDOF 0
ENDMDL
