MODEL 1
REMARK minimizedAffinity 14.6110497
REMARK minimizedRMSD -1
REMARK  0 active torsions:
REMARK  status: ('A' for Active; 'I' for Inactive)
ROOT
ATOM      1  C2' OXE d   1       0.429   4.402   0.474  0.00  0.00     0.078 C 
ATOM      2  C1' OXE d   1       2.471   3.894   2.333  0.00  0.00     0.078 C 
ATOM      3  C1  OXE d   1       1.220   3.054   2.414  0.00  0.00    -0.078 A 
ATOM      4  C2  OXE d   1       0.208   3.341   1.530  0.00  0.00    -0.078 A 
ATOM      5  C3  OXE d   1      -0.945   2.561   1.526  0.00  0.00     0.003 A 
ATOM      6  C4  OXE d   1      -1.146   1.588   2.512  0.00  0.00    -0.002 A 
ATOM      7  C5  OXE d   1      -0.144   1.306   3.447  0.00  0.00    -0.002 A 
ATOM      8  C6  OXE d   1       1.060   2.000   3.385  0.00  0.00     0.003 A 
ENDROOT
TORSDOF 0
ENDMDL
