MODEL 1
REMARK minimizedAffinity 10.2090092
REMARK minimizedRMSD -1
REMARK  0 active torsions:
REMARK  status: ('A' for Active; 'I' for Inactive)
ROOT
ATOM      1  C2' OXE d   1       0.296   4.472  -0.454  0.00  0.00     0.078 C 
ATOM      2  C1' OXE d   1      -1.693   5.525   1.224  0.00  0.00     0.078 C 
ATOM      3  C1  OXE d   1      -1.069   4.207   1.613  0.00  0.00    -0.078 A 
ATOM      4  C2  OXE d   1      -0.130   3.677   0.762  0.00  0.00    -0.078 A 
ATOM      5  C3  OXE d   1       0.515   2.491   1.101  0.00  0.00     0.003 A 
ATOM      6  C4  OXE d   1       0.108   1.757   2.221  0.00  0.00    -0.002 A 
ATOM      7  C5  OXE d   1      -0.875   2.260   3.080  0.00  0.00    -0.002 A 
ATOM      8  C6  OXE d   1      -1.442   3.502   2.814  0.00  0.00     0.003 A 
ENDROOT
TORSDOF 0
ENDMDL
