MODEL 1
REMARK minimizedAffinity 12.4476595
REMARK minimizedRMSD -1
REMARK  0 active torsions:
REMARK  status: ('A' for Active; 'I' for Inactive)
ROOT
ATOM      1  O1  BZF d   1      -1.223  -1.513   1.355  0.00  0.00    -0.204 OA
ATOM      2  C2  BZF d   1      -0.842  -2.839   1.294  0.00  0.00     0.174 A 
ATOM      3  C3  BZF d   1       0.499  -2.948   1.205  0.00  0.00    -0.012 A 
ATOM      4  C3A BZF d   1       0.993  -1.609   1.303  0.00  0.00    -0.107 A 
ATOM      5  C4  BZF d   1       2.247  -1.068   1.296  0.00  0.00     0.055 A 
ATOM      6  C5  BZF d   1       2.383   0.284   1.337  0.00  0.00    -0.016 A 
ATOM      7  C6  BZF d   1       1.289   1.123   1.380  0.00  0.00     0.022 A 
ATOM      8  C7  BZF d   1       0.025   0.632   1.394  0.00  0.00     0.029 A 
ATOM      9  C7A BZF d   1      -0.115  -0.734   1.386  0.00  0.00     0.058 A 
ENDROOT
TORSDOF 0
ENDMDL
