MODEL 1
REMARK minimizedAffinity 11.7486658
REMARK minimizedRMSD -1
REMARK  0 active torsions:
REMARK  status: ('A' for Active; 'I' for Inactive)
ROOT
ATOM      1  O1  BZF d   1       3.277  -0.657   0.889  0.00  0.00    -0.204 OA
ATOM      2  C2  BZF d   1       4.147  -1.720   1.039  0.00  0.00     0.174 A 
ATOM      3  C3  BZF d   1       3.763  -2.513   2.060  0.00  0.00    -0.012 A 
ATOM      4  C3A BZF d   1       2.527  -1.959   2.521  0.00  0.00    -0.107 A 
ATOM      5  C4  BZF d   1       1.649  -2.313   3.506  0.00  0.00     0.055 A 
ATOM      6  C5  BZF d   1       0.573  -1.519   3.748  0.00  0.00    -0.016 A 
ATOM      7  C6  BZF d   1       0.347  -0.363   3.030  0.00  0.00     0.022 A 
ATOM      8  C7  BZF d   1       1.188   0.027   2.041  0.00  0.00     0.029 A 
ATOM      9  C7A BZF d   1       2.258  -0.791   1.771  0.00  0.00     0.058 A 
ENDROOT
TORSDOF 0
ENDMDL
