MODEL 1
REMARK minimizedAffinity 7.0450983
REMARK minimizedRMSD -1
REMARK  0 active torsions:
REMARK  status: ('A' for Active; 'I' for Inactive)
ROOT
ATOM      1  O1  BZF d   1      -0.483  -2.625   2.578  0.00  0.00    -0.204 OA
ATOM      2  C2  BZF d   1       0.752  -2.158   2.981  0.00  0.00     0.174 A 
ATOM      3  C3  BZF d   1       1.729  -3.017   2.625  0.00  0.00    -0.012 A 
ATOM      4  C3A BZF d   1       1.071  -4.044   1.875  0.00  0.00    -0.107 A 
ATOM      5  C4  BZF d   1       1.510  -5.171   1.241  0.00  0.00     0.055 A 
ATOM      6  C5  BZF d   1       0.601  -6.000   0.664  0.00  0.00    -0.016 A 
ATOM      7  C6  BZF d   1      -0.752  -5.736   0.706  0.00  0.00     0.022 A 
ATOM      8  C7  BZF d   1      -1.235  -4.628   1.319  0.00  0.00     0.029 A 
ATOM      9  C7A BZF d   1      -0.316  -3.771   1.875  0.00  0.00     0.058 A 
ENDROOT
TORSDOF 0
ENDMDL
