MODEL 1
REMARK minimizedAffinity 5.65517902
REMARK minimizedRMSD -1
REMARK  0 active torsions:
REMARK  status: ('A' for Active; 'I' for Inactive)
ROOT
ATOM      1  O1  BZF d   1      -5.938  -2.391  -5.632  0.00  0.00    -0.204 OA
ATOM      2  C2  BZF d   1      -5.260  -1.574  -4.748  0.00  0.00     0.174 A 
ATOM      3  C3  BZF d   1      -4.507  -2.305  -3.901  0.00  0.00    -0.012 A 
ATOM      4  C3A BZF d   1      -4.657  -3.660  -4.339  0.00  0.00    -0.107 A 
ATOM      5  C4  BZF d   1      -4.142  -4.848  -3.906  0.00  0.00     0.055 A 
ATOM      6  C5  BZF d   1      -4.545  -6.000  -4.505  0.00  0.00    -0.016 A 
ATOM      7  C6  BZF d   1      -5.465  -6.000  -5.533  0.00  0.00     0.022 A 
ATOM      8  C7  BZF d   1      -6.000  -4.845  -6.000  0.00  0.00     0.029 A 
ATOM      9  C7A BZF d   1      -5.569  -3.677  -5.419  0.00  0.00     0.058 A 
ENDROOT
TORSDOF 0
ENDMDL
