MODEL 1
REMARK minimizedAffinity -1.93156159
REMARK minimizedRMSD -1
REMARK  0 active torsions:
REMARK  status: ('A' for Active; 'I' for Inactive)
ROOT
ATOM      1  O1  BZF d   1       3.095   3.166  -4.518  0.00  0.00    -0.204 OA
ATOM      2  C2  BZF d   1       3.745   4.074  -5.333  0.00  0.00     0.174 A 
ATOM      3  C3  BZF d   1       4.755   3.479  -6.000  0.00  0.00    -0.012 A 
ATOM      4  C3A BZF d   1       4.677   2.095  -5.645  0.00  0.00    -0.107 A 
ATOM      5  C4  BZF d   1       5.402   0.993  -6.000  0.00  0.00     0.055 A 
ATOM      6  C5  BZF d   1       5.115  -0.201  -5.418  0.00  0.00    -0.016 A 
ATOM      7  C6  BZF d   1       4.115  -0.328  -4.476  0.00  0.00     0.022 A 
ATOM      8  C7  BZF d   1       3.366   0.735  -4.097  0.00  0.00     0.029 A 
ATOM      9  C7A BZF d   1       3.632   1.937  -4.707  0.00  0.00     0.058 A 
ENDROOT
TORSDOF 0
ENDMDL
