MODEL 1
REMARK minimizedAffinity 13.5959549
REMARK minimizedRMSD -1
REMARK  0 active torsions:
REMARK  status: ('A' for Active; 'I' for Inactive)
ROOT
ATOM      1  O1  BZF d   1       0.844  -1.059   3.905  0.00  0.00    -0.204 OA
ATOM      2  C2  BZF d   1       0.820  -2.416   4.163  0.00  0.00     0.174 A 
ATOM      3  C3  BZF d   1       1.210  -3.116   3.078  0.00  0.00    -0.012 A 
ATOM      4  C3A BZF d   1       1.584  -2.132   2.110  0.00  0.00    -0.107 A 
ATOM      5  C4  BZF d   1       2.069  -2.206   0.835  0.00  0.00     0.055 A 
ATOM      6  C5  BZF d   1       2.262  -1.058   0.135  0.00  0.00    -0.016 A 
ATOM      7  C6  BZF d   1       1.976   0.179   0.674  0.00  0.00     0.022 A 
ATOM      8  C7  BZF d   1       1.497   0.303   1.936  0.00  0.00     0.029 A 
ATOM      9  C7A BZF d   1       1.332  -0.853   2.658  0.00  0.00     0.058 A 
ENDROOT
TORSDOF 0
ENDMDL
