MODEL 1
REMARK minimizedAffinity 8.98791599
REMARK minimizedRMSD -1
REMARK  0 active torsions:
REMARK  status: ('A' for Active; 'I' for Inactive)
ROOT
ATOM      1  O1  BZF d   1       0.380  -1.660   1.822  0.00  0.00    -0.204 OA
ATOM      2  C2  BZF d   1       1.758  -1.625   1.726  0.00  0.00     0.174 A 
ATOM      3  C3  BZF d   1       2.158  -1.914   0.471  0.00  0.00    -0.012 A 
ATOM      4  C3A BZF d   1       0.952  -2.054  -0.285  0.00  0.00    -0.107 A 
ATOM      5  C4  BZF d   1       0.694  -2.326  -1.599  0.00  0.00     0.055 A 
ATOM      6  C5  BZF d   1      -0.596  -2.467  -2.003  0.00  0.00    -0.016 A 
ATOM      7  C6  BZF d   1      -1.650  -2.348  -1.121  0.00  0.00     0.022 A 
ATOM      8  C7  BZF d   1      -1.444  -2.074   0.190  0.00  0.00     0.029 A 
ATOM      9  C7A BZF d   1      -0.143  -1.898   0.595  0.00  0.00     0.058 A 
ENDROOT
TORSDOF 0
ENDMDL
