MODEL 1
REMARK minimizedAffinity 1.89169776
REMARK minimizedRMSD -1
REMARK  0 active torsions:
REMARK  status: ('A' for Active; 'I' for Inactive)
ROOT
ATOM      1  C2' OXE d   1       1.663  -4.717   1.115  0.00  0.00     0.078 C 
ATOM      2  C1' OXE d   1      -0.494  -3.542   2.474  0.00  0.00     0.078 C 
ATOM      3  C1  OXE d   1       0.241  -2.701   1.460  0.00  0.00    -0.078 A 
ATOM      4  C2  OXE d   1       1.324  -3.269   0.834  0.00  0.00    -0.078 A 
ATOM      5  C3  OXE d   1       2.004  -2.556  -0.150  0.00  0.00     0.003 A 
ATOM      6  C4  OXE d   1       1.691  -1.214  -0.396  0.00  0.00    -0.002 A 
ATOM      7  C5  OXE d   1       0.616  -0.604   0.259  0.00  0.00    -0.002 A 
ATOM      8  C6  OXE d   1      -0.144  -1.345   1.157  0.00  0.00     0.003 A 
ENDROOT
TORSDOF 0
ENDMDL
