MODEL 1
REMARK minimizedAffinity 2.51617885
REMARK minimizedRMSD -1
REMARK  0 active torsions:
REMARK  status: ('A' for Active; 'I' for Inactive)
ROOT
ATOM      1  C2' OXE d   1       2.087  -3.657   0.019  0.00  0.00     0.078 C 
ATOM      2  C1' OXE d   1       3.276  -1.180  -0.554  0.00  0.00     0.078 C 
ATOM      3  C1  OXE d   1       2.003  -1.179   0.255  0.00  0.00    -0.078 A 
ATOM      4  C2  OXE d   1       1.403  -2.392   0.491  0.00  0.00    -0.078 A 
ATOM      5  C3  OXE d   1       0.257  -2.453   1.279  0.00  0.00     0.003 A 
ATOM      6  C4  OXE d   1      -0.375  -1.278   1.703  0.00  0.00    -0.002 A 
ATOM      7  C5  OXE d   1       0.198  -0.029   1.439  0.00  0.00    -0.002 A 
ATOM      8  C6  OXE d   1       1.407   0.036   0.755  0.00  0.00     0.003 A 
ENDROOT
TORSDOF 0
ENDMDL
