MODEL 1
REMARK minimizedAffinity -3.61411023
REMARK minimizedRMSD -1
REMARK  0 active torsions:
REMARK  status: ('A' for Active; 'I' for Inactive)
ROOT
ATOM      1  C2' OXE d   1       2.752  -4.324   0.249  0.00  0.00     0.078 C 
ATOM      2  C1' OXE d   1       0.491  -5.090   1.726  0.00  0.00     0.078 C 
ATOM      3  C1  OXE d   1       0.693  -3.619   1.463  0.00  0.00    -0.078 A 
ATOM      4  C2  OXE d   1       1.827  -3.249   0.780  0.00  0.00    -0.078 A 
ATOM      5  C3  OXE d   1       2.035  -1.910   0.463  0.00  0.00     0.003 A 
ATOM      6  C4  OXE d   1       1.180  -0.922   0.966  0.00  0.00    -0.002 A 
ATOM      7  C5  OXE d   1       0.041  -1.274   1.698  0.00  0.00    -0.002 A 
ATOM      8  C6  OXE d   1      -0.239  -2.618   1.918  0.00  0.00     0.003 A 
ENDROOT
TORSDOF 0
ENDMDL
