MODEL 1
REMARK minimizedAffinity -0.947854519
REMARK minimizedRMSD -1
REMARK  0 active torsions:
REMARK  status: ('A' for Active; 'I' for Inactive)
ROOT
ATOM      1  C2' OXE d   1      -4.100   5.777   5.999  0.00  0.00     0.078 C 
ATOM      2  C1' OXE d   1      -2.317   4.300   4.412  0.00  0.00     0.078 C 
ATOM      3  C1  OXE d   1      -3.609   3.638   4.822  0.00  0.00    -0.078 A 
ATOM      4  C2  OXE d   1      -4.454   4.351   5.637  0.00  0.00    -0.078 A 
ATOM      5  C3  OXE d   1      -5.683   3.808   6.000  0.00  0.00     0.003 A 
ATOM      6  C4  OXE d   1      -5.998   2.484   5.669  0.00  0.00    -0.002 A 
ATOM      7  C5  OXE d   1      -5.133   1.726   4.873  0.00  0.00    -0.002 A 
ATOM      8  C6  OXE d   1      -3.957   2.301   4.406  0.00  0.00     0.003 A 
ENDROOT
TORSDOF 0
ENDMDL
