MODEL 1
REMARK minimizedAffinity 10.9418678
REMARK minimizedRMSD -1
REMARK  0 active torsions:
REMARK  status: ('A' for Active; 'I' for Inactive)
ROOT
ATOM      1  C2' OXE d   1       0.111  -0.401   1.884  0.00  0.00     0.078 C 
ATOM      2  C1' OXE d   1      -0.969  -2.989   1.749  0.00  0.00     0.078 C 
ATOM      3  C1  OXE d   1       0.404  -2.769   1.166  0.00  0.00    -0.078 A 
ATOM      4  C2  OXE d   1       0.905  -1.489   1.194  0.00  0.00    -0.078 A 
ATOM      5  C3  OXE d   1       2.190  -1.242   0.719  0.00  0.00     0.003 A 
ATOM      6  C4  OXE d   1       2.914  -2.251   0.074  0.00  0.00    -0.002 A 
ATOM      7  C5  OXE d   1       2.405  -3.552  -0.002  0.00  0.00    -0.002 A 
ATOM      8  C6  OXE d   1       1.173  -3.837   0.576  0.00  0.00     0.003 A 
ENDROOT
TORSDOF 0
ENDMDL
