MODEL 1
REMARK minimizedAffinity 2.7068367
REMARK minimizedRMSD -1
REMARK  0 active torsions:
REMARK  status: ('A' for Active; 'I' for Inactive)
ROOT
ATOM      1  C2' OXE d   1      -1.382  -3.268   2.076  0.00  0.00     0.078 C 
ATOM      2  C1' OXE d   1      -0.381  -0.664   1.763  0.00  0.00     0.078 C 
ATOM      3  C1  OXE d   1       0.415  -1.800   1.171  0.00  0.00    -0.078 A 
ATOM      4  C2  OXE d   1      -0.058  -3.075   1.369  0.00  0.00    -0.078 A 
ATOM      5  C3  OXE d   1       0.609  -4.154   0.798  0.00  0.00     0.003 A 
ATOM      6  C4  OXE d   1       1.838  -3.968   0.154  0.00  0.00    -0.002 A 
ATOM      7  C5  OXE d   1       2.358  -2.682  -0.025  0.00  0.00    -0.002 A 
ATOM      8  C6  OXE d   1       1.639  -1.586   0.439  0.00  0.00     0.003 A 
ENDROOT
TORSDOF 0
ENDMDL
