MODEL 1
REMARK minimizedAffinity 7.80319738
REMARK minimizedRMSD -1
REMARK  0 active torsions:
REMARK  status: ('A' for Active; 'I' for Inactive)
ROOT
ATOM      1  C2' OXE d   1      -2.986   3.568   2.858  0.00  0.00     0.078 C 
ATOM      2  C1' OXE d   1      -4.795   1.430   2.666  0.00  0.00     0.078 C 
ATOM      3  C1  OXE d   1      -4.934   2.365   3.841  0.00  0.00    -0.078 A 
ATOM      4  C2  OXE d   1      -4.016   3.381   3.952  0.00  0.00    -0.078 A 
ATOM      5  C3  OXE d   1      -4.132   4.305   4.987  0.00  0.00     0.003 A 
ATOM      6  C4  OXE d   1      -5.080   4.119   6.000  0.00  0.00    -0.002 A 
ATOM      7  C5  OXE d   1      -6.000   3.067   5.927  0.00  0.00    -0.002 A 
ATOM      8  C6  OXE d   1      -5.967   2.208   4.834  0.00  0.00     0.003 A 
ENDROOT
TORSDOF 0
ENDMDL
