MODEL 1
REMARK minimizedAffinity -2.54296732
REMARK minimizedRMSD -1
REMARK  0 active torsions:
REMARK  status: ('A' for Active; 'I' for Inactive)
ROOT
ATOM      1  C   UNL d   1      -1.524   2.394   2.226  0.00  0.00     0.020 A 
ATOM      2  C1  UNL d   1      -2.089   2.148   0.976  0.00  0.00     0.020 A 
ATOM      3  C2  UNL d   1      -1.542   1.169   0.143  0.00  0.00     0.034 A 
ATOM      4  C3  UNL d   1      -0.426   0.434   0.559  0.00  0.00     0.017 A 
ATOM      5  C4  UNL d   1       0.140   0.682   1.815  0.00  0.00     0.017 A 
ATOM      6  C5  UNL d   1      -0.412   1.662   2.645  0.00  0.00     0.034 A 
ATOM      7 Cl   UNL d   1       1.517  -0.185   2.398  0.00  0.00    -0.070 Cl
ATOM      8 Cl1  UNL d   1       0.198  -0.760  -0.522  0.00  0.00    -0.070 Cl
ENDROOT
TORSDOF 0
ENDMDL
