MODEL 1
REMARK minimizedAffinity -3.96868682
REMARK minimizedRMSD -1
REMARK  0 active torsions:
REMARK  status: ('A' for Active; 'I' for Inactive)
ROOT
ATOM      1  C   UNL d   1      -0.940   2.725   1.945  0.00  0.00     0.020 A 
ATOM      2  C1  UNL d   1      -1.904   2.364   1.005  0.00  0.00     0.020 A 
ATOM      3  C2  UNL d   1      -1.773   1.169   0.294  0.00  0.00     0.034 A 
ATOM      4  C3  UNL d   1      -0.675   0.332   0.521  0.00  0.00     0.017 A 
ATOM      5  C4  UNL d   1       0.293   0.696   1.464  0.00  0.00     0.017 A 
ATOM      6  C5  UNL d   1       0.157   1.893   2.174  0.00  0.00     0.034 A 
ATOM      7 Cl   UNL d   1       1.676  -0.286   1.799  0.00  0.00    -0.070 Cl
ATOM      8 Cl1  UNL d   1      -0.576  -1.130  -0.395  0.00  0.00    -0.070 Cl
ENDROOT
TORSDOF 0
ENDMDL
