MODEL 1
REMARK minimizedAffinity -3.06203294
REMARK minimizedRMSD -1
REMARK  0 active torsions:
REMARK  status: ('A' for Active; 'I' for Inactive)
ROOT
ATOM      1  C   UNL d   1      -0.677   2.367   2.087  0.00  0.00     0.020 A 
ATOM      2  C1  UNL d   1      -1.514   2.078   1.010  0.00  0.00     0.020 A 
ATOM      3  C2  UNL d   1      -1.251   0.973   0.198  0.00  0.00     0.034 A 
ATOM      4  C3  UNL d   1      -0.148   0.153   0.461  0.00  0.00     0.017 A 
ATOM      5  C4  UNL d   1       0.692   0.444   1.542  0.00  0.00     0.017 A 
ATOM      6  C5  UNL d   1       0.424   1.551   2.352  0.00  0.00     0.034 A 
ATOM      7 Cl   UNL d   1       2.072  -0.522   1.929  0.00  0.00    -0.070 Cl
ATOM      8 Cl1  UNL d   1       0.117  -1.197  -0.585  0.00  0.00    -0.070 Cl
ENDROOT
TORSDOF 0
ENDMDL
