MODEL 1
REMARK minimizedAffinity -4.2861762
REMARK minimizedRMSD -1
REMARK  0 active torsions:
REMARK  status: ('A' for Active; 'I' for Inactive)
ROOT
ATOM      1  C   UNL d   1      -1.405   3.100   1.274  0.00  0.00     0.020 A 
ATOM      2  C1  UNL d   1      -1.371   3.707   0.020  0.00  0.00     0.020 A 
ATOM      3  C2  UNL d   1      -0.812   3.032  -1.068  0.00  0.00     0.034 A 
ATOM      4  C3  UNL d   1      -0.285   1.746  -0.903  0.00  0.00     0.017 A 
ATOM      5  C4  UNL d   1      -0.319   1.138   0.357  0.00  0.00     0.017 A 
ATOM      6  C5  UNL d   1      -0.880   1.818   1.443  0.00  0.00     0.034 A 
ATOM      7 Cl   UNL d   1       0.312  -0.447   0.639  0.00  0.00    -0.070 Cl
ATOM      8 Cl1  UNL d   1       0.390   0.970  -2.291  0.00  0.00    -0.070 Cl
ENDROOT
TORSDOF 0
ENDMDL
