MODEL 1
REMARK minimizedAffinity -0.699727714
REMARK minimizedRMSD -1
REMARK  0 active torsions:
REMARK  status: ('A' for Active; 'I' for Inactive)
ROOT
ATOM      1  C   UNL d   1       0.579   0.367  -1.698  0.00  0.00     0.020 A 
ATOM      2  C1  UNL d   1       0.389  -0.119  -0.405  0.00  0.00     0.020 A 
ATOM      3  C2  UNL d   1      -0.005  -1.444  -0.208  0.00  0.00     0.034 A 
ATOM      4  C3  UNL d   1      -0.210  -2.288  -1.306  0.00  0.00     0.017 A 
ATOM      5  C4  UNL d   1      -0.018  -1.799  -2.603  0.00  0.00     0.017 A 
ATOM      6  C5  UNL d   1       0.376  -0.471  -2.795  0.00  0.00     0.034 A 
ATOM      7 Cl   UNL d   1      -0.252  -2.780  -4.007  0.00  0.00    -0.070 Cl
ATOM      8 Cl1  UNL d   1      -0.695  -3.915  -0.989  0.00  0.00    -0.070 Cl
ENDROOT
TORSDOF 0
ENDMDL
