MODEL 1
REMARK minimizedAffinity 1.53085887
REMARK minimizedRMSD -1
REMARK  0 active torsions:
REMARK  status: ('A' for Active; 'I' for Inactive)
ROOT
ATOM      1  C   UNL d   1      -0.091  -0.996  -0.423  0.00  0.00     0.020 A 
ATOM      2  C1  UNL d   1       0.382  -0.529  -1.649  0.00  0.00     0.020 A 
ATOM      3  C2  UNL d   1       0.001   0.733  -2.110  0.00  0.00     0.034 A 
ATOM      4  C3  UNL d   1      -0.856   1.532  -1.346  0.00  0.00     0.017 A 
ATOM      5  C4  UNL d   1      -1.332   1.063  -0.116  0.00  0.00     0.017 A 
ATOM      6  C5  UNL d   1      -0.947  -0.201   0.342  0.00  0.00     0.034 A 
ATOM      7 Cl   UNL d   1      -2.393   1.992   0.883  0.00  0.00    -0.070 Cl
ATOM      8 Cl1  UNL d   1      -1.286   3.082  -1.978  0.00  0.00    -0.070 Cl
ENDROOT
TORSDOF 0
ENDMDL
