MODEL 1
REMARK minimizedAffinity 3.44392729
REMARK minimizedRMSD -1
REMARK  0 active torsions:
REMARK  status: ('A' for Active; 'I' for Inactive)
ROOT
ATOM      1  C   UNL d   1       0.194   1.038  -1.496  0.00  0.00     0.020 A 
ATOM      2  C1  UNL d   1       0.001   1.626  -0.247  0.00  0.00     0.020 A 
ATOM      3  C2  UNL d   1      -0.381   0.841   0.843  0.00  0.00     0.034 A 
ATOM      4  C3  UNL d   1      -0.572  -0.536   0.687  0.00  0.00     0.017 A 
ATOM      5  C4  UNL d   1      -0.378  -1.126  -0.568  0.00  0.00     0.017 A 
ATOM      6  C5  UNL d   1       0.004  -0.336  -1.656  0.00  0.00     0.034 A 
ATOM      7 Cl   UNL d   1      -0.594  -2.819  -0.839  0.00  0.00    -0.070 Cl
ATOM      8 Cl1  UNL d   1      -1.044  -1.446   2.078  0.00  0.00    -0.070 Cl
ENDROOT
TORSDOF 0
ENDMDL
