MODEL 1
REMARK minimizedAffinity -1.06880617
REMARK minimizedRMSD -1
REMARK  0 active torsions:
REMARK  status: ('A' for Active; 'I' for Inactive)
ROOT
ATOM      1  C   UNL d   1      -1.766   1.508   0.748  0.00  0.00     0.020 A 
ATOM      2  C1  UNL d   1      -0.543   2.065   1.119  0.00  0.00     0.020 A 
ATOM      3  C2  UNL d   1       0.628   1.313   1.008  0.00  0.00     0.034 A 
ATOM      4  C3  UNL d   1       0.579   0.000   0.525  0.00  0.00     0.017 A 
ATOM      5  C4  UNL d   1      -0.649  -0.558   0.152  0.00  0.00     0.017 A 
ATOM      6  C5  UNL d   1      -1.819   0.200   0.265  0.00  0.00     0.034 A 
ATOM      7 Cl   UNL d   1      -0.790  -2.171  -0.453  0.00  0.00    -0.070 Cl
ATOM      8 Cl1  UNL d   1       2.067  -0.871   0.414  0.00  0.00    -0.070 Cl
ENDROOT
TORSDOF 0
ENDMDL
