MODEL 1
REMARK minimizedAffinity -4.21864605
REMARK minimizedRMSD -1
REMARK  0 active torsions:
REMARK  status: ('A' for Active; 'I' for Inactive)
ROOT
ATOM      1  C   UNL d   1       3.534  -2.681  -0.784  0.00  0.00     0.020 A 
ATOM      2  C1  UNL d   1       3.638  -1.546   0.020  0.00  0.00     0.020 A 
ATOM      3  C2  UNL d   1       2.515  -0.749   0.251  0.00  0.00     0.034 A 
ATOM      4  C3  UNL d   1       1.283  -1.086  -0.322  0.00  0.00     0.017 A 
ATOM      5  C4  UNL d   1       1.180  -2.225  -1.129  0.00  0.00     0.017 A 
ATOM      6  C5  UNL d   1       2.308  -3.019  -1.357  0.00  0.00     0.034 A 
ATOM      7 Cl   UNL d   1      -0.306  -2.704  -1.870  0.00  0.00    -0.070 Cl
ATOM      8 Cl1  UNL d   1      -0.065  -0.055   0.006  0.00  0.00    -0.070 Cl
ENDROOT
TORSDOF 0
ENDMDL
