MODEL 1
REMARK minimizedAffinity -0.308841377
REMARK minimizedRMSD -1
REMARK  0 active torsions:
REMARK  status: ('A' for Active; 'I' for Inactive)
ROOT
ATOM      1  C   UNL d   1      -0.261   1.008   2.385  0.00  0.00     0.020 A 
ATOM      2  C1  UNL d   1      -0.285   2.194   1.652  0.00  0.00     0.020 A 
ATOM      3  C2  UNL d   1      -0.349   2.152   0.258  0.00  0.00     0.034 A 
ATOM      4  C3  UNL d   1      -0.389   0.922  -0.408  0.00  0.00     0.017 A 
ATOM      5  C4  UNL d   1      -0.365  -0.268   0.328  0.00  0.00     0.017 A 
ATOM      6  C5  UNL d   1      -0.302  -0.220   1.724  0.00  0.00     0.034 A 
ATOM      7 Cl   UNL d   1      -0.412  -1.824  -0.423  0.00  0.00    -0.070 Cl
ATOM      8 Cl1  UNL d   1      -0.468   0.945  -2.134  0.00  0.00    -0.070 Cl
ENDROOT
TORSDOF 0
ENDMDL
