MODEL 1
REMARK minimizedAffinity 10.2915058
REMARK minimizedRMSD -1
REMARK  2 active torsions:
REMARK  status: ('A' for Active; 'I' for Inactive)
REMARK    1  A    between atoms: C2'_3  and  C1'_4 
REMARK    2  A    between atoms: C1'_4  and  C1_5 
ROOT
ATOM      1  C1  I4B d   1       0.813   3.800  -0.334  0.00  0.00    -0.075 A 
ATOM      2  C2  I4B d   1       2.013   4.454  -0.207  0.00  0.00     0.003 A 
ATOM      3  C3  I4B d   1       2.854   4.192   0.901  0.00  0.00     0.002 A 
ATOM      4  C4  I4B d   1       2.436   3.313   1.879  0.00  0.00    -0.004 A 
ATOM      5  C5  I4B d   1       1.229   2.634   1.737  0.00  0.00     0.002 A 
ATOM      6  C6  I4B d   1       0.418   2.869   0.618  0.00  0.00     0.003 A 
ENDROOT
BRANCH   1   7
ATOM      7  C1' I4B d   1      -0.065   4.126  -1.500  0.00  0.00     0.060 C 
BRANCH   7   8
ATOM      8  C2' I4B d   1      -1.477   4.315  -0.983  0.00  0.00    -0.013 C 
ATOM      9  C4' I4B d   1      -1.545   5.437   0.018  0.00  0.00     0.013 C 
ATOM     10  C3' I4B d   1      -2.369   4.583  -2.159  0.00  0.00     0.013 C 
ENDBRANCH   7   8
ENDBRANCH   1   7
TORSDOF 2
ENDMDL
