MODEL 1
REMARK minimizedAffinity 9.20615768
REMARK minimizedRMSD -1
REMARK  2 active torsions:
REMARK  status: ('A' for Active; 'I' for Inactive)
REMARK    1  A    between atoms: C2'_3  and  C1'_4 
REMARK    2  A    between atoms: C1'_4  and  C1_5 
ROOT
ATOM      1  C1  I4B d   1      -0.034   4.270  -0.646  0.00  0.00    -0.075 A 
ATOM      2  C2  I4B d   1      -0.754   5.138   0.136  0.00  0.00     0.003 A 
ATOM      3  C3  I4B d   1      -1.712   5.999  -0.452  0.00  0.00     0.002 A 
ATOM      4  C4  I4B d   1      -1.881   5.994  -1.821  0.00  0.00    -0.004 A 
ATOM      5  C5  I4B d   1      -1.167   5.097  -2.610  0.00  0.00     0.002 A 
ATOM      6  C6  I4B d   1      -0.247   4.220  -2.018  0.00  0.00     0.003 A 
ENDROOT
BRANCH   1   7
ATOM      7  C1' I4B d   1       0.993   3.398   0.003  0.00  0.00     0.060 C 
BRANCH   7   8
ATOM      8  C2' I4B d   1       0.585   3.192   1.448  0.00  0.00    -0.013 C 
ATOM      9  C4' I4B d   1      -0.648   2.332   1.549  0.00  0.00     0.013 C 
ATOM     10  C3' I4B d   1       1.741   2.568   2.171  0.00  0.00     0.013 C 
ENDBRANCH   7   8
ENDBRANCH   1   7
TORSDOF 2
ENDMDL
