MODEL 1
REMARK minimizedAffinity 7.03562117
REMARK minimizedRMSD -1
REMARK  2 active torsions:
REMARK  status: ('A' for Active; 'I' for Inactive)
REMARK    1  A    between atoms: C2'_3  and  C1'_4 
REMARK    2  A    between atoms: C1'_4  and  C1_5 
ROOT
ATOM      1  C1  I4B d   1      -4.834   4.322  -4.317  0.00  0.00    -0.075 A 
ATOM      2  C2  I4B d   1      -3.603   4.211  -3.721  0.00  0.00     0.003 A 
ATOM      3  C3  I4B d   1      -2.519   5.004  -4.169  0.00  0.00     0.002 A 
ATOM      4  C4  I4B d   1      -2.697   5.853  -5.243  0.00  0.00    -0.004 A 
ATOM      5  C5  I4B d   1      -3.952   5.981  -5.831  0.00  0.00     0.002 A 
ATOM      6  C6  I4B d   1      -5.031   5.220  -5.357  0.00  0.00     0.003 A 
ENDROOT
BRANCH   1   7
ATOM      7  C1' I4B d   1      -5.948   3.445  -3.840  0.00  0.00     0.060 C 
BRANCH   7   8
ATOM      8  C2' I4B d   1      -5.490   2.005  -3.956  0.00  0.00    -0.013 C 
ATOM      9  C4' I4B d   1      -5.981   1.182  -2.794  0.00  0.00     0.013 C 
ATOM     10  C3' I4B d   1      -5.999   1.461  -5.258  0.00  0.00     0.013 C 
ENDBRANCH   7   8
ENDBRANCH   1   7
TORSDOF 2
ENDMDL
