MODEL 1
REMARK minimizedAffinity 13.0507898
REMARK minimizedRMSD -1
REMARK  2 active torsions:
REMARK  status: ('A' for Active; 'I' for Inactive)
REMARK    1  A    between atoms: C2'_3  and  C1'_4 
REMARK    2  A    between atoms: C1'_4  and  C1_5 
ROOT
ATOM      1  C1  I4B d   1      -3.876   3.634  -3.225  0.00  0.00    -0.075 A 
ATOM      2  C2  I4B d   1      -4.027   3.494  -4.582  0.00  0.00     0.003 A 
ATOM      3  C3  I4B d   1      -5.118   2.760  -5.106  0.00  0.00     0.002 A 
ATOM      4  C4  I4B d   1      -6.000   2.143  -4.242  0.00  0.00    -0.004 A 
ATOM      5  C5  I4B d   1      -5.858   2.305  -2.867  0.00  0.00     0.002 A 
ATOM      6  C6  I4B d   1      -4.797   3.065  -2.355  0.00  0.00     0.003 A 
ENDROOT
BRANCH   1   7
ATOM      7  C1' I4B d   1      -2.693   4.388  -2.705  0.00  0.00     0.060 C 
BRANCH   7   8
ATOM      8  C2' I4B d   1      -2.567   4.095  -1.224  0.00  0.00    -0.013 C 
ATOM      9  C4' I4B d   1      -1.130   3.866  -0.834  0.00  0.00     0.013 C 
ATOM     10  C3' I4B d   1      -3.154   5.252  -0.472  0.00  0.00     0.013 C 
ENDBRANCH   7   8
ENDBRANCH   1   7
TORSDOF 2
ENDMDL
