MODEL 1
REMARK minimizedAffinity 9.95517445
REMARK minimizedRMSD -1
REMARK  2 active torsions:
REMARK  status: ('A' for Active; 'I' for Inactive)
REMARK    1  A    between atoms: C2'_3  and  C1'_4 
REMARK    2  A    between atoms: C1'_4  and  C1_5 
ROOT
ATOM      1  C1  I4B d   1       2.633  -2.402  -0.843  0.00  0.00    -0.075 A 
ATOM      2  C2  I4B d   1       2.104  -1.224  -1.307  0.00  0.00     0.003 A 
ATOM      3  C3  I4B d   1       0.724  -1.133  -1.610  0.00  0.00     0.002 A 
ATOM      4  C4  I4B d   1      -0.076  -2.250  -1.483  0.00  0.00    -0.004 A 
ATOM      5  C5  I4B d   1       0.458  -3.438  -0.990  0.00  0.00     0.002 A 
ATOM      6  C6  I4B d   1       1.818  -3.512  -0.656  0.00  0.00     0.003 A 
ENDROOT
BRANCH   1   7
ATOM      7  C1' I4B d   1       4.101  -2.473  -0.565  0.00  0.00     0.060 C 
BRANCH   7   8
ATOM      8  C2' I4B d   1       4.695  -3.542  -1.459  0.00  0.00    -0.013 C 
ATOM      9  C4' I4B d   1       5.461  -2.933  -2.603  0.00  0.00     0.013 C 
ATOM     10  C3' I4B d   1       5.580  -4.412  -0.616  0.00  0.00     0.013 C 
ENDBRANCH   7   8
ENDBRANCH   1   7
TORSDOF 2
ENDMDL
