MODEL 1
REMARK minimizedAffinity 14.37006
REMARK minimizedRMSD -1
REMARK  2 active torsions:
REMARK  status: ('A' for Active; 'I' for Inactive)
REMARK    1  A    between atoms: C2'_3  and  C1'_4 
REMARK    2  A    between atoms: C1'_4  and  C1_5 
ROOT
ATOM      1  C1  I4B d   1       3.425  -3.461  -0.424  0.00  0.00    -0.075 A 
ATOM      2  C2  I4B d   1       4.262  -4.531  -0.618  0.00  0.00     0.003 A 
ATOM      3  C3  I4B d   1       5.580  -4.328  -1.095  0.00  0.00     0.002 A 
ATOM      4  C4  I4B d   1       5.999  -3.052  -1.410  0.00  0.00    -0.004 A 
ATOM      5  C5  I4B d   1       5.157  -1.966  -1.190  0.00  0.00     0.002 A 
ATOM      6  C6  I4B d   1       3.866  -2.170  -0.683  0.00  0.00     0.003 A 
ENDROOT
BRANCH   1   7
ATOM      7  C1' I4B d   1       2.029  -3.715   0.049  0.00  0.00     0.060 C 
BRANCH   7   8
ATOM      8  C2' I4B d   1       1.254  -4.336  -1.095  0.00  0.00    -0.013 C 
ATOM      9  C4' I4B d   1       1.017  -5.805  -0.859  0.00  0.00     0.013 C 
ATOM     10  C3' I4B d   1      -0.042  -3.595  -1.233  0.00  0.00     0.013 C 
ENDBRANCH   7   8
ENDBRANCH   1   7
TORSDOF 2
ENDMDL
