MODEL 1
REMARK minimizedAffinity 11.3312025
REMARK minimizedRMSD -1
REMARK  2 active torsions:
REMARK  status: ('A' for Active; 'I' for Inactive)
REMARK    1  A    between atoms: C2'_3  and  C1'_4 
REMARK    2  A    between atoms: C1'_4  and  C1_5 
ROOT
ATOM      1  C1  I4B d   1       4.214  -4.884  -1.849  0.00  0.00    -0.075 A 
ATOM      2  C2  I4B d   1       5.244  -5.343  -1.066  0.00  0.00     0.003 A 
ATOM      3  C3  I4B d   1       6.000  -4.438  -0.281  0.00  0.00     0.002 A 
ATOM      4  C4  I4B d   1       5.726  -3.087  -0.348  0.00  0.00    -0.004 A 
ATOM      5  C5  I4B d   1       4.667  -2.627  -1.125  0.00  0.00     0.002 A 
ATOM      6  C6  I4B d   1       3.898  -3.532  -1.871  0.00  0.00     0.003 A 
ENDROOT
BRANCH   1   7
ATOM      7  C1' I4B d   1       3.459  -5.863  -2.691  0.00  0.00     0.060 C 
BRANCH   7   8
ATOM      8  C2' I4B d   1       4.182  -5.996  -4.016  0.00  0.00    -0.013 C 
ATOM      9  C4' I4B d   1       3.801  -4.885  -4.958  0.00  0.00     0.013 C 
ATOM     10  C3' I4B d   1       5.656  -5.991  -3.741  0.00  0.00     0.013 C 
ENDBRANCH   7   8
ENDBRANCH   1   7
TORSDOF 2
ENDMDL
