MODEL 1
REMARK minimizedAffinity 6.18220329
REMARK minimizedRMSD -1
REMARK  0 active torsions:
REMARK  status: ('A' for Active; 'I' for Inactive)
ROOT
ATOM      1  C   UNL d   1      -4.370  -5.363  -1.770  0.00  0.00     0.078 C 
ATOM      2  C1  UNL d   1      -3.330  -4.377  -2.211  0.00  0.00    -0.077 A 
ATOM      3  C2  UNL d   1      -3.388  -3.038  -1.808  0.00  0.00    -0.001 A 
ATOM      4  C3  UNL d   1      -2.418  -2.129  -2.234  0.00  0.00     0.003 A 
ATOM      5  C4  UNL d   1      -1.383  -2.550  -3.068  0.00  0.00    -0.005 A 
ATOM      6  C5  UNL d   1      -1.319  -3.881  -3.476  0.00  0.00     0.003 A 
ATOM      7  C6  UNL d   1      -2.288  -4.791  -3.051  0.00  0.00    -0.001 A 
ENDROOT
TORSDOF 0
ENDMDL
