MODEL 1
REMARK minimizedAffinity 4.65584707
REMARK minimizedRMSD -1
REMARK  0 active torsions:
REMARK  status: ('A' for Active; 'I' for Inactive)
ROOT
ATOM      1  C   UNL d   1       6.000  -1.029   1.967  0.00  0.00     0.078 C 
ATOM      2  C1  UNL d   1       5.290   0.097   1.276  0.00  0.00    -0.077 A 
ATOM      3  C2  UNL d   1       6.000   1.187   0.758  0.00  0.00    -0.001 A 
ATOM      4  C3  UNL d   1       5.325   2.233   0.125  0.00  0.00     0.003 A 
ATOM      5  C4  UNL d   1       3.937   2.199   0.006  0.00  0.00    -0.005 A 
ATOM      6  C5  UNL d   1       3.222   1.120   0.521  0.00  0.00     0.003 A 
ATOM      7  C6  UNL d   1       3.895   0.073   1.153  0.00  0.00    -0.001 A 
ENDROOT
TORSDOF 0
ENDMDL
