MODEL 1
REMARK minimizedAffinity 4.15890074
REMARK minimizedRMSD -1
REMARK  0 active torsions:
REMARK  status: ('A' for Active; 'I' for Inactive)
ROOT
ATOM      1  C   UNL d   1       0.690   1.853   2.115  0.00  0.00     0.078 C 
ATOM      2  C1  UNL d   1      -0.660   1.298   2.455  0.00  0.00    -0.077 A 
ATOM      3  C2  UNL d   1      -0.804  -0.015   2.919  0.00  0.00    -0.001 A 
ATOM      4  C3  UNL d   1      -2.069  -0.522   3.222  0.00  0.00     0.003 A 
ATOM      5  C4  UNL d   1      -3.200   0.277   3.063  0.00  0.00    -0.005 A 
ATOM      6  C5  UNL d   1      -3.067   1.584   2.599  0.00  0.00     0.003 A 
ATOM      7  C6  UNL d   1      -1.803   2.092   2.296  0.00  0.00    -0.001 A 
ENDROOT
TORSDOF 0
ENDMDL
