MODEL 1
REMARK minimizedAffinity 8.58913708
REMARK minimizedRMSD -1
REMARK  0 active torsions:
REMARK  status: ('A' for Active; 'I' for Inactive)
ROOT
ATOM      1  C   UNL d   1       4.449  -0.495   1.356  0.00  0.00     0.078 C 
ATOM      2  C1  UNL d   1       3.188   0.307   1.489  0.00  0.00    -0.077 A 
ATOM      3  C2  UNL d   1       3.089   1.590   0.937  0.00  0.00    -0.001 A 
ATOM      4  C3  UNL d   1       1.913   2.329   1.077  0.00  0.00     0.003 A 
ATOM      5  C4  UNL d   1       0.828   1.794   1.768  0.00  0.00    -0.005 A 
ATOM      6  C5  UNL d   1       0.918   0.518   2.322  0.00  0.00     0.003 A 
ATOM      7  C6  UNL d   1       2.093  -0.222   2.183  0.00  0.00    -0.001 A 
ENDROOT
TORSDOF 0
ENDMDL
