MODEL 1
REMARK minimizedAffinity 0.579981148
REMARK minimizedRMSD -1
REMARK  0 active torsions:
REMARK  status: ('A' for Active; 'I' for Inactive)
ROOT
ATOM      1  C   UNL d   1      -5.175  -4.973  -2.967  0.00  0.00     0.078 C 
ATOM      2  C1  UNL d   1      -4.007  -4.042  -2.834  0.00  0.00    -0.077 A 
ATOM      3  C2  UNL d   1      -3.754  -3.369  -1.633  0.00  0.00    -0.001 A 
ATOM      4  C3  UNL d   1      -2.668  -2.498  -1.527  0.00  0.00     0.003 A 
ATOM      5  C4  UNL d   1      -1.829  -2.290  -2.619  0.00  0.00    -0.005 A 
ATOM      6  C5  UNL d   1      -2.074  -2.954  -3.820  0.00  0.00     0.003 A 
ATOM      7  C6  UNL d   1      -3.159  -3.825  -3.927  0.00  0.00    -0.001 A 
ENDROOT
TORSDOF 0
ENDMDL
