MODEL 1
REMARK minimizedAffinity -5.67421055
REMARK minimizedRMSD -1
REMARK  0 active torsions:
REMARK  status: ('A' for Active; 'I' for Inactive)
ROOT
ATOM      1  C   UNL d   1       2.190  -0.001   0.749  0.00  0.00     0.078 C 
ATOM      2  C1  UNL d   1       3.512   0.661   1.005  0.00  0.00    -0.077 A 
ATOM      3  C2  UNL d   1       3.697   2.025   0.747  0.00  0.00    -0.001 A 
ATOM      4  C3  UNL d   1       4.936   2.625   0.981  0.00  0.00     0.003 A 
ATOM      5  C4  UNL d   1       5.998   1.869   1.473  0.00  0.00    -0.005 A 
ATOM      6  C5  UNL d   1       5.823   0.511   1.731  0.00  0.00     0.003 A 
ATOM      7  C6  UNL d   1       4.586  -0.091   1.498  0.00  0.00    -0.001 A 
ENDROOT
TORSDOF 0
ENDMDL
