MODEL 1
REMARK minimizedAffinity 0.63645637
REMARK minimizedRMSD -1
REMARK  0 active torsions:
REMARK  status: ('A' for Active; 'I' for Inactive)
ROOT
ATOM      1  C   UNL d   1       6.000  -0.418   2.664  0.00  0.00     0.078 C 
ATOM      2  C1  UNL d   1       5.073   0.424   1.840  0.00  0.00    -0.077 A 
ATOM      3  C2  UNL d   1       5.542   1.547   1.148  0.00  0.00    -0.001 A 
ATOM      4  C3  UNL d   1       4.666   2.328   0.392  0.00  0.00     0.003 A 
ATOM      5  C4  UNL d   1       3.314   1.994   0.322  0.00  0.00    -0.005 A 
ATOM      6  C5  UNL d   1       2.838   0.880   1.009  0.00  0.00     0.003 A 
ATOM      7  C6  UNL d   1       3.713   0.098   1.765  0.00  0.00    -0.001 A 
ENDROOT
TORSDOF 0
ENDMDL
