MODEL 1
REMARK minimizedAffinity -3.56857705
REMARK minimizedRMSD -1
REMARK  0 active torsions:
REMARK  status: ('A' for Active; 'I' for Inactive)
ROOT
ATOM      1  C   UNL d   1      -5.489   5.054   4.518  0.00  0.00     0.078 C 
ATOM      2  C1  UNL d   1      -5.336   3.566   4.624  0.00  0.00    -0.077 A 
ATOM      3  C2  UNL d   1      -5.298   2.761   3.479  0.00  0.00    -0.001 A 
ATOM      4  C3  UNL d   1      -5.165   1.376   3.594  0.00  0.00     0.003 A 
ATOM      5  C4  UNL d   1      -5.070   0.785   4.852  0.00  0.00    -0.005 A 
ATOM      6  C5  UNL d   1      -5.109   1.577   5.997  0.00  0.00     0.003 A 
ATOM      7  C6  UNL d   1      -5.242   2.962   5.885  0.00  0.00    -0.001 A 
ENDROOT
TORSDOF 0
ENDMDL
