MODEL 1
REMARK minimizedAffinity 2.95061803
REMARK minimizedRMSD -1
REMARK  0 active torsions:
REMARK  status: ('A' for Active; 'I' for Inactive)
ROOT
ATOM      1  C   UNL d   1      -4.123   1.509   3.467  0.00  0.00     0.078 C 
ATOM      2  C1  UNL d   1      -4.769   0.307   4.088  0.00  0.00    -0.077 A 
ATOM      3  C2  UNL d   1      -4.888  -0.895   3.378  0.00  0.00    -0.001 A 
ATOM      4  C3  UNL d   1      -5.500  -2.003   3.965  0.00  0.00     0.003 A 
ATOM      5  C4  UNL d   1      -6.000  -1.921   5.263  0.00  0.00    -0.005 A 
ATOM      6  C5  UNL d   1      -5.888  -0.730   5.976  0.00  0.00     0.003 A 
ATOM      7  C6  UNL d   1      -5.276   0.380   5.391  0.00  0.00    -0.001 A 
ENDROOT
TORSDOF 0
ENDMDL
