MODEL 1
REMARK minimizedAffinity 11.4828539
REMARK minimizedRMSD -1
REMARK  0 active torsions:
REMARK  status: ('A' for Active; 'I' for Inactive)
ROOT
ATOM      1  C   UNL d   1       3.286   4.088   1.634  0.00  0.00     0.078 C 
ATOM      2  C1  UNL d   1       2.869   2.684   1.315  0.00  0.00    -0.077 A 
ATOM      3  C2  UNL d   1       3.562   1.925   0.363  0.00  0.00    -0.001 A 
ATOM      4  C3  UNL d   1       3.157   0.622   0.069  0.00  0.00     0.003 A 
ATOM      5  C4  UNL d   1       2.057   0.067   0.720  0.00  0.00    -0.005 A 
ATOM      6  C5  UNL d   1       1.360   0.815   1.667  0.00  0.00     0.003 A 
ATOM      7  C6  UNL d   1       1.764   2.118   1.963  0.00  0.00    -0.001 A 
ENDROOT
TORSDOF 0
ENDMDL
