MODEL 1
REMARK minimizedAffinity 7.01440239
REMARK minimizedRMSD -1
REMARK  0 active torsions:
REMARK  status: ('A' for Active; 'I' for Inactive)
ROOT
ATOM      1  C   UNL d   1       5.026   1.683  -1.607  0.00  0.00     0.078 C 
ATOM      2  C1  UNL d   1       4.261   1.239  -0.397  0.00  0.00    -0.077 A 
ATOM      3  C2  UNL d   1       4.688   0.144   0.365  0.00  0.00    -0.001 A 
ATOM      4  C3  UNL d   1       3.961  -0.264   1.483  0.00  0.00     0.003 A 
ATOM      5  C4  UNL d   1       2.801   0.416   1.850  0.00  0.00    -0.005 A 
ATOM      6  C5  UNL d   1       2.367   1.505   1.098  0.00  0.00     0.003 A 
ATOM      7  C6  UNL d   1       3.093   1.915  -0.021  0.00  0.00    -0.001 A 
ENDROOT
TORSDOF 0
ENDMDL
