MODEL 1
REMARK minimizedAffinity 9.20708752
REMARK minimizedRMSD -1
REMARK  0 active torsions:
REMARK  status: ('A' for Active; 'I' for Inactive)
ROOT
ATOM      1  C   UNL d   1       2.339  -3.406  -4.874  0.00  0.00     0.078 C 
ATOM      2  C1  UNL d   1       0.897  -2.996  -4.834  0.00  0.00    -0.077 A 
ATOM      3  C2  UNL d   1       0.224  -2.610  -6.000  0.00  0.00    -0.001 A 
ATOM      4  C3  UNL d   1      -1.115  -2.221  -5.947  0.00  0.00     0.003 A 
ATOM      5  C4  UNL d   1      -1.794  -2.214  -4.729  0.00  0.00    -0.005 A 
ATOM      6  C5  UNL d   1      -1.132  -2.594  -3.563  0.00  0.00     0.003 A 
ATOM      7  C6  UNL d   1       0.207  -2.983  -3.615  0.00  0.00    -0.001 A 
ENDROOT
TORSDOF 0
ENDMDL
