MODEL 1
REMARK minimizedAffinity 12.6039953
REMARK minimizedRMSD -1
REMARK  0 active torsions:
REMARK  status: ('A' for Active; 'I' for Inactive)
ROOT
ATOM      1  C   UNL d   1       3.430   0.398   1.434  0.00  0.00     0.078 C 
ATOM      2  C1  UNL d   1       2.274   0.855   2.272  0.00  0.00    -0.077 A 
ATOM      3  C2  UNL d   1       1.879   0.136   3.407  0.00  0.00    -0.001 A 
ATOM      4  C3  UNL d   1       0.795   0.567   4.174  0.00  0.00     0.003 A 
ATOM      5  C4  UNL d   1       0.096   1.718   3.812  0.00  0.00    -0.005 A 
ATOM      6  C5  UNL d   1       0.481   2.438   2.684  0.00  0.00     0.003 A 
ATOM      7  C6  UNL d   1       1.565   2.008   1.916  0.00  0.00    -0.001 A 
ENDROOT
TORSDOF 0
ENDMDL
