MODEL 1
REMARK minimizedAffinity 1.96329725
REMARK minimizedRMSD -1
REMARK  0 active torsions:
REMARK  status: ('A' for Active; 'I' for Inactive)
ROOT
ATOM      1  C   UNL d   1       3.938   5.413  -5.997  0.00  0.00     0.078 C 
ATOM      2  C1  UNL d   1       4.130   4.110  -5.280  0.00  0.00    -0.077 A 
ATOM      3  C2  UNL d   1       4.336   4.073  -3.896  0.00  0.00    -0.001 A 
ATOM      4  C3  UNL d   1       4.524   2.853  -3.243  0.00  0.00     0.003 A 
ATOM      5  C4  UNL d   1       4.509   1.663  -3.967  0.00  0.00    -0.005 A 
ATOM      6  C5  UNL d   1       4.307   1.690  -5.345  0.00  0.00     0.003 A 
ATOM      7  C6  UNL d   1       4.119   2.909  -6.000  0.00  0.00    -0.001 A 
ENDROOT
TORSDOF 0
ENDMDL
