MODEL 1
REMARK minimizedAffinity 9.41463089
REMARK minimizedRMSD -1
REMARK  0 active torsions:
REMARK  status: ('A' for Active; 'I' for Inactive)
ROOT
ATOM      1  C   UNL d   1      -0.088  -2.490   0.528  0.00  0.00     0.078 C 
ATOM      2  C1  UNL d   1      -1.194  -2.656  -0.471  0.00  0.00    -0.077 A 
ATOM      3  C2  UNL d   1      -2.514  -2.871  -0.057  0.00  0.00    -0.001 A 
ATOM      4  C3  UNL d   1      -3.531  -3.034  -0.998  0.00  0.00     0.003 A 
ATOM      5  C4  UNL d   1      -3.239  -2.985  -2.360  0.00  0.00    -0.005 A 
ATOM      6  C5  UNL d   1      -1.928  -2.774  -2.782  0.00  0.00     0.003 A 
ATOM      7  C6  UNL d   1      -0.909  -2.611  -1.842  0.00  0.00    -0.001 A 
ENDROOT
TORSDOF 0
ENDMDL
