MODEL 1
REMARK minimizedAffinity -4.75385809
REMARK minimizedRMSD -1
REMARK  2 active torsions:
REMARK  status: ('A' for Active; 'I' for Inactive)
REMARK    1  A    between atoms: C2'_3  and  C1'_4 
REMARK    2  A    between atoms: C1'_4  and  C1_5 
ROOT
ATOM      1  C1  I4B d   1       1.407  -0.281   0.651  0.00  0.00    -0.075 A 
ATOM      2  C2  I4B d   1       2.722   0.108   0.700  0.00  0.00     0.003 A 
ATOM      3  C3  I4B d   1       3.596  -0.455   1.661  0.00  0.00     0.002 A 
ATOM      4  C4  I4B d   1       3.105  -1.360   2.579  0.00  0.00    -0.004 A 
ATOM      5  C5  I4B d   1       1.777  -1.771   2.513  0.00  0.00     0.002 A 
ATOM      6  C6  I4B d   1       0.925  -1.238   1.535  0.00  0.00     0.003 A 
ENDROOT
BRANCH   1   7
ATOM      7  C1' I4B d   1       0.503   0.358  -0.356  0.00  0.00     0.060 C 
BRANCH   7   8
ATOM      8  C2' I4B d   1      -0.843   0.582   0.302  0.00  0.00    -0.013 C 
ATOM      9  C4' I4B d   1      -0.956   1.979   0.852  0.00  0.00     0.013 C 
ATOM     10  C3' I4B d   1      -1.908   0.315  -0.720  0.00  0.00     0.013 C 
ENDBRANCH   7   8
ENDBRANCH   1   7
TORSDOF 2
ENDMDL
