MODEL 1
REMARK minimizedAffinity -6.46522093
REMARK minimizedRMSD -1
REMARK  2 active torsions:
REMARK  status: ('A' for Active; 'I' for Inactive)
REMARK    1  A    between atoms: C2'_3  and  C1'_4 
REMARK    2  A    between atoms: C1'_4  and  C1_5 
ROOT
ATOM      1  C1  I4B d   1       0.738  -0.403   0.659  0.00  0.00    -0.075 A 
ATOM      2  C2  I4B d   1       2.035   0.037   0.571  0.00  0.00     0.003 A 
ATOM      3  C3  I4B d   1       3.087  -0.726   1.133  0.00  0.00     0.002 A 
ATOM      4  C4  I4B d   1       2.794  -1.890   1.815  0.00  0.00    -0.004 A 
ATOM      5  C5  I4B d   1       1.480  -2.346   1.883  0.00  0.00     0.002 A 
ATOM      6  C6  I4B d   1       0.447  -1.605   1.292  0.00  0.00     0.003 A 
ENDROOT
BRANCH   1   7
ATOM      7  C1' I4B d   1      -0.351   0.444   0.083  0.00  0.00     0.060 C 
BRANCH   7   8
ATOM      8  C2' I4B d   1      -1.524  -0.460  -0.240  0.00  0.00    -0.013 C 
ATOM      9  C4' I4B d   1      -2.389  -0.684   0.972  0.00  0.00     0.013 C 
ATOM     10  C3' I4B d   1      -2.304   0.175  -1.353  0.00  0.00     0.013 C 
ENDBRANCH   7   8
ENDBRANCH   1   7
TORSDOF 2
ENDMDL
