MODEL 1
REMARK minimizedAffinity -3.8066957
REMARK minimizedRMSD -1
REMARK  2 active torsions:
REMARK  status: ('A' for Active; 'I' for Inactive)
REMARK    1  A    between atoms: C2'_3  and  C1'_4 
REMARK    2  A    between atoms: C1'_4  and  C1_5 
ROOT
ATOM      1  C1  I4B d   1      -0.623  -0.513  -0.644  0.00  0.00    -0.075 A 
ATOM      2  C2  I4B d   1       0.693  -0.623  -1.021  0.00  0.00     0.003 A 
ATOM      3  C3  I4B d   1       1.722  -0.199  -0.146  0.00  0.00     0.002 A 
ATOM      4  C4  I4B d   1       1.392   0.372   1.066  0.00  0.00    -0.004 A 
ATOM      5  C5  I4B d   1       0.059   0.461   1.456  0.00  0.00     0.002 A 
ATOM      6  C6  I4B d   1      -0.955   0.005   0.601  0.00  0.00     0.003 A 
ENDROOT
BRANCH   1   7
ATOM      7  C1' I4B d   1      -1.686  -0.940  -1.606  0.00  0.00     0.060 C 
BRANCH   7   8
ATOM      8  C2' I4B d   1      -1.988   0.231  -2.518  0.00  0.00    -0.013 C 
ATOM      9  C4' I4B d   1      -2.159  -0.219  -3.945  0.00  0.00     0.013 C 
ATOM     10  C3' I4B d   1      -3.228   0.905  -2.011  0.00  0.00     0.013 C 
ENDBRANCH   7   8
ENDBRANCH   1   7
TORSDOF 2
ENDMDL
