MODEL 1
REMARK minimizedAffinity -3.11203361
REMARK minimizedRMSD -1
REMARK  2 active torsions:
REMARK  status: ('A' for Active; 'I' for Inactive)
REMARK    1  A    between atoms: C2'_3  and  C1'_4 
REMARK    2  A    between atoms: C1'_4  and  C1_5 
ROOT
ATOM      1  C1  I4B d   1      -1.599   0.280  -1.332  0.00  0.00    -0.075 A 
ATOM      2  C2  I4B d   1      -2.077   1.421  -1.928  0.00  0.00     0.003 A 
ATOM      3  C3  I4B d   1      -2.529   1.390  -3.269  0.00  0.00     0.002 A 
ATOM      4  C4  I4B d   1      -2.439   0.216  -3.989  0.00  0.00    -0.004 A 
ATOM      5  C5  I4B d   1      -1.975  -0.945  -3.377  0.00  0.00     0.002 A 
ATOM      6  C6  I4B d   1      -1.564  -0.916  -2.037  0.00  0.00     0.003 A 
ENDROOT
BRANCH   1   7
ATOM      7  C1' I4B d   1      -1.099   0.357   0.075  0.00  0.00     0.060 C 
BRANCH   7   8
ATOM      8  C2' I4B d   1       0.373  -0.000   0.068  0.00  0.00    -0.013 C 
ATOM      9  C4' I4B d   1       1.234   1.232   0.164  0.00  0.00     0.013 C 
ATOM     10  C3' I4B d   1       0.630  -0.931   1.216  0.00  0.00     0.013 C 
ENDBRANCH   7   8
ENDBRANCH   1   7
TORSDOF 2
ENDMDL
