MODEL 1
REMARK minimizedAffinity -2.30162454
REMARK minimizedRMSD -1
REMARK  2 active torsions:
REMARK  status: ('A' for Active; 'I' for Inactive)
REMARK    1  A    between atoms: C2'_3  and  C1'_4 
REMARK    2  A    between atoms: C1'_4  and  C1_5 
ROOT
ATOM      1  C1  I4B d   1      -0.213   0.330   0.171  0.00  0.00    -0.075 A 
ATOM      2  C2  I4B d   1       0.639   1.386  -0.038  0.00  0.00     0.003 A 
ATOM      3  C3  I4B d   1       2.010   1.273   0.299  0.00  0.00     0.002 A 
ATOM      4  C4  I4B d   1       2.472   0.112   0.885  0.00  0.00    -0.004 A 
ATOM      5  C5  I4B d   1       1.612  -0.965   1.075  0.00  0.00     0.002 A 
ATOM      6  C6  I4B d   1       0.263  -0.860   0.704  0.00  0.00     0.003 A 
ENDROOT
BRANCH   1   7
ATOM      7  C1' I4B d   1      -1.661   0.496  -0.166  0.00  0.00     0.060 C 
BRANCH   7   8
ATOM      8  C2' I4B d   1      -1.798   0.444  -1.675  0.00  0.00    -0.013 C 
ATOM      9  C4' I4B d   1      -1.996  -0.970  -2.156  0.00  0.00     0.013 C 
ATOM     10  C3' I4B d   1      -2.954   1.315  -2.065  0.00  0.00     0.013 C 
ENDBRANCH   7   8
ENDBRANCH   1   7
TORSDOF 2
ENDMDL
