MODEL 1
REMARK minimizedAffinity 8.09586811
REMARK minimizedRMSD -1
REMARK  2 active torsions:
REMARK  status: ('A' for Active; 'I' for Inactive)
REMARK    1  A    between atoms: C2'_3  and  C1'_4 
REMARK    2  A    between atoms: C1'_4  and  C1_5 
ROOT
ATOM      1  C1  I4B d   1      -5.411   2.463  -1.185  0.00  0.00    -0.075 A 
ATOM      2  C2  I4B d   1      -5.200   3.797  -1.430  0.00  0.00     0.003 A 
ATOM      3  C3  I4B d   1      -5.372   4.748  -0.395  0.00  0.00     0.002 A 
ATOM      4  C4  I4B d   1      -5.802   4.330   0.847  0.00  0.00    -0.004 A 
ATOM      5  C5  I4B d   1      -5.994   2.975   1.101  0.00  0.00     0.002 A 
ATOM      6  C6  I4B d   1      -5.785   2.034   0.082  0.00  0.00     0.003 A 
ENDROOT
BRANCH   1   7
ATOM      7  C1' I4B d   1      -5.252   1.489  -2.309  0.00  0.00     0.060 C 
BRANCH   7   8
ATOM      8  C2' I4B d   1      -4.009   1.873  -3.086  0.00  0.00    -0.013 C 
ATOM      9  C4' I4B d   1      -3.356   0.663  -3.700  0.00  0.00     0.013 C 
ATOM     10  C3' I4B d   1      -4.408   2.864  -4.138  0.00  0.00     0.013 C 
ENDBRANCH   7   8
ENDBRANCH   1   7
TORSDOF 2
ENDMDL
