MODEL 1
REMARK minimizedAffinity -0.368292868
REMARK minimizedRMSD -1
REMARK  0 active torsions:
REMARK  status: ('A' for Active; 'I' for Inactive)
ROOT
ATOM      1  C2' OXE d   1      -6.000   4.602  -5.167  0.00  0.00     0.078 C 
ATOM      2  C1' OXE d   1      -4.603   5.082  -2.780  0.00  0.00     0.078 C 
ATOM      3  C1  OXE d   1      -3.991   4.125  -3.773  0.00  0.00    -0.078 A 
ATOM      4  C2  OXE d   1      -4.704   3.860  -4.917  0.00  0.00    -0.078 A 
ATOM      5  C3  OXE d   1      -4.160   3.028  -5.891  0.00  0.00     0.003 A 
ATOM      6  C4  OXE d   1      -2.966   2.339  -5.648  0.00  0.00    -0.002 A 
ATOM      7  C5  OXE d   1      -2.243   2.563  -4.471  0.00  0.00    -0.002 A 
ATOM      8  C6  OXE d   1      -2.720   3.484  -3.545  0.00  0.00     0.003 A 
ENDROOT
TORSDOF 0
ENDMDL
