MODEL 1
REMARK minimizedAffinity 2.80487084
REMARK minimizedRMSD -1
REMARK  0 active torsions:
REMARK  status: ('A' for Active; 'I' for Inactive)
ROOT
ATOM      1  C2' OXE d   1       6.000   1.128  -0.142  0.00  0.00     0.078 C 
ATOM      2  C1' OXE d   1       4.857   2.884   1.726  0.00  0.00     0.078 C 
ATOM      3  C1  OXE d   1       3.934   1.952   0.981  0.00  0.00    -0.078 A 
ATOM      4  C2  OXE d   1       4.497   1.128   0.035  0.00  0.00    -0.078 A 
ATOM      5  C3  OXE d   1       3.699   0.211  -0.642  0.00  0.00     0.003 A 
ATOM      6  C4  OXE d   1       2.308   0.225  -0.480  0.00  0.00    -0.002 A 
ATOM      7  C5  OXE d   1       1.711   1.083   0.450  0.00  0.00    -0.002 A 
ATOM      8  C6  OXE d   1       2.512   1.921   1.217  0.00  0.00     0.003 A 
ENDROOT
TORSDOF 0
ENDMDL
