MODEL 1
REMARK minimizedAffinity 0.728851259
REMARK minimizedRMSD -1
REMARK  0 active torsions:
REMARK  status: ('A' for Active; 'I' for Inactive)
ROOT
ATOM      1  C2' OXE d   1      -5.954   3.023   2.071  0.00  0.00     0.078 C 
ATOM      2  C1' OXE d   1      -5.969   5.824   1.896  0.00  0.00     0.078 C 
ATOM      3  C1  OXE d   1      -5.953   5.206   3.271  0.00  0.00    -0.078 A 
ATOM      4  C2  OXE d   1      -5.993   3.834   3.348  0.00  0.00    -0.078 A 
ATOM      5  C3  OXE d   1      -5.925   3.211   4.590  0.00  0.00     0.003 A 
ATOM      6  C4  OXE d   1      -5.971   3.969   5.767  0.00  0.00    -0.002 A 
ATOM      7  C5  OXE d   1      -5.971   5.367   5.711  0.00  0.00    -0.002 A 
ATOM      8  C6  OXE d   1      -5.919   5.999   4.474  0.00  0.00     0.003 A 
ENDROOT
TORSDOF 0
ENDMDL
