MODEL 1
REMARK minimizedAffinity 7.07886028
REMARK minimizedRMSD -1
REMARK  0 active torsions:
REMARK  status: ('A' for Active; 'I' for Inactive)
ROOT
ATOM      1  C2' OXE d   1      -4.877  -1.447  -1.952  0.00  0.00     0.078 C 
ATOM      2  C1' OXE d   1      -5.948   0.907  -0.862  0.00  0.00     0.078 C 
ATOM      3  C1  OXE d   1      -5.013   1.039  -2.038  0.00  0.00    -0.078 A 
ATOM      4  C2  OXE d   1      -4.457  -0.115  -2.536  0.00  0.00    -0.078 A 
ATOM      5  C3  OXE d   1      -3.632  -0.056  -3.655  0.00  0.00     0.003 A 
ATOM      6  C4  OXE d   1      -3.241   1.181  -4.183  0.00  0.00    -0.002 A 
ATOM      7  C5  OXE d   1      -3.764   2.371  -3.666  0.00  0.00    -0.002 A 
ATOM      8  C6  OXE d   1      -4.683   2.315  -2.623  0.00  0.00     0.003 A 
ENDROOT
TORSDOF 0
ENDMDL
