MODEL 1
REMARK minimizedAffinity 4.08328724
REMARK minimizedRMSD -1
REMARK  0 active torsions:
REMARK  status: ('A' for Active; 'I' for Inactive)
ROOT
ATOM      1  C2' OXE d   1      -3.561   0.625  -4.028  0.00  0.00     0.078 C 
ATOM      2  C1' OXE d   1      -4.257  -1.450  -2.270  0.00  0.00     0.078 C 
ATOM      3  C1  OXE d   1      -4.770  -0.065  -1.963  0.00  0.00    -0.078 A 
ATOM      4  C2  OXE d   1      -4.386   0.953  -2.802  0.00  0.00    -0.078 A 
ATOM      5  C3  OXE d   1      -4.876   2.239  -2.596  0.00  0.00     0.003 A 
ATOM      6  C4  OXE d   1      -5.630   2.535  -1.454  0.00  0.00    -0.002 A 
ATOM      7  C5  OXE d   1      -6.000   1.521  -0.564  0.00  0.00    -0.002 A 
ATOM      8  C6  OXE d   1      -5.615   0.211  -0.826  0.00  0.00     0.003 A 
ENDROOT
TORSDOF 0
ENDMDL
