MODEL 1
REMARK minimizedAffinity 3.81740737
REMARK minimizedRMSD -1
REMARK  0 active torsions:
REMARK  status: ('A' for Active; 'I' for Inactive)
ROOT
ATOM      1  C2' OXE d   1      -5.710   0.069  -4.876  0.00  0.00     0.078 C 
ATOM      2  C1' OXE d   1      -2.925   0.368  -4.681  0.00  0.00     0.078 C 
ATOM      3  C1  OXE d   1      -3.792   1.438  -4.067  0.00  0.00    -0.078 A 
ATOM      4  C2  OXE d   1      -5.153   1.308  -4.208  0.00  0.00    -0.078 A 
ATOM      5  C3  OXE d   1      -6.000   2.239  -3.613  0.00  0.00     0.003 A 
ATOM      6  C4  OXE d   1      -5.476   3.387  -3.006  0.00  0.00    -0.002 A 
ATOM      7  C5  OXE d   1      -4.093   3.559  -2.886  0.00  0.00    -0.002 A 
ATOM      8  C6  OXE d   1      -3.240   2.575  -3.373  0.00  0.00     0.003 A 
ENDROOT
TORSDOF 0
ENDMDL
