MODEL 1
REMARK minimizedAffinity 4.95487261
REMARK minimizedRMSD -1
REMARK  3 active torsions:
REMARK  status: ('A' for Active; 'I' for Inactive)
REMARK    1  A    between atoms: C3'_2  and  C2'_3 
REMARK    2  A    between atoms: C2'_3  and  C1'_4 
REMARK    3  A    between atoms: C1'_4  and  C1_5 
ROOT
ATOM      1  C1  N4B d   1       3.958   3.978  -0.188  0.00  0.00    -0.075 A 
ATOM      2  C2  N4B d   1       5.058   4.150   0.680  0.00  0.00     0.002 A 
ATOM      3  C3  N4B d   1       5.959   5.162   0.454  0.00  0.00     0.002 A 
ATOM      4  C4  N4B d   1       5.792   5.998  -0.640  0.00  0.00    -0.004 A 
ATOM      5  C5  N4B d   1       4.712   5.842  -1.459  0.00  0.00     0.002 A 
ATOM      6  C6  N4B d   1       3.796   4.832  -1.241  0.00  0.00     0.002 A 
ENDROOT
BRANCH   1   7
ATOM      7  C1' N4B d   1       2.994   2.834  -0.032  0.00  0.00     0.057 C 
BRANCH   7   8
ATOM      8  C2' N4B d   1       2.838   2.123  -1.373  0.00  0.00     0.009 C 
BRANCH   8   9
ATOM      9  C3' N4B d   1       1.952   0.894  -1.265  0.00  0.00     0.004 C 
ATOM     10  C4' N4B d   1       2.698  -0.383  -1.513  0.00  0.00     0.003 C 
ENDBRANCH   8   9
ENDBRANCH   7   8
ENDBRANCH   1   7
TORSDOF 3
ENDMDL
