MODEL 1
REMARK minimizedAffinity 6.18746853
REMARK minimizedRMSD -1
REMARK  3 active torsions:
REMARK  status: ('A' for Active; 'I' for Inactive)
REMARK    1  A    between atoms: C3'_2  and  C2'_3 
REMARK    2  A    between atoms: C2'_3  and  C1'_4 
REMARK    3  A    between atoms: C1'_4  and  C1_5 
ROOT
ATOM      1  C1  N4B d   1       1.448   0.057  -2.010  0.00  0.00    -0.075 A 
ATOM      2  C2  N4B d   1       2.216   0.403  -3.143  0.00  0.00     0.002 A 
ATOM      3  C3  N4B d   1       2.204   1.693  -3.613  0.00  0.00     0.002 A 
ATOM      4  C4  N4B d   1       1.420   2.646  -2.980  0.00  0.00    -0.004 A 
ATOM      5  C5  N4B d   1       0.700   2.309  -1.871  0.00  0.00     0.002 A 
ATOM      6  C6  N4B d   1       0.707   1.017  -1.385  0.00  0.00     0.002 A 
ENDROOT
BRANCH   1   7
ATOM      7  C1' N4B d   1       1.363  -1.360  -1.511  0.00  0.00     0.057 C 
BRANCH   7   8
ATOM      8  C2' N4B d   1       0.327  -2.119  -2.334  0.00  0.00     0.009 C 
BRANCH   8   9
ATOM      9  C3' N4B d   1       0.809  -3.509  -2.713  0.00  0.00     0.004 C 
ATOM     10  C4' N4B d   1       1.276  -3.593  -4.136  0.00  0.00     0.003 C 
ENDBRANCH   8   9
ENDBRANCH   7   8
ENDBRANCH   1   7
TORSDOF 3
ENDMDL
