MODEL 1
REMARK minimizedAffinity 0.190522403
REMARK minimizedRMSD -1
REMARK  3 active torsions:
REMARK  status: ('A' for Active; 'I' for Inactive)
REMARK    1  A    between atoms: C3'_2  and  C2'_3 
REMARK    2  A    between atoms: C2'_3  and  C1'_4 
REMARK    3  A    between atoms: C1'_4  and  C1_5 
ROOT
ATOM      1  C1  N4B d   1       1.660   0.798  -1.963  0.00  0.00    -0.075 A 
ATOM      2  C2  N4B d   1       1.744   1.821  -2.933  0.00  0.00     0.002 A 
ATOM      3  C3  N4B d   1       0.842   2.857  -2.918  0.00  0.00     0.002 A 
ATOM      4  C4  N4B d   1      -0.159   2.880  -1.959  0.00  0.00    -0.004 A 
ATOM      5  C5  N4B d   1      -0.218   1.901  -1.010  0.00  0.00     0.002 A 
ATOM      6  C6  N4B d   1       0.684   0.857  -1.011  0.00  0.00     0.002 A 
ENDROOT
BRANCH   1   7
ATOM      7  C1' N4B d   1       2.570  -0.400  -1.991  0.00  0.00     0.057 C 
BRANCH   7   8
ATOM      8  C2' N4B d   1       1.830  -1.605  -1.417  0.00  0.00     0.009 C 
BRANCH   8   9
ATOM      9  C3' N4B d   1       2.653  -2.328  -0.365  0.00  0.00     0.004 C 
ATOM     10  C4' N4B d   1       1.921  -3.482   0.253  0.00  0.00     0.003 C 
ENDBRANCH   8   9
ENDBRANCH   7   8
ENDBRANCH   1   7
TORSDOF 3
ENDMDL
