MODEL 1
REMARK minimizedAffinity 0.808174968
REMARK minimizedRMSD -1
REMARK  3 active torsions:
REMARK  status: ('A' for Active; 'I' for Inactive)
REMARK    1  A    between atoms: C3'_2  and  C2'_3 
REMARK    2  A    between atoms: C2'_3  and  C1'_4 
REMARK    3  A    between atoms: C1'_4  and  C1_5 
ROOT
ATOM      1  C1  N4B d   1       3.946  -4.669   4.252  0.00  0.00    -0.075 A 
ATOM      2  C2  N4B d   1       3.867  -3.374   4.810  0.00  0.00     0.002 A 
ATOM      3  C3  N4B d   1       4.856  -2.929   5.653  0.00  0.00     0.002 A 
ATOM      4  C4  N4B d   1       5.918  -3.764   5.967  0.00  0.00    -0.004 A 
ATOM      5  C5  N4B d   1       5.999  -5.004   5.404  0.00  0.00     0.002 A 
ATOM      6  C6  N4B d   1       5.015  -5.463   4.551  0.00  0.00     0.002 A 
ENDROOT
BRANCH   1   7
ATOM      7  C1' N4B d   1       2.846  -5.231   3.393  0.00  0.00     0.057 C 
BRANCH   7   8
ATOM      8  C2' N4B d   1       1.966  -4.089   2.895  0.00  0.00     0.009 C 
BRANCH   8   9
ATOM      9  C3' N4B d   1       1.538  -4.289   1.451  0.00  0.00     0.004 C 
ATOM     10  C4' N4B d   1       1.491  -3.006   0.676  0.00  0.00     0.003 C 
ENDBRANCH   8   9
ENDBRANCH   7   8
ENDBRANCH   1   7
TORSDOF 3
ENDMDL
