MODEL 1
REMARK minimizedAffinity 1.86723113
REMARK minimizedRMSD -1
REMARK  3 active torsions:
REMARK  status: ('A' for Active; 'I' for Inactive)
REMARK    1  A    between atoms: C3'_2  and  C2'_3 
REMARK    2  A    between atoms: C2'_3  and  C1'_4 
REMARK    3  A    between atoms: C1'_4  and  C1_5 
ROOT
ATOM      1  C1  N4B d   1       0.316   1.161  -1.421  0.00  0.00    -0.075 A 
ATOM      2  C2  N4B d   1       1.091  -0.011  -1.278  0.00  0.00     0.002 A 
ATOM      3  C3  N4B d   1       2.215  -0.189  -2.046  0.00  0.00     0.002 A 
ATOM      4  C4  N4B d   1       2.573   0.778  -2.973  0.00  0.00    -0.004 A 
ATOM      5  C5  N4B d   1       1.833   1.919  -3.087  0.00  0.00     0.002 A 
ATOM      6  C6  N4B d   1       0.703   2.113  -2.319  0.00  0.00     0.002 A 
ENDROOT
BRANCH   1   7
ATOM      7  C1' N4B d   1      -0.969   1.361  -0.665  0.00  0.00     0.057 C 
BRANCH   7   8
ATOM      8  C2' N4B d   1      -1.632   0.006  -0.437  0.00  0.00     0.009 C 
BRANCH   8   9
ATOM      9  C3' N4B d   1      -3.144   0.121  -0.345  0.00  0.00     0.004 C 
ATOM     10  C4' N4B d   1      -3.691  -0.432   0.937  0.00  0.00     0.003 C 
ENDBRANCH   8   9
ENDBRANCH   7   8
ENDBRANCH   1   7
TORSDOF 3
ENDMDL
