MODEL 1
REMARK minimizedAffinity 5.63890076
REMARK minimizedRMSD -1
REMARK  3 active torsions:
REMARK  status: ('A' for Active; 'I' for Inactive)
REMARK    1  A    between atoms: C3'_2  and  C2'_3 
REMARK    2  A    between atoms: C2'_3  and  C1'_4 
REMARK    3  A    between atoms: C1'_4  and  C1_5 
ROOT
ATOM      1  C1  N4B d   1       1.659  -0.003  -1.958  0.00  0.00    -0.075 A 
ATOM      2  C2  N4B d   1       2.168   0.601  -3.129  0.00  0.00     0.002 A 
ATOM      3  C3  N4B d   1       1.741   1.854  -3.496  0.00  0.00     0.002 A 
ATOM      4  C4  N4B d   1       0.797   2.511  -2.722  0.00  0.00    -0.004 A 
ATOM      5  C5  N4B d   1       0.330   1.932  -1.578  0.00  0.00     0.002 A 
ATOM      6  C6  N4B d   1       0.753   0.675  -1.195  0.00  0.00     0.002 A 
ENDROOT
BRANCH   1   7
ATOM      7  C1' N4B d   1       2.031  -1.406  -1.562  0.00  0.00     0.057 C 
BRANCH   7   8
ATOM      8  C2' N4B d   1       1.041  -1.909  -0.515  0.00  0.00     0.009 C 
BRANCH   8   9
ATOM      9  C3' N4B d   1       1.668  -2.938   0.410  0.00  0.00     0.004 C 
ATOM     10  C4' N4B d   1       0.656  -3.652   1.256  0.00  0.00     0.003 C 
ENDBRANCH   8   9
ENDBRANCH   7   8
ENDBRANCH   1   7
TORSDOF 3
ENDMDL
