MODEL 1
REMARK minimizedAffinity 7.05603981
REMARK minimizedRMSD -1
REMARK  3 active torsions:
REMARK  status: ('A' for Active; 'I' for Inactive)
REMARK    1  A    between atoms: C3'_2  and  C2'_3 
REMARK    2  A    between atoms: C2'_3  and  C1'_4 
REMARK    3  A    between atoms: C1'_4  and  C1_5 
ROOT
ATOM      1  C1  N4B d   1       1.931   1.044  -2.471  0.00  0.00    -0.075 A 
ATOM      2  C2  N4B d   1       2.615   0.664  -1.295  0.00  0.00     0.002 A 
ATOM      3  C3  N4B d   1       2.936  -0.655  -1.084  0.00  0.00     0.002 A 
ATOM      4  C4  N4B d   1       2.569  -1.609  -2.022  0.00  0.00    -0.004 A 
ATOM      5  C5  N4B d   1       1.932  -1.229  -3.167  0.00  0.00     0.002 A 
ATOM      6  C6  N4B d   1       1.606   0.093  -3.394  0.00  0.00     0.002 A 
ENDROOT
BRANCH   1   7
ATOM      7  C1' N4B d   1       1.483   2.461  -2.706  0.00  0.00     0.057 C 
BRANCH   7   8
ATOM      8  C2' N4B d   1       2.691   3.389  -2.622  0.00  0.00     0.009 C 
BRANCH   8   9
ATOM      9  C3' N4B d   1       2.440   4.713  -3.323  0.00  0.00     0.004 C 
ATOM     10  C4' N4B d   1       3.541   5.707  -3.099  0.00  0.00     0.003 C 
ENDBRANCH   8   9
ENDBRANCH   7   8
ENDBRANCH   1   7
TORSDOF 3
ENDMDL
