MODEL 1
REMARK minimizedAffinity -0.0221368968
REMARK minimizedRMSD -1
REMARK  3 active torsions:
REMARK  status: ('A' for Active; 'I' for Inactive)
REMARK    1  A    between atoms: C3'_2  and  C2'_3 
REMARK    2  A    between atoms: C2'_3  and  C1'_4 
REMARK    3  A    between atoms: C1'_4  and  C1_5 
ROOT
ATOM      1  C1  N4B d   1       2.273  -0.847  -1.080  0.00  0.00    -0.075 A 
ATOM      2  C2  N4B d   1       3.176  -0.150  -1.913  0.00  0.00     0.002 A 
ATOM      3  C3  N4B d   1       2.751   0.951  -2.616  0.00  0.00     0.002 A 
ATOM      4  C4  N4B d   1       1.429   1.360  -2.516  0.00  0.00    -0.004 A 
ATOM      5  C5  N4B d   1       0.571   0.696  -1.690  0.00  0.00     0.002 A 
ATOM      6  C6  N4B d   1       0.985  -0.410  -0.975  0.00  0.00     0.002 A 
ENDROOT
BRANCH   1   7
ATOM      7  C1' N4B d   1       2.669  -2.107  -0.359  0.00  0.00     0.057 C 
BRANCH   7   8
ATOM      8  C2' N4B d   1       1.433  -2.721   0.292  0.00  0.00     0.009 C 
BRANCH   8   9
ATOM      9  C3' N4B d   1       1.784  -3.916   1.162  0.00  0.00     0.004 C 
ATOM     10  C4' N4B d   1       0.617  -4.415   1.961  0.00  0.00     0.003 C 
ENDBRANCH   8   9
ENDBRANCH   7   8
ENDBRANCH   1   7
TORSDOF 3
ENDMDL
