MODEL 1
REMARK minimizedAffinity 11.8041544
REMARK minimizedRMSD -1
REMARK  3 active torsions:
REMARK  status: ('A' for Active; 'I' for Inactive)
REMARK    1  A    between atoms: C3'_2  and  C2'_3 
REMARK    2  A    between atoms: C2'_3  and  C1'_4 
REMARK    3  A    between atoms: C1'_4  and  C1_5 
ROOT
ATOM      1  C1  N4B d   1       1.345   1.896  -2.852  0.00  0.00    -0.075 A 
ATOM      2  C2  N4B d   1       2.132   0.792  -3.248  0.00  0.00     0.002 A 
ATOM      3  C3  N4B d   1       2.083  -0.378  -2.530  0.00  0.00     0.002 A 
ATOM      4  C4  N4B d   1       1.274  -0.460  -1.407  0.00  0.00    -0.004 A 
ATOM      5  C5  N4B d   1       0.498   0.603  -1.046  0.00  0.00     0.002 A 
ATOM      6  C6  N4B d   1       0.534   1.783  -1.760  0.00  0.00     0.002 A 
ENDROOT
BRANCH   1   7
ATOM      7  C1' N4B d   1       1.429   3.224  -3.555  0.00  0.00     0.057 C 
BRANCH   7   8
ATOM      8  C2' N4B d   1       1.878   4.290  -2.559  0.00  0.00     0.009 C 
BRANCH   8   9
ATOM      9  C3' N4B d   1       3.256   4.835  -2.893  0.00  0.00     0.004 C 
ATOM     10  C4' N4B d   1       4.193   4.799  -1.723  0.00  0.00     0.003 C 
ENDBRANCH   8   9
ENDBRANCH   7   8
ENDBRANCH   1   7
TORSDOF 3
ENDMDL
