MODEL 1
REMARK minimizedAffinity 3.79199338
REMARK minimizedRMSD -1
REMARK  3 active torsions:
REMARK  status: ('A' for Active; 'I' for Inactive)
REMARK    1  A    between atoms: C3'_2  and  C2'_3 
REMARK    2  A    between atoms: C2'_3  and  C1'_4 
REMARK    3  A    between atoms: C1'_4  and  C1_5 
ROOT
ATOM      1  C1  N4B d   1       0.825   1.623  -0.623  0.00  0.00    -0.075 A 
ATOM      2  C2  N4B d   1      -0.510   1.755  -0.181  0.00  0.00     0.002 A 
ATOM      3  C3  N4B d   1      -0.771   2.215   1.086  0.00  0.00     0.002 A 
ATOM      4  C4  N4B d   1       0.282   2.531   1.932  0.00  0.00    -0.004 A 
ATOM      5  C5  N4B d   1       1.568   2.424   1.488  0.00  0.00     0.002 A 
ATOM      6  C6  N4B d   1       1.845   1.967   0.216  0.00  0.00     0.002 A 
ENDROOT
BRANCH   1   7
ATOM      7  C1' N4B d   1       1.161   1.042  -1.969  0.00  0.00     0.057 C 
BRANCH   7   8
ATOM      8  C2' N4B d   1       2.457   0.244  -1.861  0.00  0.00     0.009 C 
BRANCH   8   9
ATOM      9  C3' N4B d   1       2.200  -1.213  -1.516  0.00  0.00     0.004 C 
ATOM     10  C4' N4B d   1       1.035  -1.790  -2.265  0.00  0.00     0.003 C 
ENDBRANCH   8   9
ENDBRANCH   7   8
ENDBRANCH   1   7
TORSDOF 3
ENDMDL
