MODEL 1
REMARK minimizedAffinity 2.35564375
REMARK minimizedRMSD -1
REMARK  0 active torsions:
REMARK  status: ('A' for Active; 'I' for Inactive)
ROOT
ATOM      1  C4' PXY d   1      -1.651   0.154  -2.624  0.00  0.00     0.077 C 
ATOM      2  C1' PXY d   1       1.189  -0.846   2.310  0.00  0.00     0.077 C 
ATOM      3  C1  PXY d   1       0.437  -0.575   1.022  0.00  0.00    -0.082 A 
ATOM      4  C2  PXY d   1       0.405  -1.499   0.076  0.00  0.00     0.003 A 
ATOM      5  C3  PXY d   1      -0.243  -1.258  -1.108  0.00  0.00     0.003 A 
ATOM      6  C4  PXY d   1      -0.912  -0.080  -1.304  0.00  0.00    -0.082 A 
ATOM      7  C5  PXY d   1      -0.894   0.864  -0.339  0.00  0.00     0.003 A 
ATOM      8  C6  PXY d   1      -0.195   0.616   0.839  0.00  0.00     0.003 A 
ENDROOT
TORSDOF 0
ENDMDL
