MODEL 1
REMARK minimizedAffinity 5.83538008
REMARK minimizedRMSD -1
REMARK  0 active torsions:
REMARK  status: ('A' for Active; 'I' for Inactive)
ROOT
ATOM      1  C4' PXY d   1       1.029   4.433   1.099  0.00  0.00     0.077 C 
ATOM      2  C1' PXY d   1       0.041  -0.986   2.852  0.00  0.00     0.077 C 
ATOM      3  C1  PXY d   1       0.297   0.439   2.404  0.00  0.00    -0.082 A 
ATOM      4  C2  PXY d   1       0.137   0.764   1.132  0.00  0.00     0.003 A 
ATOM      5  C3  PXY d   1       0.395   2.041   0.704  0.00  0.00     0.003 A 
ATOM      6  C4  PXY d   1       0.772   3.008   1.598  0.00  0.00    -0.082 A 
ATOM      7  C5  PXY d   1       0.927   2.687   2.899  0.00  0.00     0.003 A 
ATOM      8  C6  PXY d   1       0.700   1.375   3.306  0.00  0.00     0.003 A 
ENDROOT
TORSDOF 0
ENDMDL
