MODEL 1
REMARK minimizedAffinity 3.4942019
REMARK minimizedRMSD -1
REMARK  0 active torsions:
REMARK  status: ('A' for Active; 'I' for Inactive)
ROOT
ATOM      1  C4' PXY d   1       2.508  -1.360   3.846  0.00  0.00     0.077 C 
ATOM      2  C1' PXY d   1      -0.022   1.564  -0.450  0.00  0.00     0.077 C 
ATOM      3  C1  PXY d   1       0.645   0.809   0.682  0.00  0.00    -0.082 A 
ATOM      4  C2  PXY d   1       1.047  -0.437   0.489  0.00  0.00     0.003 A 
ATOM      5  C3  PXY d   1       1.623  -1.146   1.512  0.00  0.00     0.003 A 
ATOM      6  C4  PXY d   1       1.839  -0.556   2.728  0.00  0.00    -0.082 A 
ATOM      7  C5  PXY d   1       1.441   0.719   2.929  0.00  0.00     0.003 A 
ATOM      8  C6  PXY d   1       0.821   1.407   1.891  0.00  0.00     0.003 A 
ENDROOT
TORSDOF 0
ENDMDL
