MODEL 1
REMARK minimizedAffinity -0.64949733
REMARK minimizedRMSD -1
REMARK  0 active torsions:
REMARK  status: ('A' for Active; 'I' for Inactive)
ROOT
ATOM      1  C4' PXY d   1      -1.330   1.475  -0.001  0.00  0.00     0.077 C 
ATOM      2  C1' PXY d   1      -5.999   3.715  -2.568  0.00  0.00     0.077 C 
ATOM      3  C1  PXY d   1      -4.782   3.123  -1.886  0.00  0.00    -0.082 A 
ATOM      4  C2  PXY d   1      -3.592   3.665  -2.084  0.00  0.00     0.003 A 
ATOM      5  C3  PXY d   1      -2.476   3.123  -1.500  0.00  0.00     0.003 A 
ATOM      6  C4  PXY d   1      -2.587   2.046  -0.662  0.00  0.00    -0.082 A 
ATOM      7  C5  PXY d   1      -3.800   1.493  -0.446  0.00  0.00     0.003 A 
ATOM      8  C6  PXY d   1      -4.914   2.033  -1.081  0.00  0.00     0.003 A 
ENDROOT
TORSDOF 0
ENDMDL
