MODEL 1
REMARK minimizedAffinity -1.02874672
REMARK minimizedRMSD -1
REMARK  0 active torsions:
REMARK  status: ('A' for Active; 'I' for Inactive)
ROOT
ATOM      1  C4' PXY d   1       0.887   4.491  -0.024  0.00  0.00     0.077 C 
ATOM      2  C1' PXY d   1       0.495  -0.774   2.328  0.00  0.00     0.077 C 
ATOM      3  C1  PXY d   1       0.601   0.601   1.700  0.00  0.00    -0.082 A 
ATOM      4  C2  PXY d   1       0.843   1.653   2.465  0.00  0.00     0.003 A 
ATOM      5  C3  PXY d   1       0.911   2.908   1.918  0.00  0.00     0.003 A 
ATOM      6  C4  PXY d   1       0.782   3.082   0.566  0.00  0.00    -0.082 A 
ATOM      7  C5  PXY d   1       0.545   2.013  -0.223  0.00  0.00     0.003 A 
ATOM      8  C6  PXY d   1       0.439   0.752   0.357  0.00  0.00     0.003 A 
ENDROOT
TORSDOF 0
ENDMDL
