MODEL 1
REMARK minimizedAffinity -0.592807233
REMARK minimizedRMSD -1
REMARK  0 active torsions:
REMARK  status: ('A' for Active; 'I' for Inactive)
ROOT
ATOM      1  C4' PXY d   1       0.737   5.098   0.402  0.00  0.00     0.077 C 
ATOM      2  C1' PXY d   1       1.210  -0.518   1.690  0.00  0.00     0.077 C 
ATOM      3  C1  PXY d   1       1.085   0.958   1.365  0.00  0.00    -0.082 A 
ATOM      4  C2  PXY d   1       0.614   1.330   0.186  0.00  0.00     0.003 A 
ATOM      5  C3  PXY d   1       0.525   2.660  -0.136  0.00  0.00     0.003 A 
ATOM      6  C4  PXY d   1       0.872   3.619   0.777  0.00  0.00    -0.082 A 
ATOM      7  C5  PXY d   1       1.343   3.247   1.986  0.00  0.00     0.003 A 
ATOM      8  C6  PXY d   1       1.465   1.892   2.278  0.00  0.00     0.003 A 
ENDROOT
TORSDOF 0
ENDMDL
