MODEL 1
REMARK minimizedAffinity -5.11562347
REMARK minimizedRMSD -1
REMARK  0 active torsions:
REMARK  status: ('A' for Active; 'I' for Inactive)
ROOT
ATOM      1  C4' PXY d   1       1.261  -0.595   1.855  0.00  0.00     0.077 C 
ATOM      2  C1' PXY d   1      -0.187   4.933   0.986  0.00  0.00     0.077 C 
ATOM      3  C1  PXY d   1       0.185   3.480   1.204  0.00  0.00    -0.082 A 
ATOM      4  C2  PXY d   1       0.582   3.079   2.400  0.00  0.00     0.003 A 
ATOM      5  C3  PXY d   1       0.953   1.775   2.607  0.00  0.00     0.003 A 
ATOM      6  C4  PXY d   1       0.866   0.861   1.592  0.00  0.00    -0.082 A 
ATOM      7  C5  PXY d   1       0.452   1.260   0.370  0.00  0.00     0.003 A 
ATOM      8  C6  PXY d   1       0.119   2.597   0.171  0.00  0.00     0.003 A 
ENDROOT
TORSDOF 0
ENDMDL
