MODEL 1
REMARK minimizedAffinity -0.784725547
REMARK minimizedRMSD -1
REMARK  0 active torsions:
REMARK  status: ('A' for Active; 'I' for Inactive)
ROOT
ATOM      1  C4' PXY d   1       0.441   4.980  -0.431  0.00  0.00     0.077 C 
ATOM      2  C1' PXY d   1       3.266   3.546   4.404  0.00  0.00     0.077 C 
ATOM      3  C1  PXY d   1       2.523   3.909   3.133  0.00  0.00    -0.082 A 
ATOM      4  C2  PXY d   1       2.799   5.047   2.517  0.00  0.00     0.003 A 
ATOM      5  C3  PXY d   1       2.113   5.406   1.385  0.00  0.00     0.003 A 
ATOM      6  C4  PXY d   1       1.173   4.567   0.849  0.00  0.00    -0.082 A 
ATOM      7  C5  PXY d   1       0.894   3.400   1.466  0.00  0.00     0.003 A 
ATOM      8  C6  PXY d   1       1.571   3.073   2.637  0.00  0.00     0.003 A 
ENDROOT
TORSDOF 0
ENDMDL
