MODEL 1
REMARK minimizedAffinity 1.17196977
REMARK minimizedRMSD -1
REMARK  0 active torsions:
REMARK  status: ('A' for Active; 'I' for Inactive)
ROOT
ATOM      1  C4' PXY d   1      -0.874   0.756  -0.966  0.00  0.00     0.077 C 
ATOM      2  C1' PXY d   1       3.784  -0.814   2.076  0.00  0.00     0.077 C 
ATOM      3  C1  PXY d   1       2.556  -0.400   1.289  0.00  0.00    -0.082 A 
ATOM      4  C2  PXY d   1       2.390  -0.843   0.053  0.00  0.00     0.003 A 
ATOM      5  C3  PXY d   1       1.302  -0.453  -0.683  0.00  0.00     0.003 A 
ATOM      6  C4  PXY d   1       0.346   0.357  -0.131  0.00  0.00    -0.082 A 
ATOM      7  C5  PXY d   1       0.502   0.804   1.133  0.00  0.00     0.003 A 
ATOM      8  C6  PXY d   1       1.634   0.430   1.849  0.00  0.00     0.003 A 
ENDROOT
TORSDOF 0
ENDMDL
