MODEL 1
REMARK minimizedAffinity -0.890986562
REMARK minimizedRMSD -1
REMARK  0 active torsions:
REMARK  status: ('A' for Active; 'I' for Inactive)
ROOT
ATOM      1  C4' PXY d   1       4.100  -1.575   3.721  0.00  0.00     0.077 C 
ATOM      2  C1' PXY d   1      -0.010   0.617   0.298  0.00  0.00     0.077 C 
ATOM      3  C1  PXY d   1       1.062   0.048   1.206  0.00  0.00    -0.082 A 
ATOM      4  C2  PXY d   1       2.250  -0.252   0.707  0.00  0.00     0.003 A 
ATOM      5  C3  PXY d   1       3.221  -0.797   1.507  0.00  0.00     0.003 A 
ATOM      6  C4  PXY d   1       2.990  -0.989   2.843  0.00  0.00    -0.082 A 
ATOM      7  C5  PXY d   1       1.784  -0.676   3.362  0.00  0.00     0.003 A 
ATOM      8  C6  PXY d   1       0.799  -0.162   2.525  0.00  0.00     0.003 A 
ENDROOT
TORSDOF 0
ENDMDL
