MODEL 1
REMARK minimizedAffinity 0.0756401122
REMARK minimizedRMSD -1
REMARK  0 active torsions:
REMARK  status: ('A' for Active; 'I' for Inactive)
ROOT
ATOM      1  C4' PXY d   1       0.734   1.870   2.909  0.00  0.00     0.077 C 
ATOM      2  C1' PXY d   1      -0.170  -0.777  -2.149  0.00  0.00     0.077 C 
ATOM      3  C1  PXY d   1       0.071  -0.094  -0.817  0.00  0.00    -0.082 A 
ATOM      4  C2  PXY d   1      -0.550   1.042  -0.544  0.00  0.00     0.003 A 
ATOM      5  C3  PXY d   1      -0.319   1.689   0.643  0.00  0.00     0.003 A 
ATOM      6  C4  PXY d   1       0.514   1.141   1.581  0.00  0.00    -0.082 A 
ATOM      7  C5  PXY d   1       1.142  -0.024   1.313  0.00  0.00     0.003 A 
ATOM      8  C6  PXY d   1       0.927  -0.644   0.086  0.00  0.00     0.003 A 
ENDROOT
TORSDOF 0
ENDMDL
