MODEL 1
REMARK minimizedAffinity -3.70837212
REMARK minimizedRMSD -1
REMARK  0 active torsions:
REMARK  status: ('A' for Active; 'I' for Inactive)
ROOT
ATOM      1  C4' PXY d   1       1.198   4.734  -0.467  0.00  0.00     0.077 C 
ATOM      2  C1' PXY d   1       0.407   0.133   2.942  0.00  0.00     0.077 C 
ATOM      3  C1  PXY d   1       0.610   1.333   2.038  0.00  0.00    -0.082 A 
ATOM      4  C2  PXY d   1       1.499   2.256   2.366  0.00  0.00     0.003 A 
ATOM      5  C3  PXY d   1       1.672   3.364   1.576  0.00  0.00     0.003 A 
ATOM      6  C4  PXY d   1       0.966   3.501   0.411  0.00  0.00    -0.082 A 
ATOM      7  C5  PXY d   1       0.065   2.558   0.064  0.00  0.00     0.003 A 
ATOM      8  C6  PXY d   1      -0.125   1.462   0.901  0.00  0.00     0.003 A 
ENDROOT
TORSDOF 0
ENDMDL
