MODEL 1
REMARK minimizedAffinity 1.60547888
REMARK minimizedRMSD -1
REMARK  0 active torsions:
REMARK  status: ('A' for Active; 'I' for Inactive)
ROOT
ATOM      1  C4' PXY d   1       0.628   4.430  -0.377  0.00  0.00     0.077 C 
ATOM      2  C1' PXY d   1       0.701  -0.805   2.072  0.00  0.00     0.077 C 
ATOM      3  C1  PXY d   1       0.687   0.563   1.419  0.00  0.00    -0.082 A 
ATOM      4  C2  PXY d   1       0.738   1.649   2.173  0.00  0.00     0.003 A 
ATOM      5  C3  PXY d   1       0.694   2.894   1.601  0.00  0.00     0.003 A 
ATOM      6  C4  PXY d   1       0.650   3.029   0.239  0.00  0.00    -0.082 A 
ATOM      7  C5  PXY d   1       0.608   1.926  -0.538  0.00  0.00     0.003 A 
ATOM      8  C6  PXY d   1       0.613   0.671   0.065  0.00  0.00     0.003 A 
ENDROOT
TORSDOF 0
ENDMDL
