MODEL 1
REMARK minimizedAffinity -3.97079897
REMARK minimizedRMSD -1
REMARK  0 active torsions:
REMARK  status: ('A' for Active; 'I' for Inactive)
ROOT
ATOM      1  C   UNL d   1       1.641   3.686  -1.947  0.00  0.00     0.020 A 
ATOM      2  C1  UNL d   1       2.117   4.142  -0.719  0.00  0.00     0.020 A 
ATOM      3  C2  UNL d   1       2.063   3.313   0.403  0.00  0.00     0.034 A 
ATOM      4  C3  UNL d   1       1.531   2.022   0.299  0.00  0.00     0.017 A 
ATOM      5  C4  UNL d   1       1.053   1.565  -0.934  0.00  0.00     0.017 A 
ATOM      6  C5  UNL d   1       1.110   2.400  -2.054  0.00  0.00     0.034 A 
ATOM      7 Cl   UNL d   1       0.383  -0.015  -1.140  0.00  0.00    -0.070 Cl
ATOM      8 Cl1  UNL d   1       1.495   1.051   1.728  0.00  0.00    -0.070 Cl
ENDROOT
TORSDOF 0
ENDMDL
