MODEL 1
REMARK minimizedAffinity -3.1907444
REMARK minimizedRMSD -1
REMARK  0 active torsions:
REMARK  status: ('A' for Active; 'I' for Inactive)
ROOT
ATOM      1  C   UNL d   1       0.994   1.920  -1.066  0.00  0.00     0.020 A 
ATOM      2  C1  UNL d   1       1.024   1.263   0.164  0.00  0.00     0.020 A 
ATOM      3  C2  UNL d   1       1.192  -0.123   0.210  0.00  0.00     0.034 A 
ATOM      4  C3  UNL d   1       1.331  -0.855  -0.974  0.00  0.00     0.017 A 
ATOM      5  C4  UNL d   1       1.301  -0.194  -2.207  0.00  0.00     0.017 A 
ATOM      6  C5  UNL d   1       1.133   1.193  -2.248  0.00  0.00     0.034 A 
ATOM      7 Cl   UNL d   1       1.466  -1.030  -3.711  0.00  0.00    -0.070 Cl
ATOM      8 Cl1  UNL d   1       1.536  -2.566  -0.841  0.00  0.00    -0.070 Cl
ENDROOT
TORSDOF 0
ENDMDL
