MODEL 1
REMARK minimizedAffinity -3.59282064
REMARK minimizedRMSD -1
REMARK  0 active torsions:
REMARK  status: ('A' for Active; 'I' for Inactive)
ROOT
ATOM      1  C   UNL d   1       1.307   0.432   0.211  0.00  0.00     0.020 A 
ATOM      2  C1  UNL d   1       1.476   1.334   1.261  0.00  0.00     0.020 A 
ATOM      3  C2  UNL d   1       1.493   2.707   1.007  0.00  0.00     0.034 A 
ATOM      4  C3  UNL d   1       1.341   3.182  -0.301  0.00  0.00     0.017 A 
ATOM      5  C4  UNL d   1       1.172   2.276  -1.354  0.00  0.00     0.017 A 
ATOM      6  C5  UNL d   1       1.156   0.903  -1.094  0.00  0.00     0.034 A 
ATOM      7 Cl   UNL d   1       0.978   2.787  -2.994  0.00  0.00    -0.070 Cl
ATOM      8 Cl1  UNL d   1       1.372   4.893  -0.543  0.00  0.00    -0.070 Cl
ENDROOT
TORSDOF 0
ENDMDL
