MODEL 1
REMARK minimizedAffinity 5.41006041
REMARK minimizedRMSD -1
REMARK  0 active torsions:
REMARK  status: ('A' for Active; 'I' for Inactive)
ROOT
ATOM      1  C   UNL d   1       1.049  -0.463  -0.982  0.00  0.00     0.020 A 
ATOM      2  C1  UNL d   1       1.031  -0.488   0.412  0.00  0.00     0.020 A 
ATOM      3  C2  UNL d   1       1.122   0.705   1.133  0.00  0.00     0.034 A 
ATOM      4  C3  UNL d   1       1.233   1.927   0.460  0.00  0.00     0.017 A 
ATOM      5  C4  UNL d   1       1.251   1.951  -0.939  0.00  0.00     0.017 A 
ATOM      6  C5  UNL d   1       1.159   0.754  -1.656  0.00  0.00     0.034 A 
ATOM      7 Cl   UNL d   1       1.385   3.421  -1.839  0.00  0.00    -0.070 Cl
ATOM      8 Cl1  UNL d   1       1.342   3.363   1.415  0.00  0.00    -0.070 Cl
ENDROOT
TORSDOF 0
ENDMDL
