MODEL 1
REMARK minimizedAffinity -0.915282071
REMARK minimizedRMSD -1
REMARK  0 active torsions:
REMARK  status: ('A' for Active; 'I' for Inactive)
ROOT
ATOM      1  C   UNL d   1       0.767   1.643  -2.208  0.00  0.00     0.020 A 
ATOM      2  C1  UNL d   1       0.457   0.921  -1.056  0.00  0.00     0.020 A 
ATOM      3  C2  UNL d   1       0.544   1.533   0.196  0.00  0.00     0.034 A 
ATOM      4  C3  UNL d   1       0.943   2.870   0.300  0.00  0.00     0.017 A 
ATOM      5  C4  UNL d   1       1.254   3.595  -0.857  0.00  0.00     0.017 A 
ATOM      6  C5  UNL d   1       1.164   2.977  -2.109  0.00  0.00     0.034 A 
ATOM      7 Cl   UNL d   1       1.752   5.249  -0.809  0.00  0.00    -0.070 Cl
ATOM      8 Cl1  UNL d   1       1.029   3.563   1.880  0.00  0.00    -0.070 Cl
ENDROOT
TORSDOF 0
ENDMDL
