MODEL 1
REMARK minimizedAffinity 3.42328763
REMARK minimizedRMSD -1
REMARK  0 active torsions:
REMARK  status: ('A' for Active; 'I' for Inactive)
ROOT
ATOM      1  C   UNL d   1       0.912   0.108  -0.003  0.00  0.00     0.020 A 
ATOM      2  C1  UNL d   1       1.022   0.309  -1.379  0.00  0.00     0.020 A 
ATOM      3  C2  UNL d   1       1.227   1.595  -1.883  0.00  0.00     0.034 A 
ATOM      4  C3  UNL d   1       1.323   2.686  -1.011  0.00  0.00     0.017 A 
ATOM      5  C4  UNL d   1       1.213   2.483   0.370  0.00  0.00     0.017 A 
ATOM      6  C5  UNL d   1       1.008   1.193   0.869  0.00  0.00     0.034 A 
ATOM      7 Cl   UNL d   1       1.322   3.779   1.508  0.00  0.00    -0.070 Cl
ATOM      8 Cl1  UNL d   1       1.578   4.248  -1.703  0.00  0.00    -0.070 Cl
ENDROOT
TORSDOF 0
ENDMDL
