MODEL 1
REMARK minimizedAffinity -0.692178071
REMARK minimizedRMSD -1
REMARK  0 active torsions:
REMARK  status: ('A' for Active; 'I' for Inactive)
ROOT
ATOM      1  C   UNL d   1       1.600  -0.048  -0.149  0.00  0.00     0.020 A 
ATOM      2  C1  UNL d   1       1.749   0.343  -1.479  0.00  0.00     0.020 A 
ATOM      3  C2  UNL d   1       1.572   1.680  -1.838  0.00  0.00     0.034 A 
ATOM      4  C3  UNL d   1       1.244   2.633  -0.866  0.00  0.00     0.017 A 
ATOM      5  C4  UNL d   1       1.094   2.240   0.469  0.00  0.00     0.017 A 
ATOM      6  C5  UNL d   1       1.274   0.899   0.823  0.00  0.00     0.034 A 
ATOM      7 Cl   UNL d   1       0.691   3.357   1.724  0.00  0.00    -0.070 Cl
ATOM      8 Cl1  UNL d   1       1.039   4.269  -1.382  0.00  0.00    -0.070 Cl
ENDROOT
TORSDOF 0
ENDMDL
