MODEL 1
REMARK minimizedAffinity -0.602295518
REMARK minimizedRMSD -1
REMARK  0 active torsions:
REMARK  status: ('A' for Active; 'I' for Inactive)
ROOT
ATOM      1  C   UNL d   1       0.780   1.003  -0.612  0.00  0.00     0.020 A 
ATOM      2  C1  UNL d   1       1.064   1.530  -1.871  0.00  0.00     0.020 A 
ATOM      3  C2  UNL d   1       1.388   2.881  -2.006  0.00  0.00     0.034 A 
ATOM      4  C3  UNL d   1       1.429   3.711  -0.879  0.00  0.00     0.017 A 
ATOM      5  C4  UNL d   1       1.143   3.182   0.384  0.00  0.00     0.017 A 
ATOM      6  C5  UNL d   1       0.819   1.827   0.513  0.00  0.00     0.034 A 
ATOM      7 Cl   UNL d   1       1.173   4.143   1.820  0.00  0.00    -0.070 Cl
ATOM      8 Cl1  UNL d   1       1.837   5.373  -1.120  0.00  0.00    -0.070 Cl
ENDROOT
TORSDOF 0
ENDMDL
