MODEL 1
REMARK minimizedAffinity 0.504171073
REMARK minimizedRMSD -1
REMARK  0 active torsions:
REMARK  status: ('A' for Active; 'I' for Inactive)
ROOT
ATOM      1  C   UNL d   1       1.165   3.550   0.459  0.00  0.00     0.020 A 
ATOM      2  C1  UNL d   1       0.931   2.604   1.456  0.00  0.00     0.020 A 
ATOM      3  C2  UNL d   1       0.951   1.243   1.146  0.00  0.00     0.034 A 
ATOM      4  C3  UNL d   1       1.206   0.823  -0.164  0.00  0.00     0.017 A 
ATOM      5  C4  UNL d   1       1.441   1.773  -1.165  0.00  0.00     0.017 A 
ATOM      6  C5  UNL d   1       1.420   3.135  -0.849  0.00  0.00     0.034 A 
ATOM      7 Cl   UNL d   1       1.763   1.331  -2.804  0.00  0.00    -0.070 Cl
ATOM      8 Cl1  UNL d   1       1.216  -0.877  -0.475  0.00  0.00    -0.070 Cl
ENDROOT
TORSDOF 0
ENDMDL
