MODEL 1
REMARK minimizedAffinity 4.95039988
REMARK minimizedRMSD -1
REMARK  0 active torsions:
REMARK  status: ('A' for Active; 'I' for Inactive)
ROOT
ATOM      1  C   UNL d   1       0.319  -2.611  -1.772  0.00  0.00     0.020 A 
ATOM      2  C1  UNL d   1       1.030  -3.120  -0.686  0.00  0.00     0.020 A 
ATOM      3  C2  UNL d   1       1.845  -2.277   0.072  0.00  0.00     0.034 A 
ATOM      4  C3  UNL d   1       1.951  -0.920  -0.254  0.00  0.00     0.017 A 
ATOM      5  C4  UNL d   1       1.237  -0.410  -1.344  0.00  0.00     0.017 A 
ATOM      6  C5  UNL d   1       0.422  -1.258  -2.100  0.00  0.00     0.034 A 
ATOM      7 Cl   UNL d   1       1.316   1.253  -1.807  0.00  0.00    -0.070 Cl
ATOM      8 Cl1  UNL d   1       2.977   0.064   0.727  0.00  0.00    -0.070 Cl
ENDROOT
TORSDOF 0
ENDMDL
