MODEL 1
REMARK minimizedAffinity -2.27139497
REMARK minimizedRMSD -1
REMARK  0 active torsions:
REMARK  status: ('A' for Active; 'I' for Inactive)
ROOT
ATOM      1  C   UNL d   1       1.251   0.801   0.787  0.00  0.00     0.020 A 
ATOM      2  C1  UNL d   1       1.109  -0.234  -0.137  0.00  0.00     0.020 A 
ATOM      3  C2  UNL d   1       1.148   0.043  -1.506  0.00  0.00     0.034 A 
ATOM      4  C3  UNL d   1       1.329   1.357  -1.953  0.00  0.00     0.017 A 
ATOM      5  C4  UNL d   1       1.471   2.394  -1.025  0.00  0.00     0.017 A 
ATOM      6  C5  UNL d   1       1.431   2.111   0.344  0.00  0.00     0.034 A 
ATOM      7 Cl   UNL d   1       1.697   4.040  -1.501  0.00  0.00    -0.070 Cl
ATOM      8 Cl1  UNL d   1       1.368   1.626  -3.660  0.00  0.00    -0.070 Cl
ENDROOT
TORSDOF 0
ENDMDL
