MODEL 1
REMARK minimizedAffinity 0.16970709
REMARK minimizedRMSD -1
REMARK  0 active torsions:
REMARK  status: ('A' for Active; 'I' for Inactive)
ROOT
ATOM      1  C   UNL d   1       0.910   0.196  -0.187  0.00  0.00     0.020 A 
ATOM      2  C1  UNL d   1       1.426   1.105   0.735  0.00  0.00     0.020 A 
ATOM      3  C2  UNL d   1       1.676   2.424   0.351  0.00  0.00     0.034 A 
ATOM      4  C3  UNL d   1       1.410   2.838  -0.960  0.00  0.00     0.017 A 
ATOM      5  C4  UNL d   1       0.893   1.924  -1.885  0.00  0.00     0.017 A 
ATOM      6  C5  UNL d   1       0.644   0.605  -1.495  0.00  0.00     0.034 A 
ATOM      7 Cl   UNL d   1       0.540   2.360  -3.520  0.00  0.00    -0.070 Cl
ATOM      8 Cl1  UNL d   1       1.743   4.484  -1.366  0.00  0.00    -0.070 Cl
ENDROOT
TORSDOF 0
ENDMDL
