MODEL 1
REMARK minimizedAffinity 1.50053966
REMARK minimizedRMSD -1
REMARK  0 active torsions:
REMARK  status: ('A' for Active; 'I' for Inactive)
ROOT
ATOM      1  C   UNL d   1       1.413   2.133  -1.969  0.00  0.00     0.020 A 
ATOM      2  C1  UNL d   1       1.332   1.517  -0.721  0.00  0.00     0.020 A 
ATOM      3  C2  UNL d   1       1.490   2.273   0.443  0.00  0.00     0.034 A 
ATOM      4  C3  UNL d   1       1.730   3.649   0.360  0.00  0.00     0.017 A 
ATOM      5  C4  UNL d   1       1.811   4.267  -0.893  0.00  0.00     0.017 A 
ATOM      6  C5  UNL d   1       1.652   3.505  -2.055  0.00  0.00     0.034 A 
ATOM      7 Cl   UNL d   1       2.105   5.960  -1.075  0.00  0.00    -0.070 Cl
ATOM      8 Cl1  UNL d   1       1.916   4.522   1.840  0.00  0.00    -0.070 Cl
ENDROOT
TORSDOF 0
ENDMDL
