MODEL 1
REMARK minimizedAffinity -0.307787925
REMARK minimizedRMSD -1
REMARK  0 active torsions:
REMARK  status: ('A' for Active; 'I' for Inactive)
ROOT
ATOM      1  C   UNL d   1       0.988   0.021  -0.006  0.00  0.00     0.020 A 
ATOM      2  C1  UNL d   1       1.155   0.257  -1.370  0.00  0.00     0.020 A 
ATOM      3  C2  UNL d   1       1.627   1.495  -1.812  0.00  0.00     0.034 A 
ATOM      4  C3  UNL d   1       1.933   2.502  -0.889  0.00  0.00     0.017 A 
ATOM      5  C4  UNL d   1       1.765   2.264   0.480  0.00  0.00     0.017 A 
ATOM      6  C5  UNL d   1       1.292   1.023   0.917  0.00  0.00     0.034 A 
ATOM      7 Cl   UNL d   1       2.121   3.457   1.679  0.00  0.00    -0.070 Cl
ATOM      8 Cl1  UNL d   1       2.512   4.009  -1.506  0.00  0.00    -0.070 Cl
ENDROOT
TORSDOF 0
ENDMDL
