MODEL 1
REMARK minimizedAffinity -1.73490667
REMARK minimizedRMSD -1
REMARK  0 active torsions:
REMARK  status: ('A' for Active; 'I' for Inactive)
ROOT
ATOM      1  C   UNL d   1       0.899   1.152  -0.992  0.00  0.00     0.020 A 
ATOM      2  C1  UNL d   1       1.178   1.761  -2.214  0.00  0.00     0.020 A 
ATOM      3  C2  UNL d   1       1.514   3.116  -2.258  0.00  0.00     0.034 A 
ATOM      4  C3  UNL d   1       1.572   3.866  -1.078  0.00  0.00     0.017 A 
ATOM      5  C4  UNL d   1       1.291   3.253   0.149  0.00  0.00     0.017 A 
ATOM      6  C5  UNL d   1       0.955   1.896   0.187  0.00  0.00     0.034 A 
ATOM      7 Cl   UNL d   1       1.341   4.113   1.647  0.00  0.00    -0.070 Cl
ATOM      8 Cl1  UNL d   1       1.994   5.536  -1.207  0.00  0.00    -0.070 Cl
ENDROOT
TORSDOF 0
ENDMDL
