MODEL 1
REMARK minimizedAffinity -4.71862173
REMARK minimizedRMSD -1
REMARK  0 active torsions:
REMARK  status: ('A' for Active; 'I' for Inactive)
ROOT
ATOM      1  C   UNL d   1       1.439   3.407  -1.428  0.00  0.00     0.020 A 
ATOM      2  C1  UNL d   1       1.138   3.955  -0.182  0.00  0.00     0.020 A 
ATOM      3  C2  UNL d   1       0.902   3.118   0.910  0.00  0.00     0.034 A 
ATOM      4  C3  UNL d   1       0.965   1.728   0.759  0.00  0.00     0.017 A 
ATOM      5  C4  UNL d   1       1.268   1.179  -0.493  0.00  0.00     0.017 A 
ATOM      6  C5  UNL d   1       1.504   2.022  -1.583  0.00  0.00     0.034 A 
ATOM      7 Cl   UNL d   1       1.365  -0.527  -0.757  0.00  0.00    -0.070 Cl
ATOM      8 Cl1  UNL d   1       0.662   0.753   2.153  0.00  0.00    -0.070 Cl
ENDROOT
TORSDOF 0
ENDMDL
