MODEL 1
REMARK minimizedAffinity 8.75576496
REMARK minimizedRMSD -1
REMARK  0 active torsions:
REMARK  status: ('A' for Active; 'I' for Inactive)
ROOT
ATOM      1  C   UNL d   1      -0.363   1.520  -0.653  0.00  0.00    -0.002 A 
ATOM      2  C1  UNL d   1       0.084   2.108   0.521  0.00  0.00     0.010 A 
ATOM      3  C2  UNL d   1       0.025   3.493   0.690  0.00  0.00     0.041 A 
ATOM      4  C3  UNL d   1      -0.499   4.284  -0.351  0.00  0.00    -0.075 A 
ATOM      5  S   UNL d   1      -0.671   6.000  -0.367  0.00  0.00     0.015 SA
ATOM      6  C4  UNL d   1      -1.344   5.993  -1.933  0.00  0.00     0.022 A 
ATOM      7  C5  UNL d   1      -1.442   4.721  -2.446  0.00  0.00     0.026 A 
ATOM      8  C6  UNL d   1      -0.957   3.715  -1.543  0.00  0.00    -0.082 A 
ATOM      9  C7  UNL d   1      -0.883   2.309  -1.684  0.00  0.00     0.045 A 
ENDROOT
TORSDOF 0
ENDMDL
