MODEL 1
REMARK minimizedAffinity 5.99757624
REMARK minimizedRMSD -1
REMARK  0 active torsions:
REMARK  status: ('A' for Active; 'I' for Inactive)
ROOT
ATOM      1  C   UNL d   1       2.310  -5.623  -1.594  0.00  0.00    -0.002 A 
ATOM      2  C1  UNL d   1       3.553  -5.875  -2.158  0.00  0.00     0.010 A 
ATOM      3  C2  UNL d   1       4.590  -4.948  -2.033  0.00  0.00     0.041 A 
ATOM      4  C3  UNL d   1       4.355  -3.754  -1.323  0.00  0.00    -0.075 A 
ATOM      5  S   UNL d   1       5.477  -2.475  -1.041  0.00  0.00     0.015 SA
ATOM      6  C4  UNL d   1       4.333  -1.565  -0.165  0.00  0.00     0.022 A 
ATOM      7  C5  UNL d   1       3.119  -2.206  -0.080  0.00  0.00     0.026 A 
ATOM      8  C6  UNL d   1       3.113  -3.478  -0.746  0.00  0.00    -0.082 A 
ATOM      9  C7  UNL d   1       2.081  -4.437  -0.891  0.00  0.00     0.045 A 
ENDROOT
TORSDOF 0
ENDMDL
