MODEL 1
REMARK minimizedAffinity 8.18949127
REMARK minimizedRMSD -1
REMARK  0 active torsions:
REMARK  status: ('A' for Active; 'I' for Inactive)
ROOT
ATOM      1  C   UNL d   1       4.191  -2.401  -0.748  0.00  0.00    -0.002 A 
ATOM      2  C1  UNL d   1       4.704  -2.858  -1.954  0.00  0.00     0.010 A 
ATOM      3  C2  UNL d   1       4.141  -3.966  -2.590  0.00  0.00     0.041 A 
ATOM      4  C3  UNL d   1       3.043  -4.612  -1.990  0.00  0.00    -0.075 A 
ATOM      5  S   UNL d   1       2.192  -5.987  -2.589  0.00  0.00     0.015 SA
ATOM      6  C4  UNL d   1       1.126  -5.999  -1.258  0.00  0.00     0.022 A 
ATOM      7  C5  UNL d   1       1.399  -4.986  -0.370  0.00  0.00     0.026 A 
ATOM      8  C6  UNL d   1       2.508  -4.170  -0.777  0.00  0.00    -0.082 A 
ATOM      9  C7  UNL d   1       3.101  -3.044  -0.156  0.00  0.00     0.045 A 
ENDROOT
TORSDOF 0
ENDMDL
