MODEL 1
REMARK minimizedAffinity 7.81347656
REMARK minimizedRMSD -1
REMARK  0 active torsions:
REMARK  status: ('A' for Active; 'I' for Inactive)
ROOT
ATOM      1  C   UNL d   1       3.402  -1.543  -2.380  0.00  0.00    -0.002 A 
ATOM      2  C1  UNL d   1       3.418  -1.866  -3.730  0.00  0.00     0.010 A 
ATOM      3  C2  UNL d   1       3.820  -3.135  -4.152  0.00  0.00     0.041 A 
ATOM      4  C3  UNL d   1       4.208  -4.083  -3.185  0.00  0.00    -0.075 A 
ATOM      5  S   UNL d   1       4.737  -5.699  -3.468  0.00  0.00     0.015 SA
ATOM      6  C4  UNL d   1       4.953  -6.000  -1.805  0.00  0.00     0.022 A 
ATOM      7  C5  UNL d   1       4.635  -4.904  -1.037  0.00  0.00     0.026 A 
ATOM      8  C6  UNL d   1       4.199  -3.782  -1.820  0.00  0.00    -0.082 A 
ATOM      9  C7  UNL d   1       3.787  -2.487  -1.424  0.00  0.00     0.045 A 
ENDROOT
TORSDOF 0
ENDMDL
