MODEL 1
REMARK minimizedAffinity 4.70188713
REMARK minimizedRMSD -1
REMARK  0 active torsions:
REMARK  status: ('A' for Active; 'I' for Inactive)
ROOT
ATOM      1  C   UNL d   1       3.991  -1.565  -2.494  0.00  0.00    -0.002 A 
ATOM      2  C1  UNL d   1       3.651  -2.141  -3.710  0.00  0.00     0.010 A 
ATOM      3  C2  UNL d   1       3.822  -3.511  -3.919  0.00  0.00     0.041 A 
ATOM      4  C3  UNL d   1       4.343  -4.300  -2.875  0.00  0.00    -0.075 A 
ATOM      5  S   UNL d   1       4.637  -5.999  -2.903  0.00  0.00     0.015 SA
ATOM      6  C4  UNL d   1       5.220  -6.000  -1.302  0.00  0.00     0.022 A 
ATOM      7  C5  UNL d   1       5.198  -4.743  -0.744  0.00  0.00     0.026 A 
ATOM      8  C6  UNL d   1       4.692  -3.743  -1.641  0.00  0.00    -0.082 A 
ATOM      9  C7  UNL d   1       4.508  -2.351  -1.461  0.00  0.00     0.045 A 
ENDROOT
TORSDOF 0
ENDMDL
