MODEL 1
REMARK minimizedAffinity 2.44008708
REMARK minimizedRMSD -1
REMARK  0 active torsions:
REMARK  status: ('A' for Active; 'I' for Inactive)
ROOT
ATOM      1  C   UNL d   1       5.261  -3.081  -0.468  0.00  0.00    -0.002 A 
ATOM      2  C1  UNL d   1       4.367  -2.127  -0.935  0.00  0.00     0.010 A 
ATOM      3  C2  UNL d   1       3.639  -2.349  -2.105  0.00  0.00     0.041 A 
ATOM      4  C3  UNL d   1       3.824  -3.558  -2.804  0.00  0.00    -0.075 A 
ATOM      5  S   UNL d   1       3.040  -4.048  -4.260  0.00  0.00     0.015 SA
ATOM      6  C4  UNL d   1       3.872  -5.535  -4.295  0.00  0.00     0.022 A 
ATOM      7  C5  UNL d   1       4.731  -5.671  -3.230  0.00  0.00     0.026 A 
ATOM      8  C6  UNL d   1       4.717  -4.534  -2.353  0.00  0.00    -0.082 A 
ATOM      9  C7  UNL d   1       5.441  -4.279  -1.164  0.00  0.00     0.045 A 
ENDROOT
TORSDOF 0
ENDMDL
