MODEL 1
REMARK minimizedAffinity 1.00717938
REMARK minimizedRMSD -1
REMARK  0 active torsions:
REMARK  status: ('A' for Active; 'I' for Inactive)
ROOT
ATOM      1  C   UNL d   1      -5.961  -4.567   4.878  0.00  0.00    -0.002 A 
ATOM      2  C1  UNL d   1      -6.000  -3.751   6.000  0.00  0.00     0.010 A 
ATOM      3  C2  UNL d   1      -5.999  -2.361   5.867  0.00  0.00     0.041 A 
ATOM      4  C3  UNL d   1      -5.959  -1.800   4.575  0.00  0.00    -0.075 A 
ATOM      5  S   UNL d   1      -5.951  -0.124   4.170  0.00  0.00     0.015 SA
ATOM      6  C4  UNL d   1      -5.897  -0.452   2.498  0.00  0.00     0.022 A 
ATOM      7  C5  UNL d   1      -5.884  -1.802   2.238  0.00  0.00     0.026 A 
ATOM      8  C6  UNL d   1      -5.921  -2.601   3.431  0.00  0.00    -0.082 A 
ATOM      9  C7  UNL d   1      -5.922  -4.007   3.599  0.00  0.00     0.045 A 
ENDROOT
TORSDOF 0
ENDMDL
