MODEL 1
REMARK minimizedAffinity 2.16681623
REMARK minimizedRMSD -1
REMARK  0 active torsions:
REMARK  status: ('A' for Active; 'I' for Inactive)
ROOT
ATOM      1  C   UNL d   1       5.177  -3.045  -0.064  0.00  0.00    -0.002 A 
ATOM      2  C1  UNL d   1       4.179  -2.189  -0.508  0.00  0.00     0.010 A 
ATOM      3  C2  UNL d   1       3.474  -2.469  -1.680  0.00  0.00     0.041 A 
ATOM      4  C3  UNL d   1       3.790  -3.635  -2.404  0.00  0.00    -0.075 A 
ATOM      5  S   UNL d   1       3.057  -4.181  -3.866  0.00  0.00     0.015 SA
ATOM      6  C4  UNL d   1       4.051  -5.564  -3.935  0.00  0.00     0.022 A 
ATOM      7  C5  UNL d   1       4.927  -5.623  -2.877  0.00  0.00     0.026 A 
ATOM      8  C6  UNL d   1       4.790  -4.513  -1.976  0.00  0.00    -0.082 A 
ATOM      9  C7  UNL d   1       5.488  -4.201  -0.785  0.00  0.00     0.045 A 
ENDROOT
TORSDOF 0
ENDMDL
