MODEL 1
REMARK minimizedAffinity 20.9631844
REMARK minimizedRMSD -1
REMARK  0 active torsions:
REMARK  status: ('A' for Active; 'I' for Inactive)
ROOT
ATOM      1  O1  BZF d   1      -5.601  -0.672   5.969  0.00  0.00    -0.204 OA
ATOM      2  C2  BZF d   1      -5.559  -1.934   5.409  0.00  0.00     0.174 A 
ATOM      3  C3  BZF d   1      -5.659  -1.865   4.066  0.00  0.00    -0.012 A 
ATOM      4  C3A BZF d   1      -5.678  -0.467   3.761  0.00  0.00    -0.107 A 
ATOM      5  C4  BZF d   1      -5.748   0.239   2.594  0.00  0.00     0.055 A 
ATOM      6  C5  BZF d   1      -5.821   1.595   2.646  0.00  0.00    -0.016 A 
ATOM      7  C6  BZF d   1      -5.830   2.276   3.845  0.00  0.00     0.022 A 
ATOM      8  C7  BZF d   1      -5.757   1.619   5.029  0.00  0.00     0.029 A 
ATOM      9  C7A BZF d   1      -5.650   0.251   4.979  0.00  0.00     0.058 A 
ENDROOT
TORSDOF 0
ENDMDL
