MODEL 1
REMARK minimizedAffinity 3.81437182
REMARK minimizedRMSD -1
REMARK  0 active torsions:
REMARK  status: ('A' for Active; 'I' for Inactive)
ROOT
ATOM      1  O1  BZF d   1       5.542  -2.899  -4.735  0.00  0.00    -0.204 OA
ATOM      2  C2  BZF d   1       5.206  -3.820  -5.709  0.00  0.00     0.174 A 
ATOM      3  C3  BZF d   1       3.891  -3.751  -6.000  0.00  0.00    -0.012 A 
ATOM      4  C3A BZF d   1       3.390  -2.660  -5.221  0.00  0.00    -0.107 A 
ATOM      5  C4  BZF d   1       2.157  -2.088  -5.090  0.00  0.00     0.055 A 
ATOM      6  C5  BZF d   1       1.987  -1.083  -4.191  0.00  0.00    -0.016 A 
ATOM      7  C6  BZF d   1       3.026  -0.630  -3.404  0.00  0.00     0.022 A 
ATOM      8  C7  BZF d   1       4.268  -1.163  -3.502  0.00  0.00     0.029 A 
ATOM      9  C7A BZF d   1       4.451  -2.156  -4.433  0.00  0.00     0.058 A 
ENDROOT
TORSDOF 0
ENDMDL
