MODEL 1
REMARK minimizedAffinity 0.973176301
REMARK minimizedRMSD -1
REMARK  0 active torsions:
REMARK  status: ('A' for Active; 'I' for Inactive)
ROOT
ATOM      1  O1  BZF d   1      -0.765   1.236  -1.717  0.00  0.00    -0.204 OA
ATOM      2  C2  BZF d   1       0.118   1.210  -0.655  0.00  0.00     0.174 A 
ATOM      3  C3  BZF d   1       0.121  -0.003  -0.065  0.00  0.00    -0.012 A 
ATOM      4  C3A BZF d   1      -0.750  -0.812  -0.863  0.00  0.00    -0.107 A 
ATOM      5  C4  BZF d   1      -1.142  -2.118  -0.794  0.00  0.00     0.055 A 
ATOM      6  C5  BZF d   1      -2.061  -2.579  -1.684  0.00  0.00    -0.016 A 
ATOM      7  C6  BZF d   1      -2.610  -1.761  -2.650  0.00  0.00     0.022 A 
ATOM      8  C7  BZF d   1      -2.248  -0.460  -2.760  0.00  0.00     0.029 A 
ATOM      9  C7A BZF d   1      -1.295   0.001  -1.883  0.00  0.00     0.058 A 
ENDROOT
TORSDOF 0
ENDMDL
