MODEL 1
REMARK minimizedAffinity 0.242761776
REMARK minimizedRMSD -1
REMARK  0 active torsions:
REMARK  status: ('A' for Active; 'I' for Inactive)
ROOT
ATOM      1  O1  BZF d   1      -1.150  -5.977   1.019  0.00  0.00    -0.204 OA
ATOM      2  C2  BZF d   1      -0.558  -6.000   2.267  0.00  0.00     0.174 A 
ATOM      3  C3  BZF d   1      -1.492  -5.957   3.240  0.00  0.00    -0.012 A 
ATOM      4  C3A BZF d   1      -2.749  -5.998   2.557  0.00  0.00    -0.107 A 
ATOM      5  C4  BZF d   1      -4.047  -5.999   2.980  0.00  0.00     0.055 A 
ATOM      6  C5  BZF d   1      -5.043  -5.970   2.056  0.00  0.00    -0.016 A 
ATOM      7  C6  BZF d   1      -4.777  -5.935   0.703  0.00  0.00     0.022 A 
ATOM      8  C7  BZF d   1      -3.505  -5.938   0.235  0.00  0.00     0.029 A 
ATOM      9  C7A BZF d   1      -2.497  -6.000   1.166  0.00  0.00     0.058 A 
ENDROOT
TORSDOF 0
ENDMDL
