MODEL 1
REMARK minimizedAffinity 11.2375565
REMARK minimizedRMSD -1
REMARK  0 active torsions:
REMARK  status: ('A' for Active; 'I' for Inactive)
ROOT
ATOM      1  O1  BZF d   1      -6.000  -1.675   4.475  0.00  0.00    -0.204 OA
ATOM      2  C2  BZF d   1      -5.163  -1.304   5.509  0.00  0.00     0.174 A 
ATOM      3  C3  BZF d   1      -3.884  -1.230   5.087  0.00  0.00    -0.012 A 
ATOM      4  C3A BZF d   1      -3.937  -1.487   3.680  0.00  0.00    -0.107 A 
ATOM      5  C4  BZF d   1      -2.989  -1.537   2.698  0.00  0.00     0.055 A 
ATOM      6  C5  BZF d   1      -3.360  -1.886   1.439  0.00  0.00    -0.016 A 
ATOM      7  C6  BZF d   1      -4.668  -2.196   1.127  0.00  0.00     0.022 A 
ATOM      8  C7  BZF d   1      -5.644  -2.156   2.066  0.00  0.00     0.029 A 
ATOM      9  C7A BZF d   1      -5.278  -1.772   3.333  0.00  0.00     0.058 A 
ENDROOT
TORSDOF 0
ENDMDL
