MODEL 1
REMARK minimizedAffinity 9.14907551
REMARK minimizedRMSD -1
REMARK  0 active torsions:
REMARK  status: ('A' for Active; 'I' for Inactive)
ROOT
ATOM      1  O1  BZF d   1      -3.616  -1.281   4.649  0.00  0.00    -0.204 OA
ATOM      2  C2  BZF d   1      -4.736  -0.876   5.349  0.00  0.00     0.174 A 
ATOM      3  C3  BZF d   1      -5.825  -0.882   4.553  0.00  0.00    -0.012 A 
ATOM      4  C3A BZF d   1      -5.374  -1.405   3.301  0.00  0.00    -0.107 A 
ATOM      5  C4  BZF d   1      -5.996  -1.668   2.114  0.00  0.00     0.055 A 
ATOM      6  C5  BZF d   1      -5.255  -2.107   1.063  0.00  0.00    -0.016 A 
ATOM      7  C6  BZF d   1      -3.891  -2.290   1.162  0.00  0.00     0.022 A 
ATOM      8  C7  BZF d   1      -3.230  -2.047   2.320  0.00  0.00     0.029 A 
ATOM      9  C7A BZF d   1      -3.981  -1.635   3.393  0.00  0.00     0.058 A 
ENDROOT
TORSDOF 0
ENDMDL
