MODEL 1
REMARK minimizedAffinity 14.1542835
REMARK minimizedRMSD -1
REMARK  0 active torsions:
REMARK  status: ('A' for Active; 'I' for Inactive)
ROOT
ATOM      1  O1  BZF d   1      -1.757  -5.950  -0.302  0.00  0.00    -0.204 OA
ATOM      2  C2  BZF d   1      -0.447  -5.905  -0.739  0.00  0.00     0.174 A 
ATOM      3  C3  BZF d   1       0.404  -5.836   0.306  0.00  0.00    -0.012 A 
ATOM      4  C3A BZF d   1      -0.422  -5.931   1.470  0.00  0.00    -0.107 A 
ATOM      5  C4  BZF d   1      -0.158  -5.938   2.810  0.00  0.00     0.055 A 
ATOM      6  C5  BZF d   1      -1.195  -5.970   3.688  0.00  0.00    -0.016 A 
ATOM      7  C6  BZF d   1      -2.506  -5.991   3.261  0.00  0.00     0.022 A 
ATOM      8  C7  BZF d   1      -2.818  -5.990   1.942  0.00  0.00     0.029 A 
ATOM      9  C7A BZF d   1      -1.771  -5.991   1.052  0.00  0.00     0.058 A 
ENDROOT
TORSDOF 0
ENDMDL
