MODEL 1
REMARK minimizedAffinity 19.2749729
REMARK minimizedRMSD -1
REMARK  0 active torsions:
REMARK  status: ('A' for Active; 'I' for Inactive)
ROOT
ATOM      1  O1  BZF d   1       5.078  -2.019   1.634  0.00  0.00    -0.204 OA
ATOM      2  C2  BZF d   1       4.134  -1.679   0.684  0.00  0.00     0.174 A 
ATOM      3  C3  BZF d   1       3.189  -2.636   0.585  0.00  0.00    -0.012 A 
ATOM      4  C3A BZF d   1       3.514  -3.593   1.598  0.00  0.00    -0.107 A 
ATOM      5  C4  BZF d   1       2.937  -4.761   2.005  0.00  0.00     0.055 A 
ATOM      6  C5  BZF d   1       3.545  -5.495   2.974  0.00  0.00    -0.016 A 
ATOM      7  C6  BZF d   1       4.731  -5.094   3.553  0.00  0.00     0.022 A 
ATOM      8  C7  BZF d   1       5.338  -3.939   3.185  0.00  0.00     0.029 A 
ATOM      9  C7A BZF d   1       4.710  -3.179   2.230  0.00  0.00     0.058 A 
ENDROOT
TORSDOF 0
ENDMDL
