MODEL 1
REMARK minimizedAffinity 17.6012726
REMARK minimizedRMSD -1
REMARK  0 active torsions:
REMARK  status: ('A' for Active; 'I' for Inactive)
ROOT
ATOM      1  O1  BZF d   1      -3.343  -0.938  -2.325  0.00  0.00    -0.204 OA
ATOM      2  C2  BZF d   1      -3.243  -0.990  -3.702  0.00  0.00     0.174 A 
ATOM      3  C3  BZF d   1      -2.815  -2.204  -4.105  0.00  0.00    -0.012 A 
ATOM      4  C3A BZF d   1      -2.726  -2.987  -2.910  0.00  0.00    -0.107 A 
ATOM      5  C4  BZF d   1      -2.372  -4.282  -2.661  0.00  0.00     0.055 A 
ATOM      6  C5  BZF d   1      -2.319  -4.716  -1.374  0.00  0.00    -0.016 A 
ATOM      7  C6  BZF d   1      -2.607  -3.882  -0.314  0.00  0.00     0.022 A 
ATOM      8  C7  BZF d   1      -2.968  -2.591  -0.512  0.00  0.00     0.029 A 
ATOM      9  C7A BZF d   1      -3.054  -2.158  -1.813  0.00  0.00     0.058 A 
ENDROOT
TORSDOF 0
ENDMDL
