MODEL 1
REMARK minimizedAffinity 8.30273819
REMARK minimizedRMSD -1
REMARK  0 active torsions:
REMARK  status: ('A' for Active; 'I' for Inactive)
ROOT
ATOM      1  O1  BZF d   1       3.281  -5.907   3.761  0.00  0.00    -0.204 OA
ATOM      2  C2  BZF d   1       3.931  -5.999   4.977  0.00  0.00     0.174 A 
ATOM      3  C3  BZF d   1       3.045  -5.993   5.994  0.00  0.00    -0.012 A 
ATOM      4  C3A BZF d   1       1.757  -5.983   5.372  0.00  0.00    -0.107 A 
ATOM      5  C4  BZF d   1       0.480  -5.988   5.856  0.00  0.00     0.055 A 
ATOM      6  C5  BZF d   1      -0.558  -5.901   4.983  0.00  0.00    -0.016 A 
ATOM      7  C6  BZF d   1      -0.355  -5.801   3.622  0.00  0.00     0.022 A 
ATOM      8  C7  BZF d   1       0.893  -5.797   3.094  0.00  0.00     0.029 A 
ATOM      9  C7A BZF d   1       1.943  -5.919   3.971  0.00  0.00     0.058 A 
ENDROOT
TORSDOF 0
ENDMDL
