MODEL 1
REMARK minimizedAffinity 3.61897111
REMARK minimizedRMSD -1
REMARK  0 active torsions:
REMARK  status: ('A' for Active; 'I' for Inactive)
ROOT
ATOM      1  O1  BZF d   1      -1.480   0.811  -1.898  0.00  0.00    -0.204 OA
ATOM      2  C2  BZF d   1      -0.619   1.045  -0.843  0.00  0.00     0.174 A 
ATOM      3  C3  BZF d   1      -0.506  -0.051  -0.065  0.00  0.00    -0.012 A 
ATOM      4  C3A BZF d   1      -1.278  -1.060  -0.723  0.00  0.00    -0.107 A 
ATOM      5  C4  BZF d   1      -1.541  -2.371  -0.445  0.00  0.00     0.055 A 
ATOM      6  C5  BZF d   1      -2.392  -3.059  -1.250  0.00  0.00    -0.016 A 
ATOM      7  C6  BZF d   1      -3.002  -2.467  -2.337  0.00  0.00     0.022 A 
ATOM      8  C7  BZF d   1      -2.768  -1.170  -2.656  0.00  0.00     0.029 A 
ATOM      9  C7A BZF d   1      -1.883  -0.482  -1.863  0.00  0.00     0.058 A 
ENDROOT
TORSDOF 0
ENDMDL
