MODEL 1
REMARK minimizedAffinity 11.0632305
REMARK minimizedRMSD -1
REMARK  0 active torsions:
REMARK  status: ('A' for Active; 'I' for Inactive)
ROOT
ATOM      1  O1  BZF d   1       3.000   2.072  -4.769  0.00  0.00    -0.204 OA
ATOM      2  C2  BZF d   1       3.361   1.543  -5.993  0.00  0.00     0.174 A 
ATOM      3  C3  BZF d   1       4.121   0.441  -5.832  0.00  0.00    -0.012 A 
ATOM      4  C3A BZF d   1       4.167   0.218  -4.420  0.00  0.00    -0.107 A 
ATOM      5  C4  BZF d   1       4.756  -0.735  -3.638  0.00  0.00     0.055 A 
ATOM      6  C5  BZF d   1       4.671  -0.626  -2.286  0.00  0.00    -0.016 A 
ATOM      7  C6  BZF d   1       4.010   0.425  -1.683  0.00  0.00     0.022 A 
ATOM      8  C7  BZF d   1       3.406   1.391  -2.417  0.00  0.00     0.029 A 
ATOM      9  C7A BZF d   1       3.462   1.265  -3.783  0.00  0.00     0.058 A 
ENDROOT
TORSDOF 0
ENDMDL
