MODEL 1
REMARK minimizedAffinity 4.92663574
REMARK minimizedRMSD -1
REMARK  0 active torsions:
REMARK  status: ('A' for Active; 'I' for Inactive)
ROOT
ATOM      1  O1  BZF d   1      -1.157   0.776  -2.006  0.00  0.00    -0.204 OA
ATOM      2  C2  BZF d   1      -0.138   1.192  -1.172  0.00  0.00     0.174 A 
ATOM      3  C3  BZF d   1       0.156   0.239  -0.264  0.00  0.00    -0.012 A 
ATOM      4  C3A BZF d   1      -0.673  -0.875  -0.607  0.00  0.00    -0.107 A 
ATOM      5  C4  BZF d   1      -0.826  -2.128  -0.084  0.00  0.00     0.055 A 
ATOM      6  C5  BZF d   1      -1.773  -2.950  -0.606  0.00  0.00    -0.016 A 
ATOM      7  C6  BZF d   1      -2.586  -2.553  -1.647  0.00  0.00     0.022 A 
ATOM      8  C7  BZF d   1      -2.468  -1.322  -2.202  0.00  0.00     0.029 A 
ATOM      9  C7A BZF d   1      -1.490  -0.500  -1.698  0.00  0.00     0.058 A 
ENDROOT
TORSDOF 0
ENDMDL
