MODEL 1
REMARK minimizedAffinity 3.10178924
REMARK minimizedRMSD -1
REMARK  0 active torsions:
REMARK  status: ('A' for Active; 'I' for Inactive)
ROOT
ATOM      1  O1  BZF d   1       5.840  -0.954   4.823  0.00  0.00    -0.204 OA
ATOM      2  C2  BZF d   1       5.838  -0.584   3.492  0.00  0.00     0.174 A 
ATOM      3  C3  BZF d   1       5.939  -1.666   2.695  0.00  0.00    -0.012 A 
ATOM      4  C3A BZF d   1       5.915  -2.790   3.580  0.00  0.00    -0.107 A 
ATOM      5  C4  BZF d   1       5.966  -4.141   3.385  0.00  0.00     0.055 A 
ATOM      6  C5  BZF d   1       5.996  -4.964   4.466  0.00  0.00    -0.016 A 
ATOM      7  C6  BZF d   1       5.981  -4.471   5.754  0.00  0.00     0.022 A 
ATOM      8  C7  BZF d   1       5.926  -3.139   5.998  0.00  0.00     0.029 A 
ATOM      9  C7A BZF d   1       5.862  -2.306   4.908  0.00  0.00     0.058 A 
ENDROOT
TORSDOF 0
ENDMDL
