MODEL 1
REMARK minimizedAffinity 3.39521885
REMARK minimizedRMSD -1
REMARK  0 active torsions:
REMARK  status: ('A' for Active; 'I' for Inactive)
ROOT
ATOM      1  O1  BZF d   1       0.017   1.169   0.078  0.00  0.00    -0.204 OA
ATOM      2  C2  BZF d   1       0.417   0.921   1.377  0.00  0.00     0.174 A 
ATOM      3  C3  BZF d   1      -0.100  -0.242   1.822  0.00  0.00    -0.012 A 
ATOM      4  C3A BZF d   1      -0.796  -0.798   0.703  0.00  0.00    -0.107 A 
ATOM      5  C4  BZF d   1      -1.503  -1.952   0.515  0.00  0.00     0.055 A 
ATOM      6  C5  BZF d   1      -2.120  -2.161  -0.678  0.00  0.00    -0.016 A 
ATOM      7  C6  BZF d   1      -2.055  -1.238  -1.701  0.00  0.00     0.022 A 
ATOM      8  C7  BZF d   1      -1.362  -0.082  -1.563  0.00  0.00     0.029 A 
ATOM      9  C7A BZF d   1      -0.710   0.118  -0.371  0.00  0.00     0.058 A 
ENDROOT
TORSDOF 0
ENDMDL
