MODEL 1
REMARK minimizedAffinity 3.28288841
REMARK minimizedRMSD -1
REMARK  0 active torsions:
REMARK  status: ('A' for Active; 'I' for Inactive)
ROOT
ATOM      1  O1  BZF d   1       0.139   0.750  -0.371  0.00  0.00    -0.204 OA
ATOM      2  C2  BZF d   1       0.505   1.210   0.879  0.00  0.00     0.174 A 
ATOM      3  C3  BZF d   1      -0.047   0.451   1.848  0.00  0.00    -0.012 A 
ATOM      4  C3A BZF d   1      -0.730  -0.601   1.159  0.00  0.00    -0.107 A 
ATOM      5  C4  BZF d   1      -1.458  -1.678   1.576  0.00  0.00     0.055 A 
ATOM      6  C5  BZF d   1      -2.053  -2.472   0.647  0.00  0.00    -0.016 A 
ATOM      7  C6  BZF d   1      -1.946  -2.215  -0.704  0.00  0.00     0.022 A 
ATOM      8  C7  BZF d   1      -1.231  -1.161  -1.165  0.00  0.00     0.029 A 
ATOM      9  C7A BZF d   1      -0.601  -0.376  -0.231  0.00  0.00     0.058 A 
ENDROOT
TORSDOF 0
ENDMDL
