MODEL 1
REMARK minimizedAffinity 3.15206146
REMARK minimizedRMSD -1
REMARK  0 active torsions:
REMARK  status: ('A' for Active; 'I' for Inactive)
ROOT
ATOM      1  O1  BZF d   1      -0.591   0.622  -1.281  0.00  0.00    -0.204 OA
ATOM      2  C2  BZF d   1       0.497   0.995  -0.516  0.00  0.00     0.174 A 
ATOM      3  C3  BZF d   1       0.730   0.090   0.456  0.00  0.00    -0.012 A 
ATOM      4  C3A BZF d   1      -0.218  -0.957   0.232  0.00  0.00    -0.107 A 
ATOM      5  C4  BZF d   1      -0.474  -2.142   0.860  0.00  0.00     0.055 A 
ATOM      6  C5  BZF d   1      -1.519  -2.902   0.436  0.00  0.00    -0.016 A 
ATOM      7  C6  BZF d   1      -2.330  -2.504  -0.606  0.00  0.00     0.022 A 
ATOM      8  C7  BZF d   1      -2.112  -1.339  -1.263  0.00  0.00     0.029 A 
ATOM      9  C7A BZF d   1      -1.037  -0.585  -0.859  0.00  0.00     0.058 A 
ENDROOT
TORSDOF 0
ENDMDL
