MODEL 1
REMARK minimizedAffinity 7.31549549
REMARK minimizedRMSD -1
REMARK  0 active torsions:
REMARK  status: ('A' for Active; 'I' for Inactive)
ROOT
ATOM      1  O1  BZF d   1       0.730   0.176  -0.649  0.00  0.00    -0.204 OA
ATOM      2  C2  BZF d   1       0.131   0.746   0.458  0.00  0.00     0.174 A 
ATOM      3  C3  BZF d   1      -1.127   0.285   0.611  0.00  0.00    -0.012 A 
ATOM      4  C3A BZF d   1      -1.295  -0.699  -0.414  0.00  0.00    -0.107 A 
ATOM      5  C4  BZF d   1      -2.328  -1.520  -0.767  0.00  0.00     0.055 A 
ATOM      6  C5  BZF d   1      -2.196  -2.312  -1.864  0.00  0.00    -0.016 A 
ATOM      7  C6  BZF d   1      -1.051  -2.305  -2.632  0.00  0.00     0.022 A 
ATOM      8  C7  BZF d   1       0.002  -1.511  -2.318  0.00  0.00     0.029 A 
ATOM      9  C7A BZF d   1      -0.115  -0.733  -1.192  0.00  0.00     0.058 A 
ENDROOT
TORSDOF 0
ENDMDL
