MODEL 1
REMARK minimizedAffinity 13.1098757
REMARK minimizedRMSD -1
REMARK  0 active torsions:
REMARK  status: ('A' for Active; 'I' for Inactive)
ROOT
ATOM      1  O1  BZF d   1      -5.960  -1.873   1.819  0.00  0.00    -0.204 OA
ATOM      2  C2  BZF d   1      -6.000  -1.156   2.999  0.00  0.00     0.174 A 
ATOM      3  C3  BZF d   1      -4.784  -1.126   3.583  0.00  0.00    -0.012 A 
ATOM      4  C3A BZF d   1      -3.911  -1.793   2.666  0.00  0.00    -0.107 A 
ATOM      5  C4  BZF d   1      -2.573  -2.069   2.676  0.00  0.00     0.055 A 
ATOM      6  C5  BZF d   1      -2.043  -2.801   1.662  0.00  0.00    -0.016 A 
ATOM      7  C6  BZF d   1      -2.820  -3.277   0.626  0.00  0.00     0.022 A 
ATOM      8  C7  BZF d   1      -4.150  -3.024   0.570  0.00  0.00     0.029 A 
ATOM      9  C7A BZF d   1      -4.683  -2.257   1.577  0.00  0.00     0.058 A 
ENDROOT
TORSDOF 0
ENDMDL
