MODEL 1
REMARK minimizedAffinity 8.39496422
REMARK minimizedRMSD -1
REMARK  0 active torsions:
REMARK  status: ('A' for Active; 'I' for Inactive)
ROOT
ATOM      1  C2' OXE d   1      -0.478  -3.215  -1.047  0.00  0.00     0.078 C 
ATOM      2  C1' OXE d   1       0.698  -1.486  -2.919  0.00  0.00     0.078 C 
ATOM      3  C1  OXE d   1       1.386  -1.654  -1.588  0.00  0.00    -0.078 A 
ATOM      4  C2  OXE d   1       0.779  -2.466  -0.661  0.00  0.00    -0.078 A 
ATOM      5  C3  OXE d   1       1.401  -2.700   0.563  0.00  0.00     0.003 A 
ATOM      6  C4  OXE d   1       2.558  -1.995   0.916  0.00  0.00    -0.002 A 
ATOM      7  C5  OXE d   1       3.171  -1.133   0.001  0.00  0.00    -0.002 A 
ATOM      8  C6  OXE d   1       2.623  -0.984  -1.268  0.00  0.00     0.003 A 
ENDROOT
TORSDOF 0
ENDMDL
