MODEL 1
REMARK minimizedAffinity 6.4267807
REMARK minimizedRMSD -1
REMARK  0 active torsions:
REMARK  status: ('A' for Active; 'I' for Inactive)
ROOT
ATOM      1  C2' OXE d   1       2.390  -0.147  -0.277  0.00  0.00     0.078 C 
ATOM      2  C1' OXE d   1       0.064  -0.184  -1.847  0.00  0.00     0.078 C 
ATOM      3  C1  OXE d   1       0.383  -1.413  -1.034  0.00  0.00    -0.078 A 
ATOM      4  C2  OXE d   1       1.548  -1.404  -0.305  0.00  0.00    -0.078 A 
ATOM      5  C3  OXE d   1       1.862  -2.491   0.505  0.00  0.00     0.003 A 
ATOM      6  C4  OXE d   1       1.083  -3.654   0.466  0.00  0.00    -0.002 A 
ATOM      7  C5  OXE d   1      -0.086  -3.699  -0.301  0.00  0.00    -0.002 A 
ATOM      8  C6  OXE d   1      -0.472  -2.574  -1.022  0.00  0.00     0.003 A 
ENDROOT
TORSDOF 0
ENDMDL
