MODEL 1
REMARK minimizedAffinity 11.2038555
REMARK minimizedRMSD -1
REMARK  0 active torsions:
REMARK  status: ('A' for Active; 'I' for Inactive)
ROOT
ATOM      1  C2' OXE d   1      -3.182  -0.395  -5.353  0.00  0.00     0.078 C 
ATOM      2  C1' OXE d   1      -5.973  -0.438  -5.652  0.00  0.00     0.078 C 
ATOM      3  C1  OXE d   1      -5.282   0.902  -5.694  0.00  0.00    -0.078 A 
ATOM      4  C2  OXE d   1      -3.922   0.918  -5.500  0.00  0.00    -0.078 A 
ATOM      5  C3  OXE d   1      -3.227   2.121  -5.583  0.00  0.00     0.003 A 
ATOM      6  C4  OXE d   1      -3.920   3.332  -5.710  0.00  0.00    -0.002 A 
ATOM      7  C5  OXE d   1      -5.309   3.341  -5.869  0.00  0.00    -0.002 A 
ATOM      8  C6  OXE d   1      -5.999   2.135  -5.906  0.00  0.00     0.003 A 
ENDROOT
TORSDOF 0
ENDMDL
