MODEL 1
REMARK minimizedAffinity 2.819175
REMARK minimizedRMSD -1
REMARK  0 active torsions:
REMARK  status: ('A' for Active; 'I' for Inactive)
ROOT
ATOM      1  C2' OXE d   1      -1.343   0.105  -3.422  0.00  0.00     0.078 C 
ATOM      2  C1' OXE d   1      -3.164   1.625  -4.923  0.00  0.00     0.078 C 
ATOM      3  C1  OXE d   1      -3.538   1.280  -3.503  0.00  0.00    -0.078 A 
ATOM      4  C2  OXE d   1      -2.662   0.496  -2.791  0.00  0.00    -0.078 A 
ATOM      5  C3  OXE d   1      -2.933   0.194  -1.460  0.00  0.00     0.003 A 
ATOM      6  C4  OXE d   1      -4.160   0.551  -0.888  0.00  0.00    -0.002 A 
ATOM      7  C5  OXE d   1      -5.084   1.315  -1.608  0.00  0.00    -0.002 A 
ATOM      8  C6  OXE d   1      -4.771   1.723  -2.900  0.00  0.00     0.003 A 
ENDROOT
TORSDOF 0
ENDMDL
