MODEL 1
REMARK minimizedAffinity 6.06143236
REMARK minimizedRMSD -1
REMARK  0 active torsions:
REMARK  status: ('A' for Active; 'I' for Inactive)
ROOT
ATOM      1  C2' OXE d   1       2.443   1.638   1.831  0.00  0.00     0.078 C 
ATOM      2  C1' OXE d   1       0.830   1.327  -0.445  0.00  0.00     0.078 C 
ATOM      3  C1  OXE d   1       1.720   0.176  -0.051  0.00  0.00    -0.078 A 
ATOM      4  C2  OXE d   1       2.541   0.354   1.036  0.00  0.00    -0.078 A 
ATOM      5  C3  OXE d   1       3.343  -0.696   1.475  0.00  0.00     0.003 A 
ATOM      6  C4  OXE d   1       3.434  -1.877   0.728  0.00  0.00    -0.002 A 
ATOM      7  C5  OXE d   1       2.637  -2.064  -0.406  0.00  0.00    -0.002 A 
ATOM      8  C6  OXE d   1       1.745  -1.066  -0.784  0.00  0.00     0.003 A 
ENDROOT
TORSDOF 0
ENDMDL
