MODEL 1
REMARK minimizedAffinity 6.87169981
REMARK minimizedRMSD -1
REMARK  0 active torsions:
REMARK  status: ('A' for Active; 'I' for Inactive)
ROOT
ATOM      1  C2' OXE d   1      -1.094   0.632   3.021  0.00  0.00     0.078 C 
ATOM      2  C1' OXE d   1      -1.286   3.425   3.222  0.00  0.00     0.078 C 
ATOM      3  C1  OXE d   1      -0.388   2.857   2.151  0.00  0.00    -0.078 A 
ATOM      4  C2  OXE d   1      -0.264   1.490   2.091  0.00  0.00    -0.078 A 
ATOM      5  C3  OXE d   1       0.509   0.911   1.088  0.00  0.00     0.003 A 
ATOM      6  C4  OXE d   1       1.281   1.712   0.237  0.00  0.00    -0.002 A 
ATOM      7  C5  OXE d   1       1.200   3.107   0.308  0.00  0.00    -0.002 A 
ATOM      8  C6  OXE d   1       0.340   3.694   1.229  0.00  0.00     0.003 A 
ENDROOT
TORSDOF 0
ENDMDL
