MODEL 1
REMARK minimizedAffinity 3.45020223
REMARK minimizedRMSD -1
REMARK  0 active torsions:
REMARK  status: ('A' for Active; 'I' for Inactive)
ROOT
ATOM      1  C2' OXE d   1       3.335  -0.346   0.323  0.00  0.00     0.078 C 
ATOM      2  C1' OXE d   1       4.637   2.009   1.122  0.00  0.00     0.078 C 
ATOM      3  C1  OXE d   1       3.134   2.042   1.000  0.00  0.00    -0.078 A 
ATOM      4  C2  OXE d   1       2.509   0.899   0.564  0.00  0.00    -0.078 A 
ATOM      5  C3  OXE d   1       1.120   0.859   0.486  0.00  0.00     0.003 A 
ATOM      6  C4  OXE d   1       0.365   2.018   0.701  0.00  0.00    -0.002 A 
ATOM      7  C5  OXE d   1       0.984   3.204   1.108  0.00  0.00    -0.002 A 
ATOM      8  C6  OXE d   1       2.361   3.222   1.303  0.00  0.00     0.003 A 
ENDROOT
TORSDOF 0
ENDMDL
