MODEL 1
REMARK minimizedAffinity 6.85872173
REMARK minimizedRMSD -1
REMARK  0 active torsions:
REMARK  status: ('A' for Active; 'I' for Inactive)
ROOT
ATOM      1  C2' OXE d   1       0.167   0.271  -2.544  0.00  0.00     0.078 C 
ATOM      2  C1' OXE d   1       1.352   1.749  -0.473  0.00  0.00     0.078 C 
ATOM      3  C1  OXE d   1       1.608   0.264  -0.513  0.00  0.00    -0.078 A 
ATOM      4  C2  OXE d   1       0.987  -0.459  -1.502  0.00  0.00    -0.078 A 
ATOM      5  C3  OXE d   1       1.233  -1.824  -1.617  0.00  0.00     0.003 A 
ATOM      6  C4  OXE d   1       1.984  -2.493  -0.643  0.00  0.00    -0.002 A 
ATOM      7  C5  OXE d   1       2.594  -1.782   0.396  0.00  0.00    -0.002 A 
ATOM      8  C6  OXE d   1       2.451  -0.400   0.451  0.00  0.00     0.003 A 
ENDROOT
TORSDOF 0
ENDMDL
