MODEL 1
REMARK minimizedAffinity 5.71424961
REMARK minimizedRMSD -1
REMARK  2 active torsions:
REMARK  status: ('A' for Active; 'I' for Inactive)
REMARK    1  A    between atoms: C1_2  and  C2_3 
REMARK    2  A    between atoms: C2_3  and  C3_4 
ROOT
ATOM      1  C3  UNL d   1       2.951   0.843   1.594  0.00  0.00    -0.075 A 
ATOM      2  C4  UNL d   1       3.925   0.382   2.491  0.00  0.00     0.002 A 
ATOM      3  C5  UNL d   1       4.974  -0.424   2.045  0.00  0.00     0.002 A 
ATOM      4  C6  UNL d   1       5.056  -0.786   0.702  0.00  0.00    -0.004 A 
ATOM      5  C7  UNL d   1       4.084  -0.346  -0.195  0.00  0.00     0.002 A 
ATOM      6  C8  UNL d   1       3.037   0.463   0.248  0.00  0.00     0.002 A 
ENDROOT
BRANCH   1   7
ATOM      7  C2  UNL d   1       1.830   1.739   2.064  0.00  0.00     0.056 C 
BRANCH   7   8
ATOM      8  C1  UNL d   1       0.806   1.038   2.963  0.00  0.00     0.007 C 
ATOM      9  C   UNL d   1       1.140   1.138   4.445  0.00  0.00     0.009 C 
ENDBRANCH   7   8
ENDBRANCH   1   7
TORSDOF 2
ENDMDL
