MODEL 1
REMARK minimizedAffinity -1.12605417
REMARK minimizedRMSD -1
REMARK  2 active torsions:
REMARK  status: ('A' for Active; 'I' for Inactive)
REMARK    1  A    between atoms: C1_2  and  C2_3 
REMARK    2  A    between atoms: C2_3  and  C3_4 
ROOT
ATOM      1  C3  UNL d   1       4.744   4.288   2.138  0.00  0.00    -0.075 A 
ATOM      2  C4  UNL d   1       3.572   3.822   1.524  0.00  0.00     0.002 A 
ATOM      3  C5  UNL d   1       3.452   2.484   1.149  0.00  0.00     0.002 A 
ATOM      4  C6  UNL d   1       4.505   1.598   1.372  0.00  0.00    -0.004 A 
ATOM      5  C7  UNL d   1       5.680   2.054   1.966  0.00  0.00     0.002 A 
ATOM      6  C8  UNL d   1       5.800   3.391   2.346  0.00  0.00     0.002 A 
ENDROOT
BRANCH   1   7
ATOM      7  C2  UNL d   1       4.868   5.729   2.574  0.00  0.00     0.056 C 
BRANCH   7   8
ATOM      8  C1  UNL d   1       6.000   5.982   3.575  0.00  0.00     0.007 C 
ATOM      9  C   UNL d   1       5.528   6.000   5.023  0.00  0.00     0.009 C 
ENDBRANCH   7   8
ENDBRANCH   1   7
TORSDOF 2
ENDMDL
