MODEL 1
REMARK minimizedAffinity 4.51660824
REMARK minimizedRMSD -1
REMARK  2 active torsions:
REMARK  status: ('A' for Active; 'I' for Inactive)
REMARK    1  A    between atoms: C1_2  and  C2_3 
REMARK    2  A    between atoms: C2_3  and  C3_4 
ROOT
ATOM      1  C3  UNL d   1       3.653   1.143  -0.675  0.00  0.00    -0.075 A 
ATOM      2  C4  UNL d   1       4.259   0.201   0.169  0.00  0.00     0.002 A 
ATOM      3  C5  UNL d   1       3.558  -0.336   1.249  0.00  0.00     0.002 A 
ATOM      4  C6  UNL d   1       2.249   0.068   1.505  0.00  0.00    -0.004 A 
ATOM      5  C7  UNL d   1       1.643   1.015   0.682  0.00  0.00     0.002 A 
ATOM      6  C8  UNL d   1       2.341   1.551  -0.402  0.00  0.00     0.002 A 
ENDROOT
BRANCH   1   7
ATOM      7  C2  UNL d   1       4.395   1.706  -1.863  0.00  0.00     0.056 C 
BRANCH   7   8
ATOM      8  C1  UNL d   1       3.493   2.075  -3.045  0.00  0.00     0.007 C 
ATOM      9  C   UNL d   1       4.165   1.879  -4.398  0.00  0.00     0.009 C 
ENDBRANCH   7   8
ENDBRANCH   1   7
TORSDOF 2
ENDMDL
