MODEL 1
REMARK minimizedAffinity 1.26143777
REMARK minimizedRMSD -1
REMARK  2 active torsions:
REMARK  status: ('A' for Active; 'I' for Inactive)
REMARK    1  A    between atoms: C1_2  and  C2_3 
REMARK    2  A    between atoms: C2_3  and  C3_4 
ROOT
ATOM      1  C3  UNL d   1      -3.229  -3.806  -2.644  0.00  0.00    -0.075 A 
ATOM      2  C4  UNL d   1      -2.578  -3.461  -3.837  0.00  0.00     0.002 A 
ATOM      3  C5  UNL d   1      -1.478  -2.603  -3.822  0.00  0.00     0.002 A 
ATOM      4  C6  UNL d   1      -1.023  -2.071  -2.617  0.00  0.00    -0.004 A 
ATOM      5  C7  UNL d   1      -1.673  -2.393  -1.428  0.00  0.00     0.002 A 
ATOM      6  C8  UNL d   1      -2.770  -3.255  -1.440  0.00  0.00     0.002 A 
ENDROOT
BRANCH   1   7
ATOM      7  C2  UNL d   1      -4.401  -4.758  -2.651  0.00  0.00     0.056 C 
BRANCH   7   8
ATOM      8  C1  UNL d   1      -5.682  -4.165  -3.248  0.00  0.00     0.007 C 
ATOM      9  C   UNL d   1      -5.626  -4.018  -4.763  0.00  0.00     0.009 C 
ENDBRANCH   7   8
ENDBRANCH   1   7
TORSDOF 2
ENDMDL
