MODEL 1
REMARK minimizedAffinity 2.56307554
REMARK minimizedRMSD -1
REMARK  2 active torsions:
REMARK  status: ('A' for Active; 'I' for Inactive)
REMARK    1  A    between atoms: C1_2  and  C2_3 
REMARK    2  A    between atoms: C2_3  and  C3_4 
ROOT
ATOM      1  C3  UNL d   1       2.946   1.347  -0.755  0.00  0.00    -0.075 A 
ATOM      2  C4  UNL d   1       2.263   1.469   0.464  0.00  0.00     0.002 A 
ATOM      3  C5  UNL d   1       2.539   0.599   1.520  0.00  0.00     0.002 A 
ATOM      4  C6  UNL d   1       3.490  -0.407   1.368  0.00  0.00    -0.004 A 
ATOM      5  C7  UNL d   1       4.163  -0.547   0.156  0.00  0.00     0.002 A 
ATOM      6  C8  UNL d   1       3.893   0.324  -0.901  0.00  0.00     0.002 A 
ENDROOT
BRANCH   1   7
ATOM      7  C2  UNL d   1       2.674   2.303  -1.891  0.00  0.00     0.056 C 
BRANCH   7   8
ATOM      8  C1  UNL d   1       1.356   2.039  -2.627  0.00  0.00     0.007 C 
ATOM      9  C   UNL d   1       0.173   2.784  -2.024  0.00  0.00     0.009 C 
ENDBRANCH   7   8
ENDBRANCH   1   7
TORSDOF 2
ENDMDL
