MODEL 1
REMARK minimizedAffinity 9.36892605
REMARK minimizedRMSD -1
REMARK  2 active torsions:
REMARK  status: ('A' for Active; 'I' for Inactive)
REMARK    1  A    between atoms: C1_2  and  C2_3 
REMARK    2  A    between atoms: C2_3  and  C3_4 
ROOT
ATOM      1  C3  UNL d   1      -0.103  -2.309  -0.444  0.00  0.00    -0.075 A 
ATOM      2  C4  UNL d   1       0.528  -3.229  -1.294  0.00  0.00     0.002 A 
ATOM      3  C5  UNL d   1      -0.222  -4.014  -2.170  0.00  0.00     0.002 A 
ATOM      4  C6  UNL d   1      -1.610  -3.896  -2.201  0.00  0.00    -0.004 A 
ATOM      5  C7  UNL d   1      -2.249  -2.997  -1.350  0.00  0.00     0.002 A 
ATOM      6  C8  UNL d   1      -1.500  -2.207  -0.475  0.00  0.00     0.002 A 
ENDROOT
BRANCH   1   7
ATOM      7  C2  UNL d   1       0.705  -1.435   0.485  0.00  0.00     0.056 C 
BRANCH   7   8
ATOM      8  C1  UNL d   1       1.915  -0.769  -0.179  0.00  0.00     0.007 C 
ATOM      9  C   UNL d   1       2.520   0.349   0.659  0.00  0.00     0.009 C 
ENDBRANCH   7   8
ENDBRANCH   1   7
TORSDOF 2
ENDMDL
