MODEL 1
REMARK minimizedAffinity 8.5328455
REMARK minimizedRMSD -1
REMARK  2 active torsions:
REMARK  status: ('A' for Active; 'I' for Inactive)
REMARK    1  A    between atoms: C1_2  and  C2_3 
REMARK    2  A    between atoms: C2_3  and  C3_4 
ROOT
ATOM      1  C3  UNL d   1       3.966   1.150  -2.048  0.00  0.00    -0.075 A 
ATOM      2  C4  UNL d   1       4.767   0.183  -1.423  0.00  0.00     0.002 A 
ATOM      3  C5  UNL d   1       4.551  -0.161  -0.089  0.00  0.00     0.002 A 
ATOM      4  C6  UNL d   1       3.540   0.462   0.640  0.00  0.00    -0.004 A 
ATOM      5  C7  UNL d   1       2.748   1.435   0.034  0.00  0.00     0.002 A 
ATOM      6  C8  UNL d   1       2.960   1.779  -1.303  0.00  0.00     0.002 A 
ENDROOT
BRANCH   1   7
ATOM      7  C2  UNL d   1       4.175   1.506  -3.500  0.00  0.00     0.056 C 
BRANCH   7   8
ATOM      8  C1  UNL d   1       5.642   1.730  -3.882  0.00  0.00     0.007 C 
ATOM      9  C   UNL d   1       5.983   1.229  -5.279  0.00  0.00     0.009 C 
ENDBRANCH   7   8
ENDBRANCH   1   7
TORSDOF 2
ENDMDL
