MODEL 1
REMARK minimizedAffinity 2.68322587
REMARK minimizedRMSD -1
REMARK  2 active torsions:
REMARK  status: ('A' for Active; 'I' for Inactive)
REMARK    1  A    between atoms: C1_2  and  C2_3 
REMARK    2  A    between atoms: C2_3  and  C3_4 
ROOT
ATOM      1  C3  UNL d   1      -0.714  -3.182  -0.961  0.00  0.00    -0.075 A 
ATOM      2  C4  UNL d   1       0.291  -3.814  -1.708  0.00  0.00     0.002 A 
ATOM      3  C5  UNL d   1       0.180  -3.922  -3.095  0.00  0.00     0.002 A 
ATOM      4  C6  UNL d   1      -0.938  -3.410  -3.750  0.00  0.00    -0.004 A 
ATOM      5  C7  UNL d   1      -1.950  -2.794  -3.016  0.00  0.00     0.002 A 
ATOM      6  C8  UNL d   1      -1.840  -2.682  -1.628  0.00  0.00     0.002 A 
ENDROOT
BRANCH   1   7
ATOM      7  C2  UNL d   1      -0.587  -3.037   0.537  0.00  0.00     0.056 C 
BRANCH   7   8
ATOM      8  C1  UNL d   1      -1.741  -3.664   1.325  0.00  0.00     0.007 C 
ATOM      9  C   UNL d   1      -1.395  -5.023   1.917  0.00  0.00     0.009 C 
ENDBRANCH   7   8
ENDBRANCH   1   7
TORSDOF 2
ENDMDL
