MODEL 1
REMARK minimizedAffinity 3.36912489
REMARK minimizedRMSD -1
REMARK  2 active torsions:
REMARK  status: ('A' for Active; 'I' for Inactive)
REMARK    1  A    between atoms: C1_2  and  C2_3 
REMARK    2  A    between atoms: C2_3  and  C3_4 
ROOT
ATOM      1  C3  UNL d   1       2.262   1.144   1.892  0.00  0.00    -0.075 A 
ATOM      2  C4  UNL d   1       2.253   1.395   0.513  0.00  0.00     0.002 A 
ATOM      3  C5  UNL d   1       3.207   0.810  -0.320  0.00  0.00     0.002 A 
ATOM      4  C6  UNL d   1       4.186  -0.024   0.215  0.00  0.00    -0.004 A 
ATOM      5  C7  UNL d   1       4.215  -0.268   1.586  0.00  0.00     0.002 A 
ATOM      6  C8  UNL d   1       3.259   0.313   2.422  0.00  0.00     0.002 A 
ENDROOT
BRANCH   1   7
ATOM      7  C2  UNL d   1       1.215   1.750   2.795  0.00  0.00     0.056 C 
BRANCH   7   8
ATOM      8  C1  UNL d   1       1.122   1.090   4.175  0.00  0.00     0.007 C 
ATOM      9  C   UNL d   1       0.067  -0.007   4.245  0.00  0.00     0.009 C 
ENDBRANCH   7   8
ENDBRANCH   1   7
TORSDOF 2
ENDMDL
