MODEL 1
REMARK minimizedAffinity 5.01343441
REMARK minimizedRMSD -1
REMARK  2 active torsions:
REMARK  status: ('A' for Active; 'I' for Inactive)
REMARK    1  A    between atoms: C1_2  and  C2_3 
REMARK    2  A    between atoms: C2_3  and  C3_4 
ROOT
ATOM      1  C3  UNL d   1      -3.778  -3.963  -2.537  0.00  0.00    -0.075 A 
ATOM      2  C4  UNL d   1      -3.746  -5.053  -1.656  0.00  0.00     0.002 A 
ATOM      3  C5  UNL d   1      -4.825  -5.935  -1.580  0.00  0.00     0.002 A 
ATOM      4  C6  UNL d   1      -5.951  -5.732  -2.375  0.00  0.00    -0.004 A 
ATOM      5  C7  UNL d   1      -6.000  -4.643  -3.243  0.00  0.00     0.002 A 
ATOM      6  C8  UNL d   1      -4.920  -3.762  -3.324  0.00  0.00     0.002 A 
ENDROOT
BRANCH   1   7
ATOM      7  C2  UNL d   1      -2.602  -3.022  -2.645  0.00  0.00     0.056 C 
BRANCH   7   8
ATOM      8  C1  UNL d   1      -2.535  -1.976  -1.528  0.00  0.00     0.007 C 
ATOM      9  C   UNL d   1      -1.440  -2.255  -0.508  0.00  0.00     0.009 C 
ENDBRANCH   7   8
ENDBRANCH   1   7
TORSDOF 2
ENDMDL
