MODEL 1
REMARK minimizedAffinity 2.85587716
REMARK minimizedRMSD -1
REMARK  2 active torsions:
REMARK  status: ('A' for Active; 'I' for Inactive)
REMARK    1  A    between atoms: C1_2  and  C2_3 
REMARK    2  A    between atoms: C2_3  and  C3_4 
ROOT
ATOM      1  C3  UNL d   1      -1.558  -3.009  -2.749  0.00  0.00    -0.075 A 
ATOM      2  C4  UNL d   1      -0.287  -3.372  -2.281  0.00  0.00     0.002 A 
ATOM      3  C5  UNL d   1      -0.008  -3.369  -0.914  0.00  0.00     0.002 A 
ATOM      4  C6  UNL d   1      -0.992  -2.995  -0.000  0.00  0.00    -0.004 A 
ATOM      5  C7  UNL d   1      -2.253  -2.618  -0.456  0.00  0.00     0.002 A 
ATOM      6  C8  UNL d   1      -2.536  -2.624  -1.823  0.00  0.00     0.002 A 
ENDROOT
BRANCH   1   7
ATOM      7  C2  UNL d   1      -1.875  -3.039  -4.226  0.00  0.00     0.056 C 
BRANCH   7   8
ATOM      8  C1  UNL d   1      -1.115  -1.992  -5.047  0.00  0.00     0.007 C 
ATOM      9  C   UNL d   1      -0.095  -2.602  -6.000  0.00  0.00     0.009 C 
ENDBRANCH   7   8
ENDBRANCH   1   7
TORSDOF 2
ENDMDL
