MODEL 1
REMARK minimizedAffinity 1.14364743
REMARK minimizedRMSD -1
REMARK  2 active torsions:
REMARK  status: ('A' for Active; 'I' for Inactive)
REMARK    1  A    between atoms: C1_2  and  C2_3 
REMARK    2  A    between atoms: C2_3  and  C3_4 
ROOT
ATOM      1  C3  UNL d   1      -1.480  -2.545  -1.783  0.00  0.00    -0.075 A 
ATOM      2  C4  UNL d   1      -0.590  -1.853  -0.949  0.00  0.00     0.002 A 
ATOM      3  C5  UNL d   1      -0.814  -1.788   0.427  0.00  0.00     0.002 A 
ATOM      4  C6  UNL d   1      -1.933  -2.403   0.983  0.00  0.00    -0.004 A 
ATOM      5  C7  UNL d   1      -2.833  -3.078   0.162  0.00  0.00     0.002 A 
ATOM      6  C8  UNL d   1      -2.609  -3.149  -1.214  0.00  0.00     0.002 A 
ENDROOT
BRANCH   1   7
ATOM      7  C2  UNL d   1      -1.227  -2.645  -3.268  0.00  0.00     0.056 C 
BRANCH   7   8
ATOM      8  C1  UNL d   1      -0.254  -3.760  -3.662  0.00  0.00     0.007 C 
ATOM      9  C   UNL d   1       0.765  -4.079  -2.576  0.00  0.00     0.009 C 
ENDBRANCH   7   8
ENDBRANCH   1   7
TORSDOF 2
ENDMDL
