MODEL 1
REMARK minimizedAffinity 0.21477446
REMARK minimizedRMSD -1
REMARK  2 active torsions:
REMARK  status: ('A' for Active; 'I' for Inactive)
REMARK    1  A    between atoms: C1_2  and  C2_3 
REMARK    2  A    between atoms: C2_3  and  C3_4 
ROOT
ATOM      1  C3  UNL d   1       4.941   2.314   1.113  0.00  0.00    -0.075 A 
ATOM      2  C4  UNL d   1       5.966   1.359   1.183  0.00  0.00     0.002 A 
ATOM      3  C5  UNL d   1       5.664  -0.003   1.197  0.00  0.00     0.002 A 
ATOM      4  C6  UNL d   1       4.338  -0.427   1.153  0.00  0.00    -0.004 A 
ATOM      5  C7  UNL d   1       3.311   0.514   1.101  0.00  0.00     0.002 A 
ATOM      6  C8  UNL d   1       3.610   1.877   1.081  0.00  0.00     0.002 A 
ENDROOT
BRANCH   1   7
ATOM      7  C2  UNL d   1       5.262   3.789   1.067  0.00  0.00     0.056 C 
BRANCH   7   8
ATOM      8  C1  UNL d   1       4.073   4.697   1.399  0.00  0.00     0.007 C 
ATOM      9  C   UNL d   1       4.481   5.997   2.078  0.00  0.00     0.009 C 
ENDBRANCH   7   8
ENDBRANCH   1   7
TORSDOF 2
ENDMDL
