MODEL 1
REMARK minimizedAffinity 5.29231358
REMARK minimizedRMSD -1
REMARK  2 active torsions:
REMARK  status: ('A' for Active; 'I' for Inactive)
REMARK    1  A    between atoms: C1_2  and  C2_3 
REMARK    2  A    between atoms: C2_3  and  C3_4 
ROOT
ATOM      1  C3  UNL d   1      -2.008  -2.814  -2.204  0.00  0.00    -0.075 A 
ATOM      2  C4  UNL d   1      -0.717  -3.093  -1.735  0.00  0.00     0.002 A 
ATOM      3  C5  UNL d   1      -0.452  -3.125  -0.365  0.00  0.00     0.002 A 
ATOM      4  C6  UNL d   1      -1.470  -2.868   0.550  0.00  0.00    -0.004 A 
ATOM      5  C7  UNL d   1      -2.753  -2.573   0.095  0.00  0.00     0.002 A 
ATOM      6  C8  UNL d   1      -3.022  -2.545  -1.274  0.00  0.00     0.002 A 
ENDROOT
BRANCH   1   7
ATOM      7  C2  UNL d   1      -2.308  -2.807  -3.684  0.00  0.00     0.056 C 
BRANCH   7   8
ATOM      8  C1  UNL d   1      -1.061  -2.760  -4.573  0.00  0.00     0.007 C 
ATOM      9  C   UNL d   1      -1.357  -2.316  -5.999  0.00  0.00     0.009 C 
ENDBRANCH   7   8
ENDBRANCH   1   7
TORSDOF 2
ENDMDL
