MODEL 1
REMARK minimizedAffinity 12.3825169
REMARK minimizedRMSD -1
REMARK  2 active torsions:
REMARK  status: ('A' for Active; 'I' for Inactive)
REMARK    1  A    between atoms: C1_2  and  C2_3 
REMARK    2  A    between atoms: C2_3  and  C3_4 
ROOT
ATOM      1  C3  UNL d   1       2.441   2.267   0.686  0.00  0.00    -0.075 A 
ATOM      2  C4  UNL d   1       3.744   2.756   0.858  0.00  0.00     0.002 A 
ATOM      3  C5  UNL d   1       3.957   4.069   1.280  0.00  0.00     0.002 A 
ATOM      4  C6  UNL d   1       2.873   4.910   1.524  0.00  0.00    -0.004 A 
ATOM      5  C7  UNL d   1       1.575   4.439   1.339  0.00  0.00     0.002 A 
ATOM      6  C8  UNL d   1       1.359   3.125   0.922  0.00  0.00     0.002 A 
ENDROOT
BRANCH   1   7
ATOM      7  C2  UNL d   1       2.203   0.838   0.258  0.00  0.00     0.056 C 
BRANCH   7   8
ATOM      8  C1  UNL d   1       2.991  -0.195   1.070  0.00  0.00     0.007 C 
ATOM      9  C   UNL d   1       4.284  -0.631   0.393  0.00  0.00     0.009 C 
ENDBRANCH   7   8
ENDBRANCH   1   7
TORSDOF 2
ENDMDL
