MODEL 1
REMARK minimizedAffinity 7.82442093
REMARK minimizedRMSD -1
REMARK  2 active torsions:
REMARK  status: ('A' for Active; 'I' for Inactive)
REMARK    1  A    between atoms: C1_2  and  C2_3 
REMARK    2  A    between atoms: C2_3  and  C3_4 
ROOT
ATOM      1  C3  UNL d   1       2.388   0.999   1.026  0.00  0.00    -0.075 A 
ATOM      2  C4  UNL d   1       3.622   0.415   1.350  0.00  0.00     0.002 A 
ATOM      3  C5  UNL d   1       4.446  -0.102   0.349  0.00  0.00     0.002 A 
ATOM      4  C6  UNL d   1       4.043  -0.051  -0.983  0.00  0.00    -0.004 A 
ATOM      5  C7  UNL d   1       2.813   0.511  -1.315  0.00  0.00     0.002 A 
ATOM      6  C8  UNL d   1       1.988   1.033  -0.317  0.00  0.00     0.002 A 
ENDROOT
BRANCH   1   7
ATOM      7  C2  UNL d   1       1.505   1.586   2.101  0.00  0.00     0.056 C 
BRANCH   7   8
ATOM      8  C1  UNL d   1       1.039   0.571   3.149  0.00  0.00     0.007 C 
ATOM      9  C   UNL d   1       1.227   1.057   4.580  0.00  0.00     0.009 C 
ENDBRANCH   7   8
ENDBRANCH   1   7
TORSDOF 2
ENDMDL
