MODEL 1
REMARK minimizedAffinity -1.10989261
REMARK minimizedRMSD -1
REMARK  2 active torsions:
REMARK  status: ('A' for Active; 'I' for Inactive)
REMARK    1  A    between atoms: C1_2  and  C2_3 
REMARK    2  A    between atoms: C2_3  and  C3_4 
ROOT
ATOM      1  C3  UNL d   1      -1.687  -3.160  -2.372  0.00  0.00    -0.075 A 
ATOM      2  C4  UNL d   1      -2.543  -3.297  -1.270  0.00  0.00     0.002 A 
ATOM      3  C5  UNL d   1      -2.025  -3.419   0.020  0.00  0.00     0.002 A 
ATOM      4  C6  UNL d   1      -0.647  -3.415   0.223  0.00  0.00    -0.004 A 
ATOM      5  C7  UNL d   1       0.214  -3.296  -0.866  0.00  0.00     0.002 A 
ATOM      6  C8  UNL d   1      -0.302  -3.170  -2.157  0.00  0.00     0.002 A 
ENDROOT
BRANCH   1   7
ATOM      7  C2  UNL d   1      -2.242  -2.999  -3.767  0.00  0.00     0.056 C 
BRANCH   7   8
ATOM      8  C1  UNL d   1      -1.627  -1.835  -4.552  0.00  0.00     0.007 C 
ATOM      9  C   UNL d   1      -1.313  -2.188  -6.000  0.00  0.00     0.009 C 
ENDBRANCH   7   8
ENDBRANCH   1   7
TORSDOF 2
ENDMDL
