MODEL 1
REMARK minimizedAffinity -0.467117786
REMARK minimizedRMSD -1
REMARK  1 active torsions:
REMARK  status: ('A' for Active; 'I' for Inactive)
REMARK    1  A    between atoms: C1_2  and  C2_3 
ROOT
ATOM      1  C2  UNL d   1       0.727   1.824  -0.318  0.00  0.00    -0.077 A 
ATOM      2  C3  UNL d   1      -0.653   1.908  -0.084  0.00  0.00     0.002 A 
ATOM      3  C4  UNL d   1      -1.310   3.137  -0.169  0.00  0.00     0.002 A 
ATOM      4  C5  UNL d   1      -0.597   4.289  -0.493  0.00  0.00    -0.004 A 
ATOM      5  C6  UNL d   1       0.776   4.216  -0.726  0.00  0.00     0.002 A 
ATOM      6  C7  UNL d   1       1.435   2.989  -0.640  0.00  0.00     0.002 A 
ENDROOT
BRANCH   1   7
ATOM      7  C1  UNL d   1       1.429   0.491  -0.275  0.00  0.00     0.055 C 
ATOM      8  C   UNL d   1       1.355  -0.128   1.113  0.00  0.00     0.019 C 
ENDBRANCH   1   7
TORSDOF 1
ENDMDL
