MODEL 1
REMARK minimizedAffinity 3.21551943
REMARK minimizedRMSD -1
REMARK  1 active torsions:
REMARK  status: ('A' for Active; 'I' for Inactive)
REMARK    1  A    between atoms: C1_2  and  C2_3 
ROOT
ATOM      1  C2  UNL d   1       0.432   3.035  -0.537  0.00  0.00    -0.077 A 
ATOM      2  C3  UNL d   1       0.684   2.718   0.805  0.00  0.00     0.002 A 
ATOM      3  C4  UNL d   1       0.961   1.402   1.180  0.00  0.00     0.002 A 
ATOM      4  C5  UNL d   1       0.994   0.394   0.219  0.00  0.00    -0.004 A 
ATOM      5  C6  UNL d   1       0.743   0.699  -1.118  0.00  0.00     0.002 A 
ATOM      6  C7  UNL d   1       0.464   2.014  -1.495  0.00  0.00     0.002 A 
ENDROOT
BRANCH   1   7
ATOM      7  C1  UNL d   1       0.182   4.462  -0.951  0.00  0.00     0.055 C 
ATOM      8  C   UNL d   1       1.486   5.192  -1.238  0.00  0.00     0.019 C 
ENDBRANCH   1   7
TORSDOF 1
ENDMDL
