MODEL 1
REMARK minimizedAffinity -1.28695965
REMARK minimizedRMSD -1
REMARK  1 active torsions:
REMARK  status: ('A' for Active; 'I' for Inactive)
REMARK    1  A    between atoms: C1_2  and  C2_3 
ROOT
ATOM      1  C2  UNL d   1       0.257   2.780  -0.185  0.00  0.00    -0.077 A 
ATOM      2  C3  UNL d   1      -0.998   3.246  -0.601  0.00  0.00     0.002 A 
ATOM      3  C4  UNL d   1      -1.133   4.526  -1.142  0.00  0.00     0.002 A 
ATOM      4  C5  UNL d   1      -0.016   5.349  -1.276  0.00  0.00    -0.004 A 
ATOM      5  C6  UNL d   1       1.236   4.895  -0.864  0.00  0.00     0.002 A 
ATOM      6  C7  UNL d   1       1.372   3.616  -0.322  0.00  0.00     0.002 A 
ENDROOT
BRANCH   1   7
ATOM      7  C1  UNL d   1       0.412   1.382   0.352  0.00  0.00     0.055 C 
ATOM      8  C   UNL d   1       1.078   0.468  -0.666  0.00  0.00     0.019 C 
ENDBRANCH   1   7
TORSDOF 1
ENDMDL
