MODEL 1
REMARK minimizedAffinity 8.31591988
REMARK minimizedRMSD -1
REMARK  1 active torsions:
REMARK  status: ('A' for Active; 'I' for Inactive)
REMARK    1  A    between atoms: C1_2  and  C2_3 
ROOT
ATOM      1  C2  UNL d   1      -5.278   2.741  -3.771  0.00  0.00    -0.077 A 
ATOM      2  C3  UNL d   1      -3.902   2.945  -3.591  0.00  0.00     0.002 A 
ATOM      3  C4  UNL d   1      -3.263   4.027  -4.199  0.00  0.00     0.002 A 
ATOM      4  C5  UNL d   1      -3.991   4.915  -4.987  0.00  0.00    -0.004 A 
ATOM      5  C6  UNL d   1      -5.359   4.720  -5.174  0.00  0.00     0.002 A 
ATOM      6  C7  UNL d   1      -6.000   3.639  -4.568  0.00  0.00     0.002 A 
ENDROOT
BRANCH   1   7
ATOM      7  C1  UNL d   1      -5.978   1.603  -3.077  0.00  0.00     0.055 C 
ATOM      8  C   UNL d   1      -4.981   0.635  -2.456  0.00  0.00     0.019 C 
ENDBRANCH   1   7
TORSDOF 1
ENDMDL
