MODEL 1
REMARK minimizedAffinity 1.99106801
REMARK minimizedRMSD -1
REMARK  1 active torsions:
REMARK  status: ('A' for Active; 'I' for Inactive)
REMARK    1  A    between atoms: C1_2  and  C2_3 
ROOT
ATOM      1  C2  UNL d   1       1.503  -5.122  -2.534  0.00  0.00    -0.077 A 
ATOM      2  C3  UNL d   1       1.497  -3.786  -2.111  0.00  0.00     0.002 A 
ATOM      3  C4  UNL d   1       0.369  -2.986  -2.311  0.00  0.00     0.002 A 
ATOM      4  C5  UNL d   1      -0.761  -3.515  -2.930  0.00  0.00    -0.004 A 
ATOM      5  C6  UNL d   1      -0.764  -4.843  -3.356  0.00  0.00     0.002 A 
ATOM      6  C7  UNL d   1       0.362  -5.643  -3.159  0.00  0.00     0.002 A 
ENDROOT
BRANCH   1   7
ATOM      7  C1  UNL d   1       2.699  -6.000  -2.276  0.00  0.00     0.055 C 
ATOM      8  C   UNL d   1       3.684  -5.948  -3.435  0.00  0.00     0.019 C 
ENDBRANCH   1   7
TORSDOF 1
ENDMDL
