MODEL 1
REMARK minimizedAffinity 1.87975907
REMARK minimizedRMSD -1
REMARK  1 active torsions:
REMARK  status: ('A' for Active; 'I' for Inactive)
REMARK    1  A    between atoms: C1_2  and  C2_3 
ROOT
ATOM      1  C2  UNL d   1      -4.854   2.455  -3.527  0.00  0.00    -0.077 A 
ATOM      2  C3  UNL d   1      -3.704   3.250  -3.421  0.00  0.00     0.002 A 
ATOM      3  C4  UNL d   1      -3.702   4.558  -3.910  0.00  0.00     0.002 A 
ATOM      4  C5  UNL d   1      -4.847   5.084  -4.503  0.00  0.00    -0.004 A 
ATOM      5  C6  UNL d   1      -5.996   4.301  -4.614  0.00  0.00     0.002 A 
ATOM      6  C7  UNL d   1      -6.000   2.993  -4.128  0.00  0.00     0.002 A 
ENDROOT
BRANCH   1   7
ATOM      7  C1  UNL d   1      -4.875   1.061  -2.956  0.00  0.00     0.055 C 
ATOM      8  C   UNL d   1      -3.632   0.280  -3.359  0.00  0.00     0.019 C 
ENDBRANCH   1   7
TORSDOF 1
ENDMDL
