MODEL 1
REMARK minimizedAffinity 8.78464794
REMARK minimizedRMSD -1
REMARK  1 active torsions:
REMARK  status: ('A' for Active; 'I' for Inactive)
REMARK    1  A    between atoms: N_2  and  C1_3 
ROOT
ATOM      1  C1  UNL d   1      -5.174   2.490   5.461  0.00  0.00     0.143 A 
ATOM      2  C2  UNL d   1      -5.818   1.370   5.999  0.00  0.00    -0.057 A 
ATOM      3  C3  UNL d   1      -5.767   0.126   5.358  0.00  0.00     0.033 A 
ATOM      4  C4  UNL d   1      -5.094  -0.013   4.148  0.00  0.00    -0.042 A 
ATOM      5  C5  UNL d   1      -4.468   1.092   3.583  0.00  0.00     0.033 A 
ATOM      6  C6  UNL d   1      -4.516   2.330   4.231  0.00  0.00    -0.057 A 
ENDROOT
BRANCH   1   7
ATOM      7  N   UNL d   1      -5.270   3.775   6.000  0.00  0.00    -0.732 N 
ATOM      8  C   UNL d   1      -4.136   4.674   5.969  0.00  0.00     0.284 C 
ATOM      9  H3  UNL d   1      -6.159   4.221   5.786  0.00  0.00     0.395 HD
ENDBRANCH   1   7
TORSDOF 1
ENDMDL
