MODEL 1
REMARK minimizedAffinity 13.7683277
REMARK minimizedRMSD -1
REMARK  1 active torsions:
REMARK  status: ('A' for Active; 'I' for Inactive)
REMARK    1  A    between atoms: N_2  and  C1_3 
ROOT
ATOM      1  C1  UNL d   1      -5.345  -3.922  -3.069  0.00  0.00     0.143 A 
ATOM      2  C2  UNL d   1      -5.997  -5.074  -2.617  0.00  0.00    -0.057 A 
ATOM      3  C3  UNL d   1      -5.347  -6.000  -1.792  0.00  0.00     0.033 A 
ATOM      4  C4  UNL d   1      -4.019  -5.803  -1.427  0.00  0.00    -0.042 A 
ATOM      5  C5  UNL d   1      -3.344  -4.678  -1.886  0.00  0.00     0.033 A 
ATOM      6  C6  UNL d   1      -4.000  -3.754  -2.704  0.00  0.00    -0.057 A 
ENDROOT
BRANCH   1   7
ATOM      7  N   UNL d   1      -5.906  -3.014  -3.972  0.00  0.00    -0.732 N 
ATOM      8  C   UNL d   1      -6.000  -3.337  -5.379  0.00  0.00     0.284 C 
ATOM      9  H3  UNL d   1      -6.730  -2.552  -3.595  0.00  0.00     0.395 HD
ENDBRANCH   1   7
TORSDOF 1
ENDMDL
