MODEL 1
REMARK minimizedAffinity 2.46803308
REMARK minimizedRMSD -1
REMARK  1 active torsions:
REMARK  status: ('A' for Active; 'I' for Inactive)
REMARK    1  A    between atoms: N_2  and  C1_3 
ROOT
ATOM      1  C1  UNL d   1       4.820   3.064  -4.288  0.00  0.00     0.143 A 
ATOM      2  C2  UNL d   1       5.998   3.759  -4.582  0.00  0.00    -0.057 A 
ATOM      3  C3  UNL d   1       5.988   4.882  -5.418  0.00  0.00     0.033 A 
ATOM      4  C4  UNL d   1       4.801   5.314  -6.000  0.00  0.00    -0.042 A 
ATOM      5  C5  UNL d   1       3.622   4.623  -5.741  0.00  0.00     0.033 A 
ATOM      6  C6  UNL d   1       3.637   3.506  -4.900  0.00  0.00    -0.057 A 
ENDROOT
BRANCH   1   7
ATOM      7  N   UNL d   1       4.780   1.882  -3.543  0.00  0.00    -0.732 N 
ATOM      8  C   UNL d   1       4.176   1.859  -2.228  0.00  0.00     0.284 C 
ATOM      9  H3  UNL d   1       4.561   1.070  -4.115  0.00  0.00     0.395 HD
ENDBRANCH   1   7
TORSDOF 1
ENDMDL
