MODEL 1
REMARK minimizedAffinity 13.5529795
REMARK minimizedRMSD -1
REMARK  1 active torsions:
REMARK  status: ('A' for Active; 'I' for Inactive)
REMARK    1  A    between atoms: N_2  and  C1_3 
ROOT
ATOM      1  C1  UNL d   1       2.621   0.990   1.706  0.00  0.00     0.143 A 
ATOM      2  C2  UNL d   1       2.524   2.197   1.005  0.00  0.00    -0.057 A 
ATOM      3  C3  UNL d   1       1.506   3.117   1.282  0.00  0.00     0.033 A 
ATOM      4  C4  UNL d   1       0.546   2.832   2.248  0.00  0.00    -0.042 A 
ATOM      5  C5  UNL d   1       0.609   1.628   2.940  0.00  0.00     0.033 A 
ATOM      6  C6  UNL d   1       1.632   0.716   2.663  0.00  0.00    -0.057 A 
ENDROOT
BRANCH   1   7
ATOM      7  N   UNL d   1       3.552  -0.009   1.409  0.00  0.00    -0.732 N 
ATOM      8  C   UNL d   1       4.530  -0.422   2.393  0.00  0.00     0.284 C 
ATOM      9  H3  UNL d   1       3.142  -0.777   0.882  0.00  0.00     0.395 HD
ENDBRANCH   1   7
TORSDOF 1
ENDMDL
