MODEL 1
REMARK minimizedAffinity 9.94960117
REMARK minimizedRMSD -1
REMARK  1 active torsions:
REMARK  status: ('A' for Active; 'I' for Inactive)
REMARK    1  A    between atoms: N_2  and  C1_3 
ROOT
ATOM      1  C1  UNL d   1       2.969   2.967  -4.992  0.00  0.00     0.143 A 
ATOM      2  C2  UNL d   1       3.246   3.897  -5.999  0.00  0.00    -0.057 A 
ATOM      3  C3  UNL d   1       2.879   5.242  -5.866  0.00  0.00     0.033 A 
ATOM      4  C4  UNL d   1       2.201   5.675  -4.732  0.00  0.00    -0.042 A 
ATOM      5  C5  UNL d   1       1.893   4.763  -3.729  0.00  0.00     0.033 A 
ATOM      6  C6  UNL d   1       2.267   3.423  -3.865  0.00  0.00    -0.057 A 
ENDROOT
BRANCH   1   7
ATOM      7  N   UNL d   1       3.220   1.597  -5.108  0.00  0.00    -0.732 N 
ATOM      8  C   UNL d   1       4.533   1.062  -4.821  0.00  0.00     0.284 C 
ATOM      9  H3  UNL d   1       2.453   1.031  -4.753  0.00  0.00     0.395 HD
ENDBRANCH   1   7
TORSDOF 1
ENDMDL
