MODEL 1
REMARK minimizedAffinity 8.58038235
REMARK minimizedRMSD -1
REMARK  1 active torsions:
REMARK  status: ('A' for Active; 'I' for Inactive)
REMARK    1  A    between atoms: N_2  and  C1_3 
ROOT
ATOM      1  C1  UNL d   1      -1.996  -5.302   0.556  0.00  0.00     0.143 A 
ATOM      2  C2  UNL d   1      -1.583  -3.972   0.686  0.00  0.00    -0.057 A 
ATOM      3  C3  UNL d   1      -1.449  -3.372   1.944  0.00  0.00     0.033 A 
ATOM      4  C4  UNL d   1      -1.755  -4.087   3.097  0.00  0.00    -0.042 A 
ATOM      5  C5  UNL d   1      -2.190  -5.403   2.991  0.00  0.00     0.033 A 
ATOM      6  C6  UNL d   1      -2.316  -5.998   1.732  0.00  0.00    -0.057 A 
ENDROOT
BRANCH   1   7
ATOM      7  N   UNL d   1      -2.243  -5.924  -0.670  0.00  0.00    -0.732 N 
ATOM      8  C   UNL d   1      -3.587  -5.999  -1.202  0.00  0.00     0.284 C 
ATOM      9  H3  UNL d   1      -1.532  -5.707  -1.366  0.00  0.00     0.395 HD
ENDBRANCH   1   7
TORSDOF 1
ENDMDL
