MODEL 1
REMARK minimizedAffinity 8.71003914
REMARK minimizedRMSD -1
REMARK  1 active torsions:
REMARK  status: ('A' for Active; 'I' for Inactive)
REMARK    1  A    between atoms: N_2  and  C1_3 
ROOT
ATOM      1  C1  UNL d   1      -4.907  -3.679  -3.379  0.00  0.00     0.143 A 
ATOM      2  C2  UNL d   1      -4.972  -4.968  -2.841  0.00  0.00    -0.057 A 
ATOM      3  C3  UNL d   1      -3.826  -5.614  -2.362  0.00  0.00     0.033 A 
ATOM      4  C4  UNL d   1      -2.585  -4.990  -2.440  0.00  0.00    -0.042 A 
ATOM      5  C5  UNL d   1      -2.493  -3.718  -2.994  0.00  0.00     0.033 A 
ATOM      6  C6  UNL d   1      -3.642  -3.076  -3.464  0.00  0.00    -0.057 A 
ENDROOT
BRANCH   1   7
ATOM      7  N   UNL d   1      -5.995  -3.023  -3.962  0.00  0.00    -0.732 N 
ATOM      8  C   UNL d   1      -5.998  -2.713  -5.375  0.00  0.00     0.284 C 
ATOM      9  H3  UNL d   1      -6.887  -3.361  -3.608  0.00  0.00     0.395 HD
ENDBRANCH   1   7
TORSDOF 1
ENDMDL
