MODEL 1
REMARK minimizedAffinity 14.0927486
REMARK minimizedRMSD -1
REMARK  1 active torsions:
REMARK  status: ('A' for Active; 'I' for Inactive)
REMARK    1  A    between atoms: N_2  and  C1_3 
ROOT
ATOM      1  C1  UNL d   1       3.747   1.472  -4.639  0.00  0.00     0.143 A 
ATOM      2  C2  UNL d   1       2.960   2.322  -5.423  0.00  0.00    -0.057 A 
ATOM      3  C3  UNL d   1       2.199   3.345  -4.845  0.00  0.00     0.033 A 
ATOM      4  C4  UNL d   1       2.189   3.518  -3.465  0.00  0.00    -0.042 A 
ATOM      5  C5  UNL d   1       2.945   2.669  -2.664  0.00  0.00     0.033 A 
ATOM      6  C6  UNL d   1       3.708   1.653  -3.248  0.00  0.00    -0.057 A 
ENDROOT
BRANCH   1   7
ATOM      7  N   UNL d   1       4.449   0.374  -5.145  0.00  0.00    -0.732 N 
ATOM      8  C   UNL d   1       3.742  -0.784  -5.647  0.00  0.00     0.284 C 
ATOM      9  H3  UNL d   1       5.248   0.652  -5.711  0.00  0.00     0.395 HD
ENDBRANCH   1   7
TORSDOF 1
ENDMDL
