MODEL 1
REMARK minimizedAffinity 10.6705809
REMARK minimizedRMSD -1
REMARK  1 active torsions:
REMARK  status: ('A' for Active; 'I' for Inactive)
REMARK    1  A    between atoms: N_2  and  C1_3 
ROOT
ATOM      1  C1  UNL d   1      -1.678  -2.221  -1.231  0.00  0.00     0.143 A 
ATOM      2  C2  UNL d   1      -2.755  -2.169  -0.340  0.00  0.00    -0.057 A 
ATOM      3  C3  UNL d   1      -2.613  -2.566   0.995  0.00  0.00     0.033 A 
ATOM      4  C4  UNL d   1      -1.393  -3.051   1.457  0.00  0.00    -0.042 A 
ATOM      5  C5  UNL d   1      -0.316  -3.135   0.582  0.00  0.00     0.033 A 
ATOM      6  C6  UNL d   1      -0.463  -2.731  -0.748  0.00  0.00    -0.057 A 
ENDROOT
BRANCH   1   7
ATOM      7  N   UNL d   1      -1.782  -1.934  -2.594  0.00  0.00    -0.732 N 
ATOM      8  C   UNL d   1      -2.203  -2.952  -3.532  0.00  0.00     0.284 C 
ATOM      9  H3  UNL d   1      -2.186  -1.016  -2.768  0.00  0.00     0.395 HD
ENDBRANCH   1   7
TORSDOF 1
ENDMDL
