MODEL 1
REMARK minimizedAffinity 19.1587963
REMARK minimizedRMSD -1
REMARK  1 active torsions:
REMARK  status: ('A' for Active; 'I' for Inactive)
REMARK    1  A    between atoms: N_2  and  C1_3 
ROOT
ATOM      1  C1  UNL d   1      -2.343  -3.237  -0.236  0.00  0.00     0.143 A 
ATOM      2  C2  UNL d   1      -2.957  -4.385   0.277  0.00  0.00    -0.057 A 
ATOM      3  C3  UNL d   1      -2.627  -4.879   1.545  0.00  0.00     0.033 A 
ATOM      4  C4  UNL d   1      -1.653  -4.249   2.313  0.00  0.00    -0.042 A 
ATOM      5  C5  UNL d   1      -1.013  -3.120   1.813  0.00  0.00     0.033 A 
ATOM      6  C6  UNL d   1      -1.351  -2.627   0.549  0.00  0.00    -0.057 A 
ENDROOT
BRANCH   1   7
ATOM      7  N   UNL d   1      -2.557  -2.752  -1.528  0.00  0.00    -0.732 N 
ATOM      8  C   UNL d   1      -3.017  -3.634  -2.579  0.00  0.00     0.284 C 
ATOM      9  H3  UNL d   1      -2.998  -1.836  -1.532  0.00  0.00     0.395 HD
ENDBRANCH   1   7
TORSDOF 1
ENDMDL
