MODEL 1
REMARK minimizedAffinity 11.7196455
REMARK minimizedRMSD -1
REMARK  1 active torsions:
REMARK  status: ('A' for Active; 'I' for Inactive)
REMARK    1  A    between atoms: N_2  and  C1_3 
ROOT
ATOM      1  C1  UNL d   1       3.844   0.925  -4.032  0.00  0.00     0.143 A 
ATOM      2  C2  UNL d   1       2.934   1.901  -4.454  0.00  0.00    -0.057 A 
ATOM      3  C3  UNL d   1       2.330   2.774  -3.542  0.00  0.00     0.033 A 
ATOM      4  C4  UNL d   1       2.605   2.668  -2.182  0.00  0.00    -0.042 A 
ATOM      5  C5  UNL d   1       3.487   1.689  -1.737  0.00  0.00     0.033 A 
ATOM      6  C6  UNL d   1       4.092   0.825  -2.654  0.00  0.00    -0.057 A 
ENDROOT
BRANCH   1   7
ATOM      7  N   UNL d   1       4.402  -0.036  -4.879  0.00  0.00    -0.732 N 
ATOM      8  C   UNL d   1       3.635  -1.194  -5.285  0.00  0.00     0.284 C 
ATOM      9  H3  UNL d   1       4.957   0.378  -5.624  0.00  0.00     0.395 HD
ENDBRANCH   1   7
TORSDOF 1
ENDMDL
