MODEL 1
REMARK minimizedAffinity 3.69895363
REMARK minimizedRMSD -1
REMARK  1 active torsions:
REMARK  status: ('A' for Active; 'I' for Inactive)
REMARK    1  A    between atoms: N_2  and  C1_3 
ROOT
ATOM      1  C1  UNL d   1       1.233   1.950   3.062  0.00  0.00     0.143 A 
ATOM      2  C2  UNL d   1       2.283   1.113   2.668  0.00  0.00    -0.057 A 
ATOM      3  C3  UNL d   1       2.765   0.107   3.513  0.00  0.00     0.033 A 
ATOM      4  C4  UNL d   1       2.223  -0.063   4.783  0.00  0.00    -0.042 A 
ATOM      5  C5  UNL d   1       1.195   0.774   5.205  0.00  0.00     0.033 A 
ATOM      6  C6  UNL d   1       0.714   1.773   4.354  0.00  0.00    -0.057 A 
ENDROOT
BRANCH   1   7
ATOM      7  N   UNL d   1       0.776   3.032   2.306  0.00  0.00    -0.732 N 
ATOM      8  C   UNL d   1       1.696   4.047   1.839  0.00  0.00     0.284 C 
ATOM      9  H3  UNL d   1       0.076   2.759   1.620  0.00  0.00     0.395 HD
ENDBRANCH   1   7
TORSDOF 1
ENDMDL
