MODEL 1
REMARK minimizedAffinity 5.54456615
REMARK minimizedRMSD -1
REMARK  1 active torsions:
REMARK  status: ('A' for Active; 'I' for Inactive)
REMARK    1  A    between atoms: N_2  and  C1_3 
ROOT
ATOM      1  C1  UNL d   1      -1.059  -3.608   1.104  0.00  0.00     0.143 A 
ATOM      2  C2  UNL d   1      -2.164  -3.390   0.274  0.00  0.00    -0.057 A 
ATOM      3  C3  UNL d   1      -2.713  -2.112   0.118  0.00  0.00     0.033 A 
ATOM      4  C4  UNL d   1      -2.183  -1.031   0.814  0.00  0.00    -0.042 A 
ATOM      5  C5  UNL d   1      -1.101  -1.228   1.664  0.00  0.00     0.033 A 
ATOM      6  C6  UNL d   1      -0.552  -2.506   1.810  0.00  0.00    -0.057 A 
ENDROOT
BRANCH   1   7
ATOM      7  N   UNL d   1      -0.528  -4.872   1.377  0.00  0.00    -0.732 N 
ATOM      8  C   UNL d   1      -1.400  -5.992   1.658  0.00  0.00     0.284 C 
ATOM      9  H3  UNL d   1       0.261  -5.100   0.777  0.00  0.00     0.395 HD
ENDBRANCH   1   7
TORSDOF 1
ENDMDL
