MODEL 1
REMARK minimizedAffinity 3.26650143
REMARK minimizedRMSD -1
REMARK  1 active torsions:
REMARK  status: ('A' for Active; 'I' for Inactive)
REMARK    1  A    between atoms: N_2  and  C1_3 
ROOT
ATOM      1  C1  UNL d   1       3.973   0.547   1.720  0.00  0.00     0.143 A 
ATOM      2  C2  UNL d   1       4.986  -0.209   1.121  0.00  0.00    -0.057 A 
ATOM      3  C3  UNL d   1       5.999   0.400   0.370  0.00  0.00     0.033 A 
ATOM      4  C4  UNL d   1       6.000   1.778   0.179  0.00  0.00    -0.042 A 
ATOM      5  C5  UNL d   1       4.989   2.547   0.745  0.00  0.00     0.033 A 
ATOM      6  C6  UNL d   1       3.984   1.934   1.500  0.00  0.00    -0.057 A 
ENDROOT
BRANCH   1   7
ATOM      7  N   UNL d   1       2.884  -0.008   2.396  0.00  0.00    -0.732 N 
ATOM      8  C   UNL d   1       1.562   0.564   2.260  0.00  0.00     0.284 C 
ATOM      9  H3  UNL d   1       2.900  -1.025   2.388  0.00  0.00     0.395 HD
ENDBRANCH   1   7
TORSDOF 1
ENDMDL
