MODEL 1
REMARK minimizedAffinity 3.99650812
REMARK minimizedRMSD -1
REMARK  1 active torsions:
REMARK  status: ('A' for Active; 'I' for Inactive)
REMARK    1  A    between atoms: N_2  and  C1_3 
ROOT
ATOM      1  C1  UNL d   1       3.846   3.708  -5.882  0.00  0.00     0.143 A 
ATOM      2  C2  UNL d   1       2.726   2.871  -5.917  0.00  0.00    -0.057 A 
ATOM      3  C3  UNL d   1       2.862   1.478  -5.957  0.00  0.00     0.033 A 
ATOM      4  C4  UNL d   1       4.125   0.897  -5.991  0.00  0.00    -0.042 A 
ATOM      5  C5  UNL d   1       5.253   1.710  -5.982  0.00  0.00     0.033 A 
ATOM      6  C6  UNL d   1       5.110   3.100  -5.935  0.00  0.00    -0.057 A 
ENDROOT
BRANCH   1   7
ATOM      7  N   UNL d   1       3.777   5.102  -5.941  0.00  0.00    -0.732 N 
ATOM      8  C   UNL d   1       4.985   5.898  -6.000  0.00  0.00     0.284 C 
ATOM      9  H3  UNL d   1       3.034   5.429  -6.555  0.00  0.00     0.395 HD
ENDBRANCH   1   7
TORSDOF 1
ENDMDL
