MODEL 1
REMARK minimizedAffinity -1.16848493
REMARK minimizedRMSD -1
REMARK  0 active torsions:
REMARK  status: ('A' for Active; 'I' for Inactive)
ROOT
ATOM      1  C   UNL d   1      -1.285  -1.451  -4.577  0.00  0.00     0.077 C 
ATOM      2  C1  UNL d   1      -0.348  -0.622  -3.750  0.00  0.00    -0.074 A 
ATOM      3  C2  UNL d   1       0.504   0.312  -4.348  0.00  0.00    -0.005 A 
ATOM      4  C3  UNL d   1       1.363   1.083  -3.565  0.00  0.00     0.006 A 
ATOM      5  C4  UNL d   1       1.380   0.928  -2.179  0.00  0.00    -0.005 A 
ATOM      6  C5  UNL d   1       0.534  -0.000  -1.563  0.00  0.00    -0.074 A 
ATOM      7  C6  UNL d   1       0.532  -0.172  -0.073  0.00  0.00     0.077 C 
ATOM      8  C7  UNL d   1      -0.332  -0.766  -2.355  0.00  0.00    -0.001 A 
ENDROOT
TORSDOF 0
ENDMDL
