MODEL 1
REMARK minimizedAffinity -4.39562988
REMARK minimizedRMSD -1
REMARK  0 active torsions:
REMARK  status: ('A' for Active; 'I' for Inactive)
ROOT
ATOM      1  C   UNL d   1       1.173   0.809   3.171  0.00  0.00     0.077 C 
ATOM      2  C1  UNL d   1       0.303   0.458   2.000  0.00  0.00    -0.074 A 
ATOM      3  C2  UNL d   1      -1.088   0.581   2.076  0.00  0.00    -0.005 A 
ATOM      4  C3  UNL d   1      -1.884   0.260   0.977  0.00  0.00     0.006 A 
ATOM      5  C4  UNL d   1      -1.298  -0.186  -0.208  0.00  0.00    -0.005 A 
ATOM      6  C5  UNL d   1       0.092  -0.315  -0.303  0.00  0.00    -0.074 A 
ATOM      7  C6  UNL d   1       0.739  -0.783  -1.573  0.00  0.00     0.077 C 
ATOM      8  C7  UNL d   1       0.885   0.016   0.804  0.00  0.00    -0.001 A 
ENDROOT
TORSDOF 0
ENDMDL
