MODEL 1
REMARK minimizedAffinity -4.32963181
REMARK minimizedRMSD -1
REMARK  0 active torsions:
REMARK  status: ('A' for Active; 'I' for Inactive)
ROOT
ATOM      1  C   UNL d   1      -0.367   1.479   3.141  0.00  0.00     0.077 C 
ATOM      2  C1  UNL d   1      -0.779   0.940   1.803  0.00  0.00    -0.074 A 
ATOM      3  C2  UNL d   1      -2.110   1.009   1.379  0.00  0.00    -0.005 A 
ATOM      4  C3  UNL d   1      -2.476   0.512   0.128  0.00  0.00     0.006 A 
ATOM      5  C4  UNL d   1      -1.516  -0.058  -0.710  0.00  0.00    -0.005 A 
ATOM      6  C5  UNL d   1      -0.181  -0.135  -0.303  0.00  0.00    -0.074 A 
ATOM      7  C6  UNL d   1       0.865  -0.736  -1.195  0.00  0.00     0.077 C 
ATOM      8  C7  UNL d   1       0.181   0.373   0.953  0.00  0.00    -0.001 A 
ENDROOT
TORSDOF 0
ENDMDL
