MODEL 1
REMARK minimizedAffinity -4.87850904
REMARK minimizedRMSD -1
REMARK  0 active torsions:
REMARK  status: ('A' for Active; 'I' for Inactive)
ROOT
ATOM      1  C   UNL d   1      -0.154   1.271   3.713  0.00  0.00     0.077 C 
ATOM      2  C1  UNL d   1       0.206   0.485   2.487  0.00  0.00    -0.074 A 
ATOM      3  C2  UNL d   1       1.389  -0.260   2.433  0.00  0.00    -0.005 A 
ATOM      4  C3  UNL d   1       1.706  -0.993   1.290  0.00  0.00     0.006 A 
ATOM      5  C4  UNL d   1       0.846  -0.989   0.191  0.00  0.00    -0.005 A 
ATOM      6  C5  UNL d   1      -0.341  -0.251   0.227  0.00  0.00    -0.074 A 
ATOM      7  C6  UNL d   1      -1.282  -0.244  -0.941  0.00  0.00     0.077 C 
ATOM      8  C7  UNL d   1      -0.657   0.478   1.382  0.00  0.00    -0.001 A 
ENDROOT
TORSDOF 0
ENDMDL
