MODEL 1
REMARK minimizedAffinity -5.34538269
REMARK minimizedRMSD -1
REMARK  0 active torsions:
REMARK  status: ('A' for Active; 'I' for Inactive)
ROOT
ATOM      1  C   UNL d   1       0.320  -0.838  -1.180  0.00  0.00     0.077 C 
ATOM      2  C1  UNL d   1       0.593  -0.385   0.223  0.00  0.00    -0.074 A 
ATOM      3  C2  UNL d   1       1.706  -0.856   0.927  0.00  0.00    -0.005 A 
ATOM      4  C3  UNL d   1       1.952  -0.417   2.228  0.00  0.00     0.006 A 
ATOM      5  C4  UNL d   1       1.090   0.495   2.837  0.00  0.00    -0.005 A 
ATOM      6  C5  UNL d   1      -0.028   0.978   2.149  0.00  0.00    -0.074 A 
ATOM      7  C6  UNL d   1      -0.959   1.966   2.785  0.00  0.00     0.077 C 
ATOM      8  C7  UNL d   1      -0.265   0.538   0.839  0.00  0.00    -0.001 A 
ENDROOT
TORSDOF 0
ENDMDL
