MODEL 1
REMARK minimizedAffinity -6.44638872
REMARK minimizedRMSD -1
REMARK  0 active torsions:
REMARK  status: ('A' for Active; 'I' for Inactive)
ROOT
ATOM      1  C   UNL d   1      -1.150   0.325  -0.354  0.00  0.00     0.077 C 
ATOM      2  C1  UNL d   1      -0.598   0.427   1.037  0.00  0.00    -0.074 A 
ATOM      3  C2  UNL d   1      -1.357   0.984   2.071  0.00  0.00    -0.005 A 
ATOM      4  C3  UNL d   1      -0.834   1.064   3.362  0.00  0.00     0.006 A 
ATOM      5  C4  UNL d   1       0.450   0.588   3.631  0.00  0.00    -0.005 A 
ATOM      6  C5  UNL d   1       1.223   0.027   2.609  0.00  0.00    -0.074 A 
ATOM      7  C6  UNL d   1       2.601  -0.498   2.883  0.00  0.00     0.077 C 
ATOM      8  C7  UNL d   1       0.688  -0.056   1.316  0.00  0.00    -0.001 A 
ENDROOT
TORSDOF 0
ENDMDL
