MODEL 1
REMARK minimizedAffinity -5.09056187
REMARK minimizedRMSD -1
REMARK  0 active torsions:
REMARK  status: ('A' for Active; 'I' for Inactive)
ROOT
ATOM      1  C   UNL d   1       2.391  -0.378   3.004  0.00  0.00     0.077 C 
ATOM      2  C1  UNL d   1       1.165  -0.091   2.189  0.00  0.00    -0.074 A 
ATOM      3  C2  UNL d   1       0.022   0.458   2.779  0.00  0.00    -0.005 A 
ATOM      4  C3  UNL d   1      -1.108   0.728   2.006  0.00  0.00     0.006 A 
ATOM      5  C4  UNL d   1      -1.105   0.453   0.638  0.00  0.00    -0.005 A 
ATOM      6  C5  UNL d   1       0.029  -0.095   0.031  0.00  0.00    -0.074 A 
ATOM      7  C6  UNL d   1       0.051  -0.388  -1.440  0.00  0.00     0.077 C 
ATOM      8  C7  UNL d   1       1.162  -0.357   0.812  0.00  0.00    -0.001 A 
ENDROOT
TORSDOF 0
ENDMDL
