MODEL 1
REMARK minimizedAffinity -6.09787226
REMARK minimizedRMSD -1
REMARK  0 active torsions:
REMARK  status: ('A' for Active; 'I' for Inactive)
ROOT
ATOM      1  C   UNL d   1       0.318  -0.119  -1.017  0.00  0.00     0.077 C 
ATOM      2  C1  UNL d   1      -0.119   0.223   0.376  0.00  0.00    -0.074 A 
ATOM      3  C2  UNL d   1      -1.405   0.715   0.626  0.00  0.00    -0.005 A 
ATOM      4  C3  UNL d   1      -1.800   1.019   1.928  0.00  0.00     0.006 A 
ATOM      5  C4  UNL d   1      -0.916   0.835   2.992  0.00  0.00    -0.005 A 
ATOM      6  C5  UNL d   1       0.372   0.343   2.762  0.00  0.00    -0.074 A 
ATOM      7  C6  UNL d   1       1.331   0.130   3.895  0.00  0.00     0.077 C 
ATOM      8  C7  UNL d   1       0.760   0.033   1.451  0.00  0.00    -0.001 A 
ENDROOT
TORSDOF 0
ENDMDL
