MODEL 1
REMARK minimizedAffinity -5.48477507
REMARK minimizedRMSD -1
REMARK  0 active torsions:
REMARK  status: ('A' for Active; 'I' for Inactive)
ROOT
ATOM      1  C   UNL d   1       2.478   0.430   3.197  0.00  0.00     0.077 C 
ATOM      2  C1  UNL d   1       1.192   0.471   2.427  0.00  0.00    -0.074 A 
ATOM      3  C2  UNL d   1       0.037   1.027   2.985  0.00  0.00    -0.005 A 
ATOM      4  C3  UNL d   1      -1.149   1.066   2.253  0.00  0.00     0.006 A 
ATOM      5  C4  UNL d   1      -1.193   0.551   0.957  0.00  0.00    -0.005 A 
ATOM      6  C5  UNL d   1      -0.047  -0.008   0.382  0.00  0.00    -0.074 A 
ATOM      7  C6  UNL d   1      -0.074  -0.558  -1.014  0.00  0.00     0.077 C 
ATOM      8  C7  UNL d   1       1.143  -0.038   1.121  0.00  0.00    -0.001 A 
ENDROOT
TORSDOF 0
ENDMDL
