MODEL 1
REMARK minimizedAffinity -4.1828723
REMARK minimizedRMSD -1
REMARK  0 active torsions:
REMARK  status: ('A' for Active; 'I' for Inactive)
ROOT
ATOM      1  C   UNL d   1       2.475  -0.818   1.078  0.00  0.00     0.077 C 
ATOM      2  C1  UNL d   1       1.191  -0.245   1.602  0.00  0.00    -0.074 A 
ATOM      3  C2  UNL d   1       1.026   0.019   2.965  0.00  0.00    -0.005 A 
ATOM      4  C3  UNL d   1      -0.170   0.561   3.436  0.00  0.00     0.006 A 
ATOM      5  C4  UNL d   1      -1.211   0.843   2.550  0.00  0.00    -0.005 A 
ATOM      6  C5  UNL d   1      -1.063   0.587   1.183  0.00  0.00    -0.074 A 
ATOM      7  C6  UNL d   1      -2.167   0.895   0.216  0.00  0.00     0.077 C 
ATOM      8  C7  UNL d   1       0.145   0.049   0.717  0.00  0.00    -0.001 A 
ENDROOT
TORSDOF 0
ENDMDL
