MODEL 1
REMARK minimizedAffinity 12.0744562
REMARK minimizedRMSD -1
REMARK  0 active torsions:
REMARK  status: ('A' for Active; 'I' for Inactive)
ROOT
ATOM      1  C   UNL d   1       0.946   0.894  -0.786  0.00  0.00     0.124 A 
ATOM      2  C1  UNL d   1       1.875   1.717  -0.164  0.00  0.00     0.062 A 
ATOM      3  C2  UNL d   1       1.892   1.829   1.223  0.00  0.00     0.162 A 
ATOM      4  C3  UNL d   1       0.978   1.115   1.998  0.00  0.00    -0.034 A 
ATOM      5  C4  UNL d   1       0.047   0.290   1.365  0.00  0.00     0.162 A 
ATOM      6  C5  UNL d   1       0.034   0.182  -0.021  0.00  0.00     0.062 A 
ATOM      7  F   UNL d   1      -0.864  -0.614  -0.621  0.00  0.00    -0.097 F 
ATOM      8  F1  UNL d   1      -0.846  -0.410   2.080  0.00  0.00    -0.096 F 
ATOM      9  I   UNL d   1       1.000   1.280   4.073  0.00  0.00    -0.060 I 
ATOM     10  F2  UNL d   1       2.800   2.632   1.798  0.00  0.00    -0.096 F 
ATOM     11  F3  UNL d   1       2.757   2.407  -0.901  0.00  0.00    -0.097 F 
ATOM     12  F4  UNL d   1       0.932   0.788  -2.121  0.00  0.00    -0.092 F 
ENDROOT
TORSDOF 0
ENDMDL
