MODEL 1
REMARK minimizedAffinity 12.2011671
REMARK minimizedRMSD -1
REMARK  0 active torsions:
REMARK  status: ('A' for Active; 'I' for Inactive)
ROOT
ATOM      1  C   UNL d   1       4.215   2.500  -4.545  0.00  0.00     0.124 A 
ATOM      2  C1  UNL d   1       2.856   2.225  -4.594  0.00  0.00     0.062 A 
ATOM      3  C2  UNL d   1       1.952   3.222  -4.951  0.00  0.00     0.162 A 
ATOM      4  C3  UNL d   1       2.405   4.503  -5.263  0.00  0.00    -0.034 A 
ATOM      5  C4  UNL d   1       3.774   4.773  -5.211  0.00  0.00     0.162 A 
ATOM      6  C5  UNL d   1       4.673   3.774  -4.854  0.00  0.00     0.062 A 
ATOM      7  F   UNL d   1       5.986   4.041  -4.807  0.00  0.00    -0.097 F 
ATOM      8  F1  UNL d   1       4.243   5.994  -5.506  0.00  0.00    -0.096 F 
ATOM      9  I   UNL d   1       1.057   5.996  -5.798  0.00  0.00    -0.060 I 
ATOM     10  F2  UNL d   1       0.644   2.927  -4.989  0.00  0.00    -0.096 F 
ATOM     11  F3  UNL d   1       2.411   0.996  -4.295  0.00  0.00    -0.097 F 
ATOM     12  F4  UNL d   1       5.082   1.540  -4.200  0.00  0.00    -0.092 F 
ENDROOT
TORSDOF 0
ENDMDL
