MODEL 1
REMARK minimizedAffinity 11.9411545
REMARK minimizedRMSD -1
REMARK  0 active torsions:
REMARK  status: ('A' for Active; 'I' for Inactive)
ROOT
ATOM      1  C   UNL d   1      -2.429  -1.322  -2.640  0.00  0.00     0.124 A 
ATOM      2  C1  UNL d   1      -1.094  -1.203  -3.000  0.00  0.00     0.062 A 
ATOM      3  C2  UNL d   1      -0.213  -0.486  -2.195  0.00  0.00     0.162 A 
ATOM      4  C3  UNL d   1      -0.665   0.117  -1.021  0.00  0.00    -0.034 A 
ATOM      5  C4  UNL d   1      -2.009  -0.006  -0.666  0.00  0.00     0.162 A 
ATOM      6  C5  UNL d   1      -2.885  -0.724  -1.473  0.00  0.00     0.062 A 
ATOM      7  F   UNL d   1      -4.175  -0.838  -1.124  0.00  0.00    -0.097 F 
ATOM      8  F1  UNL d   1      -2.476   0.561   0.456  0.00  0.00    -0.096 F 
ATOM      9  I   UNL d   1       0.649   1.190   0.185  0.00  0.00    -0.060 I 
ATOM     10  F2  UNL d   1       1.071  -0.387  -2.568  0.00  0.00    -0.096 F 
ATOM     11  F3  UNL d   1      -0.651  -1.779  -4.127  0.00  0.00    -0.097 F 
ATOM     12  F4  UNL d   1      -3.275  -2.011  -3.416  0.00  0.00    -0.092 F 
ENDROOT
TORSDOF 0
ENDMDL
