MODEL 1
REMARK minimizedAffinity 15.5878286
REMARK minimizedRMSD -1
REMARK  0 active torsions:
REMARK  status: ('A' for Active; 'I' for Inactive)
ROOT
ATOM      1  C   UNL d   1       0.588   2.614   1.637  0.00  0.00     0.124 A 
ATOM      2  C1  UNL d   1       1.123   2.950   0.401  0.00  0.00     0.062 A 
ATOM      3  C2  UNL d   1       1.157   2.009  -0.625  0.00  0.00     0.162 A 
ATOM      4  C3  UNL d   1       0.654   0.725  -0.419  0.00  0.00    -0.034 A 
ATOM      5  C4  UNL d   1       0.119   0.395   0.827  0.00  0.00     0.162 A 
ATOM      6  C5  UNL d   1       0.087   1.338   1.849  0.00  0.00     0.062 A 
ATOM      7  F   UNL d   1      -0.431   1.012   3.043  0.00  0.00    -0.097 F 
ATOM      8  F1  UNL d   1      -0.374  -0.831   1.058  0.00  0.00    -0.096 F 
ATOM      9  I   UNL d   1       0.704  -0.684  -1.951  0.00  0.00    -0.060 I 
ATOM     10  F2  UNL d   1       1.680   2.361  -1.809  0.00  0.00    -0.096 F 
ATOM     11  F3  UNL d   1       1.609   4.182   0.194  0.00  0.00    -0.097 F 
ATOM     12  F4  UNL d   1       0.557   3.521   2.623  0.00  0.00    -0.092 F 
ENDROOT
TORSDOF 0
ENDMDL
