MODEL 1
REMARK minimizedAffinity 2.80715418
REMARK minimizedRMSD -1
REMARK  0 active torsions:
REMARK  status: ('A' for Active; 'I' for Inactive)
ROOT
ATOM      1  C   UNL d   1      -2.411   5.996  -1.651  0.00  0.00     0.124 A 
ATOM      2  C1  UNL d   1      -1.074   5.994  -1.280  0.00  0.00     0.062 A 
ATOM      3  C2  UNL d   1      -0.078   5.994  -2.253  0.00  0.00     0.162 A 
ATOM      4  C3  UNL d   1      -0.415   5.996  -3.606  0.00  0.00    -0.034 A 
ATOM      5  C4  UNL d   1      -1.763   5.997  -3.971  0.00  0.00     0.162 A 
ATOM      6  C5  UNL d   1      -2.754   5.998  -2.996  0.00  0.00     0.062 A 
ATOM      7  F   UNL d   1      -4.046   6.000  -3.356  0.00  0.00    -0.097 F 
ATOM      8  F1  UNL d   1      -2.123   6.000  -5.263  0.00  0.00    -0.096 F 
ATOM      9  I   UNL d   1       1.071   5.996  -5.063  0.00  0.00    -0.060 I 
ATOM     10  F2  UNL d   1       1.206   5.992  -1.865  0.00  0.00    -0.096 F 
ATOM     11  F3  UNL d   1      -0.740   5.992   0.018  0.00  0.00    -0.097 F 
ATOM     12  F4  UNL d   1      -3.368   5.996  -0.714  0.00  0.00    -0.092 F 
ENDROOT
TORSDOF 0
ENDMDL
