MODEL 1
REMARK minimizedAffinity 1.57597864
REMARK minimizedRMSD -1
REMARK  0 active torsions:
REMARK  status: ('A' for Active; 'I' for Inactive)
ROOT
ATOM      1  C   UNL d   1      -3.381   5.998  -2.627  0.00  0.00     0.124 A 
ATOM      2  C1  UNL d   1      -2.213   5.997  -1.876  0.00  0.00     0.062 A 
ATOM      3  C2  UNL d   1      -0.974   5.994  -2.509  0.00  0.00     0.162 A 
ATOM      4  C3  UNL d   1      -0.895   5.994  -3.902  0.00  0.00    -0.034 A 
ATOM      5  C4  UNL d   1      -2.073   5.995  -4.650  0.00  0.00     0.162 A 
ATOM      6  C5  UNL d   1      -3.310   5.997  -4.013  0.00  0.00     0.062 A 
ATOM      7  F   UNL d   1      -4.436   5.999  -4.740  0.00  0.00    -0.097 F 
ATOM      8  F1  UNL d   1      -2.034   5.995  -5.991  0.00  0.00    -0.096 F 
ATOM      9  I   UNL d   1       0.957   5.990  -4.852  0.00  0.00    -0.060 I 
ATOM     10  F2  UNL d   1       0.138   5.992  -1.758  0.00  0.00    -0.096 F 
ATOM     11  F3  UNL d   1      -2.279   5.997  -0.537  0.00  0.00    -0.097 F 
ATOM     12  F4  UNL d   1      -4.572   6.000  -2.015  0.00  0.00    -0.092 F 
ENDROOT
TORSDOF 0
ENDMDL
