MODEL 1
REMARK minimizedAffinity 10.431139
REMARK minimizedRMSD -1
REMARK  0 active torsions:
REMARK  status: ('A' for Active; 'I' for Inactive)
ROOT
ATOM      1  C   UNL d   1      -2.139   5.909  -4.369  0.00  0.00     0.124 A 
ATOM      2  C1  UNL d   1      -0.756   5.933  -4.491  0.00  0.00     0.062 A 
ATOM      3  C2  UNL d   1       0.048   5.895  -3.356  0.00  0.00     0.162 A 
ATOM      4  C3  UNL d   1      -0.528   5.832  -2.087  0.00  0.00    -0.034 A 
ATOM      5  C4  UNL d   1      -1.919   5.809  -1.972  0.00  0.00     0.162 A 
ATOM      6  C5  UNL d   1      -2.719   5.847  -3.109  0.00  0.00     0.062 A 
ATOM      7  F   UNL d   1      -4.054   5.824  -2.989  0.00  0.00    -0.097 F 
ATOM      8  F1  UNL d   1      -2.506   5.749  -0.767  0.00  0.00    -0.096 F 
ATOM      9  I   UNL d   1       0.671   5.775  -0.387  0.00  0.00    -0.060 I 
ATOM     10  F2  UNL d   1       1.381   5.920  -3.505  0.00  0.00    -0.096 F 
ATOM     11  F3  UNL d   1      -0.194   5.994  -5.707  0.00  0.00    -0.097 F 
ATOM     12  F4  UNL d   1      -2.910   5.947  -5.462  0.00  0.00    -0.092 F 
ENDROOT
TORSDOF 0
ENDMDL
