MODEL 1
REMARK minimizedAffinity 6.17361355
REMARK minimizedRMSD -1
REMARK  0 active torsions:
REMARK  status: ('A' for Active; 'I' for Inactive)
ROOT
ATOM      1  C   UNL d   1      -2.130   5.969  -2.025  0.00  0.00     0.124 A 
ATOM      2  C1  UNL d   1      -2.706   5.975  -3.288  0.00  0.00     0.062 A 
ATOM      3  C2  UNL d   1      -1.902   5.984  -4.424  0.00  0.00     0.162 A 
ATOM      4  C3  UNL d   1      -0.512   5.986  -4.303  0.00  0.00    -0.034 A 
ATOM      5  C4  UNL d   1       0.060   5.981  -3.030  0.00  0.00     0.162 A 
ATOM      6  C5  UNL d   1      -0.748   5.972  -1.897  0.00  0.00     0.062 A 
ATOM      7  F   UNL d   1      -0.189   5.966  -0.678  0.00  0.00    -0.097 F 
ATOM      8  F1  UNL d   1       1.393   5.983  -2.877  0.00  0.00    -0.096 F 
ATOM      9  I   UNL d   1       0.694   6.000  -5.999  0.00  0.00    -0.060 I 
ATOM     10  F2  UNL d   1      -2.485   5.990  -5.632  0.00  0.00    -0.096 F 
ATOM     11  F3  UNL d   1      -4.040   5.974  -3.415  0.00  0.00    -0.097 F 
ATOM     12  F4  UNL d   1      -2.906   5.961  -0.934  0.00  0.00    -0.092 F 
ENDROOT
TORSDOF 0
ENDMDL
