MODEL 1
REMARK minimizedAffinity 16.4411011
REMARK minimizedRMSD -1
REMARK  0 active torsions:
REMARK  status: ('A' for Active; 'I' for Inactive)
ROOT
ATOM      1  C   UNL d   1       4.703   3.719  -4.190  0.00  0.00     0.124 A 
ATOM      2  C1  UNL d   1       4.272   4.800  -4.947  0.00  0.00     0.062 A 
ATOM      3  C2  UNL d   1       2.925   4.938  -5.267  0.00  0.00     0.162 A 
ATOM      4  C3  UNL d   1       1.997   3.992  -4.830  0.00  0.00    -0.034 A 
ATOM      5  C4  UNL d   1       2.438   2.907  -4.071  0.00  0.00     0.162 A 
ATOM      6  C5  UNL d   1       3.786   2.774  -3.753  0.00  0.00     0.062 A 
ATOM      7  F   UNL d   1       4.200   1.728  -3.023  0.00  0.00    -0.097 F 
ATOM      8  F1  UNL d   1       1.573   1.979  -3.635  0.00  0.00    -0.096 F 
ATOM      9  I   UNL d   1      -0.019   4.195  -5.307  0.00  0.00    -0.060 I 
ATOM     10  F2  UNL d   1       2.537   5.993  -5.999  0.00  0.00    -0.096 F 
ATOM     11  F3  UNL d   1       5.156   5.715  -5.371  0.00  0.00    -0.097 F 
ATOM     12  F4  UNL d   1       6.000   3.588  -3.884  0.00  0.00    -0.092 F 
ENDROOT
TORSDOF 0
ENDMDL
