MODEL 1
REMARK minimizedAffinity 7.35479403
REMARK minimizedRMSD -1
REMARK  0 active torsions:
REMARK  status: ('A' for Active; 'I' for Inactive)
ROOT
ATOM      1  C   UNL d   1      -1.587  -4.406   4.835  0.00  0.00     0.124 A 
ATOM      2  C1  UNL d   1      -0.772  -4.790   3.779  0.00  0.00     0.062 A 
ATOM      3  C2  UNL d   1      -0.554  -3.925   2.711  0.00  0.00     0.162 A 
ATOM      4  C3  UNL d   1      -1.152  -2.665   2.694  0.00  0.00    -0.034 A 
ATOM      5  C4  UNL d   1      -1.972  -2.285   3.759  0.00  0.00     0.162 A 
ATOM      6  C5  UNL d   1      -2.186  -3.154   4.823  0.00  0.00     0.062 A 
ATOM      7  F   UNL d   1      -2.974  -2.781   5.842  0.00  0.00    -0.097 F 
ATOM      8  F1  UNL d   1      -2.562  -1.081   3.774  0.00  0.00    -0.096 F 
ATOM      9  I   UNL d   1      -0.830  -1.367   1.099  0.00  0.00    -0.060 I 
ATOM     10  F2  UNL d   1       0.238  -4.322   1.705  0.00  0.00    -0.096 F 
ATOM     11  F3  UNL d   1      -0.192  -6.000   3.787  0.00  0.00    -0.097 F 
ATOM     12  F4  UNL d   1      -1.795  -5.242   5.860  0.00  0.00    -0.092 F 
ENDROOT
TORSDOF 0
ENDMDL
