MODEL 1
REMARK minimizedAffinity 2.14278746
REMARK minimizedRMSD -1
REMARK  0 active torsions:
REMARK  status: ('A' for Active; 'I' for Inactive)
ROOT
ATOM      1  C   UNL d   1      -2.304   5.999  -1.862  0.00  0.00     0.124 A 
ATOM      2  C1  UNL d   1      -0.920   5.999  -1.759  0.00  0.00     0.062 A 
ATOM      3  C2  UNL d   1      -0.132   5.998  -2.906  0.00  0.00     0.162 A 
ATOM      4  C3  UNL d   1      -0.727   5.998  -4.168  0.00  0.00    -0.034 A 
ATOM      5  C4  UNL d   1      -2.120   5.996  -4.264  0.00  0.00     0.162 A 
ATOM      6  C5  UNL d   1      -2.902   5.997  -3.114  0.00  0.00     0.062 A 
ATOM      7  F   UNL d   1      -4.240   5.996  -3.215  0.00  0.00    -0.097 F 
ATOM      8  F1  UNL d   1      -2.725   5.996  -5.461  0.00  0.00    -0.096 F 
ATOM      9  I   UNL d   1       0.447   5.997  -5.886  0.00  0.00    -0.060 I 
ATOM     10  F2  UNL d   1       1.203   5.999  -2.777  0.00  0.00    -0.096 F 
ATOM     11  F3  UNL d   1      -0.339   6.000  -0.550  0.00  0.00    -0.097 F 
ATOM     12  F4  UNL d   1      -3.059   5.998  -0.756  0.00  0.00    -0.092 F 
ENDROOT
TORSDOF 0
ENDMDL
