MODEL 1
REMARK minimizedAffinity 3.20187902
REMARK minimizedRMSD -1
REMARK  0 active torsions:
REMARK  status: ('A' for Active; 'I' for Inactive)
ROOT
ATOM      1  C   UNL d   1      -2.077   4.852  -1.885  0.00  0.00     0.124 A 
ATOM      2  C1  UNL d   1      -0.693   4.761  -1.945  0.00  0.00     0.062 A 
ATOM      3  C2  UNL d   1      -0.020   5.088  -3.119  0.00  0.00     0.162 A 
ATOM      4  C3  UNL d   1      -0.730   5.509  -4.243  0.00  0.00    -0.034 A 
ATOM      5  C4  UNL d   1      -2.122   5.597  -4.175  0.00  0.00     0.162 A 
ATOM      6  C5  UNL d   1      -2.790   5.270  -3.000  0.00  0.00     0.062 A 
ATOM      7  F   UNL d   1      -4.127   5.358  -2.944  0.00  0.00    -0.097 F 
ATOM      8  F1  UNL d   1      -2.836   5.999  -5.238  0.00  0.00    -0.096 F 
ATOM      9  I   UNL d   1       0.272   5.999  -6.000  0.00  0.00    -0.060 I 
ATOM     10  F2  UNL d   1       1.317   4.991  -3.148  0.00  0.00    -0.096 F 
ATOM     11  F3  UNL d   1      -0.002   4.356  -0.870  0.00  0.00    -0.097 F 
ATOM     12  F4  UNL d   1      -2.722   4.536  -0.755  0.00  0.00    -0.092 F 
ENDROOT
TORSDOF 0
ENDMDL
