MODEL 1
REMARK minimizedAffinity 2.31236529
REMARK minimizedRMSD -1
REMARK  0 active torsions:
REMARK  status: ('A' for Active; 'I' for Inactive)
ROOT
ATOM      1  C   UNL d   1      -2.101   5.994  -2.348  0.00  0.00     0.124 A 
ATOM      2  C1  UNL d   1      -0.782   5.988  -1.917  0.00  0.00     0.062 A 
ATOM      3  C2  UNL d   1       0.257   5.981  -2.844  0.00  0.00     0.162 A 
ATOM      4  C3  UNL d   1      -0.019   5.981  -4.211  0.00  0.00    -0.034 A 
ATOM      5  C4  UNL d   1      -1.349   5.987  -4.637  0.00  0.00     0.162 A 
ATOM      6  C5  UNL d   1      -2.383   5.994  -3.707  0.00  0.00     0.062 A 
ATOM      7  F   UNL d   1      -3.657   6.000  -4.125  0.00  0.00    -0.097 F 
ATOM      8  F1  UNL d   1      -1.650   5.987  -5.944  0.00  0.00    -0.096 F 
ATOM      9  I   UNL d   1       1.531   5.971  -5.599  0.00  0.00    -0.060 I 
ATOM     10  F2  UNL d   1       1.523   5.975  -2.399  0.00  0.00    -0.096 F 
ATOM     11  F3  UNL d   1      -0.506   5.987  -0.605  0.00  0.00    -0.097 F 
ATOM     12  F4  UNL d   1      -3.099   6.000  -1.455  0.00  0.00    -0.092 F 
ENDROOT
TORSDOF 0
ENDMDL
