MODEL 1
REMARK minimizedAffinity 19.81147
REMARK minimizedRMSD -1
REMARK  0 active torsions:
REMARK  status: ('A' for Active; 'I' for Inactive)
ROOT
ATOM      1  C   UNL d   1       0.944   3.443  -1.856  0.00  0.00     0.124 A 
ATOM      2  C1  UNL d   1      -0.069   4.375  -2.035  0.00  0.00     0.062 A 
ATOM      3  C2  UNL d   1      -0.146   5.106  -3.217  0.00  0.00     0.162 A 
ATOM      4  C3  UNL d   1       0.792   4.908  -4.230  0.00  0.00    -0.034 A 
ATOM      5  C4  UNL d   1       1.808   3.969  -4.042  0.00  0.00     0.162 A 
ATOM      6  C5  UNL d   1       1.881   3.241  -2.859  0.00  0.00     0.062 A 
ATOM      7  F   UNL d   1       2.860   2.341  -2.688  0.00  0.00    -0.097 F 
ATOM      8  F1  UNL d   1       2.726   3.754  -4.995  0.00  0.00    -0.096 F 
ATOM      9  I   UNL d   1       0.679   6.000  -5.998  0.00  0.00    -0.060 I 
ATOM     10  F2  UNL d   1      -1.136   6.000  -3.362  0.00  0.00    -0.096 F 
ATOM     11  F3  UNL d   1      -0.975   4.572  -1.067  0.00  0.00    -0.097 F 
ATOM     12  F4  UNL d   1       1.016   2.741  -0.718  0.00  0.00    -0.092 F 
ENDROOT
TORSDOF 0
ENDMDL
