MODEL 1
REMARK minimizedAffinity 5.34792137
REMARK minimizedRMSD -1
REMARK  0 active torsions:
REMARK  status: ('A' for Active; 'I' for Inactive)
ROOT
ATOM      1  C   UNL d   1      -2.115   5.996  -2.354  0.00  0.00     0.124 A 
ATOM      2  C1  UNL d   1      -0.755   5.996  -2.075  0.00  0.00     0.062 A 
ATOM      3  C2  UNL d   1       0.173   5.996  -3.113  0.00  0.00     0.162 A 
ATOM      4  C3  UNL d   1      -0.257   5.998  -4.440  0.00  0.00    -0.034 A 
ATOM      5  C4  UNL d   1      -1.626   5.998  -4.713  0.00  0.00     0.162 A 
ATOM      6  C5  UNL d   1      -2.549   5.997  -3.672  0.00  0.00     0.062 A 
ATOM      7  F   UNL d   1      -3.862   5.997  -3.944  0.00  0.00    -0.097 F 
ATOM      8  F1  UNL d   1      -2.073   5.999  -5.978  0.00  0.00    -0.096 F 
ATOM      9  I   UNL d   1       1.127   6.000  -5.995  0.00  0.00    -0.060 I 
ATOM     10  F2  UNL d   1       1.480   5.996  -2.814  0.00  0.00    -0.096 F 
ATOM     11  F3  UNL d   1      -0.333   5.994  -0.802  0.00  0.00    -0.097 F 
ATOM     12  F4  UNL d   1      -3.005   5.994  -1.354  0.00  0.00    -0.092 F 
ENDROOT
TORSDOF 0
ENDMDL
