MODEL 1
REMARK minimizedAffinity 19.2188358
REMARK minimizedRMSD -1
REMARK  0 active torsions:
REMARK  status: ('A' for Active; 'I' for Inactive)
ROOT
ATOM      1  C   UNL d   1       4.704   3.633  -3.849  0.00  0.00     0.124 A 
ATOM      2  C1  UNL d   1       4.409   4.693  -4.694  0.00  0.00     0.062 A 
ATOM      3  C2  UNL d   1       3.117   4.858  -5.185  0.00  0.00     0.162 A 
ATOM      4  C3  UNL d   1       2.109   3.960  -4.831  0.00  0.00    -0.034 A 
ATOM      5  C4  UNL d   1       2.415   2.896  -3.981  0.00  0.00     0.162 A 
ATOM      6  C5  UNL d   1       3.708   2.735  -3.493  0.00  0.00     0.062 A 
ATOM      7  F   UNL d   1       3.992   1.710  -2.677  0.00  0.00    -0.097 F 
ATOM      8  F1  UNL d   1       1.470   2.014  -3.620  0.00  0.00    -0.096 F 
ATOM      9  I   UNL d   1       0.176   4.204  -5.562  0.00  0.00    -0.060 I 
ATOM     10  F2  UNL d   1       2.859   5.892  -6.000  0.00  0.00    -0.096 F 
ATOM     11  F3  UNL d   1       5.370   5.561  -5.040  0.00  0.00    -0.097 F 
ATOM     12  F4  UNL d   1       5.949   3.476  -3.379  0.00  0.00    -0.092 F 
ENDROOT
TORSDOF 0
ENDMDL
