MODEL 1
REMARK minimizedAffinity 12.536459
REMARK minimizedRMSD -1
REMARK  0 active torsions:
REMARK  status: ('A' for Active; 'I' for Inactive)
ROOT
ATOM      1  C   UNL d   1       2.396   3.023  -3.925  0.00  0.00     0.124 A 
ATOM      2  C1  UNL d   1       3.754   2.788  -3.765  0.00  0.00     0.062 A 
ATOM      3  C2  UNL d   1       4.686   3.635  -4.356  0.00  0.00     0.162 A 
ATOM      4  C3  UNL d   1       4.264   4.728  -5.113  0.00  0.00    -0.034 A 
ATOM      5  C4  UNL d   1       2.896   4.958  -5.271  0.00  0.00     0.162 A 
ATOM      6  C5  UNL d   1       1.968   4.108  -4.678  0.00  0.00     0.062 A 
ATOM      7  F   UNL d   1       0.656   4.338  -4.834  0.00  0.00    -0.097 F 
ATOM      8  F1  UNL d   1       2.455   6.000  -5.992  0.00  0.00    -0.096 F 
ATOM      9  I   UNL d   1       5.655   5.998  -5.998  0.00  0.00    -0.060 I 
ATOM     10  F2  UNL d   1       5.993   3.383  -4.184  0.00  0.00    -0.096 F 
ATOM     11  F3  UNL d   1       4.170   1.740  -3.039  0.00  0.00    -0.097 F 
ATOM     12  F4  UNL d   1       1.501   2.206  -3.356  0.00  0.00    -0.092 F 
ENDROOT
TORSDOF 0
ENDMDL
