MODEL 1
REMARK minimizedAffinity 10.95788
REMARK minimizedRMSD -1
REMARK  0 active torsions:
REMARK  status: ('A' for Active; 'I' for Inactive)
ROOT
ATOM      1  C   UNL d   1       0.378   1.351   1.460  0.00  0.00     0.124 A 
ATOM      2  C1  UNL d   1       0.857   2.642   1.282  0.00  0.00     0.062 A 
ATOM      3  C2  UNL d   1       1.516   2.989   0.106  0.00  0.00     0.162 A 
ATOM      4  C3  UNL d   1       1.698   2.043  -0.903  0.00  0.00    -0.034 A 
ATOM      5  C4  UNL d   1       1.215   0.747  -0.717  0.00  0.00     0.162 A 
ATOM      6  C5  UNL d   1       0.557   0.405   0.460  0.00  0.00     0.062 A 
ATOM      7  F   UNL d   1       0.095  -0.842   0.630  0.00  0.00    -0.097 F 
ATOM      8  F1  UNL d   1       1.373  -0.187  -1.667  0.00  0.00    -0.096 F 
ATOM      9  I   UNL d   1       2.682   2.558  -2.663  0.00  0.00    -0.060 I 
ATOM     10  F2  UNL d   1       1.968   4.243  -0.038  0.00  0.00    -0.096 F 
ATOM     11  F3  UNL d   1       0.686   3.557   2.247  0.00  0.00    -0.097 F 
ATOM     12  F4  UNL d   1      -0.254   1.020   2.593  0.00  0.00    -0.092 F 
ENDROOT
TORSDOF 0
ENDMDL
