MODEL 1
REMARK minimizedAffinity -1.43641222
REMARK minimizedRMSD -1
REMARK  2 active torsions:
REMARK  status: ('A' for Active; 'I' for Inactive)
REMARK    1  A    between atoms: C1_2  and  C2_3 
REMARK    2  A    between atoms: C2_3  and  C3_4 
ROOT
ATOM      1  C3  UNL d   1       0.781   0.788   0.083  0.00  0.00    -0.075 A 
ATOM      2  C4  UNL d   1       0.294   1.624  -0.932  0.00  0.00     0.002 A 
ATOM      3  C5  UNL d   1      -0.807   1.240  -1.698  0.00  0.00     0.002 A 
ATOM      4  C6  UNL d   1      -1.428   0.015  -1.466  0.00  0.00    -0.004 A 
ATOM      5  C7  UNL d   1      -0.942  -0.831  -0.471  0.00  0.00     0.002 A 
ATOM      6  C8  UNL d   1       0.157  -0.448   0.300  0.00  0.00     0.002 A 
ENDROOT
BRANCH   1   7
ATOM      7  C2  UNL d   1       1.954   1.210   0.935  0.00  0.00     0.056 C 
BRANCH   7   8
ATOM      8  C1  UNL d   1       2.961   2.108   0.209  0.00  0.00     0.007 C 
ATOM      9  C   UNL d   1       3.104   3.485   0.844  0.00  0.00     0.009 C 
ENDBRANCH   7   8
ENDBRANCH   1   7
TORSDOF 2
ENDMDL
