MODEL 1
REMARK minimizedAffinity -4.04913664
REMARK minimizedRMSD -1
REMARK  2 active torsions:
REMARK  status: ('A' for Active; 'I' for Inactive)
REMARK    1  A    between atoms: C1_2  and  C2_3 
REMARK    2  A    between atoms: C2_3  and  C3_4 
ROOT
ATOM      1  C3  UNL d   1       0.748   0.810  -0.090  0.00  0.00    -0.075 A 
ATOM      2  C4  UNL d   1       0.375  -0.412  -0.668  0.00  0.00     0.002 A 
ATOM      3  C5  UNL d   1      -0.904  -0.584  -1.198  0.00  0.00     0.002 A 
ATOM      4  C6  UNL d   1      -1.828   0.457  -1.148  0.00  0.00    -0.004 A 
ATOM      5  C7  UNL d   1      -1.474   1.670  -0.561  0.00  0.00     0.002 A 
ATOM      6  C8  UNL d   1      -0.194   1.847  -0.034  0.00  0.00     0.002 A 
ENDROOT
BRANCH   1   7
ATOM      7  C2  UNL d   1       2.140   1.013   0.458  0.00  0.00     0.056 C 
BRANCH   7   8
ATOM      8  C1  UNL d   1       2.514   2.481   0.683  0.00  0.00     0.007 C 
ATOM      9  C   UNL d   1       2.899   2.789   2.125  0.00  0.00     0.009 C 
ENDBRANCH   7   8
ENDBRANCH   1   7
TORSDOF 2
ENDMDL
