MODEL 1
REMARK minimizedAffinity -3.21005392
REMARK minimizedRMSD -1
REMARK  2 active torsions:
REMARK  status: ('A' for Active; 'I' for Inactive)
REMARK    1  A    between atoms: C1_2  and  C2_3 
REMARK    2  A    between atoms: C2_3  and  C3_4 
ROOT
ATOM      1  C3  UNL d   1       0.226   0.078  -0.122  0.00  0.00    -0.075 A 
ATOM      2  C4  UNL d   1      -0.560  -1.083  -0.154  0.00  0.00     0.002 A 
ATOM      3  C5  UNL d   1      -1.801  -1.081  -0.791  0.00  0.00     0.002 A 
ATOM      4  C6  UNL d   1      -2.276   0.081  -1.394  0.00  0.00    -0.004 A 
ATOM      5  C7  UNL d   1      -1.511   1.245  -1.354  0.00  0.00     0.002 A 
ATOM      6  C8  UNL d   1      -0.267   1.245  -0.721  0.00  0.00     0.002 A 
ENDROOT
BRANCH   1   7
ATOM      7  C2  UNL d   1       1.583   0.075   0.540  0.00  0.00     0.056 C 
BRANCH   7   8
ATOM      8  C1  UNL d   1       2.296   1.431   0.510  0.00  0.00     0.007 C 
ATOM      9  C   UNL d   1       2.396   2.088   1.880  0.00  0.00     0.009 C 
ENDBRANCH   7   8
ENDBRANCH   1   7
TORSDOF 2
ENDMDL
