MODEL 1
REMARK minimizedAffinity -4.00553799
REMARK minimizedRMSD -1
REMARK  2 active torsions:
REMARK  status: ('A' for Active; 'I' for Inactive)
REMARK    1  A    between atoms: C1_2  and  C2_3 
REMARK    2  A    between atoms: C2_3  and  C3_4 
ROOT
ATOM      1  C3  UNL d   1       1.184   0.789   0.447  0.00  0.00    -0.075 A 
ATOM      2  C4  UNL d   1       1.214  -0.139  -0.604  0.00  0.00     0.002 A 
ATOM      3  C5  UNL d   1       0.080  -0.362  -1.385  0.00  0.00     0.002 A 
ATOM      4  C6  UNL d   1      -1.099   0.331  -1.120  0.00  0.00    -0.004 A 
ATOM      5  C7  UNL d   1      -1.145   1.244  -0.068  0.00  0.00     0.002 A 
ATOM      6  C8  UNL d   1      -0.010   1.471   0.712  0.00  0.00     0.002 A 
ENDROOT
BRANCH   1   7
ATOM      7  C2  UNL d   1       2.417   1.056   1.277  0.00  0.00     0.056 C 
BRANCH   7   8
ATOM      8  C1  UNL d   1       2.375   2.379   2.048  0.00  0.00     0.007 C 
ATOM      9  C   UNL d   1       2.575   3.599   1.158  0.00  0.00     0.009 C 
ENDBRANCH   7   8
ENDBRANCH   1   7
TORSDOF 2
ENDMDL
