MODEL 1
REMARK minimizedAffinity -3.83400631
REMARK minimizedRMSD -1
REMARK  2 active torsions:
REMARK  status: ('A' for Active; 'I' for Inactive)
REMARK    1  A    between atoms: C1_2  and  C2_3 
REMARK    2  A    between atoms: C2_3  and  C3_4 
ROOT
ATOM      1  C3  UNL d   1       0.555   0.470  -0.598  0.00  0.00    -0.075 A 
ATOM      2  C4  UNL d   1       0.223  -0.552  -1.500  0.00  0.00     0.002 A 
ATOM      3  C5  UNL d   1      -0.977  -0.508  -2.210  0.00  0.00     0.002 A 
ATOM      4  C6  UNL d   1      -1.863   0.551  -2.021  0.00  0.00    -0.004 A 
ATOM      5  C7  UNL d   1      -1.551   1.563  -1.116  0.00  0.00     0.002 A 
ATOM      6  C8  UNL d   1      -0.349   1.523  -0.407  0.00  0.00     0.002 A 
ENDROOT
BRANCH   1   7
ATOM      7  C2  UNL d   1       1.866   0.443   0.152  0.00  0.00     0.056 C 
BRANCH   7   8
ATOM      8  C1  UNL d   1       2.593   1.791   0.185  0.00  0.00     0.007 C 
ATOM      9  C   UNL d   1       2.927   2.258   1.596  0.00  0.00     0.009 C 
ENDBRANCH   7   8
ENDBRANCH   1   7
TORSDOF 2
ENDMDL
