MODEL 1
REMARK minimizedAffinity -2.45710135
REMARK minimizedRMSD -1
REMARK  2 active torsions:
REMARK  status: ('A' for Active; 'I' for Inactive)
REMARK    1  A    between atoms: C1_2  and  C2_3 
REMARK    2  A    between atoms: C2_3  and  C3_4 
ROOT
ATOM      1  C3  UNL d   1      -1.256  -1.748  -0.066  0.00  0.00    -0.075 A 
ATOM      2  C4  UNL d   1      -0.026  -1.110   0.148  0.00  0.00     0.002 A 
ATOM      3  C5  UNL d   1       0.254   0.113  -0.463  0.00  0.00     0.002 A 
ATOM      4  C6  UNL d   1      -0.686   0.707  -1.302  0.00  0.00    -0.004 A 
ATOM      5  C7  UNL d   1      -1.905   0.073  -1.535  0.00  0.00     0.002 A 
ATOM      6  C8  UNL d   1      -2.189  -1.148  -0.922  0.00  0.00     0.002 A 
ENDROOT
BRANCH   1   7
ATOM      7  C2  UNL d   1      -1.576  -3.057   0.615  0.00  0.00     0.056 C 
BRANCH   7   8
ATOM      8  C1  UNL d   1      -0.638  -3.401   1.778  0.00  0.00     0.007 C 
ATOM      9  C   UNL d   1      -1.344  -3.445   3.126  0.00  0.00     0.009 C 
ENDBRANCH   7   8
ENDBRANCH   1   7
TORSDOF 2
ENDMDL
