MODEL 1
REMARK minimizedAffinity -0.65623188
REMARK minimizedRMSD -1
REMARK  2 active torsions:
REMARK  status: ('A' for Active; 'I' for Inactive)
REMARK    1  A    between atoms: C1_2  and  C2_3 
REMARK    2  A    between atoms: C2_3  and  C3_4 
ROOT
ATOM      1  C3  UNL d   1       0.207   0.080  -0.011  0.00  0.00    -0.075 A 
ATOM      2  C4  UNL d   1      -0.380   0.752  -1.092  0.00  0.00     0.002 A 
ATOM      3  C5  UNL d   1      -1.602   0.325  -1.613  0.00  0.00     0.002 A 
ATOM      4  C6  UNL d   1      -2.246  -0.783  -1.068  0.00  0.00    -0.004 A 
ATOM      5  C7  UNL d   1      -1.664  -1.469  -0.004  0.00  0.00     0.002 A 
ATOM      6  C8  UNL d   1      -0.443  -1.041   0.522  0.00  0.00     0.002 A 
ENDROOT
BRANCH   1   7
ATOM      7  C2  UNL d   1       1.515   0.555   0.576  0.00  0.00     0.056 C 
BRANCH   7   8
ATOM      8  C1  UNL d   1       2.202   1.655  -0.240  0.00  0.00     0.007 C 
ATOM      9  C   UNL d   1       2.635   2.846   0.605  0.00  0.00     0.009 C 
ENDBRANCH   7   8
ENDBRANCH   1   7
TORSDOF 2
ENDMDL
