MODEL 1
REMARK minimizedAffinity -2.61160994
REMARK minimizedRMSD -1
REMARK  2 active torsions:
REMARK  status: ('A' for Active; 'I' for Inactive)
REMARK    1  A    between atoms: C1_2  and  C2_3 
REMARK    2  A    between atoms: C2_3  and  C3_4 
ROOT
ATOM      1  C3  UNL d   1       0.339   0.293  -0.198  0.00  0.00    -0.075 A 
ATOM      2  C4  UNL d   1      -0.255   1.348  -0.906  0.00  0.00     0.002 A 
ATOM      3  C5  UNL d   1      -1.541   1.215  -1.430  0.00  0.00     0.002 A 
ATOM      4  C6  UNL d   1      -2.245   0.024  -1.261  0.00  0.00    -0.004 A 
ATOM      5  C7  UNL d   1      -1.659  -1.036  -0.574  0.00  0.00     0.002 A 
ATOM      6  C8  UNL d   1      -0.373  -0.904  -0.045  0.00  0.00     0.002 A 
ENDROOT
BRANCH   1   7
ATOM      7  C2  UNL d   1       1.719   0.441   0.396  0.00  0.00     0.056 C 
BRANCH   7   8
ATOM      8  C1  UNL d   1       2.358   1.813   0.154  0.00  0.00     0.007 C 
ATOM      9  C   UNL d   1       2.863   2.474   1.430  0.00  0.00     0.009 C 
ENDBRANCH   7   8
ENDBRANCH   1   7
TORSDOF 2
ENDMDL
