MODEL 1
REMARK minimizedAffinity -3.61211324
REMARK minimizedRMSD -1
REMARK  2 active torsions:
REMARK  status: ('A' for Active; 'I' for Inactive)
REMARK    1  A    between atoms: C1_2  and  C2_3 
REMARK    2  A    between atoms: C2_3  and  C3_4 
ROOT
ATOM      1  C3  UNL d   1       1.196   1.334   0.767  0.00  0.00    -0.075 A 
ATOM      2  C4  UNL d   1       1.450   0.161   0.041  0.00  0.00     0.002 A 
ATOM      3  C5  UNL d   1       0.548  -0.283  -0.926  0.00  0.00     0.002 A 
ATOM      4  C6  UNL d   1      -0.621   0.433  -1.173  0.00  0.00    -0.004 A 
ATOM      5  C7  UNL d   1      -0.892   1.591  -0.447  0.00  0.00     0.002 A 
ATOM      6  C8  UNL d   1       0.011   2.039   0.519  0.00  0.00     0.002 A 
ENDROOT
BRANCH   1   7
ATOM      7  C2  UNL d   1       2.183   1.836   1.794  0.00  0.00     0.056 C 
BRANCH   7   8
ATOM      8  C1  UNL d   1       2.703   3.251   1.520  0.00  0.00     0.007 C 
ATOM      9  C   UNL d   1       3.194   3.444   0.092  0.00  0.00     0.009 C 
ENDBRANCH   7   8
ENDBRANCH   1   7
TORSDOF 2
ENDMDL
