MODEL 1
REMARK minimizedAffinity -2.39056587
REMARK minimizedRMSD -1
REMARK  2 active torsions:
REMARK  status: ('A' for Active; 'I' for Inactive)
REMARK    1  A    between atoms: C1_2  and  C2_3 
REMARK    2  A    between atoms: C2_3  and  C3_4 
ROOT
ATOM      1  C3  UNL d   1       1.423   1.017   0.175  0.00  0.00    -0.075 A 
ATOM      2  C4  UNL d   1       1.525  -0.107  -0.659  0.00  0.00     0.002 A 
ATOM      3  C5  UNL d   1       0.385  -0.663  -1.240  0.00  0.00     0.002 A 
ATOM      4  C6  UNL d   1      -0.869  -0.112  -0.987  0.00  0.00    -0.004 A 
ATOM      5  C7  UNL d   1      -0.984   0.994  -0.148  0.00  0.00     0.002 A 
ATOM      6  C8  UNL d   1       0.155   1.555   0.431  0.00  0.00     0.002 A 
ENDROOT
BRANCH   1   7
ATOM      7  C2  UNL d   1       2.656   1.642   0.783  0.00  0.00     0.056 C 
BRANCH   7   8
ATOM      8  C1  UNL d   1       2.367   2.866   1.658  0.00  0.00     0.007 C 
ATOM      9  C   UNL d   1       2.348   4.172   0.875  0.00  0.00     0.009 C 
ENDBRANCH   7   8
ENDBRANCH   1   7
TORSDOF 2
ENDMDL
