MODEL 1
REMARK minimizedAffinity -1.08672428
REMARK minimizedRMSD -1
REMARK  2 active torsions:
REMARK  status: ('A' for Active; 'I' for Inactive)
REMARK    1  A    between atoms: C1_2  and  C2_3 
REMARK    2  A    between atoms: C2_3  and  C3_4 
ROOT
ATOM      1  C3  UNL d   1      -1.971  -1.224  -0.685  0.00  0.00    -0.075 A 
ATOM      2  C4  UNL d   1      -1.423  -1.211  -1.975  0.00  0.00     0.002 A 
ATOM      3  C5  UNL d   1      -0.512  -0.222  -2.348  0.00  0.00     0.002 A 
ATOM      4  C6  UNL d   1      -0.146   0.770  -1.441  0.00  0.00    -0.004 A 
ATOM      5  C7  UNL d   1      -0.697   0.776  -0.161  0.00  0.00     0.002 A 
ATOM      6  C8  UNL d   1      -1.605  -0.214   0.216  0.00  0.00     0.002 A 
ENDROOT
BRANCH   1   7
ATOM      7  C2  UNL d   1      -2.935  -2.308  -0.266  0.00  0.00     0.056 C 
BRANCH   7   8
ATOM      8  C1  UNL d   1      -2.255  -3.588   0.233  0.00  0.00     0.007 C 
ATOM      9  C   UNL d   1      -1.651  -3.445   1.624  0.00  0.00     0.009 C 
ENDBRANCH   7   8
ENDBRANCH   1   7
TORSDOF 2
ENDMDL
