MODEL 1
REMARK minimizedAffinity -2.25441813
REMARK minimizedRMSD -1
REMARK  1 active torsions:
REMARK  status: ('A' for Active; 'I' for Inactive)
REMARK    1  A    between atoms: N_2  and  C1_3 
ROOT
ATOM      1  C1  UNL d   1       1.287   1.428  -2.442  0.00  0.00     0.143 A 
ATOM      2  C2  UNL d   1       1.272   1.699  -3.815  0.00  0.00    -0.057 A 
ATOM      3  C3  UNL d   1       2.071   2.708  -4.365  0.00  0.00     0.033 A 
ATOM      4  C4  UNL d   1       2.880   3.488  -3.544  0.00  0.00    -0.042 A 
ATOM      5  C5  UNL d   1       2.892   3.254  -2.174  0.00  0.00     0.033 A 
ATOM      6  C6  UNL d   1       2.097   2.240  -1.632  0.00  0.00    -0.057 A 
ENDROOT
BRANCH   1   7
ATOM      7  N   UNL d   1       0.443   0.504  -1.823  0.00  0.00    -0.732 N 
ATOM      8  C   UNL d   1       0.964  -0.437  -0.854  0.00  0.00     0.284 C 
ATOM      9  H3  UNL d   1      -0.456   0.909  -1.567  0.00  0.00     0.395 HD
ENDBRANCH   1   7
TORSDOF 1
ENDMDL
