MODEL 1
REMARK minimizedAffinity -1.55971634
REMARK minimizedRMSD -1
REMARK  1 active torsions:
REMARK  status: ('A' for Active; 'I' for Inactive)
REMARK    1  A    between atoms: N_2  and  C1_3 
ROOT
ATOM      1  C1  UNL d   1       5.923  -0.058  -3.475  0.00  0.00     0.143 A 
ATOM      2  C2  UNL d   1       5.950   0.687  -4.659  0.00  0.00    -0.057 A 
ATOM      3  C3  UNL d   1       5.974   0.059  -5.910  0.00  0.00     0.033 A 
ATOM      4  C4  UNL d   1       6.000  -1.329  -5.999  0.00  0.00    -0.042 A 
ATOM      5  C5  UNL d   1       5.999  -2.088  -4.835  0.00  0.00     0.033 A 
ATOM      6  C6  UNL d   1       5.968  -1.456  -3.588  0.00  0.00    -0.057 A 
ENDROOT
BRANCH   1   7
ATOM      7  N   UNL d   1       5.998   0.507  -2.199  0.00  0.00    -0.732 N 
ATOM      8  C   UNL d   1       5.905   1.940  -2.021  0.00  0.00     0.284 C 
ATOM      9  H3  UNL d   1       5.487  -0.033  -1.505  0.00  0.00     0.395 HD
ENDBRANCH   1   7
TORSDOF 1
ENDMDL
