MODEL 1
REMARK minimizedAffinity 2.07553577
REMARK minimizedRMSD -1
REMARK  1 active torsions:
REMARK  status: ('A' for Active; 'I' for Inactive)
REMARK    1  A    between atoms: N_2  and  C1_3 
ROOT
ATOM      1  C1  UNL d   1       5.285  -1.358  -5.158  0.00  0.00     0.143 A 
ATOM      2  C2  UNL d   1       5.654  -1.326  -3.809  0.00  0.00    -0.057 A 
ATOM      3  C3  UNL d   1       5.994  -0.123  -3.178  0.00  0.00     0.033 A 
ATOM      4  C4  UNL d   1       5.999   1.069  -3.895  0.00  0.00    -0.042 A 
ATOM      5  C5  UNL d   1       5.660   1.057  -5.244  0.00  0.00     0.033 A 
ATOM      6  C6  UNL d   1       5.315  -0.147  -5.866  0.00  0.00    -0.057 A 
ENDROOT
BRANCH   1   7
ATOM      7  N   UNL d   1       5.032  -2.535  -5.867  0.00  0.00    -0.732 N 
ATOM      8  C   UNL d   1       3.683  -3.041  -5.998  0.00  0.00     0.284 C 
ATOM      9  H3  UNL d   1       5.586  -2.602  -6.718  0.00  0.00     0.395 HD
ENDBRANCH   1   7
TORSDOF 1
ENDMDL
