MODEL 1
REMARK minimizedAffinity -2.00812483
REMARK minimizedRMSD -1
REMARK  1 active torsions:
REMARK  status: ('A' for Active; 'I' for Inactive)
REMARK    1  A    between atoms: N_2  and  C1_3 
ROOT
ATOM      1  C1  UNL d   1       5.923   0.385  -3.558  0.00  0.00     0.143 A 
ATOM      2  C2  UNL d   1       5.965   1.053  -4.787  0.00  0.00    -0.057 A 
ATOM      3  C3  UNL d   1       5.987   0.347  -5.996  0.00  0.00     0.033 A 
ATOM      4  C4  UNL d   1       5.998  -1.044  -5.997  0.00  0.00    -0.042 A 
ATOM      5  C5  UNL d   1       5.983  -1.728  -4.787  0.00  0.00     0.033 A 
ATOM      6  C6  UNL d   1       5.954  -1.018  -3.583  0.00  0.00    -0.057 A 
ENDROOT
BRANCH   1   7
ATOM      7  N   UNL d   1       5.999   1.029  -2.321  0.00  0.00    -0.732 N 
ATOM      8  C   UNL d   1       5.454   2.358  -2.146  0.00  0.00     0.284 C 
ATOM      9  H3  UNL d   1       5.814   0.399  -1.543  0.00  0.00     0.395 HD
ENDBRANCH   1   7
TORSDOF 1
ENDMDL
