MODEL 1
REMARK minimizedAffinity 8.03506374
REMARK minimizedRMSD -1
REMARK  1 active torsions:
REMARK  status: ('A' for Active; 'I' for Inactive)
REMARK    1  A    between atoms: N_2  and  C1_3 
ROOT
ATOM      1  C1  UNL d   1       3.143   3.398  -3.597  0.00  0.00     0.143 A 
ATOM      2  C2  UNL d   1       1.798   3.732  -3.403  0.00  0.00    -0.057 A 
ATOM      3  C3  UNL d   1       1.166   3.514  -2.173  0.00  0.00     0.033 A 
ATOM      4  C4  UNL d   1       1.863   2.931  -1.120  0.00  0.00    -0.042 A 
ATOM      5  C5  UNL d   1       3.193   2.568  -1.297  0.00  0.00     0.033 A 
ATOM      6  C6  UNL d   1       3.821   2.794  -2.526  0.00  0.00    -0.057 A 
ENDROOT
BRANCH   1   7
ATOM      7  N   UNL d   1       3.800   3.499  -4.825  0.00  0.00    -0.732 N 
ATOM      8  C   UNL d   1       3.876   2.361  -5.716  0.00  0.00     0.284 C 
ATOM      9  H3  UNL d   1       3.614   4.382  -5.294  0.00  0.00     0.395 HD
ENDBRANCH   1   7
TORSDOF 1
ENDMDL
