MODEL 1
REMARK minimizedAffinity 7.09624195
REMARK minimizedRMSD -1
REMARK  1 active torsions:
REMARK  status: ('A' for Active; 'I' for Inactive)
REMARK    1  A    between atoms: N_2  and  C1_3 
ROOT
ATOM      1  C1  UNL d   1       0.651  -2.972   0.535  0.00  0.00     0.143 A 
ATOM      2  C2  UNL d   1       1.784  -3.759   0.767  0.00  0.00    -0.057 A 
ATOM      3  C3  UNL d   1       1.672  -5.070   1.247  0.00  0.00     0.033 A 
ATOM      4  C4  UNL d   1       0.421  -5.608   1.531  0.00  0.00    -0.042 A 
ATOM      5  C5  UNL d   1      -0.717  -4.835   1.332  0.00  0.00     0.033 A 
ATOM      6  C6  UNL d   1      -0.599  -3.529   0.846  0.00  0.00    -0.057 A 
ENDROOT
BRANCH   1   7
ATOM      7  N   UNL d   1       0.702  -1.629   0.154  0.00  0.00    -0.732 N 
ATOM      8  C   UNL d   1       1.471  -0.673   0.922  0.00  0.00     0.284 C 
ATOM      9  H3  UNL d   1       0.784  -1.514  -0.854  0.00  0.00     0.395 HD
ENDBRANCH   1   7
TORSDOF 1
ENDMDL
