MODEL 1
REMARK minimizedAffinity 1.56514072
REMARK minimizedRMSD -1
REMARK  1 active torsions:
REMARK  status: ('A' for Active; 'I' for Inactive)
REMARK    1  A    between atoms: N_2  and  C1_3 
ROOT
ATOM      1  C1  UNL d   1       1.112  -0.604  -1.402  0.00  0.00     0.143 A 
ATOM      2  C2  UNL d   1       1.183  -1.799  -2.127  0.00  0.00    -0.057 A 
ATOM      3  C3  UNL d   1       1.456  -1.800  -3.500  0.00  0.00     0.033 A 
ATOM      4  C4  UNL d   1       1.635  -0.600  -4.181  0.00  0.00    -0.042 A 
ATOM      5  C5  UNL d   1       1.544   0.600  -3.486  0.00  0.00     0.033 A 
ATOM      6  C6  UNL d   1       1.278   0.595  -2.113  0.00  0.00    -0.057 A 
ENDROOT
BRANCH   1   7
ATOM      7  N   UNL d   1       0.747  -0.532  -0.056  0.00  0.00    -0.732 N 
ATOM      8  C   UNL d   1      -0.269  -1.411   0.481  0.00  0.00     0.284 C 
ATOM      9  H3  UNL d   1       1.548  -0.400   0.557  0.00  0.00     0.395 HD
ENDBRANCH   1   7
TORSDOF 1
ENDMDL
