MODEL 1
REMARK minimizedAffinity -2.12902904
REMARK minimizedRMSD -1
REMARK  1 active torsions:
REMARK  status: ('A' for Active; 'I' for Inactive)
REMARK    1  A    between atoms: N_2  and  C1_3 
ROOT
ATOM      1  C1  UNL d   1       0.941   1.073  -2.133  0.00  0.00     0.143 A 
ATOM      2  C2  UNL d   1       0.757   0.751  -0.784  0.00  0.00    -0.057 A 
ATOM      3  C3  UNL d   1       0.944  -0.556  -0.318  0.00  0.00     0.033 A 
ATOM      4  C4  UNL d   1       1.290  -1.573  -1.201  0.00  0.00    -0.042 A 
ATOM      5  C5  UNL d   1       1.454  -1.281  -2.550  0.00  0.00     0.033 A 
ATOM      6  C6  UNL d   1       1.273   0.028  -3.009  0.00  0.00    -0.057 A 
ENDROOT
BRANCH   1   7
ATOM      7  N   UNL d   1       0.675   2.333  -2.675  0.00  0.00    -0.732 N 
ATOM      8  C   UNL d   1       1.639   2.984  -3.535  0.00  0.00     0.284 C 
ATOM      9  H3  UNL d   1      -0.290   2.426  -2.986  0.00  0.00     0.395 HD
ENDBRANCH   1   7
TORSDOF 1
ENDMDL
