MODEL 1
REMARK minimizedAffinity 7.78305244
REMARK minimizedRMSD -1
REMARK  1 active torsions:
REMARK  status: ('A' for Active; 'I' for Inactive)
REMARK    1  A    between atoms: N_2  and  C1_3 
ROOT
ATOM      1  C1  UNL d   1       2.036   1.827  -4.477  0.00  0.00     0.143 A 
ATOM      2  C2  UNL d   1       1.878   3.185  -4.772  0.00  0.00    -0.057 A 
ATOM      3  C3  UNL d   1       2.824   3.877  -5.538  0.00  0.00     0.033 A 
ATOM      4  C4  UNL d   1       3.964   3.227  -5.999  0.00  0.00    -0.042 A 
ATOM      5  C5  UNL d   1       4.154   1.884  -5.697  0.00  0.00     0.033 A 
ATOM      6  C6  UNL d   1       3.203   1.196  -4.938  0.00  0.00    -0.057 A 
ENDROOT
BRANCH   1   7
ATOM      7  N   UNL d   1       1.181   1.108  -3.638  0.00  0.00    -0.732 N 
ATOM      8  C   UNL d   1       1.701   0.088  -2.754  0.00  0.00     0.284 C 
ATOM      9  H3  UNL d   1       0.464   1.696  -3.219  0.00  0.00     0.395 HD
ENDBRANCH   1   7
TORSDOF 1
ENDMDL
