MODEL 1
REMARK minimizedAffinity 3.0142982
REMARK minimizedRMSD -1
REMARK  1 active torsions:
REMARK  status: ('A' for Active; 'I' for Inactive)
REMARK    1  A    between atoms: N_2  and  C1_3 
ROOT
ATOM      1  C1  UNL d   1       0.893  -0.724  -0.656  0.00  0.00     0.143 A 
ATOM      2  C2  UNL d   1       1.324  -1.281  -1.865  0.00  0.00    -0.057 A 
ATOM      3  C3  UNL d   1       1.270  -0.553  -3.060  0.00  0.00     0.033 A 
ATOM      4  C4  UNL d   1       0.756   0.739  -3.071  0.00  0.00    -0.042 A 
ATOM      5  C5  UNL d   1       0.298   1.304  -1.886  0.00  0.00     0.033 A 
ATOM      6  C6  UNL d   1       0.361   0.574  -0.695  0.00  0.00    -0.057 A 
ENDROOT
BRANCH   1   7
ATOM      7  N   UNL d   1       0.829  -1.431   0.547  0.00  0.00    -0.732 N 
ATOM      8  C   UNL d   1      -0.296  -2.294   0.836  0.00  0.00     0.284 C 
ATOM      9  H3  UNL d   1       1.730  -1.818   0.819  0.00  0.00     0.395 HD
ENDBRANCH   1   7
TORSDOF 1
ENDMDL
