MODEL 1
REMARK minimizedAffinity 9.52176094
REMARK minimizedRMSD -1
REMARK  1 active torsions:
REMARK  status: ('A' for Active; 'I' for Inactive)
REMARK    1  A    between atoms: N_2  and  C1_3 
ROOT
ATOM      1  C1  UNL d   1      -4.911   3.789   3.624  0.00  0.00     0.143 A 
ATOM      2  C2  UNL d   1      -3.996   4.845   3.539  0.00  0.00    -0.057 A 
ATOM      3  C3  UNL d   1      -4.058   5.933   4.418  0.00  0.00     0.033 A 
ATOM      4  C4  UNL d   1      -5.057   5.998   5.383  0.00  0.00    -0.042 A 
ATOM      5  C5  UNL d   1      -5.992   4.973   5.471  0.00  0.00     0.033 A 
ATOM      6  C6  UNL d   1      -5.921   3.886   4.594  0.00  0.00    -0.057 A 
ENDROOT
BRANCH   1   7
ATOM      7  N   UNL d   1      -4.962   2.729   2.717  0.00  0.00    -0.732 N 
ATOM      8  C   UNL d   1      -5.982   2.684   1.692  0.00  0.00     0.284 C 
ATOM      9  H3  UNL d   1      -4.038   2.447   2.397  0.00  0.00     0.395 HD
ENDBRANCH   1   7
TORSDOF 1
ENDMDL
