MODEL 1
REMARK minimizedAffinity 1.86311269
REMARK minimizedRMSD -1
REMARK  1 active torsions:
REMARK  status: ('A' for Active; 'I' for Inactive)
REMARK    1  A    between atoms: N_2  and  C1_3 
ROOT
ATOM      1  C1  UNL d   1       3.215   0.331  -4.714  0.00  0.00     0.143 A 
ATOM      2  C2  UNL d   1       3.694   1.044  -5.819  0.00  0.00    -0.057 A 
ATOM      3  C3  UNL d   1       5.062   1.282  -5.991  0.00  0.00     0.033 A 
ATOM      4  C4  UNL d   1       5.977   0.835  -5.044  0.00  0.00    -0.042 A 
ATOM      5  C5  UNL d   1       5.522   0.146  -3.926  0.00  0.00     0.033 A 
ATOM      6  C6  UNL d   1       4.154  -0.095  -3.762  0.00  0.00    -0.057 A 
ENDROOT
BRANCH   1   7
ATOM      7  N   UNL d   1       1.858   0.146  -4.436  0.00  0.00    -0.732 N 
ATOM      8  C   UNL d   1       1.440  -0.629  -3.288  0.00  0.00     0.284 C 
ATOM      9  H3  UNL d   1       1.312   0.991  -4.588  0.00  0.00     0.395 HD
ENDBRANCH   1   7
TORSDOF 1
ENDMDL
