MODEL 1
REMARK minimizedAffinity 1.61411893
REMARK minimizedRMSD -1
REMARK  1 active torsions:
REMARK  status: ('A' for Active; 'I' for Inactive)
REMARK    1  A    between atoms: N_2  and  C1_3 
ROOT
ATOM      1  C1  UNL d   1       1.297  -0.477  -2.801  0.00  0.00     0.143 A 
ATOM      2  C2  UNL d   1       1.240   0.866  -3.192  0.00  0.00    -0.057 A 
ATOM      3  C3  UNL d   1       0.942   1.878  -2.272  0.00  0.00     0.033 A 
ATOM      4  C4  UNL d   1       0.665   1.561  -0.946  0.00  0.00    -0.042 A 
ATOM      5  C5  UNL d   1       0.690   0.231  -0.541  0.00  0.00     0.033 A 
ATOM      6  C6  UNL d   1       0.996  -0.774  -1.463  0.00  0.00    -0.057 A 
ENDROOT
BRANCH   1   7
ATOM      7  N   UNL d   1       1.491  -1.537  -3.689  0.00  0.00    -0.732 N 
ATOM      8  C   UNL d   1       0.890  -2.829  -3.437  0.00  0.00     0.284 C 
ATOM      9  H3  UNL d   1       1.450  -1.242  -4.662  0.00  0.00     0.395 HD
ENDBRANCH   1   7
TORSDOF 1
ENDMDL
