MODEL 1
REMARK minimizedAffinity -1.96084237
REMARK minimizedRMSD -1
REMARK  1 active torsions:
REMARK  status: ('A' for Active; 'I' for Inactive)
REMARK    1  A    between atoms: N_2  and  C1_3 
ROOT
ATOM      1  C1  UNL d   1       1.351  -0.300  -2.399  0.00  0.00     0.143 A 
ATOM      2  C2  UNL d   1       1.299  -1.694  -2.511  0.00  0.00    -0.057 A 
ATOM      3  C3  UNL d   1       1.325  -2.323  -3.762  0.00  0.00     0.033 A 
ATOM      4  C4  UNL d   1       1.375  -1.566  -4.927  0.00  0.00    -0.042 A 
ATOM      5  C5  UNL d   1       1.401  -0.178  -4.841  0.00  0.00     0.033 A 
ATOM      6  C6  UNL d   1       1.382   0.444  -3.589  0.00  0.00    -0.057 A 
ENDROOT
BRANCH   1   7
ATOM      7  N   UNL d   1       1.229   0.387  -1.189  0.00  0.00    -0.732 N 
ATOM      8  C   UNL d   1       0.756   1.755  -1.163  0.00  0.00     0.284 C 
ATOM      9  H3  UNL d   1       0.853  -0.197  -0.446  0.00  0.00     0.395 HD
ENDBRANCH   1   7
TORSDOF 1
ENDMDL
