MODEL 1
REMARK minimizedAffinity 2.35137081
REMARK minimizedRMSD -1
REMARK  2 active torsions:
REMARK  status: ('A' for Active; 'I' for Inactive)
REMARK    1  A    between atoms: C1_2  and  C2_3 
REMARK    2  A    between atoms: C2_3  and  C3_4 
ROOT
ATOM      1  C3  UNL d   1       0.641  -2.197   0.215  0.00  0.00    -0.075 A 
ATOM      2  C4  UNL d   1       1.151  -2.398  -1.076  0.00  0.00     0.002 A 
ATOM      3  C5  UNL d   1       0.378  -2.098  -2.198  0.00  0.00     0.002 A 
ATOM      4  C6  UNL d   1      -0.916  -1.604  -2.044  0.00  0.00    -0.004 A 
ATOM      5  C7  UNL d   1      -1.438  -1.416  -0.766  0.00  0.00     0.002 A 
ATOM      6  C8  UNL d   1      -0.665  -1.711   0.358  0.00  0.00     0.002 A 
ENDROOT
BRANCH   1   7
ATOM      7  C2  UNL d   1       1.484  -2.493   1.432  0.00  0.00     0.056 C 
BRANCH   7   8
ATOM      8  C1  UNL d   1       2.779  -1.677   1.507  0.00  0.00     0.007 C 
ATOM      9  C   UNL d   1       2.544  -0.173   1.492  0.00  0.00     0.009 C 
ENDBRANCH   7   8
ENDBRANCH   1   7
TORSDOF 2
ENDMDL
