MODEL 1
REMARK minimizedAffinity 2.20924687
REMARK minimizedRMSD -1
REMARK  2 active torsions:
REMARK  status: ('A' for Active; 'I' for Inactive)
REMARK    1  A    between atoms: C1_2  and  C2_3 
REMARK    2  A    between atoms: C2_3  and  C3_4 
ROOT
ATOM      1  C3  UNL d   1       0.349  -1.975   0.500  0.00  0.00    -0.075 A 
ATOM      2  C4  UNL d   1       1.021  -0.768   0.743  0.00  0.00     0.002 A 
ATOM      3  C5  UNL d   1       2.190  -0.750   1.505  0.00  0.00     0.002 A 
ATOM      4  C6  UNL d   1       2.694  -1.932   2.042  0.00  0.00    -0.004 A 
ATOM      5  C7  UNL d   1       2.026  -3.134   1.820  0.00  0.00     0.002 A 
ATOM      6  C8  UNL d   1       0.859  -3.157   1.054  0.00  0.00     0.002 A 
ENDROOT
BRANCH   1   7
ATOM      7  C2  UNL d   1      -0.899  -2.007  -0.349  0.00  0.00     0.056 C 
BRANCH   7   8
ATOM      8  C1  UNL d   1      -0.701  -2.648  -1.726  0.00  0.00     0.007 C 
ATOM      9  C   UNL d   1       0.670  -2.369  -2.327  0.00  0.00     0.009 C 
ENDBRANCH   7   8
ENDBRANCH   1   7
TORSDOF 2
ENDMDL
