MODEL 1
REMARK minimizedAffinity 2.64505768
REMARK minimizedRMSD -1
REMARK  2 active torsions:
REMARK  status: ('A' for Active; 'I' for Inactive)
REMARK    1  A    between atoms: C1_2  and  C2_3 
REMARK    2  A    between atoms: C2_3  and  C3_4 
ROOT
ATOM      1  C3  UNL d   1       0.546  -2.249  -0.118  0.00  0.00    -0.075 A 
ATOM      2  C4  UNL d   1      -0.700  -2.328   0.521  0.00  0.00     0.002 A 
ATOM      3  C5  UNL d   1      -1.853  -2.617  -0.208  0.00  0.00     0.002 A 
ATOM      4  C6  UNL d   1      -1.778  -2.822  -1.584  0.00  0.00    -0.004 A 
ATOM      5  C7  UNL d   1      -0.548  -2.730  -2.232  0.00  0.00     0.002 A 
ATOM      6  C8  UNL d   1       0.608  -2.445  -1.504  0.00  0.00     0.002 A 
ENDROOT
BRANCH   1   7
ATOM      7  C2  UNL d   1       1.802  -1.965   0.670  0.00  0.00     0.056 C 
BRANCH   7   8
ATOM      8  C1  UNL d   1       1.806  -0.602   1.369  0.00  0.00     0.007 C 
ATOM      9  C   UNL d   1       3.201  -0.013   1.531  0.00  0.00     0.009 C 
ENDBRANCH   7   8
ENDBRANCH   1   7
TORSDOF 2
ENDMDL
