MODEL 1
REMARK minimizedAffinity 0.86120826
REMARK minimizedRMSD -1
REMARK  2 active torsions:
REMARK  status: ('A' for Active; 'I' for Inactive)
REMARK    1  A    between atoms: C1_2  and  C2_3 
REMARK    2  A    between atoms: C2_3  and  C3_4 
ROOT
ATOM      1  C3  UNL d   1       0.954  -0.826   1.319  0.00  0.00    -0.075 A 
ATOM      2  C4  UNL d   1      -0.038   0.139   1.090  0.00  0.00     0.002 A 
ATOM      3  C5  UNL d   1      -1.358  -0.244   0.855  0.00  0.00     0.002 A 
ATOM      4  C6  UNL d   1      -1.702  -1.593   0.835  0.00  0.00    -0.004 A 
ATOM      5  C7  UNL d   1      -0.723  -2.562   1.044  0.00  0.00     0.002 A 
ATOM      6  C8  UNL d   1       0.599  -2.181   1.284  0.00  0.00     0.002 A 
ENDROOT
BRANCH   1   7
ATOM      7  C2  UNL d   1       2.379  -0.418   1.604  0.00  0.00     0.056 C 
BRANCH   7   8
ATOM      8  C1  UNL d   1       2.589   1.098   1.686  0.00  0.00     0.007 C 
ATOM      9  C   UNL d   1       2.768   1.754   0.323  0.00  0.00     0.009 C 
ENDBRANCH   7   8
ENDBRANCH   1   7
TORSDOF 2
ENDMDL
