MODEL 1
REMARK minimizedAffinity 10.4319038
REMARK minimizedRMSD -1
REMARK  2 active torsions:
REMARK  status: ('A' for Active; 'I' for Inactive)
REMARK    1  A    between atoms: C1_2  and  C2_3 
REMARK    2  A    between atoms: C2_3  and  C3_4 
ROOT
ATOM      1  C3  UNL d   1       0.493  -0.517   1.210  0.00  0.00    -0.075 A 
ATOM      2  C4  UNL d   1      -0.234   0.660   1.442  0.00  0.00     0.002 A 
ATOM      3  C5  UNL d   1       0.422   1.837   1.805  0.00  0.00     0.002 A 
ATOM      4  C6  UNL d   1       1.807   1.851   1.950  0.00  0.00    -0.004 A 
ATOM      5  C7  UNL d   1       2.537   0.683   1.737  0.00  0.00     0.002 A 
ATOM      6  C8  UNL d   1       1.885  -0.495   1.370  0.00  0.00     0.002 A 
ENDROOT
BRANCH   1   7
ATOM      7  C2  UNL d   1      -0.207  -1.786   0.788  0.00  0.00     0.056 C 
BRANCH   7   8
ATOM      8  C1  UNL d   1      -0.594  -1.823  -0.694  0.00  0.00     0.007 C 
ATOM      9  C   UNL d   1       0.287  -2.748  -1.522  0.00  0.00     0.009 C 
ENDBRANCH   7   8
ENDBRANCH   1   7
TORSDOF 2
ENDMDL
