MODEL 1
REMARK minimizedAffinity 7.46667051
REMARK minimizedRMSD -1
REMARK  2 active torsions:
REMARK  status: ('A' for Active; 'I' for Inactive)
REMARK    1  A    between atoms: C1_2  and  C2_3 
REMARK    2  A    between atoms: C2_3  and  C3_4 
ROOT
ATOM      1  C3  UNL d   1       3.736   0.193   0.016  0.00  0.00    -0.075 A 
ATOM      2  C4  UNL d   1       3.213  -0.927   0.679  0.00  0.00     0.002 A 
ATOM      3  C5  UNL d   1       2.185  -0.783   1.610  0.00  0.00     0.002 A 
ATOM      4  C6  UNL d   1       1.673   0.481   1.898  0.00  0.00    -0.004 A 
ATOM      5  C7  UNL d   1       2.196   1.602   1.257  0.00  0.00     0.002 A 
ATOM      6  C8  UNL d   1       3.223   1.460   0.322  0.00  0.00     0.002 A 
ENDROOT
BRANCH   1   7
ATOM      7  C2  UNL d   1       4.829   0.040  -1.014  0.00  0.00     0.056 C 
BRANCH   7   8
ATOM      8  C1  UNL d   1       4.324  -0.358  -2.405  0.00  0.00     0.007 C 
ATOM      9  C   UNL d   1       3.157   0.493  -2.886  0.00  0.00     0.009 C 
ENDBRANCH   7   8
ENDBRANCH   1   7
TORSDOF 2
ENDMDL
