MODEL 1
REMARK minimizedAffinity 8.74558544
REMARK minimizedRMSD -1
REMARK  2 active torsions:
REMARK  status: ('A' for Active; 'I' for Inactive)
REMARK    1  A    between atoms: C1_2  and  C2_3 
REMARK    2  A    between atoms: C2_3  and  C3_4 
ROOT
ATOM      1  C3  UNL d   1      -4.146   2.492  -0.609  0.00  0.00    -0.075 A 
ATOM      2  C4  UNL d   1      -3.547   1.706   0.386  0.00  0.00     0.002 A 
ATOM      3  C5  UNL d   1      -4.173   1.529   1.621  0.00  0.00     0.002 A 
ATOM      4  C6  UNL d   1      -5.396   2.144   1.880  0.00  0.00    -0.004 A 
ATOM      5  C7  UNL d   1      -5.991   2.941   0.905  0.00  0.00     0.002 A 
ATOM      6  C8  UNL d   1      -5.370   3.116  -0.333  0.00  0.00     0.002 A 
ENDROOT
BRANCH   1   7
ATOM      7  C2  UNL d   1      -3.488   2.663  -1.958  0.00  0.00     0.056 C 
BRANCH   7   8
ATOM      8  C1  UNL d   1      -3.913   1.618  -2.995  0.00  0.00     0.007 C 
ATOM      9  C   UNL d   1      -4.719   2.207  -4.145  0.00  0.00     0.009 C 
ENDBRANCH   7   8
ENDBRANCH   1   7
TORSDOF 2
ENDMDL
