MODEL 1
REMARK minimizedAffinity -5.02311802
REMARK minimizedRMSD -1
REMARK  0 active torsions:
REMARK  status: ('A' for Active; 'I' for Inactive)
ROOT
ATOM      1  C   UNL d   1       2.051  -1.290  -2.626  0.00  0.00     0.020 A 
ATOM      2  C1  UNL d   1       1.528  -2.307  -1.828  0.00  0.00     0.020 A 
ATOM      3  C2  UNL d   1       0.852  -1.990  -0.647  0.00  0.00     0.034 A 
ATOM      4  C3  UNL d   1       0.698  -0.653  -0.262  0.00  0.00     0.017 A 
ATOM      5  C4  UNL d   1       1.223   0.367  -1.064  0.00  0.00     0.017 A 
ATOM      6  C5  UNL d   1       1.898   0.043  -2.245  0.00  0.00     0.034 A 
ATOM      7 Cl   UNL d   1       1.072   2.039  -0.655  0.00  0.00    -0.070 Cl
ATOM      8 Cl1  UNL d   1      -0.149  -0.334   1.210  0.00  0.00    -0.070 Cl
ENDROOT
TORSDOF 0
ENDMDL
