MODEL 1
REMARK minimizedAffinity -1.80869234
REMARK minimizedRMSD -1
REMARK  0 active torsions:
REMARK  status: ('A' for Active; 'I' for Inactive)
ROOT
ATOM      1  C   UNL d   1      -0.246   0.256   0.492  0.00  0.00     0.020 A 
ATOM      2  C1  UNL d   1       0.465   1.236  -0.200  0.00  0.00     0.020 A 
ATOM      3  C2  UNL d   1       1.548   0.876  -1.005  0.00  0.00     0.034 A 
ATOM      4  C3  UNL d   1       1.924  -0.467  -1.119  0.00  0.00     0.017 A 
ATOM      5  C4  UNL d   1       1.211  -1.450  -0.424  0.00  0.00     0.017 A 
ATOM      6  C5  UNL d   1       0.127  -1.084   0.380  0.00  0.00     0.034 A 
ATOM      7 Cl   UNL d   1       1.616  -3.128  -0.516  0.00  0.00    -0.070 Cl
ATOM      8 Cl1  UNL d   1       3.274  -0.839  -2.132  0.00  0.00    -0.070 Cl
ENDROOT
TORSDOF 0
ENDMDL
