MODEL 1
REMARK minimizedAffinity -6.07991457
REMARK minimizedRMSD -1
REMARK  0 active torsions:
REMARK  status: ('A' for Active; 'I' for Inactive)
ROOT
ATOM      1  C   UNL d   1       2.253  -0.374  -2.671  0.00  0.00     0.020 A 
ATOM      2  C1  UNL d   1       1.643  -1.564  -2.276  0.00  0.00     0.020 A 
ATOM      3  C2  UNL d   1       0.877  -1.602  -1.109  0.00  0.00     0.034 A 
ATOM      4  C3  UNL d   1       0.718  -0.448  -0.333  0.00  0.00     0.017 A 
ATOM      5  C4  UNL d   1       1.331   0.747  -0.731  0.00  0.00     0.017 A 
ATOM      6  C5  UNL d   1       2.097   0.779  -1.900  0.00  0.00     0.034 A 
ATOM      7 Cl   UNL d   1       1.180   2.211   0.175  0.00  0.00    -0.070 Cl
ATOM      8 Cl1  UNL d   1      -0.243  -0.567   1.097  0.00  0.00    -0.070 Cl
ENDROOT
TORSDOF 0
ENDMDL
