MODEL 1
REMARK minimizedAffinity -2.62761497
REMARK minimizedRMSD -1
REMARK  0 active torsions:
REMARK  status: ('A' for Active; 'I' for Inactive)
ROOT
ATOM      1  C   UNL d   1      -0.724   0.479   0.942  0.00  0.00     0.020 A 
ATOM      2  C1  UNL d   1      -0.031   1.554   0.387  0.00  0.00     0.020 A 
ATOM      3  C2  UNL d   1       0.775   1.359  -0.737  0.00  0.00     0.034 A 
ATOM      4  C3  UNL d   1       0.891   0.086  -1.308  0.00  0.00     0.017 A 
ATOM      5  C4  UNL d   1       0.195  -0.992  -0.749  0.00  0.00     0.017 A 
ATOM      6  C5  UNL d   1      -0.612  -0.791   0.376  0.00  0.00     0.034 A 
ATOM      7 Cl   UNL d   1       0.287  -2.591  -1.398  0.00  0.00    -0.070 Cl
ATOM      8 Cl1  UNL d   1       1.905  -0.083  -2.696  0.00  0.00    -0.070 Cl
ENDROOT
TORSDOF 0
ENDMDL
