MODEL 1
REMARK minimizedAffinity -4.63443565
REMARK minimizedRMSD -1
REMARK  0 active torsions:
REMARK  status: ('A' for Active; 'I' for Inactive)
ROOT
ATOM      1  C   UNL d   1       2.298  -0.741  -3.130  0.00  0.00     0.020 A 
ATOM      2  C1  UNL d   1       1.943  -2.041  -2.772  0.00  0.00     0.020 A 
ATOM      3  C2  UNL d   1       1.202  -2.267  -1.611  0.00  0.00     0.034 A 
ATOM      4  C3  UNL d   1       0.813  -1.193  -0.803  0.00  0.00     0.017 A 
ATOM      5  C4  UNL d   1       1.170   0.112  -1.163  0.00  0.00     0.017 A 
ATOM      6  C5  UNL d   1       1.913   0.333  -2.327  0.00  0.00     0.034 A 
ATOM      7 Cl   UNL d   1       0.727   1.488  -0.216  0.00  0.00    -0.070 Cl
ATOM      8 Cl1  UNL d   1      -0.103  -1.547   0.619  0.00  0.00    -0.070 Cl
ENDROOT
TORSDOF 0
ENDMDL
