MODEL 1
REMARK minimizedAffinity -3.63983369
REMARK minimizedRMSD -1
REMARK  0 active torsions:
REMARK  status: ('A' for Active; 'I' for Inactive)
ROOT
ATOM      1  C   UNL d   1       0.371   1.008   0.804  0.00  0.00     0.020 A 
ATOM      2  C1  UNL d   1      -0.063  -0.183   1.385  0.00  0.00     0.020 A 
ATOM      3  C2  UNL d   1      -0.033  -1.369   0.649  0.00  0.00     0.034 A 
ATOM      4  C3  UNL d   1       0.431  -1.368  -0.671  0.00  0.00     0.017 A 
ATOM      5  C4  UNL d   1       0.866  -0.171  -1.253  0.00  0.00     0.017 A 
ATOM      6  C5  UNL d   1       0.834   1.014  -0.512  0.00  0.00     0.034 A 
ATOM      7 Cl   UNL d   1       1.452  -0.090  -2.877  0.00  0.00    -0.070 Cl
ATOM      8 Cl1  UNL d   1       0.440  -2.872  -1.522  0.00  0.00    -0.070 Cl
ENDROOT
TORSDOF 0
ENDMDL
