MODEL 1
REMARK minimizedAffinity -2.53861451
REMARK minimizedRMSD -1
REMARK  0 active torsions:
REMARK  status: ('A' for Active; 'I' for Inactive)
ROOT
ATOM      1  C   UNL d   1      -0.416  -0.116   0.881  0.00  0.00     0.020 A 
ATOM      2  C1  UNL d   1       0.223   1.064   0.501  0.00  0.00     0.020 A 
ATOM      3  C2  UNL d   1       0.901   1.130  -0.718  0.00  0.00     0.034 A 
ATOM      4  C3  UNL d   1       0.942   0.014  -1.561  0.00  0.00     0.017 A 
ATOM      5  C4  UNL d   1       0.301  -1.170  -1.179  0.00  0.00     0.017 A 
ATOM      6  C5  UNL d   1      -0.377  -1.231   0.042  0.00  0.00     0.034 A 
ATOM      7 Cl   UNL d   1       0.308  -2.589  -2.167  0.00  0.00    -0.070 Cl
ATOM      8 Cl1  UNL d   1       1.799   0.166  -3.054  0.00  0.00    -0.070 Cl
ENDROOT
TORSDOF 0
ENDMDL
