MODEL 1
REMARK minimizedAffinity -4.59907961
REMARK minimizedRMSD -1
REMARK  0 active torsions:
REMARK  status: ('A' for Active; 'I' for Inactive)
ROOT
ATOM      1  C   UNL d   1       1.258  -1.494  -2.027  0.00  0.00     0.020 A 
ATOM      2  C1  UNL d   1       2.092  -0.457  -2.443  0.00  0.00     0.020 A 
ATOM      3  C2  UNL d   1       1.926   0.826  -1.916  0.00  0.00     0.034 A 
ATOM      4  C3  UNL d   1       0.925   1.075  -0.970  0.00  0.00     0.017 A 
ATOM      5  C4  UNL d   1       0.088   0.033  -0.553  0.00  0.00     0.017 A 
ATOM      6  C5  UNL d   1       0.258  -1.249  -1.084  0.00  0.00     0.034 A 
ATOM      7 Cl   UNL d   1      -1.169   0.263   0.610  0.00  0.00    -0.070 Cl
ATOM      8 Cl1  UNL d   1       0.777   2.685  -0.361  0.00  0.00    -0.070 Cl
ENDROOT
TORSDOF 0
ENDMDL
