MODEL 1
REMARK minimizedAffinity -5.90137005
REMARK minimizedRMSD -1
REMARK  0 active torsions:
REMARK  status: ('A' for Active; 'I' for Inactive)
ROOT
ATOM      1  C   UNL d   1       1.426  -1.608  -2.309  0.00  0.00     0.020 A 
ATOM      2  C1  UNL d   1       2.064  -0.413  -2.638  0.00  0.00     0.020 A 
ATOM      3  C2  UNL d   1       1.927   0.703  -1.809  0.00  0.00     0.034 A 
ATOM      4  C3  UNL d   1       1.152   0.625  -0.647  0.00  0.00     0.017 A 
ATOM      5  C4  UNL d   1       0.513  -0.575  -0.317  0.00  0.00     0.017 A 
ATOM      6  C5  UNL d   1       0.652  -1.689  -1.150  0.00  0.00     0.034 A 
ATOM      7 Cl   UNL d   1      -0.461  -0.747   1.101  0.00  0.00    -0.070 Cl
ATOM      8 Cl1  UNL d   1       1.028   2.044   0.332  0.00  0.00    -0.070 Cl
ENDROOT
TORSDOF 0
ENDMDL
