MODEL 1
REMARK minimizedAffinity -3.54138517
REMARK minimizedRMSD -1
REMARK  0 active torsions:
REMARK  status: ('A' for Active; 'I' for Inactive)
ROOT
ATOM      1  C   UNL d   1       0.254   0.216   0.966  0.00  0.00     0.020 A 
ATOM      2  C1  UNL d   1       0.738   1.279   0.205  0.00  0.00     0.020 A 
ATOM      3  C2  UNL d   1       1.170   1.060  -1.105  0.00  0.00     0.034 A 
ATOM      4  C3  UNL d   1       1.119  -0.225  -1.657  0.00  0.00     0.017 A 
ATOM      5  C4  UNL d   1       0.633  -1.292  -0.892  0.00  0.00     0.017 A 
ATOM      6  C5  UNL d   1       0.202  -1.066   0.419  0.00  0.00     0.034 A 
ATOM      7 Cl   UNL d   1       0.540  -2.905  -1.504  0.00  0.00    -0.070 Cl
ATOM      8 Cl1  UNL d   1       1.669  -0.424  -3.283  0.00  0.00    -0.070 Cl
ENDROOT
TORSDOF 0
ENDMDL
