MODEL 1
REMARK minimizedAffinity -4.1432724
REMARK minimizedRMSD -1
REMARK  0 active torsions:
REMARK  status: ('A' for Active; 'I' for Inactive)
ROOT
ATOM      1  C   UNL d   1      -0.189   0.008   1.445  0.00  0.00     0.020 A 
ATOM      2  C1  UNL d   1       0.361   1.136   0.838  0.00  0.00     0.020 A 
ATOM      3  C2  UNL d   1       0.876   1.051  -0.457  0.00  0.00     0.034 A 
ATOM      4  C3  UNL d   1       0.843  -0.165  -1.149  0.00  0.00     0.017 A 
ATOM      5  C4  UNL d   1       0.291  -1.297  -0.539  0.00  0.00     0.017 A 
ATOM      6  C5  UNL d   1      -0.224  -1.206   0.758  0.00  0.00     0.034 A 
ATOM      7 Cl   UNL d   1       0.215  -2.832  -1.330  0.00  0.00    -0.070 Cl
ATOM      8 Cl1  UNL d   1       1.498  -0.198  -2.747  0.00  0.00    -0.070 Cl
ENDROOT
TORSDOF 0
ENDMDL
