MODEL 1
REMARK minimizedAffinity -3.95489955
REMARK minimizedRMSD -1
REMARK  0 active torsions:
REMARK  status: ('A' for Active; 'I' for Inactive)
ROOT
ATOM      1  C   UNL d   1       0.607   1.253   0.311  0.00  0.00     0.020 A 
ATOM      2  C1  UNL d   1      -0.074   0.245   0.993  0.00  0.00     0.020 A 
ATOM      3  C2  UNL d   1      -0.165  -1.034   0.439  0.00  0.00     0.034 A 
ATOM      4  C3  UNL d   1       0.426  -1.308  -0.800  0.00  0.00     0.017 A 
ATOM      5  C4  UNL d   1       1.109  -0.296  -1.483  0.00  0.00     0.017 A 
ATOM      6  C5  UNL d   1       1.197   0.983  -0.925  0.00  0.00     0.034 A 
ATOM      7 Cl   UNL d   1       1.863  -0.559  -3.016  0.00  0.00    -0.070 Cl
ATOM      8 Cl1  UNL d   1       0.275  -2.912  -1.424  0.00  0.00    -0.070 Cl
ENDROOT
TORSDOF 0
ENDMDL
