MODEL 1
REMARK minimizedAffinity -2.22659302
REMARK minimizedRMSD -1
REMARK  0 active torsions:
REMARK  status: ('A' for Active; 'I' for Inactive)
ROOT
ATOM      1  C   UNL d   1      -0.139  -1.476  -1.071  0.00  0.00     0.020 A 
ATOM      2  C1  UNL d   1      -0.789  -0.884   0.011  0.00  0.00     0.020 A 
ATOM      3  C2  UNL d   1      -0.240   0.246   0.622  0.00  0.00     0.034 A 
ATOM      4  C3  UNL d   1       0.961   0.788   0.150  0.00  0.00     0.017 A 
ATOM      5  C4  UNL d   1       1.613   0.192  -0.936  0.00  0.00     0.017 A 
ATOM      6  C5  UNL d   1       1.059  -0.939  -1.543  0.00  0.00     0.034 A 
ATOM      7 Cl   UNL d   1       3.099   0.803  -1.574  0.00  0.00    -0.070 Cl
ATOM      8 Cl1  UNL d   1       1.582   2.187   0.952  0.00  0.00    -0.070 Cl
ENDROOT
TORSDOF 0
ENDMDL
