MODEL 1
REMARK minimizedAffinity -4.5548048
REMARK minimizedRMSD -1
REMARK  0 active torsions:
REMARK  status: ('A' for Active; 'I' for Inactive)
ROOT
ATOM      1  C   UNL d   1       0.087  -0.436   1.309  0.00  0.00     0.020 A 
ATOM      2  C1  UNL d   1      -0.006  -1.477   0.387  0.00  0.00     0.020 A 
ATOM      3  C2  UNL d   1       0.359  -1.265  -0.945  0.00  0.00     0.034 A 
ATOM      4  C3  UNL d   1       0.818  -0.008  -1.357  0.00  0.00     0.017 A 
ATOM      5  C4  UNL d   1       0.911   1.036  -0.429  0.00  0.00     0.017 A 
ATOM      6  C5  UNL d   1       0.544   0.818   0.902  0.00  0.00     0.034 A 
ATOM      7 Cl   UNL d   1       1.468   2.614  -0.863  0.00  0.00    -0.070 Cl
ATOM      8 Cl1  UNL d   1       1.252   0.183  -3.018  0.00  0.00    -0.070 Cl
ENDROOT
TORSDOF 0
ENDMDL
