MODEL 1
REMARK minimizedAffinity -3.49873519
REMARK minimizedRMSD -1
REMARK  0 active torsions:
REMARK  status: ('A' for Active; 'I' for Inactive)
ROOT
ATOM      1  C   UNL d   1       1.517   0.616  -2.914  0.00  0.00     0.020 A 
ATOM      2  C1  UNL d   1       0.506  -0.343  -2.973  0.00  0.00     0.020 A 
ATOM      3  C2  UNL d   1      -0.171  -0.715  -1.810  0.00  0.00     0.034 A 
ATOM      4  C3  UNL d   1       0.162  -0.129  -0.583  0.00  0.00     0.017 A 
ATOM      5  C4  UNL d   1       1.177   0.833  -0.526  0.00  0.00     0.017 A 
ATOM      6  C5  UNL d   1       1.852   1.202  -1.693  0.00  0.00     0.034 A 
ATOM      7 Cl   UNL d   1       1.643   1.601   0.951  0.00  0.00    -0.070 Cl
ATOM      8 Cl1  UNL d   1      -0.718  -0.636   0.815  0.00  0.00    -0.070 Cl
ENDROOT
TORSDOF 0
ENDMDL
