MODEL 1
REMARK minimizedAffinity 1.85059464
REMARK minimizedRMSD -1
REMARK  1 active torsions:
REMARK  status: ('A' for Active; 'I' for Inactive)
REMARK    1  A    between atoms: C3_4  and  O_7 
ROOT
ATOM      1  C   UNL d   1      -3.644  -0.021  -3.705  0.00  0.00    -0.033 A 
ATOM      2  C1  UNL d   1      -3.456   1.148  -2.966  0.00  0.00     0.039 A 
ATOM      3  C2  UNL d   1      -3.768   2.388  -3.527  0.00  0.00    -0.080 A 
ATOM      4  C3  UNL d   1      -4.266   2.445  -4.825  0.00  0.00     0.150 A 
ATOM      5  C4  UNL d   1      -4.459   1.284  -5.566  0.00  0.00    -0.007 A 
ATOM      6  C5  UNL d   1      -4.147   0.047  -5.005  0.00  0.00     0.039 A 
ENDROOT
BRANCH   4   7
ATOM      7  O   UNL d   1      -4.580   3.633  -5.417  0.00  0.00    -0.526 OA
ATOM      8  H5  UNL d   1      -4.368   4.351  -4.797  0.00  0.00     0.418 HD
ENDBRANCH   4   7
TORSDOF 1
ENDMDL
