MODEL 1
REMARK minimizedAffinity 1.88051474
REMARK minimizedRMSD -1
REMARK  1 active torsions:
REMARK  status: ('A' for Active; 'I' for Inactive)
REMARK    1  A    between atoms: C3_4  and  O_7 
ROOT
ATOM      1  C   UNL d   1      -5.997  -0.243   2.964  0.00  0.00    -0.033 A 
ATOM      2  C1  UNL d   1      -5.999  -1.484   2.325  0.00  0.00     0.039 A 
ATOM      3  C2  UNL d   1      -5.998  -2.659   3.079  0.00  0.00    -0.080 A 
ATOM      4  C3  UNL d   1      -5.997  -2.579   4.469  0.00  0.00     0.150 A 
ATOM      5  C4  UNL d   1      -5.999  -1.346   5.112  0.00  0.00    -0.007 A 
ATOM      6  C5  UNL d   1      -5.998  -0.174   4.358  0.00  0.00     0.039 A 
ENDROOT
BRANCH   4   7
ATOM      7  O   UNL d   1      -5.991  -3.699   5.248  0.00  0.00    -0.526 OA
ATOM      8  H5  UNL d   1      -5.961  -4.477   4.667  0.00  0.00     0.418 HD
ENDBRANCH   4   7
TORSDOF 1
ENDMDL
