MODEL 1
REMARK minimizedAffinity 3.06979156
REMARK minimizedRMSD -1
REMARK  1 active torsions:
REMARK  status: ('A' for Active; 'I' for Inactive)
REMARK    1  A    between atoms: C3_4  and  O_7 
ROOT
ATOM      1  C   UNL d   1      -5.824  -2.133   5.980  0.00  0.00    -0.033 A 
ATOM      2  C1  UNL d   1      -5.955  -2.990   4.886  0.00  0.00     0.039 A 
ATOM      3  C2  UNL d   1      -5.988  -2.471   3.590  0.00  0.00    -0.080 A 
ATOM      4  C3  UNL d   1      -5.887  -1.095   3.403  0.00  0.00     0.150 A 
ATOM      5  C4  UNL d   1      -5.751  -0.236   4.488  0.00  0.00    -0.007 A 
ATOM      6  C5  UNL d   1      -5.720  -0.756   5.781  0.00  0.00     0.039 A 
ENDROOT
BRANCH   4   7
ATOM      7  O   UNL d   1      -5.918  -0.541   2.157  0.00  0.00    -0.526 OA
ATOM      8  H5  UNL d   1      -6.044  -1.252   1.507  0.00  0.00     0.418 HD
ENDBRANCH   4   7
TORSDOF 1
ENDMDL
