MODEL 1
REMARK minimizedAffinity 1.2143954
REMARK minimizedRMSD -1
REMARK  1 active torsions:
REMARK  status: ('A' for Active; 'I' for Inactive)
REMARK    1  A    between atoms: C3_4  and  O_7 
ROOT
ATOM      1  C   UNL d   1       1.211  -0.503   1.994  0.00  0.00    -0.033 A 
ATOM      2  C1  UNL d   1       0.306   0.556   1.888  0.00  0.00     0.039 A 
ATOM      3  C2  UNL d   1      -0.077   1.026   0.630  0.00  0.00    -0.080 A 
ATOM      4  C3  UNL d   1       0.449   0.429  -0.512  0.00  0.00     0.150 A 
ATOM      5  C4  UNL d   1       1.348  -0.628  -0.414  0.00  0.00    -0.007 A 
ATOM      6  C5  UNL d   1       1.731  -1.095   0.843  0.00  0.00     0.039 A 
ENDROOT
BRANCH   4   7
ATOM      7  O   UNL d   1       0.109   0.856  -1.761  0.00  0.00    -0.526 OA
ATOM      8  H5  UNL d   1      -0.498   1.611  -1.673  0.00  0.00     0.418 HD
ENDBRANCH   4   7
TORSDOF 1
ENDMDL
