MODEL 1
REMARK minimizedAffinity 4.23689127
REMARK minimizedRMSD -1
REMARK  1 active torsions:
REMARK  status: ('A' for Active; 'I' for Inactive)
REMARK    1  A    between atoms: C3_4  and  O_7 
ROOT
ATOM      1  C   UNL d   1       0.666  -0.133   1.121  0.00  0.00    -0.033 A 
ATOM      2  C1  UNL d   1       0.139   0.988   1.765  0.00  0.00     0.039 A 
ATOM      3  C2  UNL d   1      -0.326   2.072   1.017  0.00  0.00    -0.080 A 
ATOM      4  C3  UNL d   1      -0.258   2.021  -0.373  0.00  0.00     0.150 A 
ATOM      5  C4  UNL d   1       0.262   0.906  -1.021  0.00  0.00    -0.007 A 
ATOM      6  C5  UNL d   1       0.726  -0.175  -0.272  0.00  0.00     0.039 A 
ENDROOT
BRANCH   4   7
ATOM      7  O   UNL d   1      -0.695   3.056  -1.145  0.00  0.00    -0.526 OA
ATOM      8  H5  UNL d   1      -1.001   3.769  -0.560  0.00  0.00     0.418 HD
ENDBRANCH   4   7
TORSDOF 1
ENDMDL
