MODEL 1
REMARK minimizedAffinity -3.83416724
REMARK minimizedRMSD -1
REMARK  1 active torsions:
REMARK  status: ('A' for Active; 'I' for Inactive)
REMARK    1  A    between atoms: C3_4  and  O_7 
ROOT
ATOM      1  C   UNL d   1       0.283   0.187  -1.314  0.00  0.00    -0.033 A 
ATOM      2  C1  UNL d   1       0.509  -0.473  -0.104  0.00  0.00     0.039 A 
ATOM      3  C2  UNL d   1       0.400   0.222   1.103  0.00  0.00    -0.080 A 
ATOM      4  C3  UNL d   1       0.063   1.572   1.086  0.00  0.00     0.150 A 
ATOM      5  C4  UNL d   1      -0.168   2.234  -0.116  0.00  0.00    -0.007 A 
ATOM      6  C5  UNL d   1      -0.057   1.540  -1.319  0.00  0.00     0.039 A 
ENDROOT
BRANCH   4   7
ATOM      7  O   UNL d   1      -0.051   2.293   2.238  0.00  0.00    -0.526 OA
ATOM      8  H5  UNL d   1       0.165   1.712   2.986  0.00  0.00     0.418 HD
ENDBRANCH   4   7
TORSDOF 1
ENDMDL
