MODEL 1
REMARK minimizedAffinity 0.275311679
REMARK minimizedRMSD -1
REMARK  1 active torsions:
REMARK  status: ('A' for Active; 'I' for Inactive)
REMARK    1  A    between atoms: C3_4  and  O_7 
ROOT
ATOM      1  C   UNL d   1       0.357   0.491   1.644  0.00  0.00    -0.033 A 
ATOM      2  C1  UNL d   1      -0.125   1.527   0.841  0.00  0.00     0.039 A 
ATOM      3  C2  UNL d   1       0.002   1.453  -0.548  0.00  0.00    -0.080 A 
ATOM      4  C3  UNL d   1       0.611   0.339  -1.120  0.00  0.00     0.150 A 
ATOM      5  C4  UNL d   1       1.090  -0.698  -0.326  0.00  0.00    -0.007 A 
ATOM      6  C5  UNL d   1       0.963  -0.622   1.060  0.00  0.00     0.039 A 
ENDROOT
BRANCH   4   7
ATOM      7  O   UNL d   1       0.762   0.224  -2.470  0.00  0.00    -0.526 OA
ATOM      8  H5  UNL d   1       0.410   1.028  -2.888  0.00  0.00     0.418 HD
ENDBRANCH   4   7
TORSDOF 1
ENDMDL
