MODEL 1
REMARK minimizedAffinity -0.8974756
REMARK minimizedRMSD -1
REMARK  1 active torsions:
REMARK  status: ('A' for Active; 'I' for Inactive)
REMARK    1  A    between atoms: C3_4  and  O_7 
ROOT
ATOM      1  C   UNL d   1      -0.055   0.374  -0.935  0.00  0.00    -0.033 A 
ATOM      2  C1  UNL d   1      -0.159   1.766  -0.919  0.00  0.00     0.039 A 
ATOM      3  C2  UNL d   1       0.028   2.468   0.273  0.00  0.00    -0.080 A 
ATOM      4  C3  UNL d   1       0.319   1.768   1.441  0.00  0.00     0.150 A 
ATOM      5  C4  UNL d   1       0.429   0.381   1.431  0.00  0.00    -0.007 A 
ATOM      6  C5  UNL d   1       0.241  -0.318   0.240  0.00  0.00     0.039 A 
ENDROOT
BRANCH   4   7
ATOM      7  O   UNL d   1       0.505   2.410   2.629  0.00  0.00    -0.526 OA
ATOM      8  H5  UNL d   1       0.371   3.362   2.489  0.00  0.00     0.418 HD
ENDBRANCH   4   7
TORSDOF 1
ENDMDL
