MODEL 1
REMARK minimizedAffinity 1.21496928
REMARK minimizedRMSD -1
REMARK  1 active torsions:
REMARK  status: ('A' for Active; 'I' for Inactive)
REMARK    1  A    between atoms: C3_4  and  O_7 
ROOT
ATOM      1  C   UNL d   1       1.418  -0.588   2.373  0.00  0.00    -0.033 A 
ATOM      2  C1  UNL d   1       1.862  -0.926   1.093  0.00  0.00     0.039 A 
ATOM      3  C2  UNL d   1       1.355  -0.259  -0.023  0.00  0.00    -0.080 A 
ATOM      4  C3  UNL d   1       0.405   0.744   0.153  0.00  0.00     0.150 A 
ATOM      5  C4  UNL d   1      -0.039   1.089   1.425  0.00  0.00    -0.007 A 
ATOM      6  C5  UNL d   1       0.468   0.421   2.539  0.00  0.00     0.039 A 
ENDROOT
BRANCH   4   7
ATOM      7  O   UNL d   1      -0.123   1.420  -0.906  0.00  0.00    -0.526 OA
ATOM      8  H5  UNL d   1       0.256   1.056  -1.724  0.00  0.00     0.418 HD
ENDBRANCH   4   7
TORSDOF 1
ENDMDL
