MODEL 1
REMARK minimizedAffinity 13.1484137
REMARK minimizedRMSD -1
REMARK  0 active torsions:
REMARK  status: ('A' for Active; 'I' for Inactive)
ROOT
ATOM      1  C   UNL d   1       2.089  -3.914  -5.947  0.00  0.00    -0.002 A 
ATOM      2  C1  UNL d   1       1.951  -5.295  -5.953  0.00  0.00     0.010 A 
ATOM      3  C2  UNL d   1       0.685  -5.883  -5.966  0.00  0.00     0.041 A 
ATOM      4  C3  UNL d   1      -0.452  -5.051  -5.974  0.00  0.00    -0.075 A 
ATOM      5  S   UNL d   1      -2.103  -5.548  -5.991  0.00  0.00     0.015 SA
ATOM      6  C4  UNL d   1      -2.665  -3.939  -5.991  0.00  0.00     0.022 A 
ATOM      7  C5  UNL d   1      -1.632  -3.032  -5.978  0.00  0.00     0.026 A 
ATOM      8  C6  UNL d   1      -0.340  -3.658  -5.969  0.00  0.00    -0.082 A 
ATOM      9  C7  UNL d   1       0.958  -3.093  -5.955  0.00  0.00     0.045 A 
ENDROOT
TORSDOF 0
ENDMDL
