MODEL 1
REMARK minimizedAffinity -1.42571115
REMARK minimizedRMSD -1
REMARK  0 active torsions:
REMARK  status: ('A' for Active; 'I' for Inactive)
ROOT
ATOM      1  C   UNL d   1      -0.845  -4.470  -5.790  0.00  0.00    -0.002 A 
ATOM      2  C1  UNL d   1      -1.224  -3.141  -5.921  0.00  0.00     0.010 A 
ATOM      3  C2  UNL d   1      -2.574  -2.792  -5.994  0.00  0.00     0.041 A 
ATOM      4  C3  UNL d   1      -3.546  -3.810  -5.930  0.00  0.00    -0.075 A 
ATOM      5  S   UNL d   1      -5.258  -3.618  -5.999  0.00  0.00     0.015 SA
ATOM      6  C4  UNL d   1      -5.526  -5.295  -5.855  0.00  0.00     0.022 A 
ATOM      7  C5  UNL d   1      -4.349  -5.999  -5.756  0.00  0.00     0.026 A 
ATOM      8  C6  UNL d   1      -3.189  -5.154  -5.797  0.00  0.00    -0.082 A 
ATOM      9  C7  UNL d   1      -1.812  -5.477  -5.727  0.00  0.00     0.045 A 
ENDROOT
TORSDOF 0
ENDMDL
