MODEL 1
REMARK minimizedAffinity 4.50986958
REMARK minimizedRMSD -1
REMARK  0 active torsions:
REMARK  status: ('A' for Active; 'I' for Inactive)
ROOT
ATOM      1  C   UNL d   1      -4.804   5.521  -5.874  0.00  0.00    -0.002 A 
ATOM      2  C1  UNL d   1      -5.079   4.161  -5.884  0.00  0.00     0.010 A 
ATOM      3  C2  UNL d   1      -4.041   3.227  -5.922  0.00  0.00     0.041 A 
ATOM      4  C3  UNL d   1      -2.710   3.687  -5.947  0.00  0.00    -0.075 A 
ATOM      5  S   UNL d   1      -1.279   2.728  -5.994  0.00  0.00     0.015 SA
ATOM      6  C4  UNL d   1      -0.269   4.101  -6.000  0.00  0.00     0.022 A 
ATOM      7  C5  UNL d   1      -0.990   5.271  -5.968  0.00  0.00     0.026 A 
ATOM      8  C6  UNL d   1      -2.408   5.052  -5.937  0.00  0.00    -0.082 A 
ATOM      9  C7  UNL d   1      -3.482   5.974  -5.899  0.00  0.00     0.045 A 
ENDROOT
TORSDOF 0
ENDMDL
