MODEL 1
REMARK minimizedAffinity 1.37032855
REMARK minimizedRMSD -1
REMARK  0 active torsions:
REMARK  status: ('A' for Active; 'I' for Inactive)
ROOT
ATOM      1  C   UNL d   1       2.476   4.344  -5.999  0.00  0.00    -0.002 A 
ATOM      2  C1  UNL d   1       2.189   2.986  -5.999  0.00  0.00     0.010 A 
ATOM      3  C2  UNL d   1       0.865   2.540  -5.999  0.00  0.00     0.041 A 
ATOM      4  C3  UNL d   1      -0.174   3.491  -5.999  0.00  0.00    -0.075 A 
ATOM      5  S   UNL d   1      -1.869   3.178  -5.999  0.00  0.00     0.015 SA
ATOM      6  C4  UNL d   1      -2.252   4.839  -5.999  0.00  0.00     0.022 A 
ATOM      7  C5  UNL d   1      -1.126   5.627  -5.999  0.00  0.00     0.026 A 
ATOM      8  C6  UNL d   1       0.090   4.864  -5.999  0.00  0.00    -0.082 A 
ATOM      9  C7  UNL d   1       1.442   5.284  -5.999  0.00  0.00     0.045 A 
ENDROOT
TORSDOF 0
ENDMDL
