MODEL 1
REMARK minimizedAffinity 2.77767634
REMARK minimizedRMSD -1
REMARK  0 active torsions:
REMARK  status: ('A' for Active; 'I' for Inactive)
ROOT
ATOM      1  C   UNL d   1       3.319   3.272  -5.993  0.00  0.00    -0.002 A 
ATOM      2  C1  UNL d   1       3.451   4.653  -5.992  0.00  0.00     0.010 A 
ATOM      3  C2  UNL d   1       2.321   5.474  -5.994  0.00  0.00     0.041 A 
ATOM      4  C3  UNL d   1       1.045   4.877  -5.996  0.00  0.00    -0.075 A 
ATOM      5  S   UNL d   1      -0.479   5.683  -5.998  0.00  0.00     0.015 SA
ATOM      6  C4  UNL d   1      -1.340   4.212  -6.000  0.00  0.00     0.022 A 
ATOM      7  C5  UNL d   1      -0.501   3.123  -5.999  0.00  0.00     0.026 A 
ATOM      8  C6  UNL d   1       0.887   3.488  -5.996  0.00  0.00    -0.082 A 
ATOM      9  C7  UNL d   1       2.052   2.683  -5.995  0.00  0.00     0.045 A 
ENDROOT
TORSDOF 0
ENDMDL
