MODEL 1
REMARK minimizedAffinity 7.0139699
REMARK minimizedRMSD -1
REMARK  0 active torsions:
REMARK  status: ('A' for Active; 'I' for Inactive)
ROOT
ATOM      1  C   UNL d   1       2.466   5.703  -0.348  0.00  0.00    -0.002 A 
ATOM      2  C1  UNL d   1       3.846   5.620  -0.462  0.00  0.00     0.010 A 
ATOM      3  C2  UNL d   1       4.447   4.482  -1.003  0.00  0.00     0.041 A 
ATOM      4  C3  UNL d   1       3.629   3.419  -1.434  0.00  0.00    -0.075 A 
ATOM      5  S   UNL d   1       4.144   1.928  -2.129  0.00  0.00     0.015 SA
ATOM      6  C4  UNL d   1       2.543   1.366  -2.292  0.00  0.00     0.022 A 
ATOM      7  C5  UNL d   1       1.626   2.281  -1.832  0.00  0.00     0.026 A 
ATOM      8  C6  UNL d   1       2.237   3.480  -1.330  0.00  0.00    -0.082 A 
ATOM      9  C7  UNL d   1       1.658   4.647  -0.776  0.00  0.00     0.045 A 
ENDROOT
TORSDOF 0
ENDMDL
