MODEL 1
REMARK minimizedAffinity 8.04476452
REMARK minimizedRMSD -1
REMARK  0 active torsions:
REMARK  status: ('A' for Active; 'I' for Inactive)
ROOT
ATOM      1  C   UNL d   1      -2.804   3.209  -5.424  0.00  0.00    -0.002 A 
ATOM      2  C1  UNL d   1      -2.018   2.114  -5.754  0.00  0.00     0.010 A 
ATOM      3  C2  UNL d   1      -0.643   2.260  -5.950  0.00  0.00     0.041 A 
ATOM      4  C3  UNL d   1      -0.065   3.536  -5.805  0.00  0.00    -0.075 A 
ATOM      5  S   UNL d   1       1.597   3.953  -5.995  0.00  0.00     0.015 SA
ATOM      6  C4  UNL d   1       1.303   5.594  -5.642  0.00  0.00     0.022 A 
ATOM      7  C5  UNL d   1      -0.025   5.836  -5.383  0.00  0.00     0.026 A 
ATOM      8  C6  UNL d   1      -0.836   4.654  -5.472  0.00  0.00    -0.082 A 
ATOM      9  C7  UNL d   1      -2.227   4.474  -5.281  0.00  0.00     0.045 A 
ENDROOT
TORSDOF 0
ENDMDL
