MODEL 1
REMARK minimizedAffinity -0.237003386
REMARK minimizedRMSD -1
REMARK  0 active torsions:
REMARK  status: ('A' for Active; 'I' for Inactive)
ROOT
ATOM      1  C   UNL d   1       1.814   3.253  -5.997  0.00  0.00    -0.002 A 
ATOM      2  C1  UNL d   1       1.712   4.637  -5.995  0.00  0.00     0.010 A 
ATOM      3  C2  UNL d   1       0.462   5.258  -5.996  0.00  0.00     0.041 A 
ATOM      4  C3  UNL d   1      -0.697   4.456  -5.997  0.00  0.00    -0.075 A 
ATOM      5  S   UNL d   1      -2.334   4.996  -5.998  0.00  0.00     0.015 SA
ATOM      6  C4  UNL d   1      -2.938   3.402  -5.999  0.00  0.00     0.022 A 
ATOM      7  C5  UNL d   1      -1.929   2.469  -6.000  0.00  0.00     0.026 A 
ATOM      8  C6  UNL d   1      -0.621   3.061  -5.998  0.00  0.00    -0.082 A 
ATOM      9  C7  UNL d   1       0.662   2.462  -5.998  0.00  0.00     0.045 A 
ENDROOT
TORSDOF 0
ENDMDL
