MODEL 1
REMARK minimizedAffinity -0.922344208
REMARK minimizedRMSD -1
REMARK  0 active torsions:
REMARK  status: ('A' for Active; 'I' for Inactive)
ROOT
ATOM      1  C   UNL d   1       0.786   3.405  -5.998  0.00  0.00    -0.002 A 
ATOM      2  C1  UNL d   1       0.029   2.242  -5.999  0.00  0.00     0.010 A 
ATOM      3  C2  UNL d   1      -1.366   2.302  -5.998  0.00  0.00     0.041 A 
ATOM      4  C3  UNL d   1      -1.993   3.563  -5.999  0.00  0.00    -0.075 A 
ATOM      5  S   UNL d   1      -3.688   3.881  -6.000  0.00  0.00     0.015 SA
ATOM      6  C4  UNL d   1      -3.447   5.568  -6.000  0.00  0.00     0.022 A 
ATOM      7  C5  UNL d   1      -2.113   5.899  -5.999  0.00  0.00     0.026 A 
ATOM      8  C6  UNL d   1      -1.253   4.749  -5.999  0.00  0.00    -0.082 A 
ATOM      9  C7  UNL d   1       0.160   4.654  -5.999  0.00  0.00     0.045 A 
ENDROOT
TORSDOF 0
ENDMDL
