MODEL 1
REMARK minimizedAffinity -0.159420058
REMARK minimizedRMSD -1
REMARK  0 active torsions:
REMARK  status: ('A' for Active; 'I' for Inactive)
ROOT
ATOM      1  C   UNL d   1      -0.600   1.923  -5.998  0.00  0.00    -0.002 A 
ATOM      2  C1  UNL d   1      -1.398   3.058  -5.954  0.00  0.00     0.010 A 
ATOM      3  C2  UNL d   1      -0.823   4.329  -5.910  0.00  0.00     0.041 A 
ATOM      4  C3  UNL d   1       0.581   4.443  -5.912  0.00  0.00    -0.075 A 
ATOM      5  S   UNL d   1       1.507   5.896  -5.863  0.00  0.00     0.015 SA
ATOM      6  C4  UNL d   1       2.984   5.045  -5.900  0.00  0.00     0.022 A 
ATOM      7  C5  UNL d   1       2.793   3.685  -5.948  0.00  0.00     0.026 A 
ATOM      8  C6  UNL d   1       1.406   3.315  -5.956  0.00  0.00    -0.082 A 
ATOM      9  C7  UNL d   1       0.792   2.040  -5.999  0.00  0.00     0.045 A 
ENDROOT
TORSDOF 0
ENDMDL
