MODEL 1
REMARK minimizedAffinity 5.6140604
REMARK minimizedRMSD -1
REMARK  0 active torsions:
REMARK  status: ('A' for Active; 'I' for Inactive)
ROOT
ATOM      1  C   UNL d   1      -2.893   4.434  -5.934  0.00  0.00    -0.002 A 
ATOM      2  C1  UNL d   1      -2.287   5.682  -5.943  0.00  0.00     0.010 A 
ATOM      3  C2  UNL d   1      -0.895   5.795  -5.962  0.00  0.00     0.041 A 
ATOM      4  C3  UNL d   1      -0.116   4.621  -5.974  0.00  0.00    -0.075 A 
ATOM      5  S   UNL d   1       1.605   4.516  -5.998  0.00  0.00     0.015 SA
ATOM      6  C4  UNL d   1       1.575   2.812  -5.998  0.00  0.00     0.022 A 
ATOM      7  C5  UNL d   1       0.292   2.319  -5.980  0.00  0.00     0.026 A 
ATOM      8  C6  UNL d   1      -0.704   3.353  -5.966  0.00  0.00    -0.082 A 
ATOM      9  C7  UNL d   1      -2.117   3.272  -5.946  0.00  0.00     0.045 A 
ENDROOT
TORSDOF 0
ENDMDL
