MODEL 1
REMARK minimizedAffinity -2.79936647
REMARK minimizedRMSD -1
REMARK  0 active torsions:
REMARK  status: ('A' for Active; 'I' for Inactive)
ROOT
ATOM      1  C   UNL d   1      -0.232   3.557  -5.965  0.00  0.00    -0.002 A 
ATOM      2  C1  UNL d   1      -0.090   4.938  -5.980  0.00  0.00     0.010 A 
ATOM      3  C2  UNL d   1      -1.213   5.767  -5.992  0.00  0.00     0.041 A 
ATOM      4  C3  UNL d   1      -2.494   5.181  -5.988  0.00  0.00    -0.075 A 
ATOM      5  S   UNL d   1      -4.011   5.999  -6.000  0.00  0.00     0.015 SA
ATOM      6  C4  UNL d   1      -4.885   4.535  -5.985  0.00  0.00     0.022 A 
ATOM      7  C5  UNL d   1      -4.054   3.439  -5.971  0.00  0.00     0.026 A 
ATOM      8  C6  UNL d   1      -2.663   3.793  -5.972  0.00  0.00    -0.082 A 
ATOM      9  C7  UNL d   1      -1.504   2.979  -5.961  0.00  0.00     0.045 A 
ENDROOT
TORSDOF 0
ENDMDL
