MODEL 1
REMARK minimizedAffinity -0.239996091
REMARK minimizedRMSD -1
REMARK  0 active torsions:
REMARK  status: ('A' for Active; 'I' for Inactive)
ROOT
ATOM      1  C   UNL d   1       5.951   3.868  -5.888  0.00  0.00    -0.002 A 
ATOM      2  C1  UNL d   1       5.983   5.254  -5.944  0.00  0.00     0.010 A 
ATOM      3  C2  UNL d   1       4.798   5.991  -5.983  0.00  0.00     0.041 A 
ATOM      4  C3  UNL d   1       3.568   5.305  -5.961  0.00  0.00    -0.075 A 
ATOM      5  S   UNL d   1       1.990   5.999  -5.999  0.00  0.00     0.015 SA
ATOM      6  C4  UNL d   1       1.236   4.472  -5.941  0.00  0.00     0.022 A 
ATOM      7  C5  UNL d   1       2.150   3.447  -5.894  0.00  0.00     0.026 A 
ATOM      8  C6  UNL d   1       3.509   3.910  -5.904  0.00  0.00    -0.082 A 
ATOM      9  C7  UNL d   1       4.728   3.191  -5.867  0.00  0.00     0.045 A 
ENDROOT
TORSDOF 0
ENDMDL
