MODEL 1
REMARK minimizedAffinity 1.59203804
REMARK minimizedRMSD -1
REMARK  0 active torsions:
REMARK  status: ('A' for Active; 'I' for Inactive)
ROOT
ATOM      1  O1  BZF d   1      -5.965   2.450  -2.529  0.00  0.00    -0.204 OA
ATOM      2  C2  BZF d   1      -6.000   3.747  -3.003  0.00  0.00     0.174 A 
ATOM      3  C3  BZF d   1      -5.965   3.765  -4.351  0.00  0.00    -0.012 A 
ATOM      4  C3A BZF d   1      -5.997   2.390  -4.746  0.00  0.00    -0.107 A 
ATOM      5  C4  BZF d   1      -6.000   1.762  -5.959  0.00  0.00     0.055 A 
ATOM      6  C5  BZF d   1      -5.961   0.404  -5.999  0.00  0.00    -0.016 A 
ATOM      7  C6  BZF d   1      -5.914  -0.355  -4.849  0.00  0.00     0.022 A 
ATOM      8  C7  BZF d   1      -5.914   0.223  -3.623  0.00  0.00     0.029 A 
ATOM      9  C7A BZF d   1      -5.986   1.594  -3.578  0.00  0.00     0.058 A 
ENDROOT
TORSDOF 0
ENDMDL
