MODEL 1
REMARK minimizedAffinity -0.401477069
REMARK minimizedRMSD -1
REMARK  0 active torsions:
REMARK  status: ('A' for Active; 'I' for Inactive)
ROOT
ATOM      1  O1  BZF d   1       1.927   3.943  -4.298  0.00  0.00    -0.204 OA
ATOM      2  C2  BZF d   1       1.787   3.366  -3.051  0.00  0.00     0.174 A 
ATOM      3  C3  BZF d   1       0.516   3.472  -2.614  0.00  0.00    -0.012 A 
ATOM      4  C3A BZF d   1      -0.203   4.077  -3.693  0.00  0.00    -0.107 A 
ATOM      5  C4  BZF d   1      -1.511   4.428  -3.870  0.00  0.00     0.055 A 
ATOM      6  C5  BZF d   1      -1.875   5.068  -5.012  0.00  0.00    -0.016 A 
ATOM      7  C6  BZF d   1      -0.958   5.376  -5.995  0.00  0.00     0.022 A 
ATOM      8  C7  BZF d   1       0.350   5.044  -5.867  0.00  0.00     0.029 A 
ATOM      9  C7A BZF d   1       0.715   4.369  -4.728  0.00  0.00     0.058 A 
ENDROOT
TORSDOF 0
ENDMDL
