MODEL 1
REMARK minimizedAffinity 8.89854145
REMARK minimizedRMSD -1
REMARK  0 active torsions:
REMARK  status: ('A' for Active; 'I' for Inactive)
ROOT
ATOM      1  O1  BZF d   1      -0.204  -5.216  -2.839  0.00  0.00    -0.204 OA
ATOM      2  C2  BZF d   1      -1.543  -5.129  -3.169  0.00  0.00     0.174 A 
ATOM      3  C3  BZF d   1      -2.284  -4.823  -2.085  0.00  0.00    -0.012 A 
ATOM      4  C3A BZF d   1      -1.340  -4.620  -1.029  0.00  0.00    -0.107 A 
ATOM      5  C4  BZF d   1      -1.462  -4.277   0.288  0.00  0.00     0.055 A 
ATOM      6  C5  BZF d   1      -0.349  -4.234   1.065  0.00  0.00    -0.016 A 
ATOM      7  C6  BZF d   1       0.901  -4.532   0.562  0.00  0.00     0.022 A 
ATOM      8  C7  BZF d   1       1.073  -4.872  -0.739  0.00  0.00     0.029 A 
ATOM      9  C7A BZF d   1      -0.046  -4.885  -1.535  0.00  0.00     0.058 A 
ENDROOT
TORSDOF 0
ENDMDL
