MODEL 1
REMARK minimizedAffinity 3.82019114
REMARK minimizedRMSD -1
REMARK  0 active torsions:
REMARK  status: ('A' for Active; 'I' for Inactive)
ROOT
ATOM      1  O1  BZF d   1      -3.547   4.654   0.671  0.00  0.00    -0.204 OA
ATOM      2  C2  BZF d   1      -2.855   5.678   0.053  0.00  0.00     0.174 A 
ATOM      3  C3  BZF d   1      -3.196   5.770  -1.248  0.00  0.00    -0.012 A 
ATOM      4  C3A BZF d   1      -4.231   4.799  -1.435  0.00  0.00    -0.107 A 
ATOM      5  C4  BZF d   1      -4.984   4.426  -2.511  0.00  0.00     0.055 A 
ATOM      6  C5  BZF d   1      -5.858   3.394  -2.379  0.00  0.00    -0.016 A 
ATOM      7  C6  BZF d   1      -6.000   2.710  -1.189  0.00  0.00     0.022 A 
ATOM      8  C7  BZF d   1      -5.278   3.047  -0.093  0.00  0.00     0.029 A 
ATOM      9  C7A BZF d   1      -4.418   4.111  -0.214  0.00  0.00     0.058 A 
ENDROOT
TORSDOF 0
ENDMDL
