MODEL 1
REMARK minimizedAffinity 15.1029644
REMARK minimizedRMSD -1
REMARK  0 active torsions:
REMARK  status: ('A' for Active; 'I' for Inactive)
ROOT
ATOM      1  O1  BZF d   1       5.181   1.015  -1.628  0.00  0.00    -0.204 OA
ATOM      2  C2  BZF d   1       5.476   1.828  -2.705  0.00  0.00     0.174 A 
ATOM      3  C3  BZF d   1       4.382   2.506  -3.107  0.00  0.00    -0.012 A 
ATOM      4  C3A BZF d   1       3.359   2.160  -2.168  0.00  0.00    -0.107 A 
ATOM      5  C4  BZF d   1       2.051   2.526  -2.027  0.00  0.00     0.055 A 
ATOM      6  C5  BZF d   1       1.306   1.951  -1.047  0.00  0.00    -0.016 A 
ATOM      7  C6  BZF d   1       1.835   1.003  -0.195  0.00  0.00     0.022 A 
ATOM      8  C7  BZF d   1       3.129   0.611  -0.293  0.00  0.00     0.029 A 
ATOM      9  C7A BZF d   1       3.893   1.215  -1.261  0.00  0.00     0.058 A 
ENDROOT
TORSDOF 0
ENDMDL
