MODEL 1
REMARK minimizedAffinity 9.55882645
REMARK minimizedRMSD -1
REMARK  0 active torsions:
REMARK  status: ('A' for Active; 'I' for Inactive)
ROOT
ATOM      1  O1  BZF d   1       1.164  -3.231   2.345  0.00  0.00    -0.204 OA
ATOM      2  C2  BZF d   1       1.921  -2.574   3.295  0.00  0.00     0.174 A 
ATOM      3  C3  BZF d   1       1.252  -1.514   3.791  0.00  0.00    -0.012 A 
ATOM      4  C3A BZF d   1      -0.039  -1.562   3.175  0.00  0.00    -0.107 A 
ATOM      5  C4  BZF d   1      -1.157  -0.785   3.277  0.00  0.00     0.055 A 
ATOM      6  C5  BZF d   1      -2.227  -1.059   2.484  0.00  0.00    -0.016 A 
ATOM      7  C6  BZF d   1      -2.210  -2.098   1.577  0.00  0.00     0.022 A 
ATOM      8  C7  BZF d   1      -1.125  -2.900   1.444  0.00  0.00     0.029 A 
ATOM      9  C7A BZF d   1      -0.055  -2.645   2.267  0.00  0.00     0.058 A 
ENDROOT
TORSDOF 0
ENDMDL
