MODEL 1
REMARK minimizedAffinity 7.91069794
REMARK minimizedRMSD -1
REMARK  0 active torsions:
REMARK  status: ('A' for Active; 'I' for Inactive)
ROOT
ATOM      1  O1  BZF d   1       1.440   5.998  -5.143  0.00  0.00    -0.204 OA
ATOM      2  C2  BZF d   1       0.356   5.990  -5.999  0.00  0.00     0.174 A 
ATOM      3  C3  BZF d   1      -0.433   4.923  -5.762  0.00  0.00    -0.012 A 
ATOM      4  C3A BZF d   1       0.147   4.271  -4.628  0.00  0.00    -0.107 A 
ATOM      5  C4  BZF d   1      -0.193   3.161  -3.908  0.00  0.00     0.055 A 
ATOM      6  C5  BZF d   1       0.625   2.750  -2.904  0.00  0.00    -0.016 A 
ATOM      7  C6  BZF d   1       1.791   3.420  -2.596  0.00  0.00     0.022 A 
ATOM      8  C7  BZF d   1       2.167   4.529  -3.279  0.00  0.00     0.029 A 
ATOM      9  C7A BZF d   1       1.326   4.966  -4.273  0.00  0.00     0.058 A 
ENDROOT
TORSDOF 0
ENDMDL
