MODEL 1
REMARK minimizedAffinity 13.2847033
REMARK minimizedRMSD -1
REMARK  0 active torsions:
REMARK  status: ('A' for Active; 'I' for Inactive)
ROOT
ATOM      1  O1  BZF d   1       2.796   2.834   1.651  0.00  0.00    -0.204 OA
ATOM      2  C2  BZF d   1       1.552   2.838   1.052  0.00  0.00     0.174 A 
ATOM      3  C3  BZF d   1       1.257   1.620   0.553  0.00  0.00    -0.012 A 
ATOM      4  C3A BZF d   1       2.349   0.780   0.941  0.00  0.00    -0.107 A 
ATOM      5  C4  BZF d   1       2.627  -0.544   0.754  0.00  0.00     0.055 A 
ATOM      6  C5  BZF d   1       3.813  -1.038   1.195  0.00  0.00    -0.016 A 
ATOM      7  C6  BZF d   1       4.745  -0.237   1.822  0.00  0.00     0.022 A 
ATOM      8  C7  BZF d   1       4.512   1.081   2.035  0.00  0.00     0.029 A 
ATOM      9  C7A BZF d   1       3.300   1.577   1.619  0.00  0.00     0.058 A 
ENDROOT
TORSDOF 0
ENDMDL
