MODEL 1
REMARK minimizedAffinity -0.0172745101
REMARK minimizedRMSD -1
REMARK  0 active torsions:
REMARK  status: ('A' for Active; 'I' for Inactive)
ROOT
ATOM      1  O1  BZF d   1       1.838   4.492  -4.986  0.00  0.00    -0.204 OA
ATOM      2  C2  BZF d   1       0.712   4.757  -4.231  0.00  0.00     0.174 A 
ATOM      3  C3  BZF d   1       0.763   4.104  -3.052  0.00  0.00    -0.012 A 
ATOM      4  C3A BZF d   1       2.040   3.459  -3.033  0.00  0.00    -0.107 A 
ATOM      5  C4  BZF d   1       2.682   2.672  -2.120  0.00  0.00     0.055 A 
ATOM      6  C5  BZF d   1       3.892   2.142  -2.439  0.00  0.00    -0.016 A 
ATOM      7  C6  BZF d   1       4.486   2.374  -3.662  0.00  0.00     0.022 A 
ATOM      8  C7  BZF d   1       3.891   3.152  -4.598  0.00  0.00     0.029 A 
ATOM      9  C7A BZF d   1       2.683   3.716  -4.266  0.00  0.00     0.058 A 
ENDROOT
TORSDOF 0
ENDMDL
