MODEL 1
REMARK minimizedAffinity 8.57730103
REMARK minimizedRMSD -1
REMARK  0 active torsions:
REMARK  status: ('A' for Active; 'I' for Inactive)
ROOT
ATOM      1  O1  BZF d   1       1.812   0.469  -1.395  0.00  0.00    -0.204 OA
ATOM      2  C2  BZF d   1       1.728   1.789  -1.794  0.00  0.00     0.174 A 
ATOM      3  C3  BZF d   1       2.306   2.601  -0.887  0.00  0.00    -0.012 A 
ATOM      4  C3A BZF d   1       2.864   1.727   0.099  0.00  0.00    -0.107 A 
ATOM      5  C4  BZF d   1       3.578   1.937   1.244  0.00  0.00     0.055 A 
ATOM      6  C5  BZF d   1       3.909   0.873   2.021  0.00  0.00    -0.016 A 
ATOM      7  C6  BZF d   1       3.539  -0.413   1.686  0.00  0.00     0.022 A 
ATOM      8  C7  BZF d   1       2.834  -0.672   0.558  0.00  0.00     0.029 A 
ATOM      9  C7A BZF d   1       2.526   0.398  -0.246  0.00  0.00     0.058 A 
ENDROOT
TORSDOF 0
ENDMDL
