MODEL 1
REMARK minimizedAffinity 21.1596603
REMARK minimizedRMSD -1
REMARK  0 active torsions:
REMARK  status: ('A' for Active; 'I' for Inactive)
ROOT
ATOM      1  O1  BZF d   1       1.360   4.774  -5.540  0.00  0.00    -0.204 OA
ATOM      2  C2  BZF d   1       0.056   4.821  -5.991  0.00  0.00     0.174 A 
ATOM      3  C3  BZF d   1      -0.756   4.108  -5.184  0.00  0.00    -0.012 A 
ATOM      4  C3A BZF d   1       0.080   3.659  -4.113  0.00  0.00    -0.107 A 
ATOM      5  C4  BZF d   1      -0.151   2.918  -2.989  0.00  0.00     0.055 A 
ATOM      6  C5  BZF d   1       0.895   2.594  -2.185  0.00  0.00    -0.016 A 
ATOM      7  C6  BZF d   1       2.184   2.989  -2.476  0.00  0.00     0.022 A 
ATOM      8  C7  BZF d   1       2.462   3.730  -3.577  0.00  0.00     0.029 A 
ATOM      9  C7A BZF d   1       1.402   4.087  -4.374  0.00  0.00     0.058 A 
ENDROOT
TORSDOF 0
ENDMDL
