MODEL 1
REMARK minimizedAffinity 12.5774031
REMARK minimizedRMSD -1
REMARK  0 active torsions:
REMARK  status: ('A' for Active; 'I' for Inactive)
ROOT
ATOM      1  O1  BZF d   1      -1.077   1.022   1.375  0.00  0.00    -0.204 OA
ATOM      2  C2  BZF d   1      -1.877   0.172   2.114  0.00  0.00     0.174 A 
ATOM      3  C3  BZF d   1      -1.192  -0.929   2.484  0.00  0.00    -0.012 A 
ATOM      4  C3A BZF d   1       0.144  -0.714   2.021  0.00  0.00    -0.107 A 
ATOM      5  C4  BZF d   1       1.295  -1.446   2.098  0.00  0.00     0.055 A 
ATOM      6  C5  BZF d   1       2.413  -0.986   1.479  0.00  0.00    -0.016 A 
ATOM      7  C6  BZF d   1       2.416   0.197   0.770  0.00  0.00     0.022 A 
ATOM      8  C7  BZF d   1       1.301   0.960   0.668  0.00  0.00     0.029 A 
ATOM      9  C7A BZF d   1       0.178   0.515   1.321  0.00  0.00     0.058 A 
ENDROOT
TORSDOF 0
ENDMDL
