MODEL 1
REMARK minimizedAffinity 2.58984518
REMARK minimizedRMSD -1
REMARK  0 active torsions:
REMARK  status: ('A' for Active; 'I' for Inactive)
ROOT
ATOM      1  O1  BZF d   1       2.275   4.468  -5.544  0.00  0.00    -0.204 OA
ATOM      2  C2  BZF d   1       1.049   4.851  -5.036  0.00  0.00     0.174 A 
ATOM      3  C3  BZF d   1       0.845   4.309  -3.818  0.00  0.00    -0.012 A 
ATOM      4  C3A BZF d   1       2.056   3.613  -3.508  0.00  0.00    -0.107 A 
ATOM      5  C4  BZF d   1       2.472   2.887  -2.429  0.00  0.00     0.055 A 
ATOM      6  C5  BZF d   1       3.686   2.277  -2.472  0.00  0.00    -0.016 A 
ATOM      7  C6  BZF d   1       4.505   2.367  -3.578  0.00  0.00     0.022 A 
ATOM      8  C7  BZF d   1       4.138   3.081  -4.670  0.00  0.00     0.029 A 
ATOM      9  C7A BZF d   1       2.927   3.726  -4.617  0.00  0.00     0.058 A 
ENDROOT
TORSDOF 0
ENDMDL
