MODEL 1
REMARK minimizedAffinity 1.04991364
REMARK minimizedRMSD -1
REMARK  0 active torsions:
REMARK  status: ('A' for Active; 'I' for Inactive)
ROOT
ATOM      1  O1  BZF d   1       2.112   1.599  -2.744  0.00  0.00    -0.204 OA
ATOM      2  C2  BZF d   1       3.028   2.559  -3.128  0.00  0.00     0.174 A 
ATOM      3  C3  BZF d   1       3.406   3.310  -2.073  0.00  0.00    -0.012 A 
ATOM      4  C3A BZF d   1       2.751   2.727  -0.943  0.00  0.00    -0.107 A 
ATOM      5  C4  BZF d   1       2.744   3.017   0.391  0.00  0.00     0.055 A 
ATOM      6  C5  BZF d   1       1.941   2.300   1.220  0.00  0.00    -0.016 A 
ATOM      7  C6  BZF d   1       1.129   1.290   0.747  0.00  0.00     0.022 A 
ATOM      8  C7  BZF d   1       1.105   0.961  -0.567  0.00  0.00     0.029 A 
ATOM      9  C7A BZF d   1       1.940   1.663  -1.402  0.00  0.00     0.058 A 
ENDROOT
TORSDOF 0
ENDMDL
