MODEL 1
REMARK minimizedAffinity -2.10539675
REMARK minimizedRMSD -1
REMARK  0 active torsions:
REMARK  status: ('A' for Active; 'I' for Inactive)
ROOT
ATOM      1  C1  DEN d   1       0.153   2.187  -5.954  0.00  0.00     0.130 A 
ATOM      2  C2  DEN d   1       1.258   3.141  -5.981  0.00  0.00    -0.031 A 
ATOM      3  C3  DEN d   1       0.685   4.502  -6.000  0.00  0.00     0.027 A 
ATOM      4  C4  DEN d   1      -1.792   5.221  -5.985  0.00  0.00     0.027 A 
ATOM      5  C5  DEN d   1      -3.093   4.767  -5.976  0.00  0.00    -0.003 A 
ATOM      6  C6  DEN d   1      -3.400   3.432  -5.993  0.00  0.00     0.001 A 
ATOM      7  C7  DEN d   1      -2.394   2.503  -5.975  0.00  0.00     0.017 A 
ATOM      8  C8  DEN d   1      -1.080   2.953  -5.991  0.00  0.00    -0.094 A 
ATOM      9  C9  DEN d   1      -0.789   4.307  -5.961  0.00  0.00    -0.072 A 
ENDROOT
TORSDOF 0
ENDMDL
