MODEL 1
REMARK minimizedAffinity -1.0592314
REMARK minimizedRMSD -1
REMARK  0 active torsions:
REMARK  status: ('A' for Active; 'I' for Inactive)
ROOT
ATOM      1  C1  DEN d   1       0.950   5.244  -6.000  0.00  0.00     0.130 A 
ATOM      2  C2  DEN d   1       1.686   3.983  -5.995  0.00  0.00    -0.031 A 
ATOM      3  C3  DEN d   1       0.703   2.881  -5.981  0.00  0.00     0.027 A 
ATOM      4  C4  DEN d   1      -1.873   3.004  -5.971  0.00  0.00     0.027 A 
ATOM      5  C5  DEN d   1      -2.956   3.855  -5.959  0.00  0.00    -0.003 A 
ATOM      6  C6  DEN d   1      -2.814   5.216  -5.926  0.00  0.00     0.001 A 
ATOM      7  C7  DEN d   1      -1.561   5.769  -5.950  0.00  0.00     0.017 A 
ATOM      8  C8  DEN d   1      -0.464   4.918  -5.954  0.00  0.00    -0.094 A 
ATOM      9  C9  DEN d   1      -0.628   3.544  -5.999  0.00  0.00    -0.072 A 
ENDROOT
TORSDOF 0
ENDMDL
