MODEL 1
REMARK minimizedAffinity 1.00554407
REMARK minimizedRMSD -1
REMARK  0 active torsions:
REMARK  status: ('A' for Active; 'I' for Inactive)
ROOT
ATOM      1  C1  DEN d   1       0.995   3.161  -5.988  0.00  0.00     0.130 A 
ATOM      2  C2  DEN d   1      -0.009   4.221  -5.948  0.00  0.00    -0.031 A 
ATOM      3  C3  DEN d   1       0.696   5.518  -5.934  0.00  0.00     0.027 A 
ATOM      4  C4  DEN d   1       3.232   5.986  -5.976  0.00  0.00     0.027 A 
ATOM      5  C5  DEN d   1       4.481   5.404  -6.000  0.00  0.00    -0.003 A 
ATOM      6  C6  DEN d   1       4.654   4.046  -5.987  0.00  0.00     0.001 A 
ATOM      7  C7  DEN d   1       3.560   3.222  -5.995  0.00  0.00     0.017 A 
ATOM      8  C8  DEN d   1       2.298   3.801  -5.964  0.00  0.00    -0.094 A 
ATOM      9  C9  DEN d   1       2.143   5.176  -5.989  0.00  0.00    -0.072 A 
ENDROOT
TORSDOF 0
ENDMDL
