MODEL 1
REMARK minimizedAffinity 5.21855927
REMARK minimizedRMSD -1
REMARK  0 active torsions:
REMARK  status: ('A' for Active; 'I' for Inactive)
ROOT
ATOM      1  C1  DEN d   1      -1.841  -4.108  -1.985  0.00  0.00     0.130 A 
ATOM      2  C2  DEN d   1      -2.475  -2.960  -1.343  0.00  0.00    -0.031 A 
ATOM      3  C3  DEN d   1      -1.713  -1.751  -1.715  0.00  0.00     0.027 A 
ATOM      4  C4  DEN d   1       0.373  -1.546  -3.219  0.00  0.00     0.027 A 
ATOM      5  C5  DEN d   1       1.281  -2.248  -3.979  0.00  0.00    -0.003 A 
ATOM      6  C6  DEN d   1       1.234  -3.611  -4.101  0.00  0.00     0.001 A 
ATOM      7  C7  DEN d   1       0.230  -4.312  -3.487  0.00  0.00     0.017 A 
ATOM      8  C8  DEN d   1      -0.686  -3.613  -2.712  0.00  0.00    -0.094 A 
ATOM      9  C9  DEN d   1      -0.628  -2.233  -2.612  0.00  0.00    -0.072 A 
ENDROOT
TORSDOF 0
ENDMDL
