MODEL 1
REMARK minimizedAffinity 3.50583267
REMARK minimizedRMSD -1
REMARK  0 active torsions:
REMARK  status: ('A' for Active; 'I' for Inactive)
ROOT
ATOM      1  C1  DEN d   1       5.250   4.534  -0.000  0.00  0.00     0.130 A 
ATOM      2  C2  DEN d   1       4.447   5.452   0.803  0.00  0.00    -0.031 A 
ATOM      3  C3  DEN d   1       3.032   5.274   0.421  0.00  0.00     0.027 A 
ATOM      4  C4  DEN d   1       2.011   3.671  -1.324  0.00  0.00     0.027 A 
ATOM      5  C5  DEN d   1       2.297   2.707  -2.264  0.00  0.00    -0.003 A 
ATOM      6  C6  DEN d   1       3.580   2.311  -2.538  0.00  0.00     0.001 A 
ATOM      7  C7  DEN d   1       4.622   2.851  -1.832  0.00  0.00     0.017 A 
ATOM      8  C8  DEN d   1       4.342   3.829  -0.887  0.00  0.00    -0.094 A 
ATOM      9  C9  DEN d   1       3.038   4.207  -0.616  0.00  0.00    -0.072 A 
ENDROOT
TORSDOF 0
ENDMDL
