MODEL 1
REMARK minimizedAffinity -1.45652986
REMARK minimizedRMSD -1
REMARK  0 active torsions:
REMARK  status: ('A' for Active; 'I' for Inactive)
ROOT
ATOM      1  C1  DEN d   1       0.867   3.586  -5.943  0.00  0.00     0.130 A 
ATOM      2  C2  DEN d   1       0.053   4.799  -5.934  0.00  0.00    -0.031 A 
ATOM      3  C3  DEN d   1       0.965   5.961  -5.944  0.00  0.00     0.027 A 
ATOM      4  C4  DEN d   1       3.544   6.000  -5.975  0.00  0.00     0.027 A 
ATOM      5  C5  DEN d   1       4.678   5.219  -5.976  0.00  0.00    -0.003 A 
ATOM      6  C6  DEN d   1       4.623   3.851  -5.932  0.00  0.00     0.001 A 
ATOM      7  C7  DEN d   1       3.407   3.220  -5.931  0.00  0.00     0.017 A 
ATOM      8  C8  DEN d   1       2.259   4.001  -5.922  0.00  0.00    -0.094 A 
ATOM      9  C9  DEN d   1       2.335   5.382  -5.980  0.00  0.00    -0.072 A 
ENDROOT
TORSDOF 0
ENDMDL
