MODEL 1
REMARK minimizedAffinity -2.09968758
REMARK minimizedRMSD -1
REMARK  0 active torsions:
REMARK  status: ('A' for Active; 'I' for Inactive)
ROOT
ATOM      1  C1  DEN d   1      -0.499   4.529  -5.970  0.00  0.00     0.130 A 
ATOM      2  C2  DEN d   1      -1.261   3.284  -5.991  0.00  0.00    -0.031 A 
ATOM      3  C3  DEN d   1      -0.300   2.162  -5.996  0.00  0.00     0.027 A 
ATOM      4  C4  DEN d   1       2.278   2.233  -5.967  0.00  0.00     0.027 A 
ATOM      5  C5  DEN d   1       3.378   3.061  -5.959  0.00  0.00    -0.003 A 
ATOM      6  C6  DEN d   1       3.264   4.426  -5.988  0.00  0.00     0.001 A 
ATOM      7  C7  DEN d   1       2.022   5.004  -5.981  0.00  0.00     0.017 A 
ATOM      8  C8  DEN d   1       0.908   4.175  -5.997  0.00  0.00    -0.094 A 
ATOM      9  C9  DEN d   1       1.044   2.798  -5.955  0.00  0.00    -0.072 A 
ENDROOT
TORSDOF 0
ENDMDL
