MODEL 1
REMARK minimizedAffinity 3.48287654
REMARK minimizedRMSD -1
REMARK  0 active torsions:
REMARK  status: ('A' for Active; 'I' for Inactive)
ROOT
ATOM      1  C1  DEN d   1       0.545   3.243  -5.996  0.00  0.00     0.130 A 
ATOM      2  C2  DEN d   1      -0.319   4.419  -5.965  0.00  0.00    -0.031 A 
ATOM      3  C3  DEN d   1       0.542   5.618  -5.952  0.00  0.00     0.027 A 
ATOM      4  C4  DEN d   1       3.116   5.768  -5.983  0.00  0.00     0.027 A 
ATOM      5  C5  DEN d   1       4.283   5.036  -5.998  0.00  0.00    -0.003 A 
ATOM      6  C6  DEN d   1       4.286   3.666  -5.980  0.00  0.00     0.001 A 
ATOM      7  C7  DEN d   1       3.098   2.985  -5.990  0.00  0.00     0.017 A 
ATOM      8  C8  DEN d   1       1.918   3.716  -5.967  0.00  0.00    -0.094 A 
ATOM      9  C9  DEN d   1       1.935   5.100  -5.999  0.00  0.00    -0.072 A 
ENDROOT
TORSDOF 0
ENDMDL
