MODEL 1
REMARK minimizedAffinity 4.68936443
REMARK minimizedRMSD -1
REMARK  0 active torsions:
REMARK  status: ('A' for Active; 'I' for Inactive)
ROOT
ATOM      1  C1  DEN d   1      -1.908   5.938  -5.951  0.00  0.00     0.130 A 
ATOM      2  C2  DEN d   1      -2.964   4.932  -5.881  0.00  0.00    -0.031 A 
ATOM      3  C3  DEN d   1      -2.323   3.604  -5.799  0.00  0.00     0.027 A 
ATOM      4  C4  DEN d   1       0.188   3.012  -5.771  0.00  0.00     0.027 A 
ATOM      5  C5  DEN d   1       1.463   3.529  -5.822  0.00  0.00    -0.003 A 
ATOM      6  C6  DEN d   1       1.702   4.872  -5.952  0.00  0.00     0.001 A 
ATOM      7  C7  DEN d   1       0.650   5.748  -5.991  0.00  0.00     0.017 A 
ATOM      8  C8  DEN d   1      -0.639   5.234  -5.948  0.00  0.00    -0.094 A 
ATOM      9  C9  DEN d   1      -0.860   3.874  -5.803  0.00  0.00    -0.072 A 
ENDROOT
TORSDOF 0
ENDMDL
