MODEL 1
REMARK minimizedAffinity -3.48484492
REMARK minimizedRMSD -1
REMARK  0 active torsions:
REMARK  status: ('A' for Active; 'I' for Inactive)
ROOT
ATOM      1  C1  DEN d   1       1.273   4.132  -5.952  0.00  0.00     0.130 A 
ATOM      2  C2  DEN d   1       1.924   2.827  -5.886  0.00  0.00    -0.031 A 
ATOM      3  C3  DEN d   1       0.872   1.792  -5.871  0.00  0.00     0.027 A 
ATOM      4  C4  DEN d   1      -1.690   2.081  -5.948  0.00  0.00     0.027 A 
ATOM      5  C5  DEN d   1      -2.715   3.001  -5.997  0.00  0.00    -0.003 A 
ATOM      6  C6  DEN d   1      -2.485   4.351  -6.000  0.00  0.00     0.001 A 
ATOM      7  C7  DEN d   1      -1.198   4.820  -5.999  0.00  0.00     0.017 A 
ATOM      8  C8  DEN d   1      -0.160   3.900  -5.942  0.00  0.00    -0.094 A 
ATOM      9  C9  DEN d   1      -0.413   2.539  -5.952  0.00  0.00    -0.072 A 
ENDROOT
TORSDOF 0
ENDMDL
