MODEL 1
REMARK minimizedAffinity -0.856517971
REMARK minimizedRMSD -1
REMARK  0 active torsions:
REMARK  status: ('A' for Active; 'I' for Inactive)
ROOT
ATOM      1  C1  DEN d   1       0.524   5.857  -5.983  0.00  0.00     0.130 A 
ATOM      2  C2  DEN d   1      -0.394   4.722  -5.999  0.00  0.00    -0.031 A 
ATOM      3  C3  DEN d   1       0.411   3.483  -5.987  0.00  0.00     0.027 A 
ATOM      4  C4  DEN d   1       2.976   3.216  -5.938  0.00  0.00     0.027 A 
ATOM      5  C5  DEN d   1       4.175   3.893  -5.927  0.00  0.00    -0.003 A 
ATOM      6  C6  DEN d   1       4.241   5.261  -5.969  0.00  0.00     0.001 A 
ATOM      7  C7  DEN d   1       3.086   5.997  -5.977  0.00  0.00     0.017 A 
ATOM      8  C8  DEN d   1       1.873   5.321  -5.995  0.00  0.00    -0.094 A 
ATOM      9  C9  DEN d   1       1.827   3.938  -5.940  0.00  0.00    -0.072 A 
ENDROOT
TORSDOF 0
ENDMDL
