MODEL 1
REMARK minimizedAffinity -2.7518096
REMARK minimizedRMSD -1
REMARK  0 active torsions:
REMARK  status: ('A' for Active; 'I' for Inactive)
ROOT
ATOM      1  C1  DEN d   1       1.774   4.925  -5.987  0.00  0.00     0.130 A 
ATOM      2  C2  DEN d   1       2.623   3.737  -5.962  0.00  0.00    -0.031 A 
ATOM      3  C3  DEN d   1       1.747   2.549  -5.956  0.00  0.00     0.027 A 
ATOM      4  C4  DEN d   1      -0.830   2.434  -5.988  0.00  0.00     0.027 A 
ATOM      5  C5  DEN d   1      -1.987   3.181  -6.000  0.00  0.00    -0.003 A 
ATOM      6  C6  DEN d   1      -1.972   4.550  -5.974  0.00  0.00     0.001 A 
ATOM      7  C7  DEN d   1      -0.775   5.216  -5.981  0.00  0.00     0.017 A 
ATOM      8  C8  DEN d   1       0.396   4.470  -5.962  0.00  0.00    -0.094 A 
ATOM      9  C9  DEN d   1       0.360   3.086  -6.000  0.00  0.00    -0.072 A 
ENDROOT
TORSDOF 0
ENDMDL
