MODEL 1
REMARK minimizedAffinity -1.07522762
REMARK minimizedRMSD -1
REMARK  0 active torsions:
REMARK  status: ('A' for Active; 'I' for Inactive)
ROOT
ATOM      1  C1  DEN d   1       3.345   3.311  -5.974  0.00  0.00     0.130 A 
ATOM      2  C2  DEN d   1       4.058   4.585  -5.996  0.00  0.00    -0.031 A 
ATOM      3  C3  DEN d   1       3.055   5.669  -5.999  0.00  0.00     0.027 A 
ATOM      4  C4  DEN d   1       0.482   5.498  -5.967  0.00  0.00     0.027 A 
ATOM      5  C5  DEN d   1      -0.586   4.628  -5.958  0.00  0.00    -0.003 A 
ATOM      6  C6  DEN d   1      -0.419   3.268  -5.987  0.00  0.00     0.001 A 
ATOM      7  C7  DEN d   1       0.844   2.739  -5.982  0.00  0.00     0.017 A 
ATOM      8  C8  DEN d   1       1.925   3.610  -5.999  0.00  0.00    -0.094 A 
ATOM      9  C9  DEN d   1       1.736   4.981  -5.957  0.00  0.00    -0.072 A 
ENDROOT
TORSDOF 0
ENDMDL
