MODEL 1
REMARK minimizedAffinity -2.47485161
REMARK minimizedRMSD -1
REMARK  0 active torsions:
REMARK  status: ('A' for Active; 'I' for Inactive)
ROOT
ATOM      1  C1  DEN d   1       0.586   5.264  -5.998  0.00  0.00     0.130 A 
ATOM      2  C2  DEN d   1       1.350   4.020  -5.966  0.00  0.00    -0.031 A 
ATOM      3  C3  DEN d   1       0.392   2.896  -5.952  0.00  0.00     0.027 A 
ATOM      4  C4  DEN d   1      -2.186   2.961  -5.982  0.00  0.00     0.027 A 
ATOM      5  C5  DEN d   1      -3.288   3.788  -5.998  0.00  0.00    -0.003 A 
ATOM      6  C6  DEN d   1      -3.177   5.153  -5.981  0.00  0.00     0.001 A 
ATOM      7  C7  DEN d   1      -1.936   5.733  -5.993  0.00  0.00     0.017 A 
ATOM      8  C8  DEN d   1      -0.821   4.907  -5.969  0.00  0.00    -0.094 A 
ATOM      9  C9  DEN d   1      -0.954   3.529  -5.999  0.00  0.00    -0.072 A 
ENDROOT
TORSDOF 0
ENDMDL
