MODEL 1
REMARK minimizedAffinity 2.7038548
REMARK minimizedRMSD -1
REMARK  0 active torsions:
REMARK  status: ('A' for Active; 'I' for Inactive)
ROOT
ATOM      1  C1  DEN d   1      -4.452   3.830  -5.979  0.00  0.00     0.130 A 
ATOM      2  C2  DEN d   1      -4.747   5.260  -5.959  0.00  0.00    -0.031 A 
ATOM      3  C3  DEN d   1      -3.464   5.991  -5.957  0.00  0.00     0.027 A 
ATOM      4  C4  DEN d   1      -1.062   5.052  -5.987  0.00  0.00     0.027 A 
ATOM      5  C5  DEN d   1      -0.307   3.900  -5.994  0.00  0.00    -0.003 A 
ATOM      6  C6  DEN d   1      -0.875   2.654  -5.963  0.00  0.00     0.001 A 
ATOM      7  C7  DEN d   1      -2.240   2.530  -5.968  0.00  0.00     0.017 A 
ATOM      8  C8  DEN d   1      -3.007   3.687  -5.953  0.00  0.00    -0.094 A 
ATOM      9  C9  DEN d   1      -2.414   4.938  -5.998  0.00  0.00    -0.072 A 
ENDROOT
TORSDOF 0
ENDMDL
