MODEL 1
REMARK minimizedAffinity 1.2650578
REMARK minimizedRMSD -1
REMARK  0 active torsions:
REMARK  status: ('A' for Active; 'I' for Inactive)
ROOT
ATOM      1  C1  DEN d   1      -0.264   3.330  -5.990  0.00  0.00     0.130 A 
ATOM      2  C2  DEN d   1      -1.027   4.575  -5.958  0.00  0.00    -0.031 A 
ATOM      3  C3  DEN d   1      -0.069   5.698  -5.948  0.00  0.00     0.027 A 
ATOM      4  C4  DEN d   1       2.509   5.632  -5.983  0.00  0.00     0.027 A 
ATOM      5  C5  DEN d   1       3.611   4.805  -6.000  0.00  0.00    -0.003 A 
ATOM      6  C6  DEN d   1       3.500   3.440  -5.980  0.00  0.00     0.001 A 
ATOM      7  C7  DEN d   1       2.259   2.860  -5.988  0.00  0.00     0.017 A 
ATOM      8  C8  DEN d   1       1.144   3.687  -5.964  0.00  0.00    -0.094 A 
ATOM      9  C9  DEN d   1       1.277   5.065  -5.997  0.00  0.00    -0.072 A 
ENDROOT
TORSDOF 0
ENDMDL
