MODEL 1
REMARK minimizedAffinity -0.70438379
REMARK minimizedRMSD -1
REMARK  0 active torsions:
REMARK  status: ('A' for Active; 'I' for Inactive)
ROOT
ATOM      1  C1  DEN d   1       2.297   2.858  -5.976  0.00  0.00     0.130 A 
ATOM      2  C2  DEN d   1       1.152   3.763  -5.927  0.00  0.00    -0.031 A 
ATOM      3  C3  DEN d   1       1.665   5.148  -5.914  0.00  0.00     0.027 A 
ATOM      4  C4  DEN d   1       4.108   5.974  -5.968  0.00  0.00     0.027 A 
ATOM      5  C5  DEN d   1       5.426   5.578  -6.000  0.00  0.00    -0.003 A 
ATOM      6  C6  DEN d   1       5.792   4.258  -5.991  0.00  0.00     0.001 A 
ATOM      7  C7  DEN d   1       4.827   3.286  -5.996  0.00  0.00     0.017 A 
ATOM      8  C8  DEN d   1       3.496   3.678  -5.956  0.00  0.00    -0.094 A 
ATOM      9  C9  DEN d   1       3.146   5.017  -5.978  0.00  0.00    -0.072 A 
ENDROOT
TORSDOF 0
ENDMDL
