MODEL 1
REMARK minimizedAffinity -2.67933035
REMARK minimizedRMSD -1
REMARK  0 active torsions:
REMARK  status: ('A' for Active; 'I' for Inactive)
ROOT
ATOM      1  C1  DEN d   1       1.180   2.111  -5.945  0.00  0.00     0.130 A 
ATOM      2  C2  DEN d   1       2.185   3.170  -5.973  0.00  0.00    -0.031 A 
ATOM      3  C3  DEN d   1       1.481   4.467  -6.000  0.00  0.00     0.027 A 
ATOM      4  C4  DEN d   1      -1.055   4.937  -5.995  0.00  0.00     0.027 A 
ATOM      5  C5  DEN d   1      -2.304   4.357  -5.987  0.00  0.00    -0.003 A 
ATOM      6  C6  DEN d   1      -2.479   2.998  -5.999  0.00  0.00     0.001 A 
ATOM      7  C7  DEN d   1      -1.385   2.174  -5.974  0.00  0.00     0.017 A 
ATOM      8  C8  DEN d   1      -0.122   2.751  -5.989  0.00  0.00    -0.094 A 
ATOM      9  C9  DEN d   1       0.033   4.127  -5.964  0.00  0.00    -0.072 A 
ENDROOT
TORSDOF 0
ENDMDL
