MODEL 1
REMARK minimizedAffinity 2.61376691
REMARK minimizedRMSD -1
REMARK  0 active torsions:
REMARK  status: ('A' for Active; 'I' for Inactive)
ROOT
ATOM      1  C   UNL d   1       0.090   2.091   0.621  0.00  0.00     0.124 A 
ATOM      2  C1  UNL d   1       0.092   1.923  -0.757  0.00  0.00     0.062 A 
ATOM      3  C2  UNL d   1       0.098   0.645  -1.307  0.00  0.00     0.162 A 
ATOM      4  C3  UNL d   1       0.101  -0.477  -0.479  0.00  0.00    -0.034 A 
ATOM      5  C4  UNL d   1       0.100  -0.301   0.906  0.00  0.00     0.162 A 
ATOM      6  C5  UNL d   1       0.094   0.979   1.451  0.00  0.00     0.062 A 
ATOM      7  F   UNL d   1       0.092   1.138   2.782  0.00  0.00    -0.097 F 
ATOM      8  F1  UNL d   1       0.103  -1.359   1.731  0.00  0.00    -0.096 F 
ATOM      9  I   UNL d   1       0.111  -2.391  -1.297  0.00  0.00    -0.060 I 
ATOM     10  F2  UNL d   1       0.100   0.513  -2.642  0.00  0.00    -0.096 F 
ATOM     11  F3  UNL d   1       0.089   2.996  -1.561  0.00  0.00    -0.097 F 
ATOM     12  F4  UNL d   1       0.085   3.322   1.147  0.00  0.00    -0.092 F 
ENDROOT
TORSDOF 0
ENDMDL
