MODEL 1
REMARK minimizedAffinity 0.978221595
REMARK minimizedRMSD -1
REMARK  0 active torsions:
REMARK  status: ('A' for Active; 'I' for Inactive)
ROOT
ATOM      1  C   UNL d   1       0.423  -4.466  -0.681  0.00  0.00     0.124 A 
ATOM      2  C1  UNL d   1      -0.703  -4.064  -1.386  0.00  0.00     0.062 A 
ATOM      3  C2  UNL d   1      -0.878  -2.724  -1.720  0.00  0.00     0.162 A 
ATOM      4  C3  UNL d   1       0.076  -1.776  -1.350  0.00  0.00    -0.034 A 
ATOM      5  C4  UNL d   1       1.205  -2.188  -0.639  0.00  0.00     0.162 A 
ATOM      6  C5  UNL d   1       1.375  -3.528  -0.308  0.00  0.00     0.062 A 
ATOM      7  F   UNL d   1       2.463  -3.915   0.373  0.00  0.00    -0.097 F 
ATOM      8  F1  UNL d   1       2.141  -1.302  -0.268  0.00  0.00    -0.096 F 
ATOM      9  I   UNL d   1      -0.183   0.229  -1.847  0.00  0.00    -0.060 I 
ATOM     10  F2  UNL d   1      -1.975  -2.363  -2.402  0.00  0.00    -0.096 F 
ATOM     11  F3  UNL d   1      -1.625  -4.968  -1.747  0.00  0.00    -0.097 F 
ATOM     12  F4  UNL d   1       0.588  -5.755  -0.360  0.00  0.00    -0.092 F 
ENDROOT
TORSDOF 0
ENDMDL
