MODEL 1
REMARK minimizedAffinity -3.3974638
REMARK minimizedRMSD -1
REMARK  0 active torsions:
REMARK  status: ('A' for Active; 'I' for Inactive)
ROOT
ATOM      1  C   UNL d   1      -0.905   2.464  -1.353  0.00  0.00     0.124 A 
ATOM      2  C1  UNL d   1      -1.289   3.049  -0.154  0.00  0.00     0.062 A 
ATOM      3  C2  UNL d   1      -0.763   2.587   1.049  0.00  0.00     0.162 A 
ATOM      4  C3  UNL d   1       0.153   1.535   1.060  0.00  0.00    -0.034 A 
ATOM      5  C4  UNL d   1       0.533   0.951  -0.150  0.00  0.00     0.162 A 
ATOM      6  C5  UNL d   1       0.005   1.416  -1.350  0.00  0.00     0.062 A 
ATOM      7  F   UNL d   1       0.376   0.849  -2.508  0.00  0.00    -0.097 F 
ATOM      8  F1  UNL d   1       1.411  -0.062  -0.176  0.00  0.00    -0.096 F 
ATOM      9  I   UNL d   1       0.941   0.842   2.857  0.00  0.00    -0.060 I 
ATOM     10  F2  UNL d   1      -1.151   3.171   2.193  0.00  0.00    -0.096 F 
ATOM     11  F3  UNL d   1      -2.168   4.060  -0.155  0.00  0.00    -0.097 F 
ATOM     12  F4  UNL d   1      -1.413   2.909  -2.510  0.00  0.00    -0.092 F 
ENDROOT
TORSDOF 0
ENDMDL
