MODEL 1
REMARK minimizedAffinity 0.0294509996
REMARK minimizedRMSD -1
REMARK  0 active torsions:
REMARK  status: ('A' for Active; 'I' for Inactive)
ROOT
ATOM      1  C   UNL d   1      -0.744   2.856   0.040  0.00  0.00     0.124 A 
ATOM      2  C1  UNL d   1      -0.785   1.874   1.020  0.00  0.00     0.062 A 
ATOM      3  C2  UNL d   1      -0.384   0.574   0.725  0.00  0.00     0.162 A 
ATOM      4  C3  UNL d   1       0.064   0.249  -0.555  0.00  0.00    -0.034 A 
ATOM      5  C4  UNL d   1       0.102   1.243  -1.535  0.00  0.00     0.162 A 
ATOM      6  C5  UNL d   1      -0.301   2.540  -1.236  0.00  0.00     0.062 A 
ATOM      7  F   UNL d   1      -0.261   3.488  -2.184  0.00  0.00    -0.097 F 
ATOM      8  F1  UNL d   1       0.526   0.965  -2.777  0.00  0.00    -0.096 F 
ATOM      9  I   UNL d   1       0.666  -1.693  -1.000  0.00  0.00    -0.060 I 
ATOM     10  F2  UNL d   1      -0.434  -0.355   1.692  0.00  0.00    -0.096 F 
ATOM     11  F3  UNL d   1      -1.214   2.177   2.254  0.00  0.00    -0.097 F 
ATOM     12  F4  UNL d   1      -1.133   4.106   0.327  0.00  0.00    -0.092 F 
ENDROOT
TORSDOF 0
ENDMDL
