MODEL 1
REMARK minimizedAffinity 1.82336402
REMARK minimizedRMSD -1
REMARK  0 active torsions:
REMARK  status: ('A' for Active; 'I' for Inactive)
ROOT
ATOM      1  C   UNL d   1       0.588  -0.940  -1.547  0.00  0.00     0.124 A 
ATOM      2  C1  UNL d   1       0.608   0.410  -1.869  0.00  0.00     0.062 A 
ATOM      3  C2  UNL d   1       0.036   1.343  -1.008  0.00  0.00     0.162 A 
ATOM      4  C3  UNL d   1      -0.560   0.929   0.183  0.00  0.00    -0.034 A 
ATOM      5  C4  UNL d   1      -0.577  -0.431   0.499  0.00  0.00     0.162 A 
ATOM      6  C5  UNL d   1      -0.004  -1.359  -0.364  0.00  0.00     0.062 A 
ATOM      7  F   UNL d   1      -0.025  -2.663  -0.052  0.00  0.00    -0.097 F 
ATOM      8  F1  UNL d   1      -1.142  -0.863   1.636  0.00  0.00    -0.096 F 
ATOM      9  I   UNL d   1      -1.417   2.321   1.472  0.00  0.00    -0.060 I 
ATOM     10  F2  UNL d   1       0.070   2.641  -1.344  0.00  0.00    -0.096 F 
ATOM     11  F3  UNL d   1       1.179   0.817  -3.011  0.00  0.00    -0.097 F 
ATOM     12  F4  UNL d   1       1.138  -1.836  -2.377  0.00  0.00    -0.092 F 
ENDROOT
TORSDOF 0
ENDMDL
