MODEL 1
REMARK minimizedAffinity -2.53577828
REMARK minimizedRMSD -1
REMARK  0 active torsions:
REMARK  status: ('A' for Active; 'I' for Inactive)
ROOT
ATOM      1  C1  BNZ d   1      -4.884   2.476  -4.368  0.00  0.00     0.000 A 
ATOM      2  C2  BNZ d   1      -3.967   1.569  -4.831  0.00  0.00     0.000 A 
ATOM      3  C3  BNZ d   1      -2.671   1.601  -4.397  0.00  0.00     0.000 A 
ATOM      4  C4  BNZ d   1      -2.284   2.562  -3.534  0.00  0.00     0.000 A 
ATOM      5  C5  BNZ d   1      -3.194   3.489  -3.066  0.00  0.00     0.000 A 
ATOM      6  C6  BNZ d   1      -4.507   3.430  -3.475  0.00  0.00     0.000 A 
ENDROOT
TORSDOF 0
ENDMDL
