MODEL 1
REMARK minimizedAffinity -5.11177063
REMARK minimizedRMSD -1
REMARK  0 active torsions:
REMARK  status: ('A' for Active; 'I' for Inactive)
ROOT
ATOM      1  C1  BNZ d   1       1.144  -0.691   2.614  0.00  0.00     0.000 A 
ATOM      2  C2  BNZ d   1       2.185  -1.572   2.489  0.00  0.00     0.000 A 
ATOM      3  C3  BNZ d   1       2.688  -1.890   1.258  0.00  0.00     0.000 A 
ATOM      4  C4  BNZ d   1       2.125  -1.359   0.154  0.00  0.00     0.000 A 
ATOM      5  C5  BNZ d   1       1.069  -0.476   0.264  0.00  0.00     0.000 A 
ATOM      6  C6  BNZ d   1       0.591  -0.128   1.506  0.00  0.00     0.000 A 
ENDROOT
TORSDOF 0
ENDMDL
