MODEL 1
REMARK minimizedAffinity -2.99714899
REMARK minimizedRMSD -1
REMARK  0 active torsions:
REMARK  status: ('A' for Active; 'I' for Inactive)
ROOT
ATOM      1  C1  BNZ d   1      -0.622   0.505   1.120  0.00  0.00     0.000 A 
ATOM      2  C2  BNZ d   1      -0.846  -0.049   2.352  0.00  0.00     0.000 A 
ATOM      3  C3  BNZ d   1      -0.151  -1.153   2.760  0.00  0.00     0.000 A 
ATOM      4  C4  BNZ d   1       0.738  -1.724   1.922  0.00  0.00     0.000 A 
ATOM      5  C5  BNZ d   1       0.969  -1.183   0.673  0.00  0.00     0.000 A 
ATOM      6  C6  BNZ d   1       0.295  -0.049   0.281  0.00  0.00     0.000 A 
ENDROOT
TORSDOF 0
ENDMDL
