MODEL 1
REMARK minimizedAffinity -5.4933157
REMARK minimizedRMSD -1
REMARK  0 active torsions:
REMARK  status: ('A' for Active; 'I' for Inactive)
ROOT
ATOM      1  C1  BNZ d   1       1.426  -0.934  -0.032  0.00  0.00     0.000 A 
ATOM      2  C2  BNZ d   1       2.137  -1.541   0.968  0.00  0.00     0.000 A 
ATOM      3  C3  BNZ d   1       1.697  -1.503   2.262  0.00  0.00     0.000 A 
ATOM      4  C4  BNZ d   1       0.569  -0.826   2.559  0.00  0.00     0.000 A 
ATOM      5  C5  BNZ d   1      -0.154  -0.201   1.562  0.00  0.00     0.000 A 
ATOM      6  C6  BNZ d   1       0.271  -0.274   0.256  0.00  0.00     0.000 A 
ENDROOT
TORSDOF 0
ENDMDL
