MODEL 1
REMARK minimizedAffinity -4.74375343
REMARK minimizedRMSD -1
REMARK  0 active torsions:
REMARK  status: ('A' for Active; 'I' for Inactive)
ROOT
ATOM      1  C1  BNZ d   1      -0.819  -0.049   0.267  0.00  0.00     0.000 A 
ATOM      2  C2  BNZ d   1      -1.122   0.042   1.599  0.00  0.00     0.000 A 
ATOM      3  C3  BNZ d   1      -0.140  -0.034   2.547  0.00  0.00     0.000 A 
ATOM      4  C4  BNZ d   1       1.136  -0.242   2.164  0.00  0.00     0.000 A 
ATOM      5  C5  BNZ d   1       1.456  -0.346   0.825  0.00  0.00     0.000 A 
ATOM      6  C6  BNZ d   1       0.471  -0.229  -0.128  0.00  0.00     0.000 A 
ENDROOT
TORSDOF 0
ENDMDL
