MODEL 1
REMARK minimizedAffinity -4.56707907
REMARK minimizedRMSD -1
REMARK  0 active torsions:
REMARK  status: ('A' for Active; 'I' for Inactive)
ROOT
ATOM      1  C1  BNZ d   1       2.013  -1.764  -0.045  0.00  0.00     0.000 A 
ATOM      2  C2  BNZ d   1       0.949  -1.455  -0.850  0.00  0.00     0.000 A 
ATOM      3  C3  BNZ d   1       0.052  -0.490  -0.485  0.00  0.00     0.000 A 
ATOM      4  C4  BNZ d   1       0.198   0.136   0.701  0.00  0.00     0.000 A 
ATOM      5  C5  BNZ d   1       1.261  -0.171   1.528  0.00  0.00     0.000 A 
ATOM      6  C6  BNZ d   1       2.183  -1.116   1.139  0.00  0.00     0.000 A 
ENDROOT
TORSDOF 0
ENDMDL
