MODEL 1
REMARK minimizedAffinity -2.61297798
REMARK minimizedRMSD -1
REMARK  0 active torsions:
REMARK  status: ('A' for Active; 'I' for Inactive)
ROOT
ATOM      1  C1  BNZ d   1      -0.350  -1.327   2.566  0.00  0.00     0.000 A 
ATOM      2  C2  BNZ d   1      -0.894  -1.107   1.329  0.00  0.00     0.000 A 
ATOM      3  C3  BNZ d   1      -0.215  -0.390   0.383  0.00  0.00     0.000 A 
ATOM      4  C4  BNZ d   1       0.988   0.138   0.688  0.00  0.00     0.000 A 
ATOM      5  C5  BNZ d   1       1.545  -0.067   1.934  0.00  0.00     0.000 A 
ATOM      6  C6  BNZ d   1       0.876  -0.822   2.871  0.00  0.00     0.000 A 
ENDROOT
TORSDOF 0
ENDMDL
