MODEL 1
REMARK minimizedAffinity 20.7783413
REMARK minimizedRMSD -1
REMARK  3 active torsions:
REMARK  status: ('A' for Active; 'I' for Inactive)
REMARK    1  A    between atoms: C3'_2  and  C2'_3 
REMARK    2  A    between atoms: C2'_3  and  C1'_4 
REMARK    3  A    between atoms: C1'_4  and  C1_5 
ROOT
ATOM      1  C1  N4B d   1       3.143   3.126  -3.141  0.00  0.00    -0.075 A 
ATOM      2  C2  N4B d   1       3.856   4.097  -2.404  0.00  0.00     0.002 A 
ATOM      3  C3  N4B d   1       4.948   4.717  -2.961  0.00  0.00     0.002 A 
ATOM      4  C4  N4B d   1       5.354   4.370  -4.241  0.00  0.00    -0.004 A 
ATOM      5  C5  N4B d   1       4.645   3.450  -4.956  0.00  0.00     0.002 A 
ATOM      6  C6  N4B d   1       3.543   2.822  -4.410  0.00  0.00     0.002 A 
ENDROOT
BRANCH   1   7
ATOM      7  C1' N4B d   1       1.995   2.360  -2.543  0.00  0.00     0.057 C 
BRANCH   7   8
ATOM      8  C2' N4B d   1       2.537   1.136  -1.811  0.00  0.00     0.009 C 
BRANCH   8   9
ATOM      9  C3' N4B d   1       2.153   1.137  -0.341  0.00  0.00     0.004 C 
ATOM     10  C4' N4B d   1       3.320   1.396   0.564  0.00  0.00     0.003 C 
ENDBRANCH   8   9
ENDBRANCH   7   8
ENDBRANCH   1   7
TORSDOF 3
ENDMDL
