MODEL 1
REMARK minimizedAffinity 11.6957998
REMARK minimizedRMSD -1
REMARK  3 active torsions:
REMARK  status: ('A' for Active; 'I' for Inactive)
REMARK    1  A    between atoms: C3'_2  and  C2'_3 
REMARK    2  A    between atoms: C2'_3  and  C1'_4 
REMARK    3  A    between atoms: C1'_4  and  C1_5 
ROOT
ATOM      1  C1  N4B d   1       0.258   3.669  -3.967  0.00  0.00    -0.075 A 
ATOM      2  C2  N4B d   1       1.355   2.783  -3.897  0.00  0.00     0.002 A 
ATOM      3  C3  N4B d   1       2.377   3.024  -3.012  0.00  0.00     0.002 A 
ATOM      4  C4  N4B d   1       2.332   4.150  -2.204  0.00  0.00    -0.004 A 
ATOM      5  C5  N4B d   1       1.257   4.988  -2.260  0.00  0.00     0.002 A 
ATOM      6  C6  N4B d   1       0.221   4.755  -3.142  0.00  0.00     0.002 A 
ENDROOT
BRANCH   1   7
ATOM      7  C1' N4B d   1      -0.841   3.493  -4.980  0.00  0.00     0.057 C 
BRANCH   7   8
ATOM      8  C2' N4B d   1      -1.055   4.810  -5.721  0.00  0.00     0.009 C 
BRANCH   8   9
ATOM      9  C3' N4B d   1      -2.473   5.328  -5.561  0.00  0.00     0.004 C 
ATOM     10  C4' N4B d   1      -3.129   4.846  -4.301  0.00  0.00     0.003 C 
ENDBRANCH   8   9
ENDBRANCH   7   8
ENDBRANCH   1   7
TORSDOF 3
ENDMDL
