MODEL 1
REMARK minimizedAffinity 12.3992147
REMARK minimizedRMSD -1
REMARK  3 active torsions:
REMARK  status: ('A' for Active; 'I' for Inactive)
REMARK    1  A    between atoms: C3'_2  and  C2'_3 
REMARK    2  A    between atoms: C2'_3  and  C1'_4 
REMARK    3  A    between atoms: C1'_4  and  C1_5 
ROOT
ATOM      1  C1  N4B d   1      -1.889   0.516   3.133  0.00  0.00    -0.075 A 
ATOM      2  C2  N4B d   1      -1.890   0.787   4.519  0.00  0.00     0.002 A 
ATOM      3  C3  N4B d   1      -0.913   0.252   5.324  0.00  0.00     0.002 A 
ATOM      4  C4  N4B d   1       0.058  -0.568   4.770  0.00  0.00    -0.004 A 
ATOM      5  C5  N4B d   1       0.067  -0.804   3.427  0.00  0.00     0.002 A 
ATOM      6  C6  N4B d   1      -0.906  -0.270   2.605  0.00  0.00     0.002 A 
ENDROOT
BRANCH   1   7
ATOM      7  C1' N4B d   1      -2.984   1.009   2.228  0.00  0.00     0.057 C 
BRANCH   7   8
ATOM      8  C2' N4B d   1      -3.573  -0.174   1.465  0.00  0.00     0.009 C 
BRANCH   8   9
ATOM      9  C3' N4B d   1      -5.009   0.081   1.040  0.00  0.00     0.004 C 
ATOM     10  C4' N4B d   1      -5.125   0.486  -0.400  0.00  0.00     0.003 C 
ENDBRANCH   8   9
ENDBRANCH   7   8
ENDBRANCH   1   7
TORSDOF 3
ENDMDL
