MODEL 1
REMARK minimizedAffinity 14.0245953
REMARK minimizedRMSD -1
REMARK  3 active torsions:
REMARK  status: ('A' for Active; 'I' for Inactive)
REMARK    1  A    between atoms: C3'_2  and  C2'_3 
REMARK    2  A    between atoms: C2'_3  and  C1'_4 
REMARK    3  A    between atoms: C1'_4  and  C1_5 
ROOT
ATOM      1  C1  N4B d   1      -1.243  -1.158   2.250  0.00  0.00    -0.075 A 
ATOM      2  C2  N4B d   1      -1.403  -0.252   3.321  0.00  0.00     0.002 A 
ATOM      3  C3  N4B d   1      -0.510  -0.257   4.364  0.00  0.00     0.002 A 
ATOM      4  C4  N4B d   1       0.536  -1.168   4.368  0.00  0.00    -0.004 A 
ATOM      5  C5  N4B d   1       0.698  -2.023   3.317  0.00  0.00     0.002 A 
ATOM      6  C6  N4B d   1      -0.190  -2.026   2.260  0.00  0.00     0.002 A 
ENDROOT
BRANCH   1   7
ATOM      7  C1' N4B d   1      -2.242  -1.248   1.130  0.00  0.00     0.057 C 
BRANCH   7   8
ATOM      8  C2' N4B d   1      -3.124  -0.003   1.144  0.00  0.00     0.009 C 
BRANCH   8   9
ATOM      9  C3' N4B d   1      -4.550  -0.311   0.721  0.00  0.00     0.004 C 
ATOM     10  C4' N4B d   1      -4.840   0.106  -0.690  0.00  0.00     0.003 C 
ENDBRANCH   8   9
ENDBRANCH   7   8
ENDBRANCH   1   7
TORSDOF 3
ENDMDL
