MODEL 1
REMARK minimizedAffinity 11.4206123
REMARK minimizedRMSD -1
REMARK  3 active torsions:
REMARK  status: ('A' for Active; 'I' for Inactive)
REMARK    1  A    between atoms: C3'_2  and  C2'_3 
REMARK    2  A    between atoms: C2'_3  and  C1'_4 
REMARK    3  A    between atoms: C1'_4  and  C1_5 
ROOT
ATOM      1  C1  N4B d   1      -0.901  -0.639   2.190  0.00  0.00    -0.075 A 
ATOM      2  C2  N4B d   1      -1.518   0.432   2.874  0.00  0.00     0.002 A 
ATOM      3  C3  N4B d   1      -2.846   0.708   2.663  0.00  0.00     0.002 A 
ATOM      4  C4  N4B d   1      -3.571  -0.058   1.763  0.00  0.00    -0.004 A 
ATOM      5  C5  N4B d   1      -2.975  -1.107   1.125  0.00  0.00     0.002 A 
ATOM      6  C6  N4B d   1      -1.641  -1.398   1.331  0.00  0.00     0.002 A 
ENDROOT
BRANCH   1   7
ATOM      7  C1' N4B d   1       0.569  -0.925   2.323  0.00  0.00     0.057 C 
BRANCH   7   8
ATOM      8  C2' N4B d   1       1.351   0.056   1.454  0.00  0.00     0.009 C 
BRANCH   8   9
ATOM      9  C3' N4B d   1       2.829   0.072   1.803  0.00  0.00     0.004 C 
ATOM     10  C4' N4B d   1       3.539   1.281   1.272  0.00  0.00     0.003 C 
ENDBRANCH   8   9
ENDBRANCH   7   8
ENDBRANCH   1   7
TORSDOF 3
ENDMDL
