MODEL 1
REMARK minimizedAffinity 11.1610804
REMARK minimizedRMSD -1
REMARK  3 active torsions:
REMARK  status: ('A' for Active; 'I' for Inactive)
REMARK    1  A    between atoms: C3'_2  and  C2'_3 
REMARK    2  A    between atoms: C2'_3  and  C1'_4 
REMARK    3  A    between atoms: C1'_4  and  C1_5 
ROOT
ATOM      1  C1  N4B d   1       3.295   3.476  -3.027  0.00  0.00    -0.075 A 
ATOM      2  C2  N4B d   1       3.722   3.084  -4.315  0.00  0.00     0.002 A 
ATOM      3  C3  N4B d   1       5.000   3.367  -4.729  0.00  0.00     0.002 A 
ATOM      4  C4  N4B d   1       5.859   4.056  -3.885  0.00  0.00    -0.004 A 
ATOM      5  C5  N4B d   1       5.446   4.409  -2.634  0.00  0.00     0.002 A 
ATOM      6  C6  N4B d   1       4.165   4.126  -2.202  0.00  0.00     0.002 A 
ENDROOT
BRANCH   1   7
ATOM      7  C1' N4B d   1       1.880   3.264  -2.562  0.00  0.00     0.057 C 
BRANCH   7   8
ATOM      8  C2' N4B d   1       1.704   1.807  -2.143  0.00  0.00     0.009 C 
BRANCH   8   9
ATOM      9  C3' N4B d   1       2.816   1.343  -1.219  0.00  0.00     0.004 C 
ATOM     10  C4' N4B d   1       2.374   1.227   0.210  0.00  0.00     0.003 C 
ENDBRANCH   8   9
ENDBRANCH   7   8
ENDBRANCH   1   7
TORSDOF 3
ENDMDL
