MODEL 1
REMARK minimizedAffinity 5.71103573
REMARK minimizedRMSD -1
REMARK  1 active torsions:
REMARK  status: ('A' for Active; 'I' for Inactive)
REMARK    1  A    between atoms: C1_2  and  C2_3 
ROOT
ATOM      1  C2  UNL d   1      -1.535   1.972   2.115  0.00  0.00    -0.081 A 
ATOM      2  C3  UNL d   1      -1.895   2.526   0.880  0.00  0.00     0.006 A 
ATOM      3  C4  UNL d   1      -2.346   1.708  -0.158  0.00  0.00     0.002 A 
ATOM      4  C5  UNL d   1      -2.453   0.325   0.023  0.00  0.00    -0.080 A 
ATOM      5  C6  UNL d   1      -2.965  -0.561  -1.074  0.00  0.00     0.076 C 
ATOM      6  C7  UNL d   1      -2.077  -0.230   1.250  0.00  0.00     0.002 A 
ATOM      7  C8  UNL d   1      -1.625   0.587   2.289  0.00  0.00     0.006 A 
ENDROOT
BRANCH   1   8
ATOM      8  C1  UNL d   1      -1.110   2.859   3.258  0.00  0.00     0.054 C 
ATOM      9  C   UNL d   1      -2.312   3.492   3.944  0.00  0.00     0.018 C 
ENDBRANCH   1   8
TORSDOF 1
ENDMDL
