MODEL 1
REMARK minimizedAffinity 8.22420025
REMARK minimizedRMSD -1
REMARK  1 active torsions:
REMARK  status: ('A' for Active; 'I' for Inactive)
REMARK    1  A    between atoms: C1_2  and  C2_3 
ROOT
ATOM      1  C2  UNL d   1      -0.674  -0.086   1.106  0.00  0.00    -0.081 A 
ATOM      2  C3  UNL d   1       0.332   0.661   0.481  0.00  0.00     0.006 A 
ATOM      3  C4  UNL d   1       1.606   0.118   0.298  0.00  0.00     0.002 A 
ATOM      4  C5  UNL d   1       1.893  -1.182   0.729  0.00  0.00    -0.080 A 
ATOM      5  C6  UNL d   1       3.248  -1.787   0.511  0.00  0.00     0.076 C 
ATOM      6  C7  UNL d   1       0.892  -1.921   1.368  0.00  0.00     0.002 A 
ATOM      7  C8  UNL d   1      -0.382  -1.379   1.552  0.00  0.00     0.006 A 
ENDROOT
BRANCH   1   8
ATOM      8  C1  UNL d   1      -2.067   0.473   1.246  0.00  0.00     0.054 C 
ATOM      9  C   UNL d   1      -2.491   1.225  -0.007  0.00  0.00     0.018 C 
ENDBRANCH   1   8
TORSDOF 1
ENDMDL
