MODEL 1
REMARK minimizedAffinity -4.40823412
REMARK minimizedRMSD -1
REMARK  1 active torsions:
REMARK  status: ('A' for Active; 'I' for Inactive)
REMARK    1  A    between atoms: C1_2  and  C2_3 
ROOT
ATOM      1  C2  UNL d   1      -0.281   1.186   0.711  0.00  0.00    -0.081 A 
ATOM      2  C3  UNL d   1      -0.989   2.392   0.637  0.00  0.00     0.006 A 
ATOM      3  C4  UNL d   1      -2.382   2.403   0.742  0.00  0.00     0.002 A 
ATOM      4  C5  UNL d   1      -3.089   1.211   0.931  0.00  0.00    -0.080 A 
ATOM      5  C6  UNL d   1      -4.581   1.212   1.076  0.00  0.00     0.076 C 
ATOM      6  C7  UNL d   1      -2.383   0.004   0.987  0.00  0.00     0.002 A 
ATOM      7  C8  UNL d   1      -0.990  -0.008   0.881  0.00  0.00     0.006 A 
ENDROOT
BRANCH   1   8
ATOM      8  C1  UNL d   1       1.226   1.178   0.662  0.00  0.00     0.054 C 
ATOM      9  C   UNL d   1       1.812   2.313   1.489  0.00  0.00     0.018 C 
ENDBRANCH   1   8
TORSDOF 1
ENDMDL
