MODEL 1
REMARK minimizedAffinity 8.39979649
REMARK minimizedRMSD -1
REMARK  1 active torsions:
REMARK  status: ('A' for Active; 'I' for Inactive)
REMARK    1  A    between atoms: C1_2  and  C2_3 
ROOT
ATOM      1  C2  UNL d   1       3.862   1.569  -1.673  0.00  0.00    -0.081 A 
ATOM      2  C3  UNL d   1       3.983   1.570  -0.278  0.00  0.00     0.006 A 
ATOM      3  C4  UNL d   1       3.324   0.608   0.491  0.00  0.00     0.002 A 
ATOM      4  C5  UNL d   1       2.540  -0.375  -0.123  0.00  0.00    -0.080 A 
ATOM      5  C6  UNL d   1       1.852  -1.432   0.689  0.00  0.00     0.076 C 
ATOM      6  C7  UNL d   1       2.405  -0.366  -1.515  0.00  0.00     0.002 A 
ATOM      7  C8  UNL d   1       3.064   0.597  -2.284  0.00  0.00     0.006 A 
ENDROOT
BRANCH   1   8
ATOM      8  C1  UNL d   1       4.624   2.566  -2.508  0.00  0.00     0.054 C 
ATOM      9  C   UNL d   1       5.554   3.412  -1.650  0.00  0.00     0.018 C 
ENDBRANCH   1   8
TORSDOF 1
ENDMDL
