MODEL 1
REMARK minimizedAffinity 22.0508881
REMARK minimizedRMSD -1
REMARK  1 active torsions:
REMARK  status: ('A' for Active; 'I' for Inactive)
REMARK    1  A    between atoms: C1_2  and  C2_3 
ROOT
ATOM      1  C2  UNL d   1       1.828   1.077  -0.750  0.00  0.00    -0.081 A 
ATOM      2  C3  UNL d   1       1.450   0.390   0.410  0.00  0.00     0.006 A 
ATOM      3  C4  UNL d   1       2.006   0.727   1.646  0.00  0.00     0.002 A 
ATOM      4  C5  UNL d   1       2.943   1.761   1.744  0.00  0.00    -0.080 A 
ATOM      5  C6  UNL d   1       3.525   2.153   3.070  0.00  0.00     0.076 C 
ATOM      6  C7  UNL d   1       3.334   2.436   0.583  0.00  0.00     0.002 A 
ATOM      7  C8  UNL d   1       2.778   2.099  -0.653  0.00  0.00     0.006 A 
ENDROOT
BRANCH   1   8
ATOM      8  C1  UNL d   1       1.182   0.759  -2.074  0.00  0.00     0.054 C 
ATOM      9  C   UNL d   1      -0.015   1.662  -2.337  0.00  0.00     0.018 C 
ENDBRANCH   1   8
TORSDOF 1
ENDMDL
