MODEL 1
REMARK minimizedAffinity -4.12586641
REMARK minimizedRMSD -1
REMARK  1 active torsions:
REMARK  status: ('A' for Active; 'I' for Inactive)
REMARK    1  A    between atoms: C1_2  and  C2_3 
ROOT
ATOM      1  C2  UNL d   1       0.676   1.242   0.671  0.00  0.00    -0.081 A 
ATOM      2  C3  UNL d   1      -0.650   1.239   0.222  0.00  0.00     0.006 A 
ATOM      3  C4  UNL d   1      -1.296   0.035  -0.071  0.00  0.00     0.002 A 
ATOM      4  C5  UNL d   1      -0.630  -1.185   0.089  0.00  0.00    -0.080 A 
ATOM      5  C6  UNL d   1      -1.322  -2.485  -0.192  0.00  0.00     0.076 C 
ATOM      6  C7  UNL d   1       0.700  -1.181   0.521  0.00  0.00     0.002 A 
ATOM      7  C8  UNL d   1       1.347   0.022   0.813  0.00  0.00     0.006 A 
ENDROOT
BRANCH   1   8
ATOM      8  C1  UNL d   1       1.355   2.534   1.049  0.00  0.00     0.054 C 
ATOM      9  C   UNL d   1       2.725   2.281   1.661  0.00  0.00     0.018 C 
ENDBRANCH   1   8
TORSDOF 1
ENDMDL
