MODEL 1
REMARK minimizedAffinity -3.14849854
REMARK minimizedRMSD -1
REMARK  1 active torsions:
REMARK  status: ('A' for Active; 'I' for Inactive)
REMARK    1  A    between atoms: C1_2  and  C2_3 
ROOT
ATOM      1  C2  UNL d   1      -0.385   0.615   0.174  0.00  0.00    -0.081 A 
ATOM      2  C3  UNL d   1      -1.188   0.156   1.225  0.00  0.00     0.006 A 
ATOM      3  C4  UNL d   1      -1.470   0.984   2.314  0.00  0.00     0.002 A 
ATOM      4  C5  UNL d   1      -0.960   2.285   2.368  0.00  0.00    -0.080 A 
ATOM      5  C6  UNL d   1      -1.280   3.194   3.517  0.00  0.00     0.076 C 
ATOM      6  C7  UNL d   1      -0.143   2.738   1.326  0.00  0.00     0.002 A 
ATOM      7  C8  UNL d   1       0.140   1.911   0.237  0.00  0.00     0.006 A 
ENDROOT
BRANCH   1   8
ATOM      8  C1  UNL d   1      -0.132  -0.252  -1.033  0.00  0.00     0.054 C 
ATOM      9  C   UNL d   1      -0.639  -1.670  -0.812  0.00  0.00     0.018 C 
ENDBRANCH   1   8
TORSDOF 1
ENDMDL
