MODEL 1
REMARK minimizedAffinity 9.02322483
REMARK minimizedRMSD -1
REMARK  1 active torsions:
REMARK  status: ('A' for Active; 'I' for Inactive)
REMARK    1  A    between atoms: C1_2  and  C2_3 
ROOT
ATOM      1  C2  UNL d   1       0.061   1.751   1.655  0.00  0.00    -0.081 A 
ATOM      2  C3  UNL d   1       1.374   2.196   1.852  0.00  0.00     0.006 A 
ATOM      3  C4  UNL d   1       2.455   1.432   1.407  0.00  0.00     0.002 A 
ATOM      4  C5  UNL d   1       2.242   0.215   0.750  0.00  0.00    -0.080 A 
ATOM      5  C6  UNL d   1       3.392  -0.601   0.240  0.00  0.00     0.076 C 
ATOM      6  C7  UNL d   1       0.931  -0.238   0.569  0.00  0.00     0.002 A 
ATOM      7  C8  UNL d   1      -0.151   0.525   1.015  0.00  0.00     0.006 A 
ENDROOT
BRANCH   1   8
ATOM      8  C1  UNL d   1      -1.108   2.603   2.076  0.00  0.00     0.054 C 
ATOM      9  C   UNL d   1      -2.259   2.493   1.086  0.00  0.00     0.018 C 
ENDBRANCH   1   8
TORSDOF 1
ENDMDL
