MODEL 1
REMARK minimizedAffinity -5.37686729
REMARK minimizedRMSD -1
REMARK  1 active torsions:
REMARK  status: ('A' for Active; 'I' for Inactive)
REMARK    1  A    between atoms: C1_2  and  C2_3 
ROOT
ATOM      1  C2  UNL d   1      -1.221  -3.415  -0.947  0.00  0.00    -0.081 A 
ATOM      2  C3  UNL d   1      -0.338  -2.901  -1.904  0.00  0.00     0.006 A 
ATOM      3  C4  UNL d   1       0.651  -1.985  -1.535  0.00  0.00     0.002 A 
ATOM      4  C5  UNL d   1       0.777  -1.575  -0.203  0.00  0.00    -0.080 A 
ATOM      5  C6  UNL d   1       1.853  -0.616   0.211  0.00  0.00     0.076 C 
ATOM      6  C7  UNL d   1      -0.117  -2.075   0.749  0.00  0.00     0.002 A 
ATOM      7  C8  UNL d   1      -1.106  -2.990   0.381  0.00  0.00     0.006 A 
ENDROOT
BRANCH   1   8
ATOM      8  C1  UNL d   1      -2.247  -4.451  -1.330  0.00  0.00     0.054 C 
ATOM      9  C   UNL d   1      -3.313  -4.598  -0.254  0.00  0.00     0.018 C 
ENDBRANCH   1   8
TORSDOF 1
ENDMDL
