MODEL 1
REMARK minimizedAffinity -3.00924993
REMARK minimizedRMSD -1
REMARK  1 active torsions:
REMARK  status: ('A' for Active; 'I' for Inactive)
REMARK    1  A    between atoms: C1_2  and  C2_3 
ROOT
ATOM      1  C2  UNL d   1      -4.144   3.046  -1.823  0.00  0.00    -0.081 A 
ATOM      2  C3  UNL d   1      -5.227   3.178  -2.700  0.00  0.00     0.006 A 
ATOM      3  C4  UNL d   1      -5.014   3.466  -4.050  0.00  0.00     0.002 A 
ATOM      4  C5  UNL d   1      -3.715   3.620  -4.547  0.00  0.00    -0.080 A 
ATOM      5  C6  UNL d   1      -3.471   3.900  -6.000  0.00  0.00     0.076 C 
ATOM      6  C7  UNL d   1      -2.634   3.505  -3.667  0.00  0.00     0.002 A 
ATOM      7  C8  UNL d   1      -2.846   3.217  -2.317  0.00  0.00     0.006 A 
ENDROOT
BRANCH   1   8
ATOM      8  C1  UNL d   1      -4.367   2.671  -0.380  0.00  0.00     0.054 C 
ATOM      9  C   UNL d   1      -5.792   2.978   0.057  0.00  0.00     0.018 C 
ENDBRANCH   1   8
TORSDOF 1
ENDMDL
