MODEL 1
REMARK minimizedAffinity -4.19262695
REMARK minimizedRMSD -1
REMARK  1 active torsions:
REMARK  status: ('A' for Active; 'I' for Inactive)
REMARK    1  A    between atoms: C1_2  and  C2_3 
ROOT
ATOM      1  C2  UNL d   1       0.593  -0.433  -1.337  0.00  0.00    -0.081 A 
ATOM      2  C3  UNL d   1       0.885  -1.320  -2.381  0.00  0.00     0.006 A 
ATOM      3  C4  UNL d   1       0.189  -2.526  -2.501  0.00  0.00     0.002 A 
ATOM      4  C5  UNL d   1      -0.814  -2.861  -1.586  0.00  0.00    -0.080 A 
ATOM      5  C6  UNL d   1      -1.589  -4.138  -1.721  0.00  0.00     0.076 C 
ATOM      6  C7  UNL d   1      -1.094  -1.983  -0.533  0.00  0.00     0.002 A 
ATOM      7  C8  UNL d   1      -0.398  -0.778  -0.412  0.00  0.00     0.006 A 
ENDROOT
BRANCH   1   8
ATOM      8  C1  UNL d   1       1.296   0.897  -1.242  0.00  0.00     0.054 C 
ATOM      9  C   UNL d   1       2.390   0.870  -0.184  0.00  0.00     0.018 C 
ENDBRANCH   1   8
TORSDOF 1
ENDMDL
