MODEL 1
REMARK minimizedAffinity -4.24771214
REMARK minimizedRMSD -1
REMARK  0 active torsions:
REMARK  status: ('A' for Active; 'I' for Inactive)
ROOT
ATOM      1  C   UNL d   1      -0.335  -2.692   1.284  0.00  0.00     0.020 A 
ATOM      2  C1  UNL d   1       0.575  -2.323   0.295  0.00  0.00     0.020 A 
ATOM      3  C2  UNL d   1       0.618  -1.002  -0.156  0.00  0.00     0.034 A 
ATOM      4  C3  UNL d   1      -0.251  -0.046   0.382  0.00  0.00     0.017 A 
ATOM      5  C4  UNL d   1      -1.165  -0.418   1.375  0.00  0.00     0.017 A 
ATOM      6  C5  UNL d   1      -1.203  -1.742   1.823  0.00  0.00     0.034 A 
ATOM      7 Cl   UNL d   1      -2.268   0.706   2.086  0.00  0.00    -0.070 Cl
ATOM      8 Cl1  UNL d   1      -0.142   1.569  -0.223  0.00  0.00    -0.070 Cl
ENDROOT
TORSDOF 0
ENDMDL
