MODEL 1
REMARK minimizedAffinity -4.59335518
REMARK minimizedRMSD -1
REMARK  0 active torsions:
REMARK  status: ('A' for Active; 'I' for Inactive)
ROOT
ATOM      1  C   UNL d   1      -0.077  -3.367   0.235  0.00  0.00     0.020 A 
ATOM      2  C1  UNL d   1       0.807  -2.717  -0.626  0.00  0.00     0.020 A 
ATOM      3  C2  UNL d   1       0.892  -1.323  -0.617  0.00  0.00     0.034 A 
ATOM      4  C3  UNL d   1       0.091  -0.575   0.253  0.00  0.00     0.017 A 
ATOM      5  C4  UNL d   1      -0.796  -1.228   1.116  0.00  0.00     0.017 A 
ATOM      6  C5  UNL d   1      -0.877  -2.623   1.104  0.00  0.00     0.034 A 
ATOM      7 Cl   UNL d   1      -1.816  -0.372   2.218  0.00  0.00    -0.070 Cl
ATOM      8 Cl1  UNL d   1       0.249   1.146   0.210  0.00  0.00    -0.070 Cl
ENDROOT
TORSDOF 0
ENDMDL
