MODEL 1
REMARK minimizedAffinity -2.8432076
REMARK minimizedRMSD -1
REMARK  0 active torsions:
REMARK  status: ('A' for Active; 'I' for Inactive)
ROOT
ATOM      1  C   UNL d   1       0.236  -0.092   0.008  0.00  0.00     0.020 A 
ATOM      2  C1  UNL d   1       1.314  -0.886  -0.382  0.00  0.00     0.020 A 
ATOM      3  C2  UNL d   1       1.190  -2.277  -0.391  0.00  0.00     0.034 A 
ATOM      4  C3  UNL d   1      -0.015  -2.878  -0.009  0.00  0.00     0.017 A 
ATOM      5  C4  UNL d   1      -1.097  -2.080   0.382  0.00  0.00     0.017 A 
ATOM      6  C5  UNL d   1      -0.967  -0.688   0.389  0.00  0.00     0.034 A 
ATOM      7 Cl   UNL d   1      -2.615  -2.750   0.866  0.00  0.00    -0.070 Cl
ATOM      8 Cl1  UNL d   1      -0.098  -4.604  -0.044  0.00  0.00    -0.070 Cl
ENDROOT
TORSDOF 0
ENDMDL
