MODEL 1
REMARK minimizedAffinity 0.487617254
REMARK minimizedRMSD -1
REMARK  0 active torsions:
REMARK  status: ('A' for Active; 'I' for Inactive)
ROOT
ATOM      1  C   UNL d   1      -1.755  -0.972   1.506  0.00  0.00     0.020 A 
ATOM      2  C1  UNL d   1      -1.567  -2.271   1.036  0.00  0.00     0.020 A 
ATOM      3  C2  UNL d   1      -0.764  -2.498  -0.084  0.00  0.00     0.034 A 
ATOM      4  C3  UNL d   1      -0.146  -1.425  -0.737  0.00  0.00     0.017 A 
ATOM      5  C4  UNL d   1      -0.336  -0.122  -0.264  0.00  0.00     0.017 A 
ATOM      6  C5  UNL d   1      -1.141   0.100   0.858  0.00  0.00     0.034 A 
ATOM      7 Cl   UNL d   1       0.393   1.253  -1.016  0.00  0.00    -0.070 Cl
ATOM      8 Cl1  UNL d   1       0.834  -1.780  -2.115  0.00  0.00    -0.070 Cl
ENDROOT
TORSDOF 0
ENDMDL
