MODEL 1
REMARK minimizedAffinity -3.01108027
REMARK minimizedRMSD -1
REMARK  0 active torsions:
REMARK  status: ('A' for Active; 'I' for Inactive)
ROOT
ATOM      1  C   UNL d   1       2.724   2.832  -0.276  0.00  0.00     0.020 A 
ATOM      2  C1  UNL d   1       1.752   3.499   0.467  0.00  0.00     0.020 A 
ATOM      3  C2  UNL d   1       0.441   3.018   0.494  0.00  0.00     0.034 A 
ATOM      4  C3  UNL d   1       0.100   1.867  -0.224  0.00  0.00     0.017 A 
ATOM      5  C4  UNL d   1       1.076   1.198  -0.970  0.00  0.00     0.017 A 
ATOM      6  C5  UNL d   1       2.387   1.684  -0.994  0.00  0.00     0.034 A 
ATOM      7 Cl   UNL d   1       0.730  -0.229  -1.882  0.00  0.00    -0.070 Cl
ATOM      8 Cl1  UNL d   1      -1.540   1.328  -0.145  0.00  0.00    -0.070 Cl
ENDROOT
TORSDOF 0
ENDMDL
