MODEL 1
REMARK minimizedAffinity -3.18665171
REMARK minimizedRMSD -1
REMARK  0 active torsions:
REMARK  status: ('A' for Active; 'I' for Inactive)
ROOT
ATOM      1  C   UNL d   1      -1.344  -3.014   0.747  0.00  0.00     0.020 A 
ATOM      2  C1  UNL d   1      -1.647  -2.078   1.735  0.00  0.00     0.020 A 
ATOM      3  C2  UNL d   1      -1.319  -0.734   1.548  0.00  0.00     0.034 A 
ATOM      4  C3  UNL d   1      -0.686  -0.321   0.371  0.00  0.00     0.017 A 
ATOM      5  C4  UNL d   1      -0.382  -1.261  -0.621  0.00  0.00     0.017 A 
ATOM      6  C5  UNL d   1      -0.713  -2.605  -0.429  0.00  0.00     0.034 A 
ATOM      7 Cl   UNL d   1       0.398  -0.827  -2.101  0.00  0.00    -0.070 Cl
ATOM      8 Cl1  UNL d   1      -0.310   1.357   0.207  0.00  0.00    -0.070 Cl
ENDROOT
TORSDOF 0
ENDMDL
