MODEL 1
REMARK minimizedAffinity -4.825984
REMARK minimizedRMSD -1
REMARK  0 active torsions:
REMARK  status: ('A' for Active; 'I' for Inactive)
ROOT
ATOM      1  C   UNL d   1      -0.181  -3.076   0.737  0.00  0.00     0.020 A 
ATOM      2  C1  UNL d   1       0.655  -2.486  -0.210  0.00  0.00     0.020 A 
ATOM      3  C2  UNL d   1       0.614  -1.105  -0.413  0.00  0.00     0.034 A 
ATOM      4  C3  UNL d   1      -0.265  -0.310   0.331  0.00  0.00     0.017 A 
ATOM      5  C4  UNL d   1      -1.104  -0.903   1.281  0.00  0.00     0.017 A 
ATOM      6  C5  UNL d   1      -1.059  -2.286   1.481  0.00  0.00     0.034 A 
ATOM      7 Cl   UNL d   1      -2.215   0.013   2.237  0.00  0.00    -0.070 Cl
ATOM      8 Cl1  UNL d   1      -0.262   1.391   0.027  0.00  0.00    -0.070 Cl
ENDROOT
TORSDOF 0
ENDMDL
