MODEL 1
REMARK minimizedAffinity -4.45627117
REMARK minimizedRMSD -1
REMARK  0 active torsions:
REMARK  status: ('A' for Active; 'I' for Inactive)
ROOT
ATOM      1  C   UNL d   1       0.501  -2.394  -2.318  0.00  0.00     0.020 A 
ATOM      2  C1  UNL d   1       0.223  -3.433  -1.430  0.00  0.00     0.020 A 
ATOM      3  C2  UNL d   1      -0.149  -3.147  -0.115  0.00  0.00     0.034 A 
ATOM      4  C3  UNL d   1      -0.244  -1.819   0.316  0.00  0.00     0.017 A 
ATOM      5  C4  UNL d   1       0.035  -0.777  -0.575  0.00  0.00     0.017 A 
ATOM      6  C5  UNL d   1       0.407  -1.069  -1.891  0.00  0.00     0.034 A 
ATOM      7 Cl   UNL d   1      -0.061   0.887  -0.116  0.00  0.00    -0.070 Cl
ATOM      8 Cl1  UNL d   1      -0.711  -1.538   1.956  0.00  0.00    -0.070 Cl
ENDROOT
TORSDOF 0
ENDMDL
