MODEL 1
REMARK minimizedAffinity -3.36033773
REMARK minimizedRMSD -1
REMARK  0 active torsions:
REMARK  status: ('A' for Active; 'I' for Inactive)
ROOT
ATOM      1  C   UNL d   1       2.035   3.528   0.675  0.00  0.00     0.020 A 
ATOM      2  C1  UNL d   1       2.315   2.522   1.600  0.00  0.00     0.020 A 
ATOM      3  C2  UNL d   1       1.772   1.247   1.430  0.00  0.00     0.034 A 
ATOM      4  C3  UNL d   1       0.947   0.974   0.332  0.00  0.00     0.017 A 
ATOM      5  C4  UNL d   1       0.667   1.984  -0.595  0.00  0.00     0.017 A 
ATOM      6  C5  UNL d   1       1.213   3.259  -0.420  0.00  0.00     0.034 A 
ATOM      7 Cl   UNL d   1      -0.342   1.722  -1.974  0.00  0.00    -0.070 Cl
ATOM      8 Cl1  UNL d   1       0.310  -0.626   0.185  0.00  0.00    -0.070 Cl
ENDROOT
TORSDOF 0
ENDMDL
