MODEL 1
REMARK minimizedAffinity -5.03405857
REMARK minimizedRMSD -1
REMARK  0 active torsions:
REMARK  status: ('A' for Active; 'I' for Inactive)
ROOT
ATOM      1  C   UNL d   1      -0.693  -3.429   0.452  0.00  0.00     0.020 A 
ATOM      2  C1  UNL d   1      -1.045  -2.409   1.335  0.00  0.00     0.020 A 
ATOM      3  C2  UNL d   1      -0.803  -1.076   0.994  0.00  0.00     0.034 A 
ATOM      4  C3  UNL d   1      -0.207  -0.760  -0.232  0.00  0.00     0.017 A 
ATOM      5  C4  UNL d   1       0.146  -1.785  -1.117  0.00  0.00     0.017 A 
ATOM      6  C5  UNL d   1      -0.099  -3.118  -0.771  0.00  0.00     0.034 A 
ATOM      7 Cl   UNL d   1       0.884  -1.474  -2.649  0.00  0.00    -0.070 Cl
ATOM      8 Cl1  UNL d   1       0.062   0.909  -0.588  0.00  0.00    -0.070 Cl
ENDROOT
TORSDOF 0
ENDMDL
