MODEL 1
REMARK minimizedAffinity -3.0558753
REMARK minimizedRMSD -1
REMARK  0 active torsions:
REMARK  status: ('A' for Active; 'I' for Inactive)
ROOT
ATOM      1  C   UNL d   1      -0.349   1.173   0.045  0.00  0.00     0.020 A 
ATOM      2  C1  UNL d   1      -0.751   0.496   1.196  0.00  0.00     0.020 A 
ATOM      3  C2  UNL d   1      -0.626  -0.893   1.269  0.00  0.00     0.034 A 
ATOM      4  C3  UNL d   1      -0.097  -1.610   0.190  0.00  0.00     0.017 A 
ATOM      5  C4  UNL d   1       0.308  -0.930  -0.965  0.00  0.00     0.017 A 
ATOM      6  C5  UNL d   1       0.180   0.461  -1.033  0.00  0.00     0.034 A 
ATOM      7 Cl   UNL d   1       0.970  -1.746  -2.337  0.00  0.00    -0.070 Cl
ATOM      8 Cl1  UNL d   1       0.030  -3.326   0.350  0.00  0.00    -0.070 Cl
ENDROOT
TORSDOF 0
ENDMDL
