MODEL 1
REMARK minimizedAffinity -2.76798391
REMARK minimizedRMSD -1
REMARK  0 active torsions:
REMARK  status: ('A' for Active; 'I' for Inactive)
ROOT
ATOM      1  C   UNL d   1      -1.125  -1.369   1.928  0.00  0.00     0.020 A 
ATOM      2  C1  UNL d   1      -0.990  -2.557   1.210  0.00  0.00     0.020 A 
ATOM      3  C2  UNL d   1      -0.431  -2.539  -0.070  0.00  0.00     0.034 A 
ATOM      4  C3  UNL d   1      -0.005  -1.332  -0.635  0.00  0.00     0.017 A 
ATOM      5  C4  UNL d   1      -0.140  -0.141   0.087  0.00  0.00     0.017 A 
ATOM      6  C5  UNL d   1      -0.700  -0.164   1.367  0.00  0.00     0.034 A 
ATOM      7 Cl   UNL d   1       0.364   1.387  -0.545  0.00  0.00    -0.070 Cl
ATOM      8 Cl1  UNL d   1       0.678  -1.385  -2.222  0.00  0.00    -0.070 Cl
ENDROOT
TORSDOF 0
ENDMDL
