MODEL 1
REMARK minimizedAffinity -1.98999202
REMARK minimizedRMSD -1
REMARK  0 active torsions:
REMARK  status: ('A' for Active; 'I' for Inactive)
ROOT
ATOM      1  C   UNL d   1       1.210   3.181   1.343  0.00  0.00     0.020 A 
ATOM      2  C1  UNL d   1       1.731   3.631   0.131  0.00  0.00     0.020 A 
ATOM      3  C2  UNL d   1       1.449   2.941  -1.050  0.00  0.00     0.034 A 
ATOM      4  C3  UNL d   1       0.644   1.796  -1.021  0.00  0.00     0.017 A 
ATOM      5  C4  UNL d   1       0.121   1.345   0.196  0.00  0.00     0.017 A 
ATOM      6  C5  UNL d   1       0.407   2.040   1.376  0.00  0.00     0.034 A 
ATOM      7 Cl   UNL d   1      -0.880  -0.059   0.312  0.00  0.00    -0.070 Cl
ATOM      8 Cl1  UNL d   1       0.336   0.992  -2.519  0.00  0.00    -0.070 Cl
ENDROOT
TORSDOF 0
ENDMDL
