MODEL 1
REMARK minimizedAffinity -0.718611896
REMARK minimizedRMSD -1
REMARK  0 active torsions:
REMARK  status: ('A' for Active; 'I' for Inactive)
ROOT
ATOM      1  C   UNL d   1       2.498   3.599   0.102  0.00  0.00     0.020 A 
ATOM      2  C1  UNL d   1       2.040   3.165   1.345  0.00  0.00     0.020 A 
ATOM      3  C2  UNL d   1       0.996   2.240   1.421  0.00  0.00     0.034 A 
ATOM      4  C3  UNL d   1       0.407   1.746   0.251  0.00  0.00     0.017 A 
ATOM      5  C4  UNL d   1       0.867   2.183  -0.996  0.00  0.00     0.017 A 
ATOM      6  C5  UNL d   1       1.913   3.109  -1.066  0.00  0.00     0.034 A 
ATOM      7 Cl   UNL d   1       0.190   1.619  -2.483  0.00  0.00    -0.070 Cl
ATOM      8 Cl1  UNL d   1      -0.878   0.604   0.420  0.00  0.00    -0.070 Cl
ENDROOT
TORSDOF 0
ENDMDL
