MODEL 1
REMARK minimizedAffinity 7.76339102
REMARK minimizedRMSD -1
REMARK  0 active torsions:
REMARK  status: ('A' for Active; 'I' for Inactive)
ROOT
ATOM      1  C   UNL d   1      -1.531   5.490   2.366  0.00  0.00     0.020 A 
ATOM      2  C1  UNL d   1      -0.379   5.544   3.149  0.00  0.00     0.020 A 
ATOM      3  C2  UNL d   1       0.653   4.628   2.937  0.00  0.00     0.034 A 
ATOM      4  C3  UNL d   1       0.536   3.654   1.939  0.00  0.00     0.017 A 
ATOM      5  C4  UNL d   1      -0.621   3.600   1.153  0.00  0.00     0.017 A 
ATOM      6  C5  UNL d   1      -1.652   4.520   1.370  0.00  0.00     0.034 A 
ATOM      7 Cl   UNL d   1      -0.839   2.427  -0.098  0.00  0.00    -0.070 Cl
ATOM      8 Cl1  UNL d   1       1.851   2.553   1.731  0.00  0.00    -0.070 Cl
ENDROOT
TORSDOF 0
ENDMDL
