MODEL 1
REMARK minimizedAffinity -3.71778989
REMARK minimizedRMSD -1
REMARK  0 active torsions:
REMARK  status: ('A' for Active; 'I' for Inactive)
ROOT
ATOM      1  C   UNL d   1      -0.984  -1.738   1.563  0.00  0.00     0.020 A 
ATOM      2  C1  UNL d   1      -0.586  -2.570   0.518  0.00  0.00     0.020 A 
ATOM      3  C2  UNL d   1       0.049  -2.029  -0.602  0.00  0.00     0.034 A 
ATOM      4  C3  UNL d   1       0.286  -0.652  -0.680  0.00  0.00     0.017 A 
ATOM      5  C4  UNL d   1      -0.114   0.183   0.369  0.00  0.00     0.017 A 
ATOM      6  C5  UNL d   1      -0.749  -0.364   1.488  0.00  0.00     0.034 A 
ATOM      7 Cl   UNL d   1       0.145   1.891   0.345  0.00  0.00    -0.070 Cl
ATOM      8 Cl1  UNL d   1       1.076  -0.052  -2.095  0.00  0.00    -0.070 Cl
ENDROOT
TORSDOF 0
ENDMDL
