MODEL 1
REMARK minimizedAffinity 4.7277894
REMARK minimizedRMSD -1
REMARK  1 active torsions:
REMARK  status: ('A' for Active; 'I' for Inactive)
REMARK    1  A    between atoms: C1_2  and  C2_3 
ROOT
ATOM      1  C2  UNL d   1       1.152  -1.098   0.895  0.00  0.00    -0.077 A 
ATOM      2  C3  UNL d   1      -0.230  -0.877   0.975  0.00  0.00     0.002 A 
ATOM      3  C4  UNL d   1      -0.857  -0.772   2.218  0.00  0.00     0.002 A 
ATOM      4  C5  UNL d   1      -0.110  -0.883   3.389  0.00  0.00    -0.004 A 
ATOM      5  C6  UNL d   1       1.264  -1.105   3.319  0.00  0.00     0.002 A 
ATOM      6  C7  UNL d   1       1.893  -1.211   2.078  0.00  0.00     0.002 A 
ENDROOT
BRANCH   1   7
ATOM      7  C1  UNL d   1       1.838  -1.162  -0.445  0.00  0.00     0.055 C 
ATOM      8  C   UNL d   1       0.934  -0.646  -1.555  0.00  0.00     0.019 C 
ENDBRANCH   1   7
TORSDOF 1
ENDMDL
