MODEL 1
REMARK minimizedAffinity -0.481215656
REMARK minimizedRMSD -1
REMARK  1 active torsions:
REMARK  status: ('A' for Active; 'I' for Inactive)
REMARK    1  A    between atoms: C1_2  and  C2_3 
ROOT
ATOM      1  C2  UNL d   1       1.289  -1.329  -0.464  0.00  0.00    -0.077 A 
ATOM      2  C3  UNL d   1       0.014  -1.315   0.118  0.00  0.00     0.002 A 
ATOM      3  C4  UNL d   1      -0.153  -1.664   1.460  0.00  0.00     0.002 A 
ATOM      4  C5  UNL d   1       0.950  -2.027   2.230  0.00  0.00    -0.004 A 
ATOM      5  C6  UNL d   1       2.222  -2.046   1.659  0.00  0.00     0.002 A 
ATOM      6  C7  UNL d   1       2.391  -1.699   0.318  0.00  0.00     0.002 A 
ENDROOT
BRANCH   1   7
ATOM      7  C1  UNL d   1       1.478  -0.905  -1.898  0.00  0.00     0.055 C 
ATOM      8  C   UNL d   1       1.439   0.610  -2.036  0.00  0.00     0.019 C 
ENDBRANCH   1   7
TORSDOF 1
ENDMDL
