MODEL 1
REMARK minimizedAffinity 2.87934875
REMARK minimizedRMSD -1
REMARK  1 active torsions:
REMARK  status: ('A' for Active; 'I' for Inactive)
REMARK    1  A    between atoms: C1_2  and  C2_3 
ROOT
ATOM      1  C2  UNL d   1      -4.280   2.704  -5.249  0.00  0.00    -0.077 A 
ATOM      2  C3  UNL d   1      -5.115   1.889  -4.471  0.00  0.00     0.002 A 
ATOM      3  C4  UNL d   1      -4.928   0.506  -4.446  0.00  0.00     0.002 A 
ATOM      4  C5  UNL d   1      -3.905  -0.074  -5.193  0.00  0.00    -0.004 A 
ATOM      5  C6  UNL d   1      -3.071   0.727  -5.971  0.00  0.00     0.002 A 
ATOM      6  C7  UNL d   1      -3.257   2.109  -5.998  0.00  0.00     0.002 A 
ENDROOT
BRANCH   1   7
ATOM      7  C1  UNL d   1      -4.449   4.200  -5.239  0.00  0.00     0.055 C 
ATOM      8  C   UNL d   1      -5.918   4.593  -5.302  0.00  0.00     0.019 C 
ENDBRANCH   1   7
TORSDOF 1
ENDMDL
