MODEL 1
REMARK minimizedAffinity 2.92510939
REMARK minimizedRMSD -1
REMARK  1 active torsions:
REMARK  status: ('A' for Active; 'I' for Inactive)
REMARK    1  A    between atoms: C1_2  and  C2_3 
ROOT
ATOM      1  C2  UNL d   1      -1.151   0.210   3.061  0.00  0.00    -0.077 A 
ATOM      2  C3  UNL d   1       0.204   0.340   3.394  0.00  0.00     0.002 A 
ATOM      3  C4  UNL d   1       1.157  -0.502   2.818  0.00  0.00     0.002 A 
ATOM      4  C5  UNL d   1       0.766  -1.477   1.903  0.00  0.00    -0.004 A 
ATOM      5  C6  UNL d   1      -0.580  -1.616   1.567  0.00  0.00     0.002 A 
ATOM      6  C7  UNL d   1      -1.535  -0.776   2.142  0.00  0.00     0.002 A 
ENDROOT
BRANCH   1   7
ATOM      7  C1  UNL d   1      -2.175   1.150   3.643  0.00  0.00     0.055 C 
ATOM      8  C   UNL d   1      -3.480   1.100   2.862  0.00  0.00     0.019 C 
ENDBRANCH   1   7
TORSDOF 1
ENDMDL
