MODEL 1
REMARK minimizedAffinity 0.196628928
REMARK minimizedRMSD -1
REMARK  1 active torsions:
REMARK  status: ('A' for Active; 'I' for Inactive)
REMARK    1  A    between atoms: C1_2  and  C2_3 
ROOT
ATOM      1  C2  UNL d   1       1.439  -1.350   1.960  0.00  0.00    -0.077 A 
ATOM      2  C3  UNL d   1       1.417  -0.804   0.669  0.00  0.00     0.002 A 
ATOM      3  C4  UNL d   1       2.285  -1.281  -0.315  0.00  0.00     0.002 A 
ATOM      4  C5  UNL d   1       3.179  -2.308  -0.020  0.00  0.00    -0.004 A 
ATOM      5  C6  UNL d   1       3.210  -2.857   1.262  0.00  0.00     0.002 A 
ATOM      6  C7  UNL d   1       2.344  -2.380   2.247  0.00  0.00     0.002 A 
ENDROOT
BRANCH   1   7
ATOM      7  C1  UNL d   1       0.470  -0.871   3.008  0.00  0.00     0.055 C 
ATOM      8  C   UNL d   1      -0.863  -0.475   2.390  0.00  0.00     0.019 C 
ENDBRANCH   1   7
TORSDOF 1
ENDMDL
