MODEL 1
REMARK minimizedAffinity 11.2553759
REMARK minimizedRMSD -1
REMARK  1 active torsions:
REMARK  status: ('A' for Active; 'I' for Inactive)
REMARK    1  A    between atoms: C1_2  and  C2_3 
ROOT
ATOM      1  C2  UNL d   1       5.961   1.539   0.179  0.00  0.00    -0.077 A 
ATOM      2  C3  UNL d   1       5.925   1.519  -1.222  0.00  0.00     0.002 A 
ATOM      3  C4  UNL d   1       5.928   0.305  -1.911  0.00  0.00     0.002 A 
ATOM      4  C5  UNL d   1       5.962  -0.897  -1.208  0.00  0.00    -0.004 A 
ATOM      5  C6  UNL d   1       6.000  -0.888   0.186  0.00  0.00     0.002 A 
ATOM      6  C7  UNL d   1       5.998   0.325   0.877  0.00  0.00     0.002 A 
ENDROOT
BRANCH   1   7
ATOM      7  C1  UNL d   1       5.908   2.847   0.926  0.00  0.00     0.055 C 
ATOM      8  C   UNL d   1       5.980   2.629   2.430  0.00  0.00     0.019 C 
ENDBRANCH   1   7
TORSDOF 1
ENDMDL
