MODEL 1
REMARK minimizedAffinity 4.75250769
REMARK minimizedRMSD -1
REMARK  1 active torsions:
REMARK  status: ('A' for Active; 'I' for Inactive)
REMARK    1  A    between atoms: C1_2  and  C2_3 
ROOT
ATOM      1  C2  UNL d   1       1.891  -0.131   1.614  0.00  0.00    -0.077 A 
ATOM      2  C3  UNL d   1       2.242   1.139   1.136  0.00  0.00     0.002 A 
ATOM      3  C4  UNL d   1       1.958   2.281   1.888  0.00  0.00     0.002 A 
ATOM      4  C5  UNL d   1       1.325   2.163   3.124  0.00  0.00    -0.004 A 
ATOM      5  C6  UNL d   1       0.970   0.905   3.607  0.00  0.00     0.002 A 
ATOM      6  C7  UNL d   1       1.252  -0.237   2.856  0.00  0.00     0.002 A 
ENDROOT
BRANCH   1   7
ATOM      7  C1  UNL d   1       2.240  -1.367   0.827  0.00  0.00     0.055 C 
ATOM      8  C   UNL d   1       1.435  -1.449  -0.461  0.00  0.00     0.019 C 
ENDBRANCH   1   7
TORSDOF 1
ENDMDL
