MODEL 1
REMARK minimizedAffinity 7.68486738
REMARK minimizedRMSD -1
REMARK  1 active torsions:
REMARK  status: ('A' for Active; 'I' for Inactive)
REMARK    1  A    between atoms: C1_2  and  C2_3 
ROOT
ATOM      1  C2  UNL d   1       0.924  -2.140   1.838  0.00  0.00    -0.077 A 
ATOM      2  C3  UNL d   1       1.279  -1.413   0.693  0.00  0.00     0.002 A 
ATOM      3  C4  UNL d   1       2.145  -1.964  -0.253  0.00  0.00     0.002 A 
ATOM      4  C5  UNL d   1       2.660  -3.245  -0.067  0.00  0.00    -0.004 A 
ATOM      5  C6  UNL d   1       2.314  -3.975   1.069  0.00  0.00     0.002 A 
ATOM      6  C7  UNL d   1       1.450  -3.426   2.017  0.00  0.00     0.002 A 
ENDROOT
BRANCH   1   7
ATOM      7  C1  UNL d   1      -0.049  -1.567   2.835  0.00  0.00     0.055 C 
ATOM      8  C   UNL d   1      -1.438  -2.162   2.659  0.00  0.00     0.019 C 
ENDBRANCH   1   7
TORSDOF 1
ENDMDL
