MODEL 1
REMARK minimizedAffinity 1.18813825
REMARK minimizedRMSD -1
REMARK  1 active torsions:
REMARK  status: ('A' for Active; 'I' for Inactive)
REMARK    1  A    between atoms: C1_2  and  C2_3 
ROOT
ATOM      1  C2  UNL d   1       1.049  -2.031   2.022  0.00  0.00    -0.077 A 
ATOM      2  C3  UNL d   1       1.636  -1.168   1.086  0.00  0.00     0.002 A 
ATOM      3  C4  UNL d   1       2.373  -1.681   0.018  0.00  0.00     0.002 A 
ATOM      4  C5  UNL d   1       2.527  -3.058  -0.128  0.00  0.00    -0.004 A 
ATOM      5  C6  UNL d   1       1.949  -3.925   0.799  0.00  0.00     0.002 A 
ATOM      6  C7  UNL d   1       1.213  -3.414   1.869  0.00  0.00     0.002 A 
ENDROOT
BRANCH   1   7
ATOM      7  C1  UNL d   1       0.212  -1.482   3.148  0.00  0.00     0.055 C 
ATOM      8  C   UNL d   1      -0.851  -0.523   2.631  0.00  0.00     0.019 C 
ENDBRANCH   1   7
TORSDOF 1
ENDMDL
