MODEL 1
REMARK minimizedAffinity 1.9924432
REMARK minimizedRMSD -1
REMARK  1 active torsions:
REMARK  status: ('A' for Active; 'I' for Inactive)
REMARK    1  A    between atoms: C1_2  and  C2_3 
ROOT
ATOM      1  C2  UNL d   1      -0.203   2.304  -3.674  0.00  0.00    -0.077 A 
ATOM      2  C3  UNL d   1       0.599   3.383  -3.277  0.00  0.00     0.002 A 
ATOM      3  C4  UNL d   1       1.591   3.876  -4.127  0.00  0.00     0.002 A 
ATOM      4  C5  UNL d   1       1.788   3.299  -5.379  0.00  0.00    -0.004 A 
ATOM      5  C6  UNL d   1       0.997   2.224  -5.783  0.00  0.00     0.002 A 
ATOM      6  C7  UNL d   1       0.005   1.729  -4.934  0.00  0.00     0.002 A 
ENDROOT
BRANCH   1   7
ATOM      7  C1  UNL d   1      -1.306   1.802  -2.779  0.00  0.00     0.055 C 
ATOM      8  C   UNL d   1      -2.564   2.646  -2.925  0.00  0.00     0.019 C 
ENDBRANCH   1   7
TORSDOF 1
ENDMDL
