MODEL 1
REMARK minimizedAffinity 4.2765317
REMARK minimizedRMSD -1
REMARK  0 active torsions:
REMARK  status: ('A' for Active; 'I' for Inactive)
ROOT
ATOM      1  C   UNL d   1      -4.719   5.992  -1.129  0.00  0.00    -0.002 A 
ATOM      2  C1  UNL d   1      -4.928   5.996  -2.501  0.00  0.00     0.010 A 
ATOM      3  C2  UNL d   1      -3.846   5.999  -3.384  0.00  0.00     0.041 A 
ATOM      4  C3  UNL d   1      -2.538   5.996  -2.860  0.00  0.00    -0.075 A 
ATOM      5  S   UNL d   1      -1.062   5.997  -3.749  0.00  0.00     0.015 SA
ATOM      6  C4  UNL d   1      -0.119   5.991  -2.330  0.00  0.00     0.022 A 
ATOM      7  C5  UNL d   1      -0.896   5.988  -1.195  0.00  0.00     0.026 A 
ATOM      8  C6  UNL d   1      -2.303   5.990  -1.482  0.00  0.00    -0.082 A 
ATOM      9  C7  UNL d   1      -3.420   5.988  -0.613  0.00  0.00     0.045 A 
ENDROOT
TORSDOF 0
ENDMDL
