MODEL 1
REMARK minimizedAffinity 10.1830721
REMARK minimizedRMSD -1
REMARK  0 active torsions:
REMARK  status: ('A' for Active; 'I' for Inactive)
ROOT
ATOM      1  C   UNL d   1       0.143   4.175  -5.337  0.00  0.00    -0.002 A 
ATOM      2  C1  UNL d   1       0.320   5.430  -5.903  0.00  0.00     0.010 A 
ATOM      3  C2  UNL d   1       1.593   5.995  -5.995  0.00  0.00     0.041 A 
ATOM      4  C3  UNL d   1       2.697   5.270  -5.506  0.00  0.00    -0.075 A 
ATOM      5  S   UNL d   1       4.350   5.761  -5.513  0.00  0.00     0.015 SA
ATOM      6  C4  UNL d   1       4.861   4.318  -4.766  0.00  0.00     0.022 A 
ATOM      7  C5  UNL d   1       3.809   3.470  -4.509  0.00  0.00     0.026 A 
ATOM      8  C6  UNL d   1       2.545   4.004  -4.932  0.00  0.00    -0.082 A 
ATOM      9  C7  UNL d   1       1.241   3.459  -4.852  0.00  0.00     0.045 A 
ENDROOT
TORSDOF 0
ENDMDL
