MODEL 1
REMARK minimizedAffinity 9.7114048
REMARK minimizedRMSD -1
REMARK  0 active torsions:
REMARK  status: ('A' for Active; 'I' for Inactive)
ROOT
ATOM      1  C   UNL d   1      -0.490  -1.001  -3.814  0.00  0.00    -0.002 A 
ATOM      2  C1  UNL d   1      -0.910  -1.791  -4.875  0.00  0.00     0.010 A 
ATOM      3  C2  UNL d   1      -2.141  -2.447  -4.828  0.00  0.00     0.041 A 
ATOM      4  C3  UNL d   1      -2.953  -2.292  -3.686  0.00  0.00    -0.075 A 
ATOM      5  S   UNL d   1      -4.500  -3.000  -3.408  0.00  0.00     0.015 SA
ATOM      6  C4  UNL d   1      -4.641  -2.268  -1.875  0.00  0.00     0.022 A 
ATOM      7  C5  UNL d   1      -3.543  -1.500  -1.567  0.00  0.00     0.026 A 
ATOM      8  C6  UNL d   1      -2.552  -1.501  -2.606  0.00  0.00    -0.082 A 
ATOM      9  C7  UNL d   1      -1.298  -0.850  -2.684  0.00  0.00     0.045 A 
ENDROOT
TORSDOF 0
ENDMDL
