MODEL 1
REMARK minimizedAffinity -0.606880367
REMARK minimizedRMSD -1
REMARK  0 active torsions:
REMARK  status: ('A' for Active; 'I' for Inactive)
ROOT
ATOM      1  C   UNL d   1      -3.080   5.999  -1.478  0.00  0.00    -0.002 A 
ATOM      2  C1  UNL d   1      -3.739   5.999  -2.699  0.00  0.00     0.010 A 
ATOM      3  C2  UNL d   1      -3.019   6.000  -3.895  0.00  0.00     0.041 A 
ATOM      4  C3  UNL d   1      -1.611   5.999  -3.843  0.00  0.00    -0.075 A 
ATOM      5  S   UNL d   1      -0.521   5.999  -5.179  0.00  0.00     0.015 SA
ATOM      6  C4  UNL d   1       0.845   5.999  -4.160  0.00  0.00     0.022 A 
ATOM      7  C5  UNL d   1       0.497   5.999  -2.830  0.00  0.00     0.026 A 
ATOM      8  C6  UNL d   1      -0.924   5.999  -2.625  0.00  0.00    -0.082 A 
ATOM      9  C7  UNL d   1      -1.683   5.999  -1.430  0.00  0.00     0.045 A 
ENDROOT
TORSDOF 0
ENDMDL
