MODEL 1
REMARK minimizedAffinity 3.57145333
REMARK minimizedRMSD -1
REMARK  0 active torsions:
REMARK  status: ('A' for Active; 'I' for Inactive)
ROOT
ATOM      1  C   UNL d   1      -1.237   5.596  -1.525  0.00  0.00    -0.002 A 
ATOM      2  C1  UNL d   1      -2.425   5.847  -2.197  0.00  0.00     0.010 A 
ATOM      3  C2  UNL d   1      -2.438   5.986  -3.586  0.00  0.00     0.041 A 
ATOM      4  C3  UNL d   1      -1.227   5.867  -4.295  0.00  0.00    -0.075 A 
ATOM      5  S   UNL d   1      -1.003   5.999  -6.000  0.00  0.00     0.015 SA
ATOM      6  C4  UNL d   1       0.675   5.726  -5.875  0.00  0.00     0.022 A 
ATOM      7  C5  UNL d   1       1.071   5.536  -4.572  0.00  0.00     0.026 A 
ATOM      8  C6  UNL d   1      -0.018   5.614  -3.640  0.00  0.00    -0.082 A 
ATOM      9  C7  UNL d   1      -0.037   5.478  -2.231  0.00  0.00     0.045 A 
ENDROOT
TORSDOF 0
ENDMDL
