MODEL 1
REMARK minimizedAffinity 7.99895573
REMARK minimizedRMSD -1
REMARK  0 active torsions:
REMARK  status: ('A' for Active; 'I' for Inactive)
ROOT
ATOM      1  C   UNL d   1      -0.414   0.130   0.605  0.00  0.00    -0.002 A 
ATOM      2  C1  UNL d   1      -1.542   0.316   1.390  0.00  0.00     0.010 A 
ATOM      3  C2  UNL d   1      -1.424   0.529   2.765  0.00  0.00     0.041 A 
ATOM      4  C3  UNL d   1      -0.139   0.554   3.342  0.00  0.00    -0.075 A 
ATOM      5  S   UNL d   1       0.249   0.800   5.004  0.00  0.00     0.015 SA
ATOM      6  C4  UNL d   1       1.923   0.666   4.710  0.00  0.00     0.022 A 
ATOM      7  C5  UNL d   1       2.196   0.439   3.382  0.00  0.00     0.026 A 
ATOM      8  C6  UNL d   1       1.013   0.371   2.572  0.00  0.00    -0.082 A 
ATOM      9  C7  UNL d   1       0.859   0.157   1.181  0.00  0.00     0.045 A 
ENDROOT
TORSDOF 0
ENDMDL
