MODEL 1
REMARK minimizedAffinity 9.27421665
REMARK minimizedRMSD -1
REMARK  0 active torsions:
REMARK  status: ('A' for Active; 'I' for Inactive)
ROOT
ATOM      1  C   UNL d   1       0.435   5.316  -5.657  0.00  0.00    -0.002 A 
ATOM      2  C1  UNL d   1       0.497   4.134  -4.933  0.00  0.00     0.010 A 
ATOM      3  C2  UNL d   1       1.729   3.608  -4.537  0.00  0.00     0.041 A 
ATOM      4  C3  UNL d   1       2.907   4.297  -4.885  0.00  0.00    -0.075 A 
ATOM      5  S   UNL d   1       4.527   3.841  -4.508  0.00  0.00     0.015 SA
ATOM      6  C4  UNL d   1       5.174   5.205  -5.299  0.00  0.00     0.022 A 
ATOM      7  C5  UNL d   1       4.192   5.999  -5.844  0.00  0.00     0.026 A 
ATOM      8  C6  UNL d   1       2.870   5.489  -5.613  0.00  0.00    -0.082 A 
ATOM      9  C7  UNL d   1       1.606   5.996  -6.000  0.00  0.00     0.045 A 
ENDROOT
TORSDOF 0
ENDMDL
