MODEL 1
REMARK minimizedAffinity -1.79973114
REMARK minimizedRMSD -1
REMARK  0 active torsions:
REMARK  status: ('A' for Active; 'I' for Inactive)
ROOT
ATOM      1  C   UNL d   1      -1.181  -2.022   1.456  0.00  0.00    -0.002 A 
ATOM      2  C1  UNL d   1      -0.591  -2.547   0.315  0.00  0.00     0.010 A 
ATOM      3  C2  UNL d   1       0.087  -1.718  -0.580  0.00  0.00     0.041 A 
ATOM      4  C3  UNL d   1       0.164  -0.338  -0.307  0.00  0.00    -0.075 A 
ATOM      5  S   UNL d   1       0.944   0.868  -1.261  0.00  0.00     0.015 SA
ATOM      6  C4  UNL d   1       0.512   2.110  -0.176  0.00  0.00     0.022 A 
ATOM      7  C5  UNL d   1      -0.209   1.634   0.893  0.00  0.00     0.026 A 
ATOM      8  C6  UNL d   1      -0.421   0.215   0.836  0.00  0.00    -0.082 A 
ATOM      9  C7  UNL d   1      -1.102  -0.652   1.724  0.00  0.00     0.045 A 
ENDROOT
TORSDOF 0
ENDMDL
