MODEL 1
REMARK minimizedAffinity -2.60954285
REMARK minimizedRMSD -1
REMARK  0 active torsions:
REMARK  status: ('A' for Active; 'I' for Inactive)
ROOT
ATOM      1  C   UNL d   1      -0.364  -2.893   0.703  0.00  0.00    -0.002 A 
ATOM      2  C1  UNL d   1       0.438  -2.957  -0.427  0.00  0.00     0.010 A 
ATOM      3  C2  UNL d   1       0.845  -1.790  -1.076  0.00  0.00     0.041 A 
ATOM      4  C3  UNL d   1       0.431  -0.545  -0.564  0.00  0.00    -0.075 A 
ATOM      5  S   UNL d   1       0.808   1.016  -1.192  0.00  0.00     0.015 SA
ATOM      6  C4  UNL d   1      -0.086   1.805   0.026  0.00  0.00     0.022 A 
ATOM      7  C5  UNL d   1      -0.665   0.914   0.899  0.00  0.00     0.026 A 
ATOM      8  C6  UNL d   1      -0.376  -0.454   0.574  0.00  0.00    -0.082 A 
ATOM      9  C7  UNL d   1      -0.773  -1.656   1.209  0.00  0.00     0.045 A 
ENDROOT
TORSDOF 0
ENDMDL
