MODEL 1
REMARK minimizedAffinity -2.5525732
REMARK minimizedRMSD -1
REMARK  0 active torsions:
REMARK  status: ('A' for Active; 'I' for Inactive)
ROOT
ATOM      1  C   UNL d   1      -0.760  -1.698   0.837  0.00  0.00    -0.002 A 
ATOM      2  C1  UNL d   1       0.024  -2.001  -0.267  0.00  0.00     0.010 A 
ATOM      3  C2  UNL d   1       0.618  -0.984  -1.017  0.00  0.00     0.041 A 
ATOM      4  C3  UNL d   1       0.410   0.355  -0.634  0.00  0.00    -0.075 A 
ATOM      5  S   UNL d   1       1.038   1.765  -1.402  0.00  0.00     0.015 SA
ATOM      6  C4  UNL d   1       0.281   2.803  -0.282  0.00  0.00     0.022 A 
ATOM      7  C5  UNL d   1      -0.437   2.108   0.661  0.00  0.00     0.026 A 
ATOM      8  C6  UNL d   1      -0.374   0.686   0.474  0.00  0.00    -0.082 A 
ATOM      9  C7  UNL d   1      -0.964  -0.368   1.214  0.00  0.00     0.045 A 
ENDROOT
TORSDOF 0
ENDMDL
