MODEL 1
REMARK minimizedAffinity -3.94188166
REMARK minimizedRMSD -1
REMARK  0 active torsions:
REMARK  status: ('A' for Active; 'I' for Inactive)
ROOT
ATOM      1  C   UNL d   1      -0.058  -2.653   1.444  0.00  0.00    -0.002 A 
ATOM      2  C1  UNL d   1       0.005  -2.935   0.087  0.00  0.00     0.010 A 
ATOM      3  C2  UNL d   1       0.146  -1.907  -0.847  0.00  0.00     0.041 A 
ATOM      4  C3  UNL d   1       0.225  -0.577  -0.389  0.00  0.00    -0.075 A 
ATOM      5  S   UNL d   1       0.400   0.844  -1.350  0.00  0.00     0.015 SA
ATOM      6  C4  UNL d   1       0.396   1.860   0.019  0.00  0.00     0.022 A 
ATOM      7  C5  UNL d   1       0.265   1.149   1.188  0.00  0.00     0.026 A 
ATOM      8  C6  UNL d   1       0.165  -0.267   0.972  0.00  0.00    -0.082 A 
ATOM      9  C7  UNL d   1       0.020  -1.332   1.894  0.00  0.00     0.045 A 
ENDROOT
TORSDOF 0
ENDMDL
