MODEL 1
REMARK minimizedAffinity -0.306200922
REMARK minimizedRMSD -1
REMARK  0 active torsions:
REMARK  status: ('A' for Active; 'I' for Inactive)
ROOT
ATOM      1  C   UNL d   1      -1.365  -2.140   1.467  0.00  0.00    -0.002 A 
ATOM      2  C1  UNL d   1      -0.778  -2.772   0.380  0.00  0.00     0.010 A 
ATOM      3  C2  UNL d   1      -0.143  -2.028  -0.616  0.00  0.00     0.041 A 
ATOM      4  C3  UNL d   1      -0.106  -0.624  -0.500  0.00  0.00    -0.075 A 
ATOM      5  S   UNL d   1       0.617   0.491  -1.598  0.00  0.00     0.015 SA
ATOM      6  C4  UNL d   1       0.164   1.833  -0.650  0.00  0.00     0.022 A 
ATOM      7  C5  UNL d   1      -0.523   1.458   0.481  0.00  0.00     0.026 A 
ATOM      8  C6  UNL d   1      -0.690   0.035   0.586  0.00  0.00    -0.082 A 
ATOM      9  C7  UNL d   1      -1.327  -0.747   1.579  0.00  0.00     0.045 A 
ENDROOT
TORSDOF 0
ENDMDL
