MODEL 1
REMARK minimizedAffinity -4.21106529
REMARK minimizedRMSD -1
REMARK  0 active torsions:
REMARK  status: ('A' for Active; 'I' for Inactive)
ROOT
ATOM      1  C   UNL d   1      -0.177  -3.588  -1.504  0.00  0.00    -0.002 A 
ATOM      2  C1  UNL d   1       0.304  -2.660  -2.416  0.00  0.00     0.010 A 
ATOM      3  C2  UNL d   1       0.406  -1.311  -2.071  0.00  0.00     0.041 A 
ATOM      4  C3  UNL d   1       0.015  -0.907  -0.779  0.00  0.00    -0.075 A 
ATOM      5  S   UNL d   1       0.053   0.691  -0.134  0.00  0.00     0.015 SA
ATOM      6  C4  UNL d   1      -0.567   0.180   1.369  0.00  0.00     0.022 A 
ATOM      7  C5  UNL d   1      -0.803  -1.174   1.395  0.00  0.00     0.026 A 
ATOM      8  C6  UNL d   1      -0.471  -1.823   0.158  0.00  0.00    -0.082 A 
ATOM      9  C7  UNL d   1      -0.564  -3.183  -0.223  0.00  0.00     0.045 A 
ENDROOT
TORSDOF 0
ENDMDL
