MODEL 1
REMARK minimizedAffinity -3.95219684
REMARK minimizedRMSD -1
REMARK  0 active torsions:
REMARK  status: ('A' for Active; 'I' for Inactive)
ROOT
ATOM      1  C   UNL d   1       0.381  -3.301  -1.493  0.00  0.00    -0.002 A 
ATOM      2  C1  UNL d   1      -0.259  -3.657  -0.315  0.00  0.00     0.010 A 
ATOM      3  C2  UNL d   1      -0.676  -2.680   0.590  0.00  0.00     0.041 A 
ATOM      4  C3  UNL d   1      -0.440  -1.325   0.287  0.00  0.00    -0.075 A 
ATOM      5  S   UNL d   1      -0.864   0.045   1.245  0.00  0.00     0.015 SA
ATOM      6  C4  UNL d   1      -0.207   1.135   0.112  0.00  0.00     0.022 A 
ATOM      7  C5  UNL d   1       0.327   0.487  -0.977  0.00  0.00     0.026 A 
ATOM      8  C6  UNL d   1       0.202  -0.941  -0.894  0.00  0.00    -0.082 A 
ATOM      9  C7  UNL d   1       0.614  -1.956  -1.791  0.00  0.00     0.045 A 
ENDROOT
TORSDOF 0
ENDMDL
