MODEL 1
REMARK minimizedAffinity -1.96420217
REMARK minimizedRMSD -1
REMARK  0 active torsions:
REMARK  status: ('A' for Active; 'I' for Inactive)
ROOT
ATOM      1  C   UNL d   1      -0.561  -1.700   1.001  0.00  0.00    -0.002 A 
ATOM      2  C1  UNL d   1      -0.092  -1.050   2.134  0.00  0.00     0.010 A 
ATOM      3  C2  UNL d   1       0.523   0.199   2.033  0.00  0.00     0.041 A 
ATOM      4  C3  UNL d   1       0.658   0.791   0.762  0.00  0.00    -0.075 A 
ATOM      5  S   UNL d   1       1.376   2.315   0.396  0.00  0.00     0.015 SA
ATOM      6  C4  UNL d   1       1.077   2.140  -1.273  0.00  0.00     0.022 A 
ATOM      7  C5  UNL d   1       0.445   0.954  -1.562  0.00  0.00     0.026 A 
ATOM      8  C6  UNL d   1       0.193   0.157  -0.394  0.00  0.00    -0.082 A 
ATOM      9  C7  UNL d   1      -0.425  -1.110  -0.258  0.00  0.00     0.045 A 
ENDROOT
TORSDOF 0
ENDMDL
