MODEL 1
REMARK minimizedAffinity -4.33423424
REMARK minimizedRMSD -1
REMARK  0 active torsions:
REMARK  status: ('A' for Active; 'I' for Inactive)
ROOT
ATOM      1  C   UNL d   1       0.195  -3.883  -0.265  0.00  0.00    -0.002 A 
ATOM      2  C1  UNL d   1       0.644  -3.724  -1.568  0.00  0.00     0.010 A 
ATOM      3  C2  UNL d   1       0.723  -2.454  -2.142  0.00  0.00     0.041 A 
ATOM      4  C3  UNL d   1       0.340  -1.335  -1.376  0.00  0.00    -0.075 A 
ATOM      5  S   UNL d   1       0.353   0.317  -1.870  0.00  0.00     0.015 SA
ATOM      6  C4  UNL d   1      -0.236   0.850  -0.363  0.00  0.00     0.022 A 
ATOM      7  C5  UNL d   1      -0.444  -0.193   0.508  0.00  0.00     0.026 A 
ATOM      8  C6  UNL d   1      -0.115  -1.470  -0.061  0.00  0.00    -0.082 A 
ATOM      9  C7  UNL d   1      -0.184  -2.771   0.492  0.00  0.00     0.045 A 
ENDROOT
TORSDOF 0
ENDMDL
