MODEL 1
REMARK minimizedAffinity -0.966243267
REMARK minimizedRMSD -1
REMARK  0 active torsions:
REMARK  status: ('A' for Active; 'I' for Inactive)
ROOT
ATOM      1  C   UNL d   1      -0.974  -2.791   0.924  0.00  0.00    -0.002 A 
ATOM      2  C1  UNL d   1       0.377  -3.062   0.767  0.00  0.00     0.010 A 
ATOM      3  C2  UNL d   1       1.274  -2.042   0.446  0.00  0.00     0.041 A 
ATOM      4  C3  UNL d   1       0.785  -0.730   0.285  0.00  0.00    -0.075 A 
ATOM      5  S   UNL d   1       1.697   0.679  -0.107  0.00  0.00     0.015 SA
ATOM      6  C4  UNL d   1       0.315   1.674  -0.075  0.00  0.00     0.022 A 
ATOM      7  C5  UNL d   1      -0.824   0.966   0.226  0.00  0.00     0.026 A 
ATOM      8  C6  UNL d   1      -0.572  -0.432   0.439  0.00  0.00    -0.082 A 
ATOM      9  C7  UNL d   1      -1.456  -1.489   0.764  0.00  0.00     0.045 A 
ENDROOT
TORSDOF 0
ENDMDL
