MODEL 1
REMARK minimizedAffinity -4.09775829
REMARK minimizedRMSD -1
REMARK  0 active torsions:
REMARK  status: ('A' for Active; 'I' for Inactive)
ROOT
ATOM      1  C   UNL d   1      -0.601  -3.166   0.497  0.00  0.00    -0.002 A 
ATOM      2  C1  UNL d   1      -1.666  -2.507   1.094  0.00  0.00     0.010 A 
ATOM      3  C2  UNL d   1      -1.689  -1.113   1.166  0.00  0.00     0.041 A 
ATOM      4  C3  UNL d   1      -0.613  -0.385   0.620  0.00  0.00    -0.075 A 
ATOM      5  S   UNL d   1      -0.426   1.329   0.592  0.00  0.00     0.015 SA
ATOM      6  C4  UNL d   1       1.072   1.226  -0.215  0.00  0.00     0.022 A 
ATOM      7  C5  UNL d   1       1.436  -0.076  -0.464  0.00  0.00     0.026 A 
ATOM      8  C6  UNL d   1       0.470  -1.026   0.013  0.00  0.00    -0.082 A 
ATOM      9  C7  UNL d   1       0.464  -2.441  -0.044  0.00  0.00     0.045 A 
ENDROOT
TORSDOF 0
ENDMDL
