MODEL 1
REMARK minimizedAffinity 16.5418396
REMARK minimizedRMSD -1
REMARK  0 active torsions:
REMARK  status: ('A' for Active; 'I' for Inactive)
ROOT
ATOM      1  C   UNL d   1       0.930   6.000  -5.982  0.00  0.00    -0.002 A 
ATOM      2  C1  UNL d   1       2.077   5.999  -5.201  0.00  0.00     0.010 A 
ATOM      3  C2  UNL d   1       2.120   5.283  -4.003  0.00  0.00     0.041 A 
ATOM      4  C3  UNL d   1       0.980   4.559  -3.601  0.00  0.00    -0.075 A 
ATOM      5  S   UNL d   1       0.803   3.608  -2.173  0.00  0.00     0.015 SA
ATOM      6  C4  UNL d   1      -0.799   3.180  -2.568  0.00  0.00     0.022 A 
ATOM      7  C5  UNL d   1      -1.205   3.740  -3.756  0.00  0.00     0.026 A 
ATOM      8  C6  UNL d   1      -0.186   4.543  -4.371  0.00  0.00    -0.082 A 
ATOM      9  C7  UNL d   1      -0.198   5.280  -5.580  0.00  0.00     0.045 A 
ENDROOT
TORSDOF 0
ENDMDL
