MODEL 1
REMARK minimizedAffinity 21.5615635
REMARK minimizedRMSD -1
REMARK  0 active torsions:
REMARK  status: ('A' for Active; 'I' for Inactive)
ROOT
ATOM      1  C   UNL d   1      -1.024   2.938  -1.793  0.00  0.00    -0.002 A 
ATOM      2  C1  UNL d   1       0.168   3.236  -1.148  0.00  0.00     0.010 A 
ATOM      3  C2  UNL d   1       1.077   4.133  -1.714  0.00  0.00     0.041 A 
ATOM      4  C3  UNL d   1       0.763   4.732  -2.950  0.00  0.00    -0.075 A 
ATOM      5  S   UNL d   1       1.723   5.861  -3.831  0.00  0.00     0.015 SA
ATOM      6  C4  UNL d   1       0.573   5.974  -5.084  0.00  0.00     0.022 A 
ATOM      7  C5  UNL d   1      -0.523   5.177  -4.852  0.00  0.00     0.026 A 
ATOM      8  C6  UNL d   1      -0.432   4.449  -3.618  0.00  0.00    -0.082 A 
ATOM      9  C7  UNL d   1      -1.332   3.535  -3.019  0.00  0.00     0.045 A 
ENDROOT
TORSDOF 0
ENDMDL
