MODEL 1
REMARK minimizedAffinity 26.264183
REMARK minimizedRMSD -1
REMARK  0 active torsions:
REMARK  status: ('A' for Active; 'I' for Inactive)
ROOT
ATOM      1  C   UNL d   1      -5.251   6.000   2.249  0.00  0.00    -0.002 A 
ATOM      2  C1  UNL d   1      -3.873   5.843   2.205  0.00  0.00     0.010 A 
ATOM      3  C2  UNL d   1      -3.215   5.681   0.985  0.00  0.00     0.041 A 
ATOM      4  C3  UNL d   1      -3.973   5.681  -0.203  0.00  0.00    -0.075 A 
ATOM      5  S   UNL d   1      -3.382   5.500  -1.813  0.00  0.00     0.015 SA
ATOM      6  C4  UNL d   1      -4.945   5.627  -2.480  0.00  0.00     0.022 A 
ATOM      7  C5  UNL d   1      -5.906   5.804  -1.513  0.00  0.00     0.026 A 
ATOM      8  C6  UNL d   1      -5.361   5.838  -0.185  0.00  0.00    -0.082 A 
ATOM      9  C7  UNL d   1      -5.999   5.999   1.068  0.00  0.00     0.045 A 
ENDROOT
TORSDOF 0
ENDMDL
