MODEL 1
REMARK minimizedAffinity 17.0072708
REMARK minimizedRMSD -1
REMARK  0 active torsions:
REMARK  status: ('A' for Active; 'I' for Inactive)
ROOT
ATOM      1  C   UNL d   1       1.193  -2.710  -5.997  0.00  0.00    -0.002 A 
ATOM      2  C1  UNL d   1       1.790  -1.483  -5.745  0.00  0.00     0.010 A 
ATOM      3  C2  UNL d   1       2.076  -1.088  -4.436  0.00  0.00     0.041 A 
ATOM      4  C3  UNL d   1       1.750  -1.956  -3.376  0.00  0.00    -0.075 A 
ATOM      5  S   UNL d   1       2.008  -1.684  -1.693  0.00  0.00     0.015 SA
ATOM      6  C4  UNL d   1       1.332  -3.190  -1.269  0.00  0.00     0.022 A 
ATOM      7  C5  UNL d   1       0.915  -3.896  -2.373  0.00  0.00     0.026 A 
ATOM      8  C6  UNL d   1       1.149  -3.197  -3.605  0.00  0.00    -0.082 A 
ATOM      9  C7  UNL d   1       0.871  -3.568  -4.942  0.00  0.00     0.045 A 
ENDROOT
TORSDOF 0
ENDMDL
