MODEL 1
REMARK minimizedAffinity 28.2544746
REMARK minimizedRMSD -1
REMARK  0 active torsions:
REMARK  status: ('A' for Active; 'I' for Inactive)
ROOT
ATOM      1  C   UNL d   1      -5.205   5.910   3.615  0.00  0.00    -0.002 A 
ATOM      2  C1  UNL d   1      -3.820   5.921   3.520  0.00  0.00     0.010 A 
ATOM      3  C2  UNL d   1      -3.194   5.947   2.272  0.00  0.00     0.041 A 
ATOM      4  C3  UNL d   1      -3.991   5.964   1.110  0.00  0.00    -0.075 A 
ATOM      5  S   UNL d   1      -3.444   5.997  -0.524  0.00  0.00     0.015 SA
ATOM      6  C4  UNL d   1      -5.035   5.999  -1.135  0.00  0.00     0.022 A 
ATOM      7  C5  UNL d   1      -5.973   5.974  -0.130  0.00  0.00     0.026 A 
ATOM      8  C6  UNL d   1      -5.387   5.954   1.180  0.00  0.00    -0.082 A 
ATOM      9  C7  UNL d   1      -5.991   5.927   2.460  0.00  0.00     0.045 A 
ENDROOT
TORSDOF 0
ENDMDL
