MODEL 1
REMARK minimizedAffinity 16.0368233
REMARK minimizedRMSD -1
REMARK  0 active torsions:
REMARK  status: ('A' for Active; 'I' for Inactive)
ROOT
ATOM      1  C   UNL d   1      -4.002   5.992   5.217  0.00  0.00    -0.002 A 
ATOM      2  C1  UNL d   1      -5.383   5.996   5.084  0.00  0.00     0.010 A 
ATOM      3  C2  UNL d   1      -5.975   5.998   3.820  0.00  0.00     0.041 A 
ATOM      4  C3  UNL d   1      -5.147   5.994   2.680  0.00  0.00    -0.075 A 
ATOM      5  S   UNL d   1      -5.649   5.995   1.031  0.00  0.00     0.015 SA
ATOM      6  C4  UNL d   1      -4.042   5.990   0.464  0.00  0.00     0.022 A 
ATOM      7  C5  UNL d   1      -3.132   5.988   1.494  0.00  0.00     0.026 A 
ATOM      8  C6  UNL d   1      -3.753   5.990   2.788  0.00  0.00    -0.082 A 
ATOM      9  C7  UNL d   1      -3.184   5.988   4.084  0.00  0.00     0.045 A 
ENDROOT
TORSDOF 0
ENDMDL
