MODEL 1
REMARK minimizedAffinity 17.39291
REMARK minimizedRMSD -1
REMARK  0 active torsions:
REMARK  status: ('A' for Active; 'I' for Inactive)
ROOT
ATOM      1  C   UNL d   1       1.755  -1.221   1.079  0.00  0.00    -0.002 A 
ATOM      2  C1  UNL d   1       2.097  -2.420   1.687  0.00  0.00     0.010 A 
ATOM      3  C2  UNL d   1       2.255  -3.582   0.929  0.00  0.00     0.041 A 
ATOM      4  C3  UNL d   1       2.064  -3.517  -0.465  0.00  0.00    -0.075 A 
ATOM      5  S   UNL d   1       2.206  -4.811  -1.595  0.00  0.00     0.015 SA
ATOM      6  C4  UNL d   1       1.817  -3.802  -2.913  0.00  0.00     0.022 A 
ATOM      7  C5  UNL d   1       1.581  -2.506  -2.518  0.00  0.00     0.026 A 
ATOM      8  C6  UNL d   1       1.721  -2.320  -1.101  0.00  0.00    -0.082 A 
ATOM      9  C7  UNL d   1       1.566  -1.160  -0.305  0.00  0.00     0.045 A 
ENDROOT
TORSDOF 0
ENDMDL
