MODEL 1
REMARK minimizedAffinity 17.5004292
REMARK minimizedRMSD -1
REMARK  0 active torsions:
REMARK  status: ('A' for Active; 'I' for Inactive)
ROOT
ATOM      1  C   UNL d   1       0.268   5.833  -1.248  0.00  0.00    -0.002 A 
ATOM      2  C1  UNL d   1       0.854   4.984  -2.176  0.00  0.00     0.010 A 
ATOM      3  C2  UNL d   1       0.857   3.603  -1.974  0.00  0.00     0.041 A 
ATOM      4  C3  UNL d   1       0.252   3.083  -0.812  0.00  0.00    -0.075 A 
ATOM      5  S   UNL d   1       0.135   1.425  -0.354  0.00  0.00     0.015 SA
ATOM      6  C4  UNL d   1      -0.698   1.804   1.084  0.00  0.00     0.022 A 
ATOM      7  C5  UNL d   1      -0.890   3.158   1.228  0.00  0.00     0.026 A 
ATOM      8  C6  UNL d   1      -0.346   3.917   0.137  0.00  0.00    -0.082 A 
ATOM      9  C7  UNL d   1      -0.331   5.314  -0.097  0.00  0.00     0.045 A 
ENDROOT
TORSDOF 0
ENDMDL
