MODEL 1
REMARK minimizedAffinity 19.8626938
REMARK minimizedRMSD -1
REMARK  0 active torsions:
REMARK  status: ('A' for Active; 'I' for Inactive)
ROOT
ATOM      1  C   UNL d   1       1.541  -3.062  -1.534  0.00  0.00    -0.002 A 
ATOM      2  C1  UNL d   1       0.599  -3.899  -2.115  0.00  0.00     0.010 A 
ATOM      3  C2  UNL d   1       0.387  -3.880  -3.495  0.00  0.00     0.041 A 
ATOM      4  C3  UNL d   1       1.146  -2.998  -4.289  0.00  0.00    -0.075 A 
ATOM      5  S   UNL d   1       1.057  -2.802  -6.000  0.00  0.00     0.015 SA
ATOM      6  C4  UNL d   1       2.268  -1.603  -6.000  0.00  0.00     0.022 A 
ATOM      7  C5  UNL d   1       2.740  -1.346  -4.734  0.00  0.00     0.026 A 
ATOM      8  C6  UNL d   1       2.101  -2.146  -3.727  0.00  0.00    -0.082 A 
ATOM      9  C7  UNL d   1       2.292  -2.188  -2.325  0.00  0.00     0.045 A 
ENDROOT
TORSDOF 0
ENDMDL
