MODEL 1
REMARK minimizedAffinity 4.00229168
REMARK minimizedRMSD -1
REMARK  0 active torsions:
REMARK  status: ('A' for Active; 'I' for Inactive)
ROOT
ATOM      1  C   UNL d   1      -5.951  -4.770   5.169  0.00  0.00    -0.002 A 
ATOM      2  C1  UNL d   1      -5.979  -5.976   4.484  0.00  0.00     0.010 A 
ATOM      3  C2  UNL d   1      -5.997  -6.000   3.088  0.00  0.00     0.041 A 
ATOM      4  C3  UNL d   1      -5.983  -4.779   2.385  0.00  0.00    -0.075 A 
ATOM      5  S   UNL d   1      -5.999  -4.564   0.675  0.00  0.00     0.015 SA
ATOM      6  C4  UNL d   1      -5.968  -2.865   0.813  0.00  0.00     0.022 A 
ATOM      7  C5  UNL d   1      -5.946  -2.455   2.125  0.00  0.00     0.026 A 
ATOM      8  C6  UNL d   1      -5.954  -3.551   3.053  0.00  0.00    -0.082 A 
ATOM      9  C7  UNL d   1      -5.938  -3.561   4.468  0.00  0.00     0.045 A 
ENDROOT
TORSDOF 0
ENDMDL
