MODEL 1
REMARK minimizedAffinity 21.7599144
REMARK minimizedRMSD -1
REMARK  0 active torsions:
REMARK  status: ('A' for Active; 'I' for Inactive)
ROOT
ATOM      1  C   UNL d   1       0.883   4.430   0.019  0.00  0.00    -0.002 A 
ATOM      2  C1  UNL d   1       0.154   3.293   0.336  0.00  0.00     0.010 A 
ATOM      3  C2  UNL d   1      -0.708   2.717  -0.600  0.00  0.00     0.041 A 
ATOM      4  C3  UNL d   1      -0.823   3.309  -1.874  0.00  0.00    -0.075 A 
ATOM      5  S   UNL d   1      -1.815   2.778  -3.180  0.00  0.00     0.015 SA
ATOM      6  C4  UNL d   1      -1.293   4.047  -4.191  0.00  0.00     0.022 A 
ATOM      7  C5  UNL d   1      -0.384   4.866  -3.562  0.00  0.00     0.026 A 
ATOM      8  C6  UNL d   1      -0.098   4.453  -2.217  0.00  0.00    -0.082 A 
ATOM      9  C7  UNL d   1       0.766   5.013  -1.245  0.00  0.00     0.045 A 
ENDROOT
TORSDOF 0
ENDMDL
