MODEL 1
REMARK minimizedAffinity 12.9084358
REMARK minimizedRMSD -1
REMARK  0 active torsions:
REMARK  status: ('A' for Active; 'I' for Inactive)
ROOT
ATOM      1  C   UNL d   1       0.520   4.355  -2.146  0.00  0.00    -0.002 A 
ATOM      2  C1  UNL d   1      -0.809   4.130  -2.478  0.00  0.00     0.010 A 
ATOM      3  C2  UNL d   1      -1.593   3.259  -1.718  0.00  0.00     0.041 A 
ATOM      4  C3  UNL d   1      -1.014   2.613  -0.608  0.00  0.00    -0.075 A 
ATOM      5  S   UNL d   1      -1.782   1.506   0.467  0.00  0.00     0.015 SA
ATOM      6  C4  UNL d   1      -0.365   1.306   1.393  0.00  0.00     0.022 A 
ATOM      7  C5  UNL d   1       0.679   2.058   0.907  0.00  0.00     0.026 A 
ATOM      8  C6  UNL d   1       0.322   2.824  -0.254  0.00  0.00    -0.082 A 
ATOM      9  C7  UNL d   1       1.091   3.712  -1.044  0.00  0.00     0.045 A 
ENDROOT
TORSDOF 0
ENDMDL
