MODEL 1
REMARK minimizedAffinity -5.34765148
REMARK minimizedRMSD -1
REMARK  0 active torsions:
REMARK  status: ('A' for Active; 'I' for Inactive)
ROOT
ATOM      1  O1  BZF d   1       0.332   1.460  -1.440  0.00  0.00    -0.204 OA
ATOM      2  C2  BZF d   1       0.709   0.142  -1.271  0.00  0.00     0.174 A 
ATOM      3  C3  BZF d   1       0.503  -0.254   0.002  0.00  0.00    -0.012 A 
ATOM      4  C3A BZF d   1      -0.123   0.859   0.647  0.00  0.00    -0.107 A 
ATOM      5  C4  BZF d   1      -0.585   1.072   1.914  0.00  0.00     0.055 A 
ATOM      6  C5  BZF d   1      -1.075   2.297   2.241  0.00  0.00    -0.016 A 
ATOM      7  C6  BZF d   1      -1.113   3.331   1.329  0.00  0.00     0.022 A 
ATOM      8  C7  BZF d   1      -0.671   3.166   0.059  0.00  0.00     0.029 A 
ATOM      9  C7A BZF d   1      -0.205   1.920  -0.284  0.00  0.00     0.058 A 
ENDROOT
TORSDOF 0
ENDMDL
