MODEL 1
REMARK minimizedAffinity -2.57351375
REMARK minimizedRMSD -1
REMARK  0 active torsions:
REMARK  status: ('A' for Active; 'I' for Inactive)
ROOT
ATOM      1  O1  BZF d   1      -1.306   2.333  -1.586  0.00  0.00    -0.204 OA
ATOM      2  C2  BZF d   1      -1.979   2.550  -0.399  0.00  0.00     0.174 A 
ATOM      3  C3  BZF d   1      -1.808   1.511   0.444  0.00  0.00    -0.012 A 
ATOM      4  C3A BZF d   1      -0.902   0.628  -0.225  0.00  0.00    -0.107 A 
ATOM      5  C4  BZF d   1      -0.338  -0.569   0.111  0.00  0.00     0.055 A 
ATOM      6  C5  BZF d   1       0.447  -1.207  -0.797  0.00  0.00    -0.016 A 
ATOM      7  C6  BZF d   1       0.684  -0.680  -2.049  0.00  0.00     0.022 A 
ATOM      8  C7  BZF d   1       0.150   0.507  -2.426  0.00  0.00     0.029 A 
ATOM      9  C7A BZF d   1      -0.617   1.170  -1.500  0.00  0.00     0.058 A 
ENDROOT
TORSDOF 0
ENDMDL
