MODEL 1
REMARK minimizedAffinity 1.09257817
REMARK minimizedRMSD -1
REMARK  0 active torsions:
REMARK  status: ('A' for Active; 'I' for Inactive)
ROOT
ATOM      1  O1  BZF d   1       1.194  -0.194  -0.127  0.00  0.00    -0.204 OA
ATOM      2  C2  BZF d   1       0.212  -0.671  -0.973  0.00  0.00     0.174 A 
ATOM      3  C3  BZF d   1      -0.985  -0.131  -0.668  0.00  0.00    -0.012 A 
ATOM      4  C3A BZF d   1      -0.720   0.808   0.378  0.00  0.00    -0.107 A 
ATOM      5  C4  BZF d   1      -1.506   1.668   1.090  0.00  0.00     0.055 A 
ATOM      6  C5  BZF d   1      -0.949   2.395   2.094  0.00  0.00    -0.016 A 
ATOM      7  C6  BZF d   1       0.387   2.282   2.417  0.00  0.00     0.022 A 
ATOM      8  C7  BZF d   1       1.208   1.446   1.737  0.00  0.00     0.029 A 
ATOM      9  C7A BZF d   1       0.655   0.734   0.700  0.00  0.00     0.058 A 
ENDROOT
TORSDOF 0
ENDMDL
