MODEL 1
REMARK minimizedAffinity -1.41251111
REMARK minimizedRMSD -1
REMARK  0 active torsions:
REMARK  status: ('A' for Active; 'I' for Inactive)
ROOT
ATOM      1  O1  BZF d   1      -0.174  -0.765  -2.210  0.00  0.00    -0.204 OA
ATOM      2  C2  BZF d   1       0.821  -0.015  -1.613  0.00  0.00     0.174 A 
ATOM      3  C3  BZF d   1       1.437  -0.721  -0.644  0.00  0.00    -0.012 A 
ATOM      4  C3A BZF d   1       0.848  -2.024  -0.696  0.00  0.00    -0.107 A 
ATOM      5  C4  BZF d   1       1.052  -3.176   0.009  0.00  0.00     0.055 A 
ATOM      6  C5  BZF d   1       0.260  -4.252  -0.240  0.00  0.00    -0.016 A 
ATOM      7  C6  BZF d   1      -0.748  -4.209  -1.181  0.00  0.00     0.022 A 
ATOM      8  C7  BZF d   1      -0.986  -3.091  -1.908  0.00  0.00     0.029 A 
ATOM      9  C7A BZF d   1      -0.165  -2.012  -1.683  0.00  0.00     0.058 A 
ENDROOT
TORSDOF 0
ENDMDL
