MODEL 1
REMARK minimizedAffinity -1.35572624
REMARK minimizedRMSD -1
REMARK  0 active torsions:
REMARK  status: ('A' for Active; 'I' for Inactive)
ROOT
ATOM      1  O1  BZF d   1       0.025   2.770   1.137  0.00  0.00    -0.204 OA
ATOM      2  C2  BZF d   1       0.289   2.019   2.266  0.00  0.00     0.174 A 
ATOM      3  C3  BZF d   1       0.493   0.725   1.944  0.00  0.00    -0.012 A 
ATOM      4  C3A BZF d   1       0.439   0.681   0.515  0.00  0.00    -0.107 A 
ATOM      5  C4  BZF d   1       0.583  -0.324  -0.399  0.00  0.00     0.055 A 
ATOM      6  C5  BZF d   1       0.399  -0.049  -1.717  0.00  0.00    -0.016 A 
ATOM      7  C6  BZF d   1       0.065   1.216  -2.155  0.00  0.00     0.022 A 
ATOM      8  C7  BZF d   1      -0.084   2.246  -1.287  0.00  0.00     0.029 A 
ATOM      9  C7A BZF d   1       0.133   1.978   0.043  0.00  0.00     0.058 A 
ENDROOT
TORSDOF 0
ENDMDL
