MODEL 1
REMARK minimizedAffinity -1.25689805
REMARK minimizedRMSD -1
REMARK  0 active torsions:
REMARK  status: ('A' for Active; 'I' for Inactive)
ROOT
ATOM      1  O1  BZF d   1      -0.516  -1.259  -1.733  0.00  0.00    -0.204 OA
ATOM      2  C2  BZF d   1       0.477  -0.404  -1.298  0.00  0.00     0.174 A 
ATOM      3  C3  BZF d   1       1.409  -1.073  -0.589  0.00  0.00    -0.012 A 
ATOM      4  C3A BZF d   1       1.018  -2.448  -0.658  0.00  0.00    -0.107 A 
ATOM      5  C4  BZF d   1       1.553  -3.602  -0.162  0.00  0.00     0.055 A 
ATOM      6  C5  BZF d   1       0.887  -4.772  -0.346  0.00  0.00    -0.016 A 
ATOM      7  C6  BZF d   1      -0.318  -4.823  -1.015  0.00  0.00     0.022 A 
ATOM      8  C7  BZF d   1      -0.886  -3.705  -1.530  0.00  0.00     0.029 A 
ATOM      9  C7A BZF d   1      -0.199  -2.526  -1.374  0.00  0.00     0.058 A 
ENDROOT
TORSDOF 0
ENDMDL
