MODEL 1
REMARK minimizedAffinity -2.55715656
REMARK minimizedRMSD -1
REMARK  0 active torsions:
REMARK  status: ('A' for Active; 'I' for Inactive)
ROOT
ATOM      1  O1  BZF d   1      -0.993   2.078   0.423  0.00  0.00    -0.204 OA
ATOM      2  C2  BZF d   1      -0.856   1.436   1.639  0.00  0.00     0.174 A 
ATOM      3  C3  BZF d   1      -0.122   0.312   1.507  0.00  0.00    -0.012 A 
ATOM      4  C3A BZF d   1       0.300   0.297   0.140  0.00  0.00    -0.107 A 
ATOM      5  C4  BZF d   1       1.069  -0.559  -0.596  0.00  0.00     0.055 A 
ATOM      6  C5  BZF d   1       1.229  -0.326  -1.925  0.00  0.00    -0.016 A 
ATOM      7  C6  BZF d   1       0.631   0.748  -2.551  0.00  0.00     0.022 A 
ATOM      8  C7  BZF d   1      -0.136   1.627  -1.862  0.00  0.00     0.029 A 
ATOM      9  C7A BZF d   1      -0.273   1.413  -0.512  0.00  0.00     0.058 A 
ENDROOT
TORSDOF 0
ENDMDL
