MODEL 1
REMARK minimizedAffinity -6.13490486
REMARK minimizedRMSD -1
REMARK  0 active torsions:
REMARK  status: ('A' for Active; 'I' for Inactive)
ROOT
ATOM      1  O1  BZF d   1       0.398   0.863  -1.630  0.00  0.00    -0.204 OA
ATOM      2  C2  BZF d   1       0.971  -0.152  -0.889  0.00  0.00     0.174 A 
ATOM      3  C3  BZF d   1       0.765   0.043   0.429  0.00  0.00    -0.012 A 
ATOM      4  C3A BZF d   1      -0.063   1.207   0.512  0.00  0.00    -0.107 A 
ATOM      5  C4  BZF d   1      -0.619   1.891   1.555  0.00  0.00     0.055 A 
ATOM      6  C5  BZF d   1      -1.315   3.031   1.302  0.00  0.00    -0.016 A 
ATOM      7  C6  BZF d   1      -1.469   3.517   0.020  0.00  0.00     0.022 A 
ATOM      8  C7  BZF d   1      -0.940   2.871  -1.047  0.00  0.00     0.029 A 
ATOM      9  C7A BZF d   1      -0.264   1.701  -0.797  0.00  0.00     0.058 A 
ENDROOT
TORSDOF 0
ENDMDL
