MODEL 1
REMARK minimizedAffinity -4.18127537
REMARK minimizedRMSD -1
REMARK  0 active torsions:
REMARK  status: ('A' for Active; 'I' for Inactive)
ROOT
ATOM      1  O1  BZF d   1       0.826   0.645  -1.907  0.00  0.00    -0.204 OA
ATOM      2  C2  BZF d   1       1.109  -0.614  -1.414  0.00  0.00     0.174 A 
ATOM      3  C3  BZF d   1       0.936  -0.655  -0.078  0.00  0.00    -0.012 A 
ATOM      4  C3A BZF d   1       0.429   0.635   0.276  0.00  0.00    -0.107 A 
ATOM      5  C4  BZF d   1       0.046   1.202   1.458  0.00  0.00     0.055 A 
ATOM      6  C5  BZF d   1      -0.333   2.507   1.473  0.00  0.00    -0.016 A 
ATOM      7  C6  BZF d   1      -0.337   3.275   0.327  0.00  0.00     0.022 A 
ATOM      8  C7  BZF d   1       0.030   2.755  -0.870  0.00  0.00     0.029 A 
ATOM      9  C7A BZF d   1       0.382   1.428  -0.894  0.00  0.00     0.058 A 
ENDROOT
TORSDOF 0
ENDMDL
