MODEL 1
REMARK minimizedAffinity -2.9629395
REMARK minimizedRMSD -1
REMARK  0 active torsions:
REMARK  status: ('A' for Active; 'I' for Inactive)
ROOT
ATOM      1  O1  BZF d   1       0.322   0.465  -1.457  0.00  0.00    -0.204 OA
ATOM      2  C2  BZF d   1       0.635  -0.653  -0.708  0.00  0.00     0.174 A 
ATOM      3  C3  BZF d   1       0.416  -0.426   0.603  0.00  0.00    -0.012 A 
ATOM      4  C3A BZF d   1      -0.150   0.886   0.670  0.00  0.00    -0.107 A 
ATOM      5  C4  BZF d   1      -0.594   1.666   1.699  0.00  0.00     0.055 A 
ATOM      6  C5  BZF d   1      -1.022   2.929   1.433  0.00  0.00    -0.016 A 
ATOM      7  C6  BZF d   1      -1.013   3.445   0.154  0.00  0.00     0.022 A 
ATOM      8  C7  BZF d   1      -0.587   2.707  -0.900  0.00  0.00     0.029 A 
ATOM      9  C7A BZF d   1      -0.185   1.419  -0.640  0.00  0.00     0.058 A 
ENDROOT
TORSDOF 0
ENDMDL
