MODEL 1
REMARK minimizedAffinity -2.31251264
REMARK minimizedRMSD -1
REMARK  0 active torsions:
REMARK  status: ('A' for Active; 'I' for Inactive)
ROOT
ATOM      1  O1  BZF d   1      -0.358   2.121   2.052  0.00  0.00    -0.204 OA
ATOM      2  C2  BZF d   1      -1.650   2.499   1.741  0.00  0.00     0.174 A 
ATOM      3  C3  BZF d   1      -2.102   1.817   0.669  0.00  0.00    -0.012 A 
ATOM      4  C3A BZF d   1      -1.060   0.894   0.342  0.00  0.00    -0.107 A 
ATOM      5  C4  BZF d   1      -0.923  -0.067  -0.618  0.00  0.00     0.055 A 
ATOM      6  C5  BZF d   1       0.250  -0.746  -0.712  0.00  0.00    -0.016 A 
ATOM      7  C6  BZF d   1       1.309  -0.486   0.134  0.00  0.00     0.022 A 
ATOM      8  C7  BZF d   1       1.219   0.455   1.105  0.00  0.00     0.029 A 
ATOM      9  C7A BZF d   1       0.023   1.119   1.224  0.00  0.00     0.058 A 
ENDROOT
TORSDOF 0
ENDMDL
