MODEL 1
REMARK minimizedAffinity -2.05583858
REMARK minimizedRMSD -1
REMARK  0 active torsions:
REMARK  status: ('A' for Active; 'I' for Inactive)
ROOT
ATOM      1  O1  BZF d   1      -1.363   2.888   0.195  0.00  0.00    -0.204 OA
ATOM      2  C2  BZF d   1      -1.455   2.619   1.547  0.00  0.00     0.174 A 
ATOM      3  C3  BZF d   1      -0.879   1.435   1.839  0.00  0.00    -0.012 A 
ATOM      4  C3A BZF d   1      -0.315   0.977   0.607  0.00  0.00    -0.107 A 
ATOM      5  C4  BZF d   1       0.400  -0.133   0.257  0.00  0.00     0.055 A 
ATOM      6  C5  BZF d   1       0.737  -0.317  -1.047  0.00  0.00    -0.016 A 
ATOM      7  C6  BZF d   1       0.372   0.584  -2.026  0.00  0.00     0.022 A 
ATOM      8  C7  BZF d   1      -0.333   1.702  -1.726  0.00  0.00     0.029 A 
ATOM      9  C7A BZF d   1      -0.647   1.907  -0.405  0.00  0.00     0.058 A 
ENDROOT
TORSDOF 0
ENDMDL
