MODEL 1
REMARK minimizedAffinity -1.61563385
REMARK minimizedRMSD -1
REMARK  0 active torsions:
REMARK  status: ('A' for Active; 'I' for Inactive)
ROOT
ATOM      1  O1  BZF d   1       0.253   0.229   1.506  0.00  0.00    -0.204 OA
ATOM      2  C2  BZF d   1      -0.457   1.254   2.100  0.00  0.00     0.174 A 
ATOM      3  C3  BZF d   1      -0.699   2.244   1.217  0.00  0.00    -0.012 A 
ATOM      4  C3A BZF d   1      -0.183   1.769  -0.030  0.00  0.00    -0.107 A 
ATOM      5  C4  BZF d   1      -0.138   2.296  -1.290  0.00  0.00     0.055 A 
ATOM      6  C5  BZF d   1       0.502   1.608  -2.271  0.00  0.00    -0.016 A 
ATOM      7  C6  BZF d   1       1.112   0.395  -2.028  0.00  0.00     0.022 A 
ATOM      8  C7  BZF d   1       1.090  -0.170  -0.796  0.00  0.00     0.029 A 
ATOM      9  C7A BZF d   1       0.416   0.507   0.190  0.00  0.00     0.058 A 
ENDROOT
TORSDOF 0
ENDMDL
