MODEL 1
REMARK minimizedAffinity -2.36162686
REMARK minimizedRMSD -1
REMARK  0 active torsions:
REMARK  status: ('A' for Active; 'I' for Inactive)
ROOT
ATOM      1  O1  BZF d   1       0.016   0.508  -1.795  0.00  0.00    -0.204 OA
ATOM      2  C2  BZF d   1       0.813  -0.563  -1.440  0.00  0.00     0.174 A 
ATOM      3  C3  BZF d   1       0.987  -0.608  -0.104  0.00  0.00    -0.012 A 
ATOM      4  C3A BZF d   1       0.178   0.450   0.417  0.00  0.00    -0.107 A 
ATOM      5  C4  BZF d   1      -0.079   0.901   1.680  0.00  0.00     0.055 A 
ATOM      6  C5  BZF d   1      -0.858   2.003   1.843  0.00  0.00    -0.016 A 
ATOM      7  C6  BZF d   1      -1.391   2.680   0.766  0.00  0.00     0.022 A 
ATOM      8  C7  BZF d   1      -1.169   2.267  -0.506  0.00  0.00     0.029 A 
ATOM      9  C7A BZF d   1      -0.409   1.135  -0.672  0.00  0.00     0.058 A 
ENDROOT
TORSDOF 0
ENDMDL
