MODEL 1
REMARK minimizedAffinity 3.74654388
REMARK minimizedRMSD -1
REMARK  0 active torsions:
REMARK  status: ('A' for Active; 'I' for Inactive)
ROOT
ATOM      1  C1  DEN d   1      -1.342  -2.412  -5.931  0.00  0.00     0.130 A 
ATOM      2  C2  DEN d   1      -0.007  -3.003  -5.903  0.00  0.00    -0.031 A 
ATOM      3  C3  DEN d   1      -0.157  -4.472  -5.914  0.00  0.00     0.027 A 
ATOM      4  C4  DEN d   1      -2.316  -5.882  -5.977  0.00  0.00     0.027 A 
ATOM      5  C5  DEN d   1      -3.692  -5.827  -5.998  0.00  0.00    -0.003 A 
ATOM      6  C6  DEN d   1      -4.376  -4.641  -5.964  0.00  0.00     0.001 A 
ATOM      7  C7  DEN d   1      -3.685  -3.458  -5.953  0.00  0.00     0.017 A 
ATOM      8  C8  DEN d   1      -2.297  -3.506  -5.924  0.00  0.00    -0.094 A 
ATOM      9  C9  DEN d   1      -1.624  -4.715  -5.971  0.00  0.00    -0.072 A 
ENDROOT
TORSDOF 0
ENDMDL
