MODEL 1
REMARK minimizedAffinity 3.88889551
REMARK minimizedRMSD -1
REMARK  0 active torsions:
REMARK  status: ('A' for Active; 'I' for Inactive)
ROOT
ATOM      1  C1  DEN d   1      -3.751  -1.323   0.817  0.00  0.00     0.130 A 
ATOM      2  C2  DEN d   1      -4.105  -0.054   0.189  0.00  0.00    -0.031 A 
ATOM      3  C3  DEN d   1      -5.054   0.647   1.077  0.00  0.00     0.027 A 
ATOM      4  C4  DEN d   1      -6.000  -0.105   3.356  0.00  0.00     0.027 A 
ATOM      5  C5  DEN d   1      -6.000  -1.114   4.294  0.00  0.00    -0.003 A 
ATOM      6  C6  DEN d   1      -5.282  -2.269   4.124  0.00  0.00     0.001 A 
ATOM      7  C7  DEN d   1      -4.499  -2.424   3.011  0.00  0.00     0.017 A 
ATOM      8  C8  DEN d   1      -4.500  -1.414   2.058  0.00  0.00    -0.094 A 
ATOM      9  C9  DEN d   1      -5.222  -0.249   2.253  0.00  0.00    -0.072 A 
ENDROOT
TORSDOF 0
ENDMDL
