MODEL 1
REMARK minimizedAffinity 5.43341398
REMARK minimizedRMSD -1
REMARK  0 active torsions:
REMARK  status: ('A' for Active; 'I' for Inactive)
ROOT
ATOM      1  C1  DEN d   1       1.278  -1.539   6.000  0.00  0.00     0.130 A 
ATOM      2  C2  DEN d   1       1.786  -2.908   5.999  0.00  0.00    -0.031 A 
ATOM      3  C3  DEN d   1       2.036  -3.302   4.598  0.00  0.00     0.027 A 
ATOM      4  C4  DEN d   1       1.692  -1.929   2.441  0.00  0.00     0.027 A 
ATOM      5  C5  DEN d   1       1.268  -0.720   1.936  0.00  0.00    -0.003 A 
ATOM      6  C6  DEN d   1       0.790   0.280   2.740  0.00  0.00     0.001 A 
ATOM      7  C7  DEN d   1       0.766   0.106   4.099  0.00  0.00     0.017 A 
ATOM      8  C8  DEN d   1       1.185  -1.113   4.615  0.00  0.00    -0.094 A 
ATOM      9  C9  DEN d   1       1.676  -2.108   3.786  0.00  0.00    -0.072 A 
ENDROOT
TORSDOF 0
ENDMDL
