MODEL 1
REMARK minimizedAffinity 8.89593506
REMARK minimizedRMSD -1
REMARK  0 active torsions:
REMARK  status: ('A' for Active; 'I' for Inactive)
ROOT
ATOM      1  C1  DEN d   1      -5.989   0.620   3.397  0.00  0.00     0.130 A 
ATOM      2  C2  DEN d   1      -5.099   1.043   2.319  0.00  0.00    -0.031 A 
ATOM      3  C3  DEN d   1      -4.074  -0.003   2.136  0.00  0.00     0.027 A 
ATOM      4  C4  DEN d   1      -3.781  -2.228   3.408  0.00  0.00     0.027 A 
ATOM      5  C5  DEN d   1      -4.285  -3.019   4.417  0.00  0.00    -0.003 A 
ATOM      6  C6  DEN d   1      -5.363  -2.640   5.172  0.00  0.00     0.001 A 
ATOM      7  C7  DEN d   1      -6.000  -1.458   4.901  0.00  0.00     0.017 A 
ATOM      8  C8  DEN d   1      -5.493  -0.652   3.891  0.00  0.00    -0.094 A 
ATOM      9  C9  DEN d   1      -4.410  -1.058   3.130  0.00  0.00    -0.072 A 
ENDROOT
TORSDOF 0
ENDMDL
