MODEL 1
REMARK minimizedAffinity 11.8734646
REMARK minimizedRMSD -1
REMARK  0 active torsions:
REMARK  status: ('A' for Active; 'I' for Inactive)
ROOT
ATOM      1  C1  DEN d   1      -2.513  -5.606  -5.841  0.00  0.00     0.130 A 
ATOM      2  C2  DEN d   1      -1.078  -5.875  -5.860  0.00  0.00    -0.031 A 
ATOM      3  C3  DEN d   1      -0.372  -4.579  -5.922  0.00  0.00     0.027 A 
ATOM      4  C4  DEN d   1      -1.356  -2.196  -5.985  0.00  0.00     0.027 A 
ATOM      5  C5  DEN d   1      -2.523  -1.464  -5.999  0.00  0.00    -0.003 A 
ATOM      6  C6  DEN d   1      -3.757  -2.056  -5.996  0.00  0.00     0.001 A 
ATOM      7  C7  DEN d   1      -3.855  -3.421  -5.932  0.00  0.00     0.017 A 
ATOM      8  C8  DEN d   1      -2.684  -4.167  -5.925  0.00  0.00    -0.094 A 
ATOM      9  C9  DEN d   1      -1.445  -3.549  -5.916  0.00  0.00    -0.072 A 
ENDROOT
TORSDOF 0
ENDMDL
