MODEL 1
REMARK minimizedAffinity 10.1781454
REMARK minimizedRMSD -1
REMARK  0 active torsions:
REMARK  status: ('A' for Active; 'I' for Inactive)
ROOT
ATOM      1  C1  DEN d   1      -4.632  -5.952  -6.000  0.00  0.00     0.130 A 
ATOM      2  C2  DEN d   1      -5.617  -5.466  -5.037  0.00  0.00    -0.031 A 
ATOM      3  C3  DEN d   1      -4.888  -4.858  -3.906  0.00  0.00     0.027 A 
ATOM      4  C4  DEN d   1      -2.343  -4.618  -3.556  0.00  0.00     0.027 A 
ATOM      5  C5  DEN d   1      -1.106  -4.890  -4.096  0.00  0.00    -0.003 A 
ATOM      6  C6  DEN d   1      -0.957  -5.559  -5.282  0.00  0.00     0.001 A 
ATOM      7  C7  DEN d   1      -2.066  -5.940  -5.990  0.00  0.00     0.017 A 
ATOM      8  C8  DEN d   1      -3.317  -5.676  -5.448  0.00  0.00    -0.094 A 
ATOM      9  C9  DEN d   1      -3.447  -4.988  -4.254  0.00  0.00    -0.072 A 
ENDROOT
TORSDOF 0
ENDMDL
