MODEL 1
REMARK minimizedAffinity 4.39111328
REMARK minimizedRMSD -1
REMARK  0 active torsions:
REMARK  status: ('A' for Active; 'I' for Inactive)
ROOT
ATOM      1  C1  DEN d   1       2.317  -3.312   0.348  0.00  0.00     0.130 A 
ATOM      2  C2  DEN d   1       1.008  -3.728  -0.148  0.00  0.00    -0.031 A 
ATOM      3  C3  DEN d   1       1.218  -4.785  -1.158  0.00  0.00     0.027 A 
ATOM      4  C4  DEN d   1       3.430  -5.816  -1.992  0.00  0.00     0.027 A 
ATOM      5  C5  DEN d   1       4.801  -5.778  -1.873  0.00  0.00    -0.003 A 
ATOM      6  C6  DEN d   1       5.437  -4.899  -1.036  0.00  0.00     0.001 A 
ATOM      7  C7  DEN d   1       4.699  -4.052  -0.253  0.00  0.00     0.017 A 
ATOM      8  C8  DEN d   1       3.315  -4.080  -0.373  0.00  0.00    -0.094 A 
ATOM      9  C9  DEN d   1       2.691  -4.984  -1.215  0.00  0.00    -0.072 A 
ENDROOT
TORSDOF 0
ENDMDL
