MODEL 1
REMARK minimizedAffinity 12.8046522
REMARK minimizedRMSD -1
REMARK  0 active torsions:
REMARK  status: ('A' for Active; 'I' for Inactive)
ROOT
ATOM      1  C1  DEN d   1      -2.874  -2.813  -5.664  0.00  0.00     0.130 A 
ATOM      2  C2  DEN d   1      -1.665  -3.302  -5.008  0.00  0.00    -0.031 A 
ATOM      3  C3  DEN d   1      -1.955  -4.639  -4.454  0.00  0.00     0.027 A 
ATOM      4  C4  DEN d   1      -4.147  -5.996  -4.552  0.00  0.00     0.027 A 
ATOM      5  C5  DEN d   1      -5.452  -5.989  -4.992  0.00  0.00    -0.003 A 
ATOM      6  C6  DEN d   1      -5.995  -4.919  -5.652  0.00  0.00     0.001 A 
ATOM      7  C7  DEN d   1      -5.216  -3.827  -5.931  0.00  0.00     0.017 A 
ATOM      8  C8  DEN d   1      -3.901  -3.823  -5.483  0.00  0.00    -0.094 A 
ATOM      9  C9  DEN d   1      -3.367  -4.920  -4.829  0.00  0.00    -0.072 A 
ENDROOT
TORSDOF 0
ENDMDL
