MODEL 1
REMARK minimizedAffinity -4.15397072
REMARK minimizedRMSD -1
REMARK  0 active torsions:
REMARK  status: ('A' for Active; 'I' for Inactive)
ROOT
ATOM      1  C1  BNZ d   1       0.905  -0.207  -3.731  0.00  0.00     0.000 A 
ATOM      2  C2  BNZ d   1      -0.145  -1.079  -3.618  0.00  0.00     0.000 A 
ATOM      3  C3  BNZ d   1      -1.167  -1.065  -4.525  0.00  0.00     0.000 A 
ATOM      4  C4  BNZ d   1      -1.159  -0.154  -5.519  0.00  0.00     0.000 A 
ATOM      5  C5  BNZ d   1      -0.112   0.738  -5.642  0.00  0.00     0.000 A 
ATOM      6  C6  BNZ d   1       0.935   0.695  -4.750  0.00  0.00     0.000 A 
ENDROOT
TORSDOF 0
ENDMDL
