MODEL 1
REMARK minimizedAffinity -4.41252232
REMARK minimizedRMSD -1
REMARK  0 active torsions:
REMARK  status: ('A' for Active; 'I' for Inactive)
ROOT
ATOM      1  C1  BNZ d   1      -0.360   1.485   2.413  0.00  0.00     0.000 A 
ATOM      2  C2  BNZ d   1      -0.784   1.028   1.194  0.00  0.00     0.000 A 
ATOM      3  C3  BNZ d   1      -0.102   0.040   0.541  0.00  0.00     0.000 A 
ATOM      4  C4  BNZ d   1       1.023  -0.462   1.089  0.00  0.00     0.000 A 
ATOM      5  C5  BNZ d   1       1.468  -0.006   2.314  0.00  0.00     0.000 A 
ATOM      6  C6  BNZ d   1       0.758   0.961   2.986  0.00  0.00     0.000 A 
ENDROOT
TORSDOF 0
ENDMDL
