MODEL 1
REMARK minimizedAffinity -2.94309616
REMARK minimizedRMSD -1
REMARK  0 active torsions:
REMARK  status: ('A' for Active; 'I' for Inactive)
ROOT
ATOM      1  C1  BNZ d   1      -0.863   1.111   2.745  0.00  0.00     0.000 A 
ATOM      2  C2  BNZ d   1      -1.223   0.040   1.972  0.00  0.00     0.000 A 
ATOM      3  C3  BNZ d   1      -0.685  -0.138   0.728  0.00  0.00     0.000 A 
ATOM      4  C4  BNZ d   1       0.182   0.775   0.244  0.00  0.00     0.000 A 
ATOM      5  C5  BNZ d   1       0.548   1.865   1.008  0.00  0.00     0.000 A 
ATOM      6  C6  BNZ d   1       0.034   2.020   2.274  0.00  0.00     0.000 A 
ENDROOT
TORSDOF 0
ENDMDL
