MODEL 1
REMARK minimizedAffinity -3.66325855
REMARK minimizedRMSD -1
REMARK  0 active torsions:
REMARK  status: ('A' for Active; 'I' for Inactive)
ROOT
ATOM      1  C1  BNZ d   1      -1.365   0.098   0.572  0.00  0.00     0.000 A 
ATOM      2  C2  BNZ d   1      -0.015   0.117   0.342  0.00  0.00     0.000 A 
ATOM      3  C3  BNZ d   1       0.848   0.610   1.281  0.00  0.00     0.000 A 
ATOM      4  C4  BNZ d   1       0.358   1.118   2.431  0.00  0.00     0.000 A 
ATOM      5  C5  BNZ d   1      -1.002   1.113   2.673  0.00  0.00     0.000 A 
ATOM      6  C6  BNZ d   1      -1.864   0.582   1.742  0.00  0.00     0.000 A 
ENDROOT
TORSDOF 0
ENDMDL
