MODEL 1
REMARK minimizedAffinity -4.20946646
REMARK minimizedRMSD -1
REMARK  0 active torsions:
REMARK  status: ('A' for Active; 'I' for Inactive)
ROOT
ATOM      1  C1  BNZ d   1       1.834   0.774  -2.965  0.00  0.00     0.000 A 
ATOM      2  C2  BNZ d   1       1.122   1.159  -4.070  0.00  0.00     0.000 A 
ATOM      3  C3  BNZ d   1      -0.109   0.626  -4.330  0.00  0.00     0.000 A 
ATOM      4  C4  BNZ d   1      -0.610  -0.319  -3.508  0.00  0.00     0.000 A 
ATOM      5  C5  BNZ d   1       0.100  -0.724  -2.395  0.00  0.00     0.000 A 
ATOM      6  C6  BNZ d   1       1.322  -0.157  -2.115  0.00  0.00     0.000 A 
ENDROOT
TORSDOF 0
ENDMDL
