MODEL 1
REMARK minimizedAffinity 8.67008972
REMARK minimizedRMSD -1
REMARK  0 active torsions:
REMARK  status: ('A' for Active; 'I' for Inactive)
ROOT
ATOM      1  O1  BZF d   1      -5.145   1.639  -3.040  0.00  0.00    -0.204 OA
ATOM      2  C2  BZF d   1      -3.968   1.498  -2.331  0.00  0.00     0.174 A 
ATOM      3  C3  BZF d   1      -3.115   2.504  -2.614  0.00  0.00    -0.012 A 
ATOM      4  C3A BZF d   1      -3.838   3.375  -3.488  0.00  0.00    -0.107 A 
ATOM      5  C4  BZF d   1      -3.532   4.557  -4.101  0.00  0.00     0.055 A 
ATOM      6  C5  BZF d   1      -4.434   5.114  -4.950  0.00  0.00    -0.016 A 
ATOM      7  C6  BZF d   1      -5.649   4.516  -5.214  0.00  0.00     0.022 A 
ATOM      8  C7  BZF d   1      -6.000   3.346  -4.626  0.00  0.00     0.029 A 
ATOM      9  C7A BZF d   1      -5.104   2.797  -3.742  0.00  0.00     0.058 A 
ENDROOT
TORSDOF 0
ENDMDL
