MODEL 1
REMARK minimizedAffinity 0.463856518
REMARK minimizedRMSD -1
REMARK  0 active torsions:
REMARK  status: ('A' for Active; 'I' for Inactive)
ROOT
ATOM      1  O1  BZF d   1      -0.820  -3.414  -6.000  0.00  0.00    -0.204 OA
ATOM      2  C2  BZF d   1       0.551  -3.586  -5.999  0.00  0.00     0.174 A 
ATOM      3  C3  BZF d   1       1.170  -2.497  -5.500  0.00  0.00    -0.012 A 
ATOM      4  C3A BZF d   1       0.116  -1.624  -5.082  0.00  0.00    -0.107 A 
ATOM      5  C4  BZF d   1       0.096  -0.392  -4.494  0.00  0.00     0.055 A 
ATOM      6  C5  BZF d   1      -1.099   0.220  -4.283  0.00  0.00    -0.016 A 
ATOM      7  C6  BZF d   1      -2.291  -0.368  -4.654  0.00  0.00     0.022 A 
ATOM      8  C7  BZF d   1      -2.322  -1.591  -5.237  0.00  0.00     0.029 A 
ATOM      9  C7A BZF d   1      -1.118  -2.226  -5.420  0.00  0.00     0.058 A 
ENDROOT
TORSDOF 0
ENDMDL
