MODEL 1
REMARK minimizedAffinity 4.34837151
REMARK minimizedRMSD -1
REMARK  0 active torsions:
REMARK  status: ('A' for Active; 'I' for Inactive)
ROOT
ATOM      1  O1  BZF d   1       0.147  -1.618  -3.484  0.00  0.00    -0.204 OA
ATOM      2  C2  BZF d   1      -0.597  -2.775  -3.362  0.00  0.00     0.174 A 
ATOM      3  C3  BZF d   1      -1.859  -2.494  -2.976  0.00  0.00    -0.012 A 
ATOM      4  C3A BZF d   1      -1.931  -1.065  -2.939  0.00  0.00    -0.107 A 
ATOM      5  C4  BZF d   1      -2.931  -0.184  -2.642  0.00  0.00     0.055 A 
ATOM      6  C5  BZF d   1      -2.655   1.147  -2.628  0.00  0.00    -0.016 A 
ATOM      7  C6  BZF d   1      -1.392   1.630  -2.901  0.00  0.00     0.022 A 
ATOM      8  C7  BZF d   1      -0.370   0.794  -3.206  0.00  0.00     0.029 A 
ATOM      9  C7A BZF d   1      -0.653  -0.549  -3.253  0.00  0.00     0.058 A 
ENDROOT
TORSDOF 0
ENDMDL
