MODEL 1
REMARK minimizedAffinity 12.8102226
REMARK minimizedRMSD -1
REMARK  0 active torsions:
REMARK  status: ('A' for Active; 'I' for Inactive)
ROOT
ATOM      1  O1  BZF d   1      -3.653  -1.375  -2.848  0.00  0.00    -0.204 OA
ATOM      2  C2  BZF d   1      -2.418  -1.349  -3.468  0.00  0.00     0.174 A 
ATOM      3  C3  BZF d   1      -1.815  -0.157  -3.282  0.00  0.00    -0.012 A 
ATOM      4  C3A BZF d   1      -2.689   0.577  -2.419  0.00  0.00    -0.107 A 
ATOM      5  C4  BZF d   1      -2.630   1.822  -1.863  0.00  0.00     0.055 A 
ATOM      6  C5  BZF d   1      -3.682   2.267  -1.126  0.00  0.00    -0.016 A 
ATOM      7  C6  BZF d   1      -4.809   1.495  -0.930  0.00  0.00     0.022 A 
ATOM      8  C7  BZF d   1      -4.911   0.251  -1.458  0.00  0.00     0.029 A 
ATOM      9  C7A BZF d   1      -3.836  -0.214  -2.176  0.00  0.00     0.058 A 
ENDROOT
TORSDOF 0
ENDMDL
