MODEL 1
REMARK minimizedAffinity 8.1286726
REMARK minimizedRMSD -1
REMARK  0 active torsions:
REMARK  status: ('A' for Active; 'I' for Inactive)
ROOT
ATOM      1  O1  BZF d   1       1.480   4.839  -1.965  0.00  0.00    -0.204 OA
ATOM      2  C2  BZF d   1       2.057   6.000  -1.486  0.00  0.00     0.174 A 
ATOM      3  C3  BZF d   1       2.084   5.999  -0.137  0.00  0.00    -0.012 A 
ATOM      4  C3A BZF d   1       1.571   4.720   0.249  0.00  0.00    -0.107 A 
ATOM      5  C4  BZF d   1       1.365   4.117   1.456  0.00  0.00     0.055 A 
ATOM      6  C5  BZF d   1       0.780   2.891   1.491  0.00  0.00    -0.016 A 
ATOM      7  C6  BZF d   1       0.384   2.243   0.340  0.00  0.00     0.022 A 
ATOM      8  C7  BZF d   1       0.572   2.799  -0.882  0.00  0.00     0.029 A 
ATOM      9  C7A BZF d   1       1.193   4.024  -0.922  0.00  0.00     0.058 A 
ENDROOT
TORSDOF 0
ENDMDL
