MODEL 1
REMARK minimizedAffinity 5.48288298
REMARK minimizedRMSD -1
REMARK  0 active torsions:
REMARK  status: ('A' for Active; 'I' for Inactive)
ROOT
ATOM      1  O1  BZF d   1       2.988  -0.618  -0.980  0.00  0.00    -0.204 OA
ATOM      2  C2  BZF d   1       2.503  -0.490   0.307  0.00  0.00     0.174 A 
ATOM      3  C3  BZF d   1       3.063  -1.406   1.123  0.00  0.00    -0.012 A 
ATOM      4  C3A BZF d   1       4.023  -2.094   0.314  0.00  0.00    -0.107 A 
ATOM      5  C4  BZF d   1       4.908  -3.103   0.562  0.00  0.00     0.055 A 
ATOM      6  C5  BZF d   1       5.652  -3.596  -0.463  0.00  0.00    -0.016 A 
ATOM      7  C6  BZF d   1       5.532  -3.108  -1.748  0.00  0.00     0.022 A 
ATOM      8  C7  BZF d   1       4.670  -2.103  -2.041  0.00  0.00     0.029 A 
ATOM      9  C7A BZF d   1       3.942  -1.581  -1.001  0.00  0.00     0.058 A 
ENDROOT
TORSDOF 0
ENDMDL
