MODEL 1
REMARK minimizedAffinity 8.95613861
REMARK minimizedRMSD -1
REMARK  0 active torsions:
REMARK  status: ('A' for Active; 'I' for Inactive)
ROOT
ATOM      1  O1  BZF d   1       2.676   4.928  -0.736  0.00  0.00    -0.204 OA
ATOM      2  C2  BZF d   1       2.271   5.987  -1.525  0.00  0.00     0.174 A 
ATOM      3  C3  BZF d   1       0.929   6.000  -1.656  0.00  0.00    -0.012 A 
ATOM      4  C3A BZF d   1       0.459   4.933  -0.825  0.00  0.00    -0.107 A 
ATOM      5  C4  BZF d   1      -0.784   4.454  -0.525  0.00  0.00     0.055 A 
ATOM      6  C5  BZF d   1      -0.895   3.353   0.263  0.00  0.00    -0.016 A 
ATOM      7  C6  BZF d   1       0.215   2.703   0.763  0.00  0.00     0.022 A 
ATOM      8  C7  BZF d   1       1.469   3.144   0.497  0.00  0.00     0.029 A 
ATOM      9  C7A BZF d   1       1.583   4.276  -0.272  0.00  0.00     0.058 A 
ENDROOT
TORSDOF 0
ENDMDL
