MODEL 1
REMARK minimizedAffinity 4.94380617
REMARK minimizedRMSD -1
REMARK  0 active torsions:
REMARK  status: ('A' for Active; 'I' for Inactive)
ROOT
ATOM      1  O1  BZF d   1      -5.999   2.071  -4.258  0.00  0.00    -0.204 OA
ATOM      2  C2  BZF d   1      -5.102   1.499  -3.378  0.00  0.00     0.174 A 
ATOM      3  C3  BZF d   1      -3.988   2.253  -3.273  0.00  0.00    -0.012 A 
ATOM      4  C3A BZF d   1      -4.242   3.412  -4.072  0.00  0.00    -0.107 A 
ATOM      5  C4  BZF d   1      -3.517   4.535  -4.354  0.00  0.00     0.055 A 
ATOM      6  C5  BZF d   1      -4.022   5.444  -5.229  0.00  0.00    -0.016 A 
ATOM      7  C6  BZF d   1      -5.243   5.260  -5.844  0.00  0.00     0.022 A 
ATOM      8  C7  BZF d   1      -6.000   4.165  -5.592  0.00  0.00     0.029 A 
ATOM      9  C7A BZF d   1      -5.508   3.260  -4.683  0.00  0.00     0.058 A 
ENDROOT
TORSDOF 0
ENDMDL
