MODEL 1
REMARK minimizedAffinity 11.1424389
REMARK minimizedRMSD -1
REMARK  0 active torsions:
REMARK  status: ('A' for Active; 'I' for Inactive)
ROOT
ATOM      1  O1  BZF d   1       0.726   1.381  -1.388  0.00  0.00    -0.204 OA
ATOM      2  C2  BZF d   1      -0.296   2.059  -0.751  0.00  0.00     0.174 A 
ATOM      3  C3  BZF d   1      -0.624   1.452   0.407  0.00  0.00    -0.012 A 
ATOM      4  C3A BZF d   1       0.309   0.377   0.546  0.00  0.00    -0.107 A 
ATOM      5  C4  BZF d   1       0.505  -0.580   1.501  0.00  0.00     0.055 A 
ATOM      6  C5  BZF d   1       1.456  -1.529   1.301  0.00  0.00    -0.016 A 
ATOM      7  C6  BZF d   1       2.226  -1.555   0.156  0.00  0.00     0.022 A 
ATOM      8  C7  BZF d   1       2.073  -0.624  -0.817  0.00  0.00     0.029 A 
ATOM      9  C7A BZF d   1       1.134   0.356  -0.602  0.00  0.00     0.058 A 
ENDROOT
TORSDOF 0
ENDMDL
