MODEL 1
REMARK minimizedAffinity 3.52787471
REMARK minimizedRMSD -1
REMARK  0 active torsions:
REMARK  status: ('A' for Active; 'I' for Inactive)
ROOT
ATOM      1  O1  BZF d   1       0.283  -0.137  -3.198  0.00  0.00    -0.204 OA
ATOM      2  C2  BZF d   1       0.351  -1.481  -3.512  0.00  0.00     0.174 A 
ATOM      3  C3  BZF d   1       0.745  -2.203  -2.443  0.00  0.00    -0.012 A 
ATOM      4  C3A BZF d   1       0.847  -1.262  -1.371  0.00  0.00    -0.107 A 
ATOM      5  C4  BZF d   1       1.181  -1.375  -0.051  0.00  0.00     0.055 A 
ATOM      6  C5  BZF d   1       1.256  -0.251   0.710  0.00  0.00    -0.016 A 
ATOM      7  C6  BZF d   1       1.009   1.000   0.183  0.00  0.00     0.022 A 
ATOM      8  C7  BZF d   1       0.669   1.162  -1.119  0.00  0.00     0.029 A 
ATOM      9  C7A BZF d   1       0.560   0.025  -1.882  0.00  0.00     0.058 A 
ENDROOT
TORSDOF 0
ENDMDL
