MODEL 1
REMARK minimizedAffinity -2.98817754
REMARK minimizedRMSD -1
REMARK  0 active torsions:
REMARK  status: ('A' for Active; 'I' for Inactive)
ROOT
ATOM      1  C   UNL d   1       3.991  -5.576   5.560  0.00  0.00    -0.002 A 
ATOM      2  C1  UNL d   1       5.305  -5.488   6.000  0.00  0.00     0.010 A 
ATOM      3  C2  UNL d   1       5.999  -4.279   5.926  0.00  0.00     0.041 A 
ATOM      4  C3  UNL d   1       5.345  -3.149   5.399  0.00  0.00    -0.075 A 
ATOM      5  S   UNL d   1       5.997  -1.563   5.212  0.00  0.00     0.015 SA
ATOM      6  C4  UNL d   1       4.547  -0.965   4.544  0.00  0.00     0.022 A 
ATOM      7  C5  UNL d   1       3.579  -1.938   4.458  0.00  0.00     0.026 A 
ATOM      8  C6  UNL d   1       4.023  -3.212   4.950  0.00  0.00    -0.082 A 
ATOM      9  C7  UNL d   1       3.346  -4.452   5.037  0.00  0.00     0.045 A 
ENDROOT
TORSDOF 0
ENDMDL
