MODEL 1
REMARK minimizedAffinity 5.95965338
REMARK minimizedRMSD -1
REMARK  0 active torsions:
REMARK  status: ('A' for Active; 'I' for Inactive)
ROOT
ATOM      1  C   UNL d   1       3.091   2.793   0.405  0.00  0.00    -0.002 A 
ATOM      2  C1  UNL d   1       2.524   3.957  -0.095  0.00  0.00     0.010 A 
ATOM      3  C2  UNL d   1       1.611   3.906  -1.150  0.00  0.00     0.041 A 
ATOM      4  C3  UNL d   1       1.271   2.653  -1.697  0.00  0.00    -0.075 A 
ATOM      5  S   UNL d   1       0.175   2.347  -2.992  0.00  0.00     0.015 SA
ATOM      6  C4  UNL d   1       0.432   0.664  -2.911  0.00  0.00     0.022 A 
ATOM      7  C5  UNL d   1       1.329   0.326  -1.926  0.00  0.00     0.026 A 
ATOM      8  C6  UNL d   1       1.828   1.467  -1.210  0.00  0.00    -0.082 A 
ATOM      9  C7  UNL d   1       2.751   1.552  -0.140  0.00  0.00     0.045 A 
ENDROOT
TORSDOF 0
ENDMDL
