MODEL 1
REMARK minimizedAffinity -0.252358377
REMARK minimizedRMSD -1
REMARK  0 active torsions:
REMARK  status: ('A' for Active; 'I' for Inactive)
ROOT
ATOM      1  C   UNL d   1      -3.931   5.998   1.354  0.00  0.00    -0.002 A 
ATOM      2  C1  UNL d   1      -5.248   5.997   1.792  0.00  0.00     0.010 A 
ATOM      3  C2  UNL d   1      -5.543   5.996   3.157  0.00  0.00     0.041 A 
ATOM      4  C3  UNL d   1      -4.482   5.997   4.083  0.00  0.00    -0.075 A 
ATOM      5  S   UNL d   1      -4.604   5.997   5.803  0.00  0.00     0.015 SA
ATOM      6  C4  UNL d   1      -2.910   5.999   5.997  0.00  0.00     0.022 A 
ATOM      7  C5  UNL d   1      -2.253   6.000   4.790  0.00  0.00     0.026 A 
ATOM      8  C6  UNL d   1      -3.148   5.999   3.667  0.00  0.00    -0.082 A 
ATOM      9  C7  UNL d   1      -2.881   6.000   2.276  0.00  0.00     0.045 A 
ENDROOT
TORSDOF 0
ENDMDL
