MODEL 1
REMARK minimizedAffinity 10.4158354
REMARK minimizedRMSD -1
REMARK  0 active torsions:
REMARK  status: ('A' for Active; 'I' for Inactive)
ROOT
ATOM      1  C   UNL d   1      -4.097   5.588   1.356  0.00  0.00    -0.002 A 
ATOM      2  C1  UNL d   1      -5.321   5.135   1.830  0.00  0.00     0.010 A 
ATOM      3  C2  UNL d   1      -5.538   4.979   3.200  0.00  0.00     0.041 A 
ATOM      4  C3  UNL d   1      -4.496   5.290   4.096  0.00  0.00    -0.075 A 
ATOM      5  S   UNL d   1      -4.535   5.177   5.815  0.00  0.00     0.015 SA
ATOM      6  C4  UNL d   1      -2.929   5.728   5.962  0.00  0.00     0.022 A 
ATOM      7  C5  UNL d   1      -2.361   5.996   4.739  0.00  0.00     0.026 A 
ATOM      8  C6  UNL d   1      -3.256   5.749   3.643  0.00  0.00    -0.082 A 
ATOM      9  C7  UNL d   1      -3.066   5.895   2.248  0.00  0.00     0.045 A 
ENDROOT
TORSDOF 0
ENDMDL
