MODEL 1
REMARK minimizedAffinity 10.6664019
REMARK minimizedRMSD -1
REMARK  0 active torsions:
REMARK  status: ('A' for Active; 'I' for Inactive)
ROOT
ATOM      1  C   UNL d   1       1.849   2.361  -1.936  0.00  0.00    -0.002 A 
ATOM      2  C1  UNL d   1       0.909   2.424  -2.955  0.00  0.00     0.010 A 
ATOM      3  C2  UNL d   1       0.330   1.259  -3.461  0.00  0.00     0.041 A 
ATOM      4  C3  UNL d   1       0.714   0.016  -2.919  0.00  0.00    -0.075 A 
ATOM      5  S   UNL d   1       0.137  -1.542  -3.380  0.00  0.00     0.015 SA
ATOM      6  C4  UNL d   1       1.125  -2.328  -2.235  0.00  0.00     0.022 A 
ATOM      7  C5  UNL d   1       1.882  -1.439  -1.510  0.00  0.00     0.026 A 
ATOM      8  C6  UNL d   1       1.658  -0.073  -1.892  0.00  0.00    -0.082 A 
ATOM      9  C7  UNL d   1       2.227   1.126  -1.401  0.00  0.00     0.045 A 
ENDROOT
TORSDOF 0
ENDMDL
