MODEL 1
REMARK minimizedAffinity 20.8209953
REMARK minimizedRMSD -1
REMARK  0 active torsions:
REMARK  status: ('A' for Active; 'I' for Inactive)
ROOT
ATOM      1  C   UNL d   1       1.088  -0.199  -1.894  0.00  0.00    -0.002 A 
ATOM      2  C1  UNL d   1       2.334   0.147  -1.391  0.00  0.00     0.010 A 
ATOM      3  C2  UNL d   1       2.905   1.384  -1.696  0.00  0.00     0.041 A 
ATOM      4  C3  UNL d   1       2.194   2.278  -2.521  0.00  0.00    -0.075 A 
ATOM      5  S   UNL d   1       2.695   3.848  -3.027  0.00  0.00     0.015 SA
ATOM      6  C4  UNL d   1       1.266   4.097  -3.922  0.00  0.00     0.022 A 
ATOM      7  C5  UNL d   1       0.416   3.019  -3.848  0.00  0.00     0.026 A 
ATOM      8  C6  UNL d   1       0.937   1.953  -3.039  0.00  0.00    -0.082 A 
ATOM      9  C7  UNL d   1       0.386   0.690  -2.713  0.00  0.00     0.045 A 
ENDROOT
TORSDOF 0
ENDMDL
