MODEL 1
REMARK minimizedAffinity 5.43970966
REMARK minimizedRMSD -1
REMARK  0 active torsions:
REMARK  status: ('A' for Active; 'I' for Inactive)
ROOT
ATOM      1  C   UNL d   1      -1.776   5.996   4.820  0.00  0.00    -0.002 A 
ATOM      2  C1  UNL d   1      -2.798   5.988   5.760  0.00  0.00     0.010 A 
ATOM      3  C2  UNL d   1      -4.134   5.985   5.356  0.00  0.00     0.041 A 
ATOM      4  C3  UNL d   1      -4.430   5.988   3.978  0.00  0.00    -0.075 A 
ATOM      5  S   UNL d   1      -5.993   5.984   3.250  0.00  0.00     0.015 SA
ATOM      6  C4  UNL d   1      -5.341   5.992   1.675  0.00  0.00     0.022 A 
ATOM      7  C5  UNL d   1      -3.967   5.998   1.686  0.00  0.00     0.026 A 
ATOM      8  C6  UNL d   1      -3.419   5.995   3.013  0.00  0.00    -0.082 A 
ATOM      9  C7  UNL d   1      -2.074   5.999   3.455  0.00  0.00     0.045 A 
ENDROOT
TORSDOF 0
ENDMDL
