MODEL 1
REMARK minimizedAffinity 8.3317976
REMARK minimizedRMSD -1
REMARK  0 active torsions:
REMARK  status: ('A' for Active; 'I' for Inactive)
ROOT
ATOM      1  C   UNL d   1      -5.640   5.535   2.082  0.00  0.00    -0.002 A 
ATOM      2  C1  UNL d   1      -4.419   5.582   1.425  0.00  0.00     0.010 A 
ATOM      3  C2  UNL d   1      -3.230   5.721   2.145  0.00  0.00     0.041 A 
ATOM      4  C3  UNL d   1      -3.290   5.811   3.549  0.00  0.00    -0.075 A 
ATOM      5  S   UNL d   1      -1.964   5.984   4.637  0.00  0.00     0.015 SA
ATOM      6  C4  UNL d   1      -2.987   6.000   6.000  0.00  0.00     0.022 A 
ATOM      7  C5  UNL d   1      -4.312   5.877   5.652  0.00  0.00     0.026 A 
ATOM      8  C6  UNL d   1      -4.508   5.766   4.234  0.00  0.00    -0.082 A 
ATOM      9  C7  UNL d   1      -5.696   5.625   3.476  0.00  0.00     0.045 A 
ENDROOT
TORSDOF 0
ENDMDL
