MODEL 1
REMARK minimizedAffinity 5.34179544
REMARK minimizedRMSD -1
REMARK  0 active torsions:
REMARK  status: ('A' for Active; 'I' for Inactive)
ROOT
ATOM      1  C   UNL d   1      -3.158   5.897   5.999  0.00  0.00    -0.002 A 
ATOM      2  C1  UNL d   1      -4.535   5.729   5.993  0.00  0.00     0.010 A 
ATOM      3  C2  UNL d   1      -5.236   5.652   4.788  0.00  0.00     0.041 A 
ATOM      4  C3  UNL d   1      -4.522   5.746   3.577  0.00  0.00    -0.075 A 
ATOM      5  S   UNL d   1      -5.169   5.678   1.980  0.00  0.00     0.015 SA
ATOM      6  C4  UNL d   1      -3.632   5.870   1.269  0.00  0.00     0.022 A 
ATOM      7  C5  UNL d   1      -2.638   5.985   2.212  0.00  0.00     0.026 A 
ATOM      8  C6  UNL d   1      -3.135   5.915   3.557  0.00  0.00    -0.082 A 
ATOM      9  C7  UNL d   1      -2.453   5.991   4.796  0.00  0.00     0.045 A 
ENDROOT
TORSDOF 0
ENDMDL
