MODEL 1
REMARK minimizedAffinity 14.6074476
REMARK minimizedRMSD -1
REMARK  0 active torsions:
REMARK  status: ('A' for Active; 'I' for Inactive)
ROOT
ATOM      1  C   UNL d   1       2.551   2.741  -4.060  0.00  0.00    -0.002 A 
ATOM      2  C1  UNL d   1       1.164   2.739  -4.086  0.00  0.00     0.010 A 
ATOM      3  C2  UNL d   1       0.441   1.783  -3.370  0.00  0.00     0.041 A 
ATOM      4  C3  UNL d   1       1.144   0.820  -2.619  0.00  0.00    -0.075 A 
ATOM      5  S   UNL d   1       0.470  -0.447  -1.663  0.00  0.00     0.015 SA
ATOM      6  C4  UNL d   1       2.008  -1.015  -1.198  0.00  0.00     0.022 A 
ATOM      7  C5  UNL d   1       3.022  -0.268  -1.749  0.00  0.00     0.026 A 
ATOM      8  C6  UNL d   1       2.541   0.802  -2.576  0.00  0.00    -0.082 A 
ATOM      9  C7  UNL d   1       3.244   1.785  -3.313  0.00  0.00     0.045 A 
ENDROOT
TORSDOF 0
ENDMDL
