MODEL 1
REMARK minimizedAffinity 0.217478409
REMARK minimizedRMSD -1
REMARK  0 active torsions:
REMARK  status: ('A' for Active; 'I' for Inactive)
ROOT
ATOM      1  C   UNL d   1      -4.063   5.951   1.494  0.00  0.00    -0.002 A 
ATOM      2  C1  UNL d   1      -5.306   5.931   2.111  0.00  0.00     0.010 A 
ATOM      3  C2  UNL d   1      -5.407   5.931   3.504  0.00  0.00     0.041 A 
ATOM      4  C3  UNL d   1      -4.228   5.953   4.273  0.00  0.00    -0.075 A 
ATOM      5  S   UNL d   1      -4.108   5.958   5.993  0.00  0.00     0.015 SA
ATOM      6  C4  UNL d   1      -2.405   5.989   5.949  0.00  0.00     0.022 A 
ATOM      7  C5  UNL d   1      -1.922   5.995   4.662  0.00  0.00     0.026 A 
ATOM      8  C6  UNL d   1      -2.965   5.975   3.675  0.00  0.00    -0.082 A 
ATOM      9  C7  UNL d   1      -2.895   5.974   2.261  0.00  0.00     0.045 A 
ENDROOT
TORSDOF 0
ENDMDL
