MODEL 1
REMARK minimizedAffinity 2.03120327
REMARK minimizedRMSD -1
REMARK  0 active torsions:
REMARK  status: ('A' for Active; 'I' for Inactive)
ROOT
ATOM      1  C   UNL d   1      -3.760   5.985   5.967  0.00  0.00    -0.002 A 
ATOM      2  C1  UNL d   1      -2.435   5.986   5.555  0.00  0.00     0.010 A 
ATOM      3  C2  UNL d   1      -2.113   5.989   4.196  0.00  0.00     0.041 A 
ATOM      4  C3  UNL d   1      -3.156   5.993   3.249  0.00  0.00    -0.075 A 
ATOM      5  S   UNL d   1      -3.001   5.998   1.532  0.00  0.00     0.015 SA
ATOM      6  C4  UNL d   1      -4.690   6.000   1.305  0.00  0.00     0.022 A 
ATOM      7  C5  UNL d   1      -5.371   5.996   2.499  0.00  0.00     0.026 A 
ATOM      8  C6  UNL d   1      -4.499   5.993   3.639  0.00  0.00    -0.082 A 
ATOM      9  C7  UNL d   1      -4.792   5.989   5.024  0.00  0.00     0.045 A 
ENDROOT
TORSDOF 0
ENDMDL
