MODEL 1
REMARK minimizedAffinity -4.51400185
REMARK minimizedRMSD -1
REMARK  0 active torsions:
REMARK  status: ('A' for Active; 'I' for Inactive)
ROOT
ATOM      1  C4' PXY d   1      -0.809   1.776  -0.842  0.00  0.00     0.077 C 
ATOM      2  C1' PXY d   1       1.590  -2.996   1.369  0.00  0.00     0.077 C 
ATOM      3  C1  PXY d   1       0.973  -1.739   0.788  0.00  0.00    -0.082 A 
ATOM      4  C2  PXY d   1      -0.286  -1.440   1.066  0.00  0.00     0.003 A 
ATOM      5  C3  PXY d   1      -0.869  -0.324   0.523  0.00  0.00     0.003 A 
ATOM      6  C4  PXY d   1      -0.141   0.522  -0.270  0.00  0.00    -0.082 A 
ATOM      7  C5  PXY d   1       1.147   0.230  -0.549  0.00  0.00     0.003 A 
ATOM      8  C6  PXY d   1       1.708  -0.929  -0.021  0.00  0.00     0.003 A 
ENDROOT
TORSDOF 0
ENDMDL
