MODEL 1
REMARK minimizedAffinity -4.81993055
REMARK minimizedRMSD -1
REMARK  0 active torsions:
REMARK  status: ('A' for Active; 'I' for Inactive)
ROOT
ATOM      1  C4' PXY d   1      -1.039   1.157  -1.019  0.00  0.00     0.077 C 
ATOM      2  C1' PXY d   1       1.495  -2.892   2.238  0.00  0.00     0.077 C 
ATOM      3  C1  PXY d   1       0.842  -1.825   1.380  0.00  0.00    -0.082 A 
ATOM      4  C2  PXY d   1      -0.394  -1.437   1.648  0.00  0.00     0.003 A 
ATOM      5  C3  PXY d   1      -1.011  -0.497   0.863  0.00  0.00     0.003 A 
ATOM      6  C4  PXY d   1      -0.337   0.090  -0.174  0.00  0.00    -0.082 A 
ATOM      7  C5  PXY d   1       0.929  -0.293  -0.447  0.00  0.00     0.003 A 
ATOM      8  C6  PXY d   1       1.522  -1.278   0.337  0.00  0.00     0.003 A 
ENDROOT
TORSDOF 0
ENDMDL
