MODEL 1
REMARK minimizedAffinity -5.10227394
REMARK minimizedRMSD -1
REMARK  0 active torsions:
REMARK  status: ('A' for Active; 'I' for Inactive)
ROOT
ATOM      1  C4' PXY d   1       1.920  -3.230   1.572  0.00  0.00     0.077 C 
ATOM      2  C1' PXY d   1      -1.107   1.343  -0.256  0.00  0.00     0.077 C 
ATOM      3  C1  PXY d   1      -0.320   0.144   0.234  0.00  0.00    -0.082 A 
ATOM      4  C2  PXY d   1       0.885  -0.094  -0.258  0.00  0.00     0.003 A 
ATOM      5  C3  PXY d   1       1.597  -1.192   0.151  0.00  0.00     0.003 A 
ATOM      6  C4  PXY d   1       1.093  -2.026   1.113  0.00  0.00    -0.082 A 
ATOM      7  C5  PXY d   1      -0.131  -1.784   1.628  0.00  0.00     0.003 A 
ATOM      8  C6  PXY d   1      -0.855  -0.687   1.170  0.00  0.00     0.003 A 
ENDROOT
TORSDOF 0
ENDMDL
