MODEL 1
REMARK minimizedAffinity -5.36974525
REMARK minimizedRMSD -1
REMARK  0 active torsions:
REMARK  status: ('A' for Active; 'I' for Inactive)
ROOT
ATOM      1  C4' PXY d   1      -0.786   1.337  -0.600  0.00  0.00     0.077 C 
ATOM      2  C1' PXY d   1       1.606  -3.329   1.833  0.00  0.00     0.077 C 
ATOM      3  C1  PXY d   1       0.991  -2.100   1.194  0.00  0.00    -0.082 A 
ATOM      4  C2  PXY d   1      -0.288  -1.826   1.399  0.00  0.00     0.003 A 
ATOM      5  C3  PXY d   1      -0.868  -0.737   0.804  0.00  0.00     0.003 A 
ATOM      6  C4  PXY d   1      -0.120   0.112   0.033  0.00  0.00    -0.082 A 
ATOM      7  C5  PXY d   1       1.187  -0.154  -0.173  0.00  0.00     0.003 A 
ATOM      8  C6  PXY d   1       1.748  -1.288   0.408  0.00  0.00     0.003 A 
ENDROOT
TORSDOF 0
ENDMDL
