MODEL 1
REMARK minimizedAffinity -3.97593069
REMARK minimizedRMSD -1
REMARK  0 active torsions:
REMARK  status: ('A' for Active; 'I' for Inactive)
ROOT
ATOM      1  C4' PXY d   1       1.077  -2.717   2.176  0.00  0.00     0.077 C 
ATOM      2  C1' PXY d   1      -1.028   1.490  -1.183  0.00  0.00     0.077 C 
ATOM      3  C1  PXY d   1      -0.485   0.390  -0.293  0.00  0.00    -0.082 A 
ATOM      4  C2  PXY d   1       0.760  -0.027  -0.454  0.00  0.00     0.003 A 
ATOM      5  C3  PXY d   1       1.257  -1.043   0.321  0.00  0.00     0.003 A 
ATOM      6  C4  PXY d   1       0.489  -1.602   1.307  0.00  0.00    -0.082 A 
ATOM      7  C5  PXY d   1      -0.779  -1.175   1.485  0.00  0.00     0.003 A 
ATOM      8  C6  PXY d   1      -1.278  -0.171   0.660  0.00  0.00     0.003 A 
ENDROOT
TORSDOF 0
ENDMDL
