MODEL 1
REMARK minimizedAffinity -5.25573969
REMARK minimizedRMSD -1
REMARK  0 active torsions:
REMARK  status: ('A' for Active; 'I' for Inactive)
ROOT
ATOM      1  C4' PXY d   1      -1.091   1.564  -0.845  0.00  0.00     0.077 C 
ATOM      2  C1' PXY d   1       1.007  -2.892   2.182  0.00  0.00     0.077 C 
ATOM      3  C1  PXY d   1       0.446  -1.724   1.394  0.00  0.00    -0.082 A 
ATOM      4  C2  PXY d   1       0.956  -1.428   0.210  0.00  0.00     0.003 A 
ATOM      5  C3  PXY d   1       0.482  -0.356  -0.501  0.00  0.00     0.003 A 
ATOM      6  C4  PXY d   1      -0.561   0.388  -0.019  0.00  0.00    -0.082 A 
ATOM      7  C5  PXY d   1      -1.095   0.086   1.183  0.00  0.00     0.003 A 
ATOM      8  C6  PXY d   1      -0.572  -0.981   1.908  0.00  0.00     0.003 A 
ENDROOT
TORSDOF 0
ENDMDL
