MODEL 1
REMARK minimizedAffinity -2.08290434
REMARK minimizedRMSD -1
REMARK  0 active torsions:
REMARK  status: ('A' for Active; 'I' for Inactive)
ROOT
ATOM      1  C4' PXY d   1       0.920  -2.349   1.622  0.00  0.00     0.077 C 
ATOM      2  C1' PXY d   1      -0.624   2.357  -1.360  0.00  0.00     0.077 C 
ATOM      3  C1  PXY d   1      -0.230   1.124  -0.570  0.00  0.00    -0.082 A 
ATOM      4  C2  PXY d   1       1.038   0.748  -0.534  0.00  0.00     0.003 A 
ATOM      5  C3  PXY d   1       1.408  -0.382   0.149  0.00  0.00     0.003 A 
ATOM      6  C4  PXY d   1       0.477  -1.106   0.846  0.00  0.00    -0.082 A 
ATOM      7  C5  PXY d   1      -0.817  -0.723   0.822  0.00  0.00     0.003 A 
ATOM      8  C6  PXY d   1      -1.178   0.404   0.090  0.00  0.00     0.003 A 
ENDROOT
TORSDOF 0
ENDMDL
