MODEL 1
REMARK minimizedAffinity -5.08617878
REMARK minimizedRMSD -1
REMARK  0 active torsions:
REMARK  status: ('A' for Active; 'I' for Inactive)
ROOT
ATOM      1  C4' PXY d   1      -0.051   1.803  -1.031  0.00  0.00     0.077 C 
ATOM      2  C1' PXY d   1       1.005  -3.156   1.746  0.00  0.00     0.077 C 
ATOM      3  C1  PXY d   1       0.741  -1.853   1.018  0.00  0.00    -0.082 A 
ATOM      4  C2  PXY d   1      -0.474  -1.329   1.035  0.00  0.00     0.003 A 
ATOM      5  C3  PXY d   1      -0.738  -0.168   0.356  0.00  0.00     0.003 A 
ATOM      6  C4  PXY d   1       0.264   0.493  -0.303  0.00  0.00    -0.082 A 
ATOM      7  C5  PXY d   1       1.509  -0.029  -0.315  0.00  0.00     0.003 A 
ATOM      8  C6  PXY d   1       1.747  -1.231   0.346  0.00  0.00     0.003 A 
ENDROOT
TORSDOF 0
ENDMDL
