MODEL 1
REMARK minimizedAffinity -4.39232111
REMARK minimizedRMSD -1
REMARK  0 active torsions:
REMARK  status: ('A' for Active; 'I' for Inactive)
ROOT
ATOM      1  C4' PXY d   1       1.326  -3.486   1.127  0.00  0.00     0.077 C 
ATOM      2  C1' PXY d   1      -0.424   1.839  -0.287  0.00  0.00     0.077 C 
ATOM      3  C1  PXY d   1       0.044   0.443   0.074  0.00  0.00    -0.082 A 
ATOM      4  C2  PXY d   1      -0.778  -0.380   0.705  0.00  0.00     0.003 A 
ATOM      5  C3  PXY d   1      -0.361  -1.634   1.068  0.00  0.00     0.003 A 
ATOM      6  C4  PXY d   1       0.893  -2.071   0.734  0.00  0.00    -0.082 A 
ATOM      7  C5  PXY d   1       1.735  -1.241   0.081  0.00  0.00     0.003 A 
ATOM      8  C6  PXY d   1       1.306   0.043  -0.242  0.00  0.00     0.003 A 
ENDROOT
TORSDOF 0
ENDMDL
