MODEL 1
REMARK minimizedAffinity -5.48283911
REMARK minimizedRMSD -1
REMARK  0 active torsions:
REMARK  status: ('A' for Active; 'I' for Inactive)
ROOT
ATOM      1  C4' PXY d   1      -0.586   2.000  -1.914  0.00  0.00     0.077 C 
ATOM      2  C1' PXY d   1       1.147  -2.474   1.311  0.00  0.00     0.077 C 
ATOM      3  C1  PXY d   1       0.704  -1.295   0.466  0.00  0.00    -0.082 A 
ATOM      4  C2  PXY d   1      -0.580  -0.983   0.401  0.00  0.00     0.003 A 
ATOM      5  C3  PXY d   1      -1.001   0.060  -0.383  0.00  0.00     0.003 A 
ATOM      6  C4  PXY d   1      -0.093   0.824  -1.066  0.00  0.00    -0.082 A 
ATOM      7  C5  PXY d   1       1.220   0.518  -0.996  0.00  0.00     0.003 A 
ATOM      8  C6  PXY d   1       1.623  -0.570  -0.227  0.00  0.00     0.003 A 
ENDROOT
TORSDOF 0
ENDMDL
