MODEL 1
REMARK minimizedAffinity -5.36237383
REMARK minimizedRMSD -1
REMARK  0 active torsions:
REMARK  status: ('A' for Active; 'I' for Inactive)
ROOT
ATOM      1  C4' PXY d   1      -0.573   1.748  -0.731  0.00  0.00     0.077 C 
ATOM      2  C1' PXY d   1       1.307  -3.101   1.793  0.00  0.00     0.077 C 
ATOM      3  C1  PXY d   1       0.827  -1.825   1.129  0.00  0.00    -0.082 A 
ATOM      4  C2  PXY d   1      -0.380  -1.358   1.407  0.00  0.00     0.003 A 
ATOM      5  C3  PXY d   1      -0.843  -0.224   0.791  0.00  0.00     0.003 A 
ATOM      6  C4  PXY d   1      -0.042   0.469  -0.077  0.00  0.00    -0.082 A 
ATOM      7  C5  PXY d   1       1.194   0.005  -0.357  0.00  0.00     0.003 A 
ATOM      8  C6  PXY d   1       1.630  -1.171   0.247  0.00  0.00     0.003 A 
ENDROOT
TORSDOF 0
ENDMDL
