MODEL 1
REMARK minimizedAffinity -4.40586853
REMARK minimizedRMSD -1
REMARK  0 active torsions:
REMARK  status: ('A' for Active; 'I' for Inactive)
ROOT
ATOM      1  C4' PXY d   1      -1.070   1.815  -1.087  0.00  0.00     0.077 C 
ATOM      2  C1' PXY d   1       1.543  -2.644   1.502  0.00  0.00     0.077 C 
ATOM      3  C1  PXY d   1       0.868  -1.467   0.825  0.00  0.00    -0.082 A 
ATOM      4  C2  PXY d   1      -0.452  -1.422   0.756  0.00  0.00     0.003 A 
ATOM      5  C3  PXY d   1      -1.078  -0.381   0.120  0.00  0.00     0.003 A 
ATOM      6  C4  PXY d   1      -0.346   0.651  -0.405  0.00  0.00    -0.082 A 
ATOM      7  C5  PXY d   1       1.001   0.617  -0.329  0.00  0.00     0.003 A 
ATOM      8  C6  PXY d   1       1.618  -0.469   0.285  0.00  0.00     0.003 A 
ENDROOT
TORSDOF 0
ENDMDL
