MODEL 1
REMARK minimizedAffinity -4.11815786
REMARK minimizedRMSD -1
REMARK  0 active torsions:
REMARK  status: ('A' for Active; 'I' for Inactive)
ROOT
ATOM      1  C4' PXY d   1       1.657  -2.763   2.003  0.00  0.00     0.077 C 
ATOM      2  C1' PXY d   1      -1.132   1.438  -0.823  0.00  0.00     0.077 C 
ATOM      3  C1  PXY d   1      -0.409   0.337  -0.072  0.00  0.00    -0.082 A 
ATOM      4  C2  PXY d   1       0.850   0.059  -0.371  0.00  0.00     0.003 A 
ATOM      5  C3  PXY d   1       1.509  -0.954   0.277  0.00  0.00     0.003 A 
ATOM      6  C4  PXY d   1       0.890  -1.655   1.277  0.00  0.00    -0.082 A 
ATOM      7  C5  PXY d   1      -0.390  -1.370   1.596  0.00  0.00     0.003 A 
ATOM      8  C6  PXY d   1      -1.055  -0.365   0.898  0.00  0.00     0.003 A 
ENDROOT
TORSDOF 0
ENDMDL
