MODEL 1
REMARK minimizedAffinity -5.52687168
REMARK minimizedRMSD -1
REMARK  0 active torsions:
REMARK  status: ('A' for Active; 'I' for Inactive)
ROOT
ATOM      1  C4' PXY d   1      -0.574   1.563  -0.583  0.00  0.00     0.077 C 
ATOM      2  C1' PXY d   1       1.532  -3.354   1.609  0.00  0.00     0.077 C 
ATOM      3  C1  PXY d   1       0.992  -2.061   1.031  0.00  0.00    -0.082 A 
ATOM      4  C2  PXY d   1      -0.161  -1.581   1.467  0.00  0.00     0.003 A 
ATOM      5  C3  PXY d   1      -0.680  -0.430   0.932  0.00  0.00     0.003 A 
ATOM      6  C4  PXY d   1       0.015   0.266  -0.021  0.00  0.00    -0.082 A 
ATOM      7  C5  PXY d   1       1.197  -0.211  -0.463  0.00  0.00     0.003 A 
ATOM      8  C6  PXY d   1       1.687  -1.403   0.063  0.00  0.00     0.003 A 
ENDROOT
TORSDOF 0
ENDMDL
