MODEL 1
REMARK minimizedAffinity -4.95019341
REMARK minimizedRMSD -1
REMARK  0 active torsions:
REMARK  status: ('A' for Active; 'I' for Inactive)
ROOT
ATOM      1  C4' PXY d   1      -0.746  -2.513   2.978  0.00  0.00     0.077 C 
ATOM      2  C1' PXY d   1       1.982   0.221  -1.323  0.00  0.00     0.077 C 
ATOM      3  C1  PXY d   1       1.274  -0.507  -0.198  0.00  0.00    -0.082 A 
ATOM      4  C2  PXY d   1       0.074  -0.104   0.189  0.00  0.00     0.003 A 
ATOM      5  C3  PXY d   1      -0.567  -0.730   1.226  0.00  0.00     0.003 A 
ATOM      6  C4  PXY d   1       0.002  -1.814   1.839  0.00  0.00    -0.082 A 
ATOM      7  C5  PXY d   1       1.221  -2.238   1.444  0.00  0.00     0.003 A 
ATOM      8  C6  PXY d   1       1.874  -1.563   0.416  0.00  0.00     0.003 A 
ENDROOT
TORSDOF 0
ENDMDL
