MODEL 1
REMARK minimizedAffinity -5.22034264
REMARK minimizedRMSD -1
REMARK  0 active torsions:
REMARK  status: ('A' for Active; 'I' for Inactive)
ROOT
ATOM      1  C4' PXY d   1      -0.680   1.435  -0.869  0.00  0.00     0.077 C 
ATOM      2  C1' PXY d   1       1.344  -3.032   2.190  0.00  0.00     0.077 C 
ATOM      3  C1  PXY d   1       0.825  -1.855   1.387  0.00  0.00    -0.082 A 
ATOM      4  C2  PXY d   1      -0.448  -1.508   1.484  0.00  0.00     0.003 A 
ATOM      5  C3  PXY d   1      -0.941  -0.467   0.740  0.00  0.00     0.003 A 
ATOM      6  C4  PXY d   1      -0.111   0.260  -0.070  0.00  0.00    -0.082 A 
ATOM      7  C5  PXY d   1       1.192  -0.081  -0.165  0.00  0.00     0.003 A 
ATOM      8  C6  PXY d   1       1.664  -1.167   0.566  0.00  0.00     0.003 A 
ENDROOT
TORSDOF 0
ENDMDL
