MODEL 1
REMARK minimizedAffinity -5.59872055
REMARK minimizedRMSD -1
REMARK  0 active torsions:
REMARK  status: ('A' for Active; 'I' for Inactive)
ROOT
ATOM      1  C4' PXY d   1      -1.053  -2.283   2.960  0.00  0.00     0.077 C 
ATOM      2  C1' PXY d   1       2.401   0.140  -0.991  0.00  0.00     0.077 C 
ATOM      3  C1  PXY d   1       1.501  -0.507   0.044  0.00  0.00    -0.082 A 
ATOM      4  C2  PXY d   1       0.321   0.029   0.310  0.00  0.00     0.003 A 
ATOM      5  C3  PXY d   1      -0.492  -0.525   1.265  0.00  0.00     0.003 A 
ATOM      6  C4  PXY d   1      -0.116  -1.669   1.917  0.00  0.00    -0.082 A 
ATOM      7  C5  PXY d   1       1.082  -2.227   1.643  0.00  0.00     0.003 A 
ATOM      8  C6  PXY d   1       1.911  -1.626   0.699  0.00  0.00     0.003 A 
ENDROOT
TORSDOF 0
ENDMDL
