MODEL 1
REMARK minimizedAffinity -5.58828592
REMARK minimizedRMSD -1
REMARK  0 active torsions:
REMARK  status: ('A' for Active; 'I' for Inactive)
ROOT
ATOM      1  C4' PXY d   1       1.440  -2.890   1.346  0.00  0.00     0.077 C 
ATOM      2  C1' PXY d   1      -1.011   1.749  -1.080  0.00  0.00     0.077 C 
ATOM      3  C1  PXY d   1      -0.359   0.532  -0.453  0.00  0.00    -0.082 A 
ATOM      4  C2  PXY d   1      -1.083  -0.287   0.292  0.00  0.00     0.003 A 
ATOM      5  C3  PXY d   1      -0.502  -1.374   0.893  0.00  0.00     0.003 A 
ATOM      6  C4  PXY d   1       0.822  -1.655   0.686  0.00  0.00    -0.082 A 
ATOM      7  C5  PXY d   1       1.565  -0.830  -0.082  0.00  0.00     0.003 A 
ATOM      8  C6  PXY d   1       0.966   0.291  -0.649  0.00  0.00     0.003 A 
ENDROOT
TORSDOF 0
ENDMDL
