MODEL 1
REMARK minimizedAffinity -3.16540623
REMARK minimizedRMSD -1
REMARK  0 active torsions:
REMARK  status: ('A' for Active; 'I' for Inactive)
ROOT
ATOM      1  C4' PXY d   1       1.395  -2.947   1.821  0.00  0.00     0.077 C 
ATOM      2  C1' PXY d   1      -0.731   1.596  -1.053  0.00  0.00     0.077 C 
ATOM      3  C1  PXY d   1      -0.164   0.404  -0.308  0.00  0.00    -0.082 A 
ATOM      4  C2  PXY d   1      -0.960  -0.335   0.446  0.00  0.00     0.003 A 
ATOM      5  C3  PXY d   1      -0.458  -1.398   1.152  0.00  0.00     0.003 A 
ATOM      6  C4  PXY d   1       0.864  -1.739   1.043  0.00  0.00    -0.082 A 
ATOM      7  C5  PXY d   1       1.681  -0.996   0.267  0.00  0.00     0.003 A 
ATOM      8  C6  PXY d   1       1.160   0.103  -0.409  0.00  0.00     0.003 A 
ENDROOT
TORSDOF 0
ENDMDL
