MODEL 1
REMARK minimizedAffinity -4.95673943
REMARK minimizedRMSD -1
REMARK  0 active torsions:
REMARK  status: ('A' for Active; 'I' for Inactive)
ROOT
ATOM      1  C4' PXY d   1      -0.486   1.223  -0.857  0.00  0.00     0.077 C 
ATOM      2  C1' PXY d   1       1.483  -3.233   2.255  0.00  0.00     0.077 C 
ATOM      3  C1  PXY d   1       0.979  -2.060   1.437  0.00  0.00    -0.082 A 
ATOM      4  C2  PXY d   1      -0.247  -1.604   1.634  0.00  0.00     0.003 A 
ATOM      5  C3  PXY d   1      -0.730  -0.565   0.881  0.00  0.00     0.003 A 
ATOM      6  C4  PXY d   1       0.068   0.047  -0.048  0.00  0.00    -0.082 A 
ATOM      7  C5  PXY d   1       1.324  -0.405  -0.248  0.00  0.00     0.003 A 
ATOM      8  C6  PXY d   1       1.781  -1.488   0.499  0.00  0.00     0.003 A 
ENDROOT
TORSDOF 0
ENDMDL
