MODEL 1
REMARK minimizedAffinity 9.87795639
REMARK minimizedRMSD -1
REMARK  0 active torsions:
REMARK  status: ('A' for Active; 'I' for Inactive)
ROOT
ATOM      1  N1  IND d   1       4.481   3.823  -5.494  0.00  0.00    -0.196 N 
ATOM      2  C2  IND d   1       5.161   4.987  -5.723  0.00  0.00     0.054 A 
ATOM      3  C3  IND d   1       4.296   5.992  -5.989  0.00  0.00    -0.031 A 
ATOM      4  C4  IND d   1       1.722   5.975  -6.000  0.00  0.00     0.051 A 
ATOM      5  C5  IND d   1       0.650   5.135  -5.884  0.00  0.00    -0.031 A 
ATOM      6  C6  IND d   1       0.803   3.788  -5.624  0.00  0.00     0.015 A 
ATOM      7  C7  IND d   1       2.039   3.231  -5.459  0.00  0.00    -0.016 A 
ATOM      8  C8  IND d   1       3.130   4.079  -5.583  0.00  0.00    -0.047 A 
ATOM      9  C9  IND d   1       2.983   5.438  -5.888  0.00  0.00    -0.096 A 
ATOM     10  HN1 IND d   1       4.837   3.059  -5.323  0.00  0.00     0.298 HD
ENDROOT
TORSDOF 0
ENDMDL
