MODEL 1
REMARK minimizedAffinity 14.5154047
REMARK minimizedRMSD -1
REMARK  0 active torsions:
REMARK  status: ('A' for Active; 'I' for Inactive)
ROOT
ATOM      1  N1  IND d   1      -1.447  -4.012   2.454  0.00  0.00    -0.196 N 
ATOM      2  C2  IND d   1      -2.264  -3.119   3.090  0.00  0.00     0.054 A 
ATOM      3  C3  IND d   1      -1.605  -1.961   3.320  0.00  0.00    -0.031 A 
ATOM      4  C4  IND d   1       0.784  -1.276   2.649  0.00  0.00     0.051 A 
ATOM      5  C5  IND d   1       1.926  -1.768   2.083  0.00  0.00    -0.031 A 
ATOM      6  C6  IND d   1       2.004  -3.058   1.601  0.00  0.00     0.015 A 
ATOM      7  C7  IND d   1       0.933  -3.905   1.655  0.00  0.00    -0.016 A 
ATOM      8  C8  IND d   1      -0.227  -3.411   2.235  0.00  0.00    -0.047 A 
ATOM      9  C9  IND d   1      -0.298  -2.116   2.765  0.00  0.00    -0.096 A 
ATOM     10  HN1 IND d   1      -1.659  -4.814   2.229  0.00  0.00     0.298 HD
ENDROOT
TORSDOF 0
ENDMDL
