MODEL 1
REMARK minimizedAffinity 15.2788553
REMARK minimizedRMSD -1
REMARK  0 active torsions:
REMARK  status: ('A' for Active; 'I' for Inactive)
ROOT
ATOM      1  N1  IND d   1       1.712  -3.541  -0.112  0.00  0.00    -0.196 N 
ATOM      2  C2  IND d   1       3.053  -3.546   0.152  0.00  0.00     0.054 A 
ATOM      3  C3  IND d   1       3.345  -2.650   1.122  0.00  0.00    -0.031 A 
ATOM      4  C4  IND d   1       1.764  -1.144   2.485  0.00  0.00     0.051 A 
ATOM      5  C5  IND d   1       0.456  -0.761   2.580  0.00  0.00    -0.031 A 
ATOM      6  C6  IND d   1      -0.522  -1.299   1.767  0.00  0.00     0.015 A 
ATOM      7  C7  IND d   1      -0.227  -2.252   0.833  0.00  0.00    -0.016 A 
ATOM      8  C8  IND d   1       1.103  -2.637   0.730  0.00  0.00    -0.047 A 
ATOM      9  C9  IND d   1       2.105  -2.064   1.523  0.00  0.00    -0.096 A 
ATOM     10  HN1 IND d   1       1.316  -4.022  -0.705  0.00  0.00     0.298 HD
ENDROOT
TORSDOF 0
ENDMDL
