MODEL 1
REMARK minimizedAffinity 13.4857378
REMARK minimizedRMSD -1
REMARK  0 active torsions:
REMARK  status: ('A' for Active; 'I' for Inactive)
ROOT
ATOM      1  N1  IND d   1      -4.203  -2.590  -2.038  0.00  0.00    -0.196 N 
ATOM      2  C2  IND d   1      -3.784  -1.724  -1.066  0.00  0.00     0.054 A 
ATOM      3  C3  IND d   1      -4.117  -0.455  -1.392  0.00  0.00    -0.031 A 
ATOM      4  C4  IND d   1      -5.439   0.420  -3.421  0.00  0.00     0.051 A 
ATOM      5  C5  IND d   1      -6.000   0.012  -4.598  0.00  0.00    -0.031 A 
ATOM      6  C6  IND d   1      -5.993  -1.312  -4.989  0.00  0.00     0.015 A 
ATOM      7  C7  IND d   1      -5.432  -2.282  -4.208  0.00  0.00    -0.016 A 
ATOM      8  C8  IND d   1      -4.855  -1.871  -3.015  0.00  0.00    -0.047 A 
ATOM      9  C9  IND d   1      -4.821  -0.523  -2.633  0.00  0.00    -0.096 A 
ATOM     10  HN1 IND d   1      -4.079  -3.441  -2.038  0.00  0.00     0.298 HD
ENDROOT
TORSDOF 0
ENDMDL
