MODEL 1
REMARK minimizedAffinity 7.6419735
REMARK minimizedRMSD -1
REMARK  0 active torsions:
REMARK  status: ('A' for Active; 'I' for Inactive)
ROOT
ATOM      1  N1  IND d   1       1.875  -3.196   0.176  0.00  0.00    -0.196 N 
ATOM      2  C2  IND d   1       3.170  -3.191   0.613  0.00  0.00     0.054 A 
ATOM      3  C3  IND d   1       3.291  -2.418   1.716  0.00  0.00    -0.031 A 
ATOM      4  C4  IND d   1       1.477  -1.151   3.032  0.00  0.00     0.051 A 
ATOM      5  C5  IND d   1       0.150  -0.827   2.998  0.00  0.00    -0.031 A 
ATOM      6  C6  IND d   1      -0.688  -1.288   2.003  0.00  0.00     0.015 A 
ATOM      7  C7  IND d   1      -0.229  -2.103   1.007  0.00  0.00    -0.016 A 
ATOM      8  C8  IND d   1       1.119  -2.428   1.034  0.00  0.00    -0.047 A 
ATOM      9  C9  IND d   1       1.983  -1.929   2.017  0.00  0.00    -0.096 A 
ATOM     10  HN1 IND d   1       1.582  -3.610  -0.518  0.00  0.00     0.298 HD
ENDROOT
TORSDOF 0
ENDMDL
