MODEL 1
REMARK minimizedAffinity 11.2978859
REMARK minimizedRMSD -1
REMARK  0 active torsions:
REMARK  status: ('A' for Active; 'I' for Inactive)
ROOT
ATOM      1  N1  IND d   1       1.098  -3.205   0.436  0.00  0.00    -0.196 N 
ATOM      2  C2  IND d   1       2.439  -3.351   0.214  0.00  0.00     0.054 A 
ATOM      3  C3  IND d   1       3.143  -2.536   1.031  0.00  0.00    -0.031 A 
ATOM      4  C4  IND d   1       2.303  -0.953   2.880  0.00  0.00     0.051 A 
ATOM      5  C5  IND d   1       1.157  -0.453   3.431  0.00  0.00    -0.031 A 
ATOM      6  C6  IND d   1      -0.092  -0.854   3.005  0.00  0.00     0.015 A 
ATOM      7  C7  IND d   1      -0.243  -1.784   2.015  0.00  0.00    -0.016 A 
ATOM      8  C8  IND d   1       0.919  -2.289   1.449  0.00  0.00    -0.047 A 
ATOM      9  C9  IND d   1       2.189  -1.854   1.848  0.00  0.00    -0.096 A 
ATOM     10  HN1 IND d   1       0.472  -3.616   0.013  0.00  0.00     0.298 HD
ENDROOT
TORSDOF 0
ENDMDL
