MODEL 1
REMARK minimizedAffinity 11.5139799
REMARK minimizedRMSD -1
REMARK  0 active torsions:
REMARK  status: ('A' for Active; 'I' for Inactive)
ROOT
ATOM      1  N1  IND d   1      -3.622   3.216   5.999  0.00  0.00    -0.196 N 
ATOM      2  C2  IND d   1      -3.069   3.976   5.006  0.00  0.00     0.054 A 
ATOM      3  C3  IND d   1      -3.517   3.570   3.797  0.00  0.00    -0.031 A 
ATOM      4  C4  IND d   1      -5.240   1.746   3.220  0.00  0.00     0.051 A 
ATOM      5  C5  IND d   1      -5.994   0.758   3.788  0.00  0.00    -0.031 A 
ATOM      6  C6  IND d   1      -5.998   0.536   5.150  0.00  0.00     0.015 A 
ATOM      7  C7  IND d   1      -5.254   1.305   5.999  0.00  0.00    -0.016 A 
ATOM      8  C8  IND d   1      -4.481   2.305   5.425  0.00  0.00    -0.047 A 
ATOM      9  C9  IND d   1      -4.440   2.507   4.040  0.00  0.00    -0.096 A 
ATOM     10  HN1 IND d   1      -3.461   3.294   6.840  0.00  0.00     0.298 HD
ENDROOT
TORSDOF 0
ENDMDL
