MODEL 1
REMARK minimizedAffinity 3.78509951
REMARK minimizedRMSD -1
REMARK  0 active torsions:
REMARK  status: ('A' for Active; 'I' for Inactive)
ROOT
ATOM      1  C   UNL d   1      -1.337   0.579   1.581  0.00  0.00    -0.002 A 
ATOM      2  C1  UNL d   1      -1.929  -0.362   0.750  0.00  0.00     0.010 A 
ATOM      3  C2  UNL d   1      -1.162  -1.364   0.152  0.00  0.00     0.041 A 
ATOM      4  C3  UNL d   1       0.223  -1.406   0.407  0.00  0.00    -0.075 A 
ATOM      5  S   UNL d   1       1.360  -2.543  -0.215  0.00  0.00     0.015 SA
ATOM      6  C4  UNL d   1       2.658  -1.807   0.608  0.00  0.00     0.022 A 
ATOM      7  C5  UNL d   1       2.252  -0.719   1.344  0.00  0.00     0.026 A 
ATOM      8  C6  UNL d   1       0.842  -0.471   1.241  0.00  0.00    -0.082 A 
ATOM      9  C7  UNL d   1       0.037   0.533   1.832  0.00  0.00     0.045 A 
ENDROOT
TORSDOF 0
ENDMDL
