MODEL 1
REMARK minimizedAffinity -2.71954727
REMARK minimizedRMSD -1
REMARK  0 active torsions:
REMARK  status: ('A' for Active; 'I' for Inactive)
ROOT
ATOM      1  C   UNL d   1       2.641  -2.727  -0.024  0.00  0.00    -0.002 A 
ATOM      2  C1  UNL d   1       3.018  -1.482   0.458  0.00  0.00     0.010 A 
ATOM      3  C2  UNL d   1       2.059  -0.582   0.926  0.00  0.00     0.041 A 
ATOM      4  C3  UNL d   1       0.701  -0.959   0.904  0.00  0.00    -0.075 A 
ATOM      5  S   UNL d   1      -0.647  -0.021   1.427  0.00  0.00     0.015 SA
ATOM      6  C4  UNL d   1      -1.755  -1.251   1.025  0.00  0.00     0.022 A 
ATOM      7  C5  UNL d   1      -1.129  -2.358   0.502  0.00  0.00     0.026 A 
ATOM      8  C6  UNL d   1       0.297  -2.208   0.424  0.00  0.00    -0.082 A 
ATOM      9  C7  UNL d   1       1.293  -3.098  -0.045  0.00  0.00     0.045 A 
ENDROOT
TORSDOF 0
ENDMDL
