MODEL 1
REMARK minimizedAffinity 16.1377869
REMARK minimizedRMSD -1
REMARK  0 active torsions:
REMARK  status: ('A' for Active; 'I' for Inactive)
ROOT
ATOM      1  C   UNL d   1      -0.944  -2.780  -0.077  0.00  0.00    -0.002 A 
ATOM      2  C1  UNL d   1       0.195  -3.545  -0.287  0.00  0.00     0.010 A 
ATOM      3  C2  UNL d   1       1.411  -3.184   0.298  0.00  0.00     0.041 A 
ATOM      4  C3  UNL d   1       1.462  -2.032   1.107  0.00  0.00    -0.075 A 
ATOM      5  S   UNL d   1       2.840  -1.398   1.927  0.00  0.00     0.015 SA
ATOM      6  C4  UNL d   1       1.949  -0.099   2.576  0.00  0.00     0.022 A 
ATOM      7  C5  UNL d   1       0.631  -0.132   2.187  0.00  0.00     0.026 A 
ATOM      8  C6  UNL d   1       0.328  -1.247   1.335  0.00  0.00    -0.082 A 
ATOM      9  C7  UNL d   1      -0.889  -1.638   0.727  0.00  0.00     0.045 A 
ENDROOT
TORSDOF 0
ENDMDL
