MODEL 1
REMARK minimizedAffinity 6.22340536
REMARK minimizedRMSD -1
REMARK  0 active torsions:
REMARK  status: ('A' for Active; 'I' for Inactive)
ROOT
ATOM      1  C   UNL d   1      -0.302   0.031   1.969  0.00  0.00    -0.002 A 
ATOM      2  C1  UNL d   1      -1.581  -0.371   1.611  0.00  0.00     0.010 A 
ATOM      3  C2  UNL d   1      -1.771  -1.473   0.775  0.00  0.00     0.041 A 
ATOM      4  C3  UNL d   1      -0.644  -2.172   0.301  0.00  0.00    -0.075 A 
ATOM      5  S   UNL d   1      -0.634  -3.551  -0.734  0.00  0.00     0.015 SA
ATOM      6  C4  UNL d   1       1.068  -3.639  -0.724  0.00  0.00     0.022 A 
ATOM      7  C5  UNL d   1       1.631  -2.649   0.044  0.00  0.00     0.026 A 
ATOM      8  C6  UNL d   1       0.654  -1.787   0.648  0.00  0.00    -0.082 A 
ATOM      9  C7  UNL d   1       0.814  -0.665   1.497  0.00  0.00     0.045 A 
ENDROOT
TORSDOF 0
ENDMDL
