MODEL 1
REMARK minimizedAffinity 10.0856876
REMARK minimizedRMSD -1
REMARK  0 active torsions:
REMARK  status: ('A' for Active; 'I' for Inactive)
ROOT
ATOM      1  C   UNL d   1       0.076  -3.009  -0.092  0.00  0.00    -0.002 A 
ATOM      2  C1  UNL d   1      -0.529  -2.194   0.854  0.00  0.00     0.010 A 
ATOM      3  C2  UNL d   1       0.221  -1.257   1.568  0.00  0.00     0.041 A 
ATOM      4  C3  UNL d   1       1.602  -1.151   1.312  0.00  0.00    -0.075 A 
ATOM      5  S   UNL d   1       2.719  -0.075   2.064  0.00  0.00     0.015 SA
ATOM      6  C4  UNL d   1       4.026  -0.670   1.146  0.00  0.00     0.022 A 
ATOM      7  C5  UNL d   1       3.637  -1.667   0.282  0.00  0.00     0.026 A 
ATOM      8  C6  UNL d   1       2.234  -1.960   0.363  0.00  0.00    -0.082 A 
ATOM      9  C7  UNL d   1       1.447  -2.900  -0.344  0.00  0.00     0.045 A 
ENDROOT
TORSDOF 0
ENDMDL
