MODEL 1
REMARK minimizedAffinity 0.713953376
REMARK minimizedRMSD -1
REMARK  0 active torsions:
REMARK  status: ('A' for Active; 'I' for Inactive)
ROOT
ATOM      1  C   UNL d   1      -0.949  -1.355   1.220  0.00  0.00    -0.002 A 
ATOM      2  C1  UNL d   1      -0.132  -0.240   1.099  0.00  0.00     0.010 A 
ATOM      3  C2  UNL d   1       1.159  -0.358   0.581  0.00  0.00     0.041 A 
ATOM      4  C3  UNL d   1       1.618  -1.627   0.179  0.00  0.00    -0.075 A 
ATOM      5  S   UNL d   1       3.162  -2.012  -0.485  0.00  0.00     0.015 SA
ATOM      6  C4  UNL d   1       2.773  -3.665  -0.626  0.00  0.00     0.022 A 
ATOM      7  C5  UNL d   1       1.500  -3.935  -0.181  0.00  0.00     0.026 A 
ATOM      8  C6  UNL d   1       0.814  -2.765   0.290  0.00  0.00    -0.082 A 
ATOM      9  C7  UNL d   1      -0.490  -2.613   0.821  0.00  0.00     0.045 A 
ENDROOT
TORSDOF 0
ENDMDL
