MODEL 1
REMARK minimizedAffinity -0.972721696
REMARK minimizedRMSD -1
REMARK  0 active torsions:
REMARK  status: ('A' for Active; 'I' for Inactive)
ROOT
ATOM      1  C   UNL d   1      -0.950  -0.977   0.431  0.00  0.00    -0.002 A 
ATOM      2  C1  UNL d   1       0.010  -0.042   0.793  0.00  0.00     0.010 A 
ATOM      3  C2  UNL d   1       1.369  -0.353   0.714  0.00  0.00     0.041 A 
ATOM      4  C3  UNL d   1       1.751  -1.630   0.259  0.00  0.00    -0.075 A 
ATOM      5  S   UNL d   1       3.356  -2.232   0.079  0.00  0.00     0.015 SA
ATOM      6  C4  UNL d   1       2.806  -3.743  -0.484  0.00  0.00     0.022 A 
ATOM      7  C5  UNL d   1       1.434  -3.805  -0.539  0.00  0.00     0.026 A 
ATOM      8  C6  UNL d   1       0.803  -2.588  -0.112  0.00  0.00    -0.082 A 
ATOM      9  C7  UNL d   1      -0.567  -2.243  -0.020  0.00  0.00     0.045 A 
ENDROOT
TORSDOF 0
ENDMDL
