MODEL 1
REMARK minimizedAffinity 6.80412817
REMARK minimizedRMSD -1
REMARK  0 active torsions:
REMARK  status: ('A' for Active; 'I' for Inactive)
ROOT
ATOM      1  C   UNL d   1      -0.866  -1.188   0.679  0.00  0.00    -0.002 A 
ATOM      2  C1  UNL d   1      -0.252  -1.752  -0.430  0.00  0.00     0.010 A 
ATOM      3  C2  UNL d   1       1.141  -1.818  -0.513  0.00  0.00     0.041 A 
ATOM      4  C3  UNL d   1       1.912  -1.305   0.547  0.00  0.00    -0.075 A 
ATOM      5  S   UNL d   1       3.632  -1.278   0.664  0.00  0.00     0.015 SA
ATOM      6  C4  UNL d   1       3.592  -0.518   2.189  0.00  0.00     0.022 A 
ATOM      7  C5  UNL d   1       2.306  -0.282   2.614  0.00  0.00     0.026 A 
ATOM      8  C6  UNL d   1       1.316  -0.732   1.675  0.00  0.00    -0.082 A 
ATOM      9  C7  UNL d   1      -0.097  -0.679   1.729  0.00  0.00     0.045 A 
ENDROOT
TORSDOF 0
ENDMDL
