MODEL 1
REMARK minimizedAffinity 9.88707733
REMARK minimizedRMSD -1
REMARK  0 active torsions:
REMARK  status: ('A' for Active; 'I' for Inactive)
ROOT
ATOM      1  C   UNL d   1      -1.548  -0.384   1.786  0.00  0.00    -0.002 A 
ATOM      2  C1  UNL d   1      -0.478   0.463   2.036  0.00  0.00     0.010 A 
ATOM      3  C2  UNL d   1       0.758   0.246   1.423  0.00  0.00     0.041 A 
ATOM      4  C3  UNL d   1       0.900  -0.846   0.544  0.00  0.00    -0.075 A 
ATOM      5  S   UNL d   1       2.319  -1.305  -0.321  0.00  0.00     0.015 SA
ATOM      6  C4  UNL d   1       1.537  -2.636  -1.044  0.00  0.00     0.022 A 
ATOM      7  C5  UNL d   1       0.226  -2.742  -0.646  0.00  0.00     0.026 A 
ATOM      8  C6  UNL d   1      -0.163  -1.712   0.275  0.00  0.00    -0.082 A 
ATOM      9  C7  UNL d   1      -1.403  -1.466   0.913  0.00  0.00     0.045 A 
ENDROOT
TORSDOF 0
ENDMDL
