MODEL 1
REMARK minimizedAffinity -3.71249413
REMARK minimizedRMSD -1
REMARK  0 active torsions:
REMARK  status: ('A' for Active; 'I' for Inactive)
ROOT
ATOM      1  C   UNL d   1      -0.217  -2.623   1.061  0.00  0.00    -0.002 A 
ATOM      2  C1  UNL d   1      -1.135  -2.738   0.026  0.00  0.00     0.010 A 
ATOM      3  C2  UNL d   1      -2.042  -1.710  -0.236  0.00  0.00     0.041 A 
ATOM      4  C3  UNL d   1      -2.010  -0.552   0.565  0.00  0.00    -0.075 A 
ATOM      5  S   UNL d   1      -3.025   0.836   0.428  0.00  0.00     0.015 SA
ATOM      6  C4  UNL d   1      -2.263   1.614   1.739  0.00  0.00     0.022 A 
ATOM      7  C5  UNL d   1      -1.258   0.849   2.280  0.00  0.00     0.026 A 
ATOM      8  C6  UNL d   1      -1.095  -0.412   1.612  0.00  0.00    -0.082 A 
ATOM      9  C7  UNL d   1      -0.189  -1.472   1.854  0.00  0.00     0.045 A 
ENDROOT
TORSDOF 0
ENDMDL
