MODEL 1
REMARK minimizedAffinity 15.3712292
REMARK minimizedRMSD -1
REMARK  0 active torsions:
REMARK  status: ('A' for Active; 'I' for Inactive)
ROOT
ATOM      1  C   UNL d   1       1.336  -2.757   0.008  0.00  0.00    -0.002 A 
ATOM      2  C1  UNL d   1       2.397  -1.871   0.135  0.00  0.00     0.010 A 
ATOM      3  C2  UNL d   1       3.715  -2.323   0.042  0.00  0.00     0.041 A 
ATOM      4  C3  UNL d   1       3.951  -3.693  -0.187  0.00  0.00    -0.075 A 
ATOM      5  S   UNL d   1       5.481  -4.472  -0.339  0.00  0.00     0.015 SA
ATOM      6  C4  UNL d   1       4.763  -5.999  -0.578  0.00  0.00     0.022 A 
ATOM      7  C5  UNL d   1       3.390  -5.934  -0.545  0.00  0.00     0.026 A 
ATOM      8  C6  UNL d   1       2.900  -4.604  -0.320  0.00  0.00    -0.082 A 
ATOM      9  C7  UNL d   1       1.575  -4.115  -0.219  0.00  0.00     0.045 A 
ENDROOT
TORSDOF 0
ENDMDL
