MODEL 1
REMARK minimizedAffinity -3.3106811
REMARK minimizedRMSD -1
REMARK  0 active torsions:
REMARK  status: ('A' for Active; 'I' for Inactive)
ROOT
ATOM      1  C   UNL d   1      -2.234   0.020  -1.439  0.00  0.00     0.078 C 
ATOM      2  C1  UNL d   1      -2.677   1.327  -2.025  0.00  0.00    -0.077 A 
ATOM      3  C2  UNL d   1      -2.491   1.609  -3.384  0.00  0.00    -0.001 A 
ATOM      4  C3  UNL d   1      -2.900   2.834  -3.913  0.00  0.00     0.003 A 
ATOM      5  C4  UNL d   1      -3.497   3.787  -3.091  0.00  0.00    -0.005 A 
ATOM      6  C5  UNL d   1      -3.685   3.517  -1.737  0.00  0.00     0.003 A 
ATOM      7  C6  UNL d   1      -3.276   2.292  -1.206  0.00  0.00    -0.001 A 
ENDROOT
TORSDOF 0
ENDMDL
