MODEL 1
REMARK minimizedAffinity -1.47428751
REMARK minimizedRMSD -1
REMARK  0 active torsions:
REMARK  status: ('A' for Active; 'I' for Inactive)
ROOT
ATOM      1  C   UNL d   1      -2.625   2.202  -2.719  0.00  0.00     0.078 C 
ATOM      2  C1  UNL d   1      -2.857   3.531  -3.373  0.00  0.00    -0.077 A 
ATOM      3  C2  UNL d   1      -3.159   4.667  -2.612  0.00  0.00    -0.001 A 
ATOM      4  C3  UNL d   1      -3.383   5.896  -3.236  0.00  0.00     0.003 A 
ATOM      5  C4  UNL d   1      -3.308   6.000  -4.623  0.00  0.00    -0.005 A 
ATOM      6  C5  UNL d   1      -3.010   4.875  -5.389  0.00  0.00     0.003 A 
ATOM      7  C6  UNL d   1      -2.786   3.645  -4.767  0.00  0.00    -0.001 A 
ENDROOT
TORSDOF 0
ENDMDL
