MODEL 1
REMARK minimizedAffinity 6.28038359
REMARK minimizedRMSD -1
REMARK  0 active torsions:
REMARK  status: ('A' for Active; 'I' for Inactive)
ROOT
ATOM      1  C   UNL d   1      -4.442   3.502  -0.658  0.00  0.00     0.078 C 
ATOM      2  C1  UNL d   1      -3.838   4.084  -1.901  0.00  0.00    -0.077 A 
ATOM      3  C2  UNL d   1      -3.777   3.343  -3.088  0.00  0.00    -0.001 A 
ATOM      4  C3  UNL d   1      -3.203   3.893  -4.235  0.00  0.00     0.003 A 
ATOM      5  C4  UNL d   1      -2.685   5.186  -4.207  0.00  0.00    -0.005 A 
ATOM      6  C5  UNL d   1      -2.739   5.931  -3.030  0.00  0.00     0.003 A 
ATOM      7  C6  UNL d   1      -3.313   5.382  -1.882  0.00  0.00    -0.001 A 
ENDROOT
TORSDOF 0
ENDMDL
