MODEL 1
REMARK minimizedAffinity -3.51005077
REMARK minimizedRMSD -1
REMARK  0 active torsions:
REMARK  status: ('A' for Active; 'I' for Inactive)
ROOT
ATOM      1  C   UNL d   1      -2.164   4.926  -4.980  0.00  0.00     0.078 C 
ATOM      2  C1  UNL d   1      -2.551   4.347  -3.651  0.00  0.00    -0.077 A 
ATOM      3  C2  UNL d   1      -2.277   3.010  -3.341  0.00  0.00    -0.001 A 
ATOM      4  C3  UNL d   1      -2.651   2.481  -2.104  0.00  0.00     0.003 A 
ATOM      5  C4  UNL d   1      -3.303   3.283  -1.169  0.00  0.00    -0.005 A 
ATOM      6  C5  UNL d   1      -3.582   4.614  -1.470  0.00  0.00     0.003 A 
ATOM      7  C6  UNL d   1      -3.209   5.145  -2.706  0.00  0.00    -0.001 A 
ENDROOT
TORSDOF 0
ENDMDL
