MODEL 1
REMARK minimizedAffinity -0.0362937786
REMARK minimizedRMSD -1
REMARK  0 active torsions:
REMARK  status: ('A' for Active; 'I' for Inactive)
ROOT
ATOM      1  C   UNL d   1      -4.066   3.046  -0.926  0.00  0.00     0.078 C 
ATOM      2  C1  UNL d   1      -3.717   3.473  -2.320  0.00  0.00    -0.077 A 
ATOM      3  C2  UNL d   1      -3.470   4.818  -2.622  0.00  0.00    -0.001 A 
ATOM      4  C3  UNL d   1      -3.156   5.202  -3.926  0.00  0.00     0.003 A 
ATOM      5  C4  UNL d   1      -3.086   4.248  -4.939  0.00  0.00    -0.005 A 
ATOM      6  C5  UNL d   1      -3.332   2.908  -4.649  0.00  0.00     0.003 A 
ATOM      7  C6  UNL d   1      -3.646   2.521  -3.345  0.00  0.00    -0.001 A 
ENDROOT
TORSDOF 0
ENDMDL
