MODEL 1
REMARK minimizedAffinity 2.08420944
REMARK minimizedRMSD -1
REMARK  0 active torsions:
REMARK  status: ('A' for Active; 'I' for Inactive)
ROOT
ATOM      1  C   UNL d   1      -1.027  -1.588   3.019  0.00  0.00     0.078 C 
ATOM      2  C1  UNL d   1      -0.173  -1.769   1.800  0.00  0.00    -0.077 A 
ATOM      3  C2  UNL d   1      -0.459  -1.087   0.612  0.00  0.00    -0.001 A 
ATOM      4  C3  UNL d   1       0.339  -1.272  -0.518  0.00  0.00     0.003 A 
ATOM      5  C4  UNL d   1       1.428  -2.140  -0.471  0.00  0.00    -0.005 A 
ATOM      6  C5  UNL d   1       1.719  -2.825   0.707  0.00  0.00     0.003 A 
ATOM      7  C6  UNL d   1       0.922  -2.641   1.838  0.00  0.00    -0.001 A 
ENDROOT
TORSDOF 0
ENDMDL
