MODEL 1
REMARK minimizedAffinity 1.54620552
REMARK minimizedRMSD -1
REMARK  0 active torsions:
REMARK  status: ('A' for Active; 'I' for Inactive)
ROOT
ATOM      1  C   UNL d   1      -0.360  -1.438   3.106  0.00  0.00     0.078 C 
ATOM      2  C1  UNL d   1       0.053  -1.708   1.690  0.00  0.00    -0.077 A 
ATOM      3  C2  UNL d   1       1.341  -2.168   1.390  0.00  0.00    -0.001 A 
ATOM      4  C3  UNL d   1       1.716  -2.406   0.066  0.00  0.00     0.003 A 
ATOM      5  C4  UNL d   1       0.809  -2.184  -0.968  0.00  0.00    -0.005 A 
ATOM      6  C5  UNL d   1      -0.474  -1.724  -0.680  0.00  0.00     0.003 A 
ATOM      7  C6  UNL d   1      -0.851  -1.486   0.643  0.00  0.00    -0.001 A 
ENDROOT
TORSDOF 0
ENDMDL
