MODEL 1
REMARK minimizedAffinity 0.770704508
REMARK minimizedRMSD -1
REMARK  0 active torsions:
REMARK  status: ('A' for Active; 'I' for Inactive)
ROOT
ATOM      1  C   UNL d   1      -4.740   2.651  -1.176  0.00  0.00     0.078 C 
ATOM      2  C1  UNL d   1      -4.086   3.469  -2.249  0.00  0.00    -0.077 A 
ATOM      3  C2  UNL d   1      -4.475   4.793  -2.485  0.00  0.00    -0.001 A 
ATOM      4  C3  UNL d   1      -3.864   5.539  -3.494  0.00  0.00     0.003 A 
ATOM      5  C4  UNL d   1      -2.861   4.970  -4.276  0.00  0.00    -0.005 A 
ATOM      6  C5  UNL d   1      -2.469   3.652  -4.051  0.00  0.00     0.003 A 
ATOM      7  C6  UNL d   1      -3.078   2.904  -3.042  0.00  0.00    -0.001 A 
ENDROOT
TORSDOF 0
ENDMDL
