MODEL 1
REMARK minimizedAffinity -2.88594651
REMARK minimizedRMSD -1
REMARK  0 active torsions:
REMARK  status: ('A' for Active; 'I' for Inactive)
ROOT
ATOM      1  C   UNL d   1      -3.545   5.125  -3.540  0.00  0.00     0.078 C 
ATOM      2  C1  UNL d   1      -2.721   3.913  -3.224  0.00  0.00    -0.077 A 
ATOM      3  C2  UNL d   1      -1.353   4.024  -2.947  0.00  0.00    -0.001 A 
ATOM      4  C3  UNL d   1      -0.596   2.886  -2.663  0.00  0.00     0.003 A 
ATOM      5  C4  UNL d   1      -1.198   1.629  -2.655  0.00  0.00    -0.005 A 
ATOM      6  C5  UNL d   1      -2.558   1.509  -2.932  0.00  0.00     0.003 A 
ATOM      7  C6  UNL d   1      -3.317   2.646  -3.215  0.00  0.00    -0.001 A 
ENDROOT
TORSDOF 0
ENDMDL
