MODEL 1
REMARK minimizedAffinity -0.607646585
REMARK minimizedRMSD -1
REMARK  0 active torsions:
REMARK  status: ('A' for Active; 'I' for Inactive)
ROOT
ATOM      1  C   UNL d   1       0.544  -2.897   0.024  0.00  0.00    -0.002 A 
ATOM      2  C1  UNL d   1      -0.114  -2.385   1.134  0.00  0.00     0.010 A 
ATOM      3  C2  UNL d   1      -0.391  -1.020   1.229  0.00  0.00     0.041 A 
ATOM      4  C3  UNL d   1       0.006  -0.169   0.178  0.00  0.00    -0.075 A 
ATOM      5  S   UNL d   1      -0.228   1.536   0.077  0.00  0.00     0.015 SA
ATOM      6  C4  UNL d   1       0.539   1.626  -1.443  0.00  0.00     0.022 A 
ATOM      7  C5  UNL d   1       0.969   0.394  -1.877  0.00  0.00     0.026 A 
ATOM      8  C6  UNL d   1       0.669  -0.661  -0.950  0.00  0.00    -0.082 A 
ATOM      9  C7  UNL d   1       0.936  -2.050  -1.016  0.00  0.00     0.045 A 
ENDROOT
TORSDOF 0
ENDMDL
