MODEL 1
REMARK minimizedAffinity -5.11851883
REMARK minimizedRMSD -1
REMARK  0 active torsions:
REMARK  status: ('A' for Active; 'I' for Inactive)
ROOT
ATOM      1  C   UNL d   1      -2.193  -2.472   1.390  0.00  0.00    -0.002 A 
ATOM      2  C1  UNL d   1      -2.651  -1.303   1.982  0.00  0.00     0.010 A 
ATOM      3  C2  UNL d   1      -2.130  -0.064   1.605  0.00  0.00     0.041 A 
ATOM      4  C3  UNL d   1      -1.132  -0.019   0.611  0.00  0.00    -0.075 A 
ATOM      5  S   UNL d   1      -0.348   1.385  -0.012  0.00  0.00     0.015 SA
ATOM      6  C4  UNL d   1       0.612   0.467  -1.079  0.00  0.00     0.022 A 
ATOM      7  C5  UNL d   1       0.355  -0.879  -0.976  0.00  0.00     0.026 A 
ATOM      8  C6  UNL d   1      -0.655  -1.182  -0.000  0.00  0.00    -0.082 A 
ATOM      9  C7  UNL d   1      -1.203  -2.423   0.405  0.00  0.00     0.045 A 
ENDROOT
TORSDOF 0
ENDMDL
