MODEL 1
REMARK minimizedAffinity -0.329630584
REMARK minimizedRMSD -1
REMARK  0 active torsions:
REMARK  status: ('A' for Active; 'I' for Inactive)
ROOT
ATOM      1  C   UNL d   1      -0.001  -2.995   0.016  0.00  0.00    -0.002 A 
ATOM      2  C1  UNL d   1       0.442  -1.879  -0.681  0.00  0.00     0.010 A 
ATOM      3  C2  UNL d   1       0.006  -0.601  -0.326  0.00  0.00     0.041 A 
ATOM      4  C3  UNL d   1      -0.890  -0.461   0.752  0.00  0.00    -0.075 A 
ATOM      5  S   UNL d   1      -1.558   1.006   1.365  0.00  0.00     0.015 SA
ATOM      6  C4  UNL d   1      -2.446   0.186   2.567  0.00  0.00     0.022 A 
ATOM      7  C5  UNL d   1      -2.250  -1.174   2.516  0.00  0.00     0.026 A 
ATOM      8  C6  UNL d   1      -1.350  -1.569   1.469  0.00  0.00    -0.082 A 
ATOM      9  C7  UNL d   1      -0.890  -2.852   1.085  0.00  0.00     0.045 A 
ENDROOT
TORSDOF 0
ENDMDL
