MODEL 1
REMARK minimizedAffinity -4.19031811
REMARK minimizedRMSD -1
REMARK  0 active torsions:
REMARK  status: ('A' for Active; 'I' for Inactive)
ROOT
ATOM      1  C   UNL d   1      -2.624  -0.644   1.872  0.00  0.00    -0.002 A 
ATOM      2  C1  UNL d   1      -1.996  -1.875   1.743  0.00  0.00     0.010 A 
ATOM      3  C2  UNL d   1      -0.826  -2.000   0.991  0.00  0.00     0.041 A 
ATOM      4  C3  UNL d   1      -0.292  -0.856   0.366  0.00  0.00    -0.075 A 
ATOM      5  S   UNL d   1       1.131  -0.771  -0.604  0.00  0.00     0.015 SA
ATOM      6  C4  UNL d   1       0.939   0.902  -0.869  0.00  0.00     0.022 A 
ATOM      7  C5  UNL d   1      -0.178   1.399  -0.241  0.00  0.00     0.026 A 
ATOM      8  C6  UNL d   1      -0.906   0.394   0.482  0.00  0.00    -0.082 A 
ATOM      9  C7  UNL d   1      -2.091   0.488   1.250  0.00  0.00     0.045 A 
ENDROOT
TORSDOF 0
ENDMDL
