MODEL 1
REMARK minimizedAffinity 0.961919546
REMARK minimizedRMSD -1
REMARK  0 active torsions:
REMARK  status: ('A' for Active; 'I' for Inactive)
ROOT
ATOM      1  C   UNL d   1       0.063  -2.251   0.206  0.00  0.00    -0.002 A 
ATOM      2  C1  UNL d   1       1.044  -1.759   1.055  0.00  0.00     0.010 A 
ATOM      3  C2  UNL d   1       1.534  -0.461   0.897  0.00  0.00     0.041 A 
ATOM      4  C3  UNL d   1       1.015   0.342  -0.137  0.00  0.00    -0.075 A 
ATOM      5  S   UNL d   1       1.463   1.963  -0.520  0.00  0.00     0.015 SA
ATOM      6  C4  UNL d   1       0.362   2.040  -1.818  0.00  0.00     0.022 A 
ATOM      7  C5  UNL d   1      -0.339   0.867  -1.971  0.00  0.00     0.026 A 
ATOM      8  C6  UNL d   1       0.026  -0.130  -1.004  0.00  0.00    -0.082 A 
ATOM      9  C7  UNL d   1      -0.450  -1.451  -0.819  0.00  0.00     0.045 A 
ENDROOT
TORSDOF 0
ENDMDL
