MODEL 1
REMARK minimizedAffinity -3.58570552
REMARK minimizedRMSD -1
REMARK  0 active torsions:
REMARK  status: ('A' for Active; 'I' for Inactive)
ROOT
ATOM      1  C   UNL d   1       0.753   1.477  -4.569  0.00  0.00    -0.002 A 
ATOM      2  C1  UNL d   1       1.383   2.457  -3.816  0.00  0.00     0.010 A 
ATOM      3  C2  UNL d   1       1.352   2.410  -2.420  0.00  0.00     0.041 A 
ATOM      4  C3  UNL d   1       0.672   1.349  -1.789  0.00  0.00    -0.075 A 
ATOM      5  S   UNL d   1       0.504   1.086  -0.094  0.00  0.00     0.015 SA
ATOM      6  C4  UNL d   1      -0.408  -0.335  -0.330  0.00  0.00     0.022 A 
ATOM      7  C5  UNL d   1      -0.589  -0.616  -1.663  0.00  0.00     0.026 A 
ATOM      8  C6  UNL d   1       0.031   0.350  -2.527  0.00  0.00    -0.082 A 
ATOM      9  C7  UNL d   1       0.080   0.426  -3.939  0.00  0.00     0.045 A 
ENDROOT
TORSDOF 0
ENDMDL
