MODEL 1
REMARK minimizedAffinity -1.19451392
REMARK minimizedRMSD -1
REMARK  0 active torsions:
REMARK  status: ('A' for Active; 'I' for Inactive)
ROOT
ATOM      1  C   UNL d   1      -0.088  -2.410   1.103  0.00  0.00    -0.002 A 
ATOM      2  C1  UNL d   1       0.949  -2.636   0.208  0.00  0.00     0.010 A 
ATOM      3  C2  UNL d   1       1.417  -1.608  -0.612  0.00  0.00     0.041 A 
ATOM      4  C3  UNL d   1       0.821  -0.335  -0.516  0.00  0.00    -0.075 A 
ATOM      5  S   UNL d   1       1.231   1.076  -1.419  0.00  0.00     0.015 SA
ATOM      6  C4  UNL d   1       0.040   2.012  -0.638  0.00  0.00     0.022 A 
ATOM      7  C5  UNL d   1      -0.662   1.283   0.292  0.00  0.00     0.026 A 
ATOM      8  C6  UNL d   1      -0.223  -0.082   0.378  0.00  0.00    -0.082 A 
ATOM      9  C7  UNL d   1      -0.676  -1.145   1.195  0.00  0.00     0.045 A 
ENDROOT
TORSDOF 0
ENDMDL
