MODEL 1
REMARK minimizedAffinity -1.87654746
REMARK minimizedRMSD -1
REMARK  0 active torsions:
REMARK  status: ('A' for Active; 'I' for Inactive)
ROOT
ATOM      1  C   UNL d   1      -1.993  -1.351   3.128  0.00  0.00    -0.002 A 
ATOM      2  C1  UNL d   1      -2.524  -0.104   2.832  0.00  0.00     0.010 A 
ATOM      3  C2  UNL d   1      -1.981   0.675   1.808  0.00  0.00     0.041 A 
ATOM      4  C3  UNL d   1      -0.886   0.173   1.078  0.00  0.00    -0.075 A 
ATOM      5  S   UNL d   1      -0.058   0.949  -0.220  0.00  0.00     0.015 SA
ATOM      6  C4  UNL d   1       1.020  -0.357  -0.413  0.00  0.00     0.022 A 
ATOM      7  C5  UNL d   1       0.768  -1.369   0.483  0.00  0.00     0.026 A 
ATOM      8  C6  UNL d   1      -0.334  -1.081   1.357  0.00  0.00    -0.082 A 
ATOM      9  C7  UNL d   1      -0.907  -1.846   2.401  0.00  0.00     0.045 A 
ENDROOT
TORSDOF 0
ENDMDL
