MODEL 1
REMARK minimizedAffinity 9.88017559
REMARK minimizedRMSD -1
REMARK  0 active torsions:
REMARK  status: ('A' for Active; 'I' for Inactive)
ROOT
ATOM      1  C2' OXE d   1      -2.640   2.697  -3.105  0.00  0.00     0.078 C 
ATOM      2  C1' OXE d   1      -0.348   3.954  -4.127  0.00  0.00     0.078 C 
ATOM      3  C1  OXE d   1      -0.326   3.517  -2.684  0.00  0.00    -0.078 A 
ATOM      4  C2  OXE d   1      -1.469   2.945  -2.179  0.00  0.00    -0.078 A 
ATOM      5  C3  OXE d   1      -1.483   2.473  -0.869  0.00  0.00     0.003 A 
ATOM      6  C4  OXE d   1      -0.399   2.715  -0.017  0.00  0.00    -0.002 A 
ATOM      7  C5  OXE d   1       0.760   3.332  -0.500  0.00  0.00    -0.002 A 
ATOM      8  C6  OXE d   1       0.829   3.699  -1.839  0.00  0.00     0.003 A 
ENDROOT
TORSDOF 0
ENDMDL
