MODEL 1
REMARK minimizedAffinity 10.0731888
REMARK minimizedRMSD -1
REMARK  0 active torsions:
REMARK  status: ('A' for Active; 'I' for Inactive)
ROOT
ATOM      1  C2' OXE d   1      -1.454   3.378  -3.392  0.00  0.00     0.078 C 
ATOM      2  C1' OXE d   1       1.094   3.351  -2.213  0.00  0.00     0.078 C 
ATOM      3  C1  OXE d   1       0.860   4.300  -3.362  0.00  0.00    -0.078 A 
ATOM      4  C2  OXE d   1      -0.376   4.273  -3.963  0.00  0.00    -0.078 A 
ATOM      5  C3  OXE d   1      -0.661   5.167  -4.991  0.00  0.00     0.003 A 
ATOM      6  C4  OXE d   1       0.345   5.985  -5.519  0.00  0.00    -0.002 A 
ATOM      7  C5  OXE d   1       1.621   5.999  -4.948  0.00  0.00    -0.002 A 
ATOM      8  C6  OXE d   1       1.883   5.196  -3.843  0.00  0.00     0.003 A 
ENDROOT
TORSDOF 0
ENDMDL
