MODEL 1
REMARK minimizedAffinity 14.8604364
REMARK minimizedRMSD -1
REMARK  0 active torsions:
REMARK  status: ('A' for Active; 'I' for Inactive)
ROOT
ATOM      1  C2' OXE d   1      -1.862   3.395  -3.150  0.00  0.00     0.078 C 
ATOM      2  C1' OXE d   1       0.359   3.340  -1.435  0.00  0.00     0.078 C 
ATOM      3  C1  OXE d   1       0.393   4.298  -2.600  0.00  0.00    -0.078 A 
ATOM      4  C2  OXE d   1      -0.678   4.285  -3.460  0.00  0.00    -0.078 A 
ATOM      5  C3  OXE d   1      -0.722   5.187  -4.519  0.00  0.00     0.003 A 
ATOM      6  C4  OXE d   1       0.382   6.000  -4.805  0.00  0.00    -0.002 A 
ATOM      7  C5  OXE d   1       1.500   6.000  -3.964  0.00  0.00    -0.002 A 
ATOM      8  C6  OXE d   1       1.504   5.188  -2.835  0.00  0.00     0.003 A 
ENDROOT
TORSDOF 0
ENDMDL
