MODEL 1
REMARK minimizedAffinity 12.4438725
REMARK minimizedRMSD -1
REMARK  0 active torsions:
REMARK  status: ('A' for Active; 'I' for Inactive)
ROOT
ATOM      1  C2' OXE d   1       1.324  -3.230  -3.246  0.00  0.00     0.078 C 
ATOM      2  C1' OXE d   1       1.984  -5.549  -1.809  0.00  0.00     0.078 C 
ATOM      3  C1  OXE d   1       1.789  -4.272  -1.032  0.00  0.00    -0.078 A 
ATOM      4  C2  OXE d   1       1.512  -3.132  -1.748  0.00  0.00    -0.078 A 
ATOM      5  C3  OXE d   1       1.270  -1.937  -1.075  0.00  0.00     0.003 A 
ATOM      6  C4  OXE d   1       1.456  -1.853   0.310  0.00  0.00    -0.002 A 
ATOM      7  C5  OXE d   1       1.777  -2.994   1.053  0.00  0.00    -0.002 A 
ATOM      8  C6  OXE d   1       1.905  -4.217   0.404  0.00  0.00     0.003 A 
ENDROOT
TORSDOF 0
ENDMDL
