MODEL 1
REMARK minimizedAffinity 15.0090952
REMARK minimizedRMSD -1
REMARK  0 active torsions:
REMARK  status: ('A' for Active; 'I' for Inactive)
ROOT
ATOM      1  C2' OXE d   1       1.972   5.013   1.726  0.00  0.00     0.078 C 
ATOM      2  C1' OXE d   1       1.189   3.401   3.886  0.00  0.00     0.078 C 
ATOM      3  C1  OXE d   1       0.625   3.076   2.526  0.00  0.00    -0.078 A 
ATOM      4  C2  OXE d   1       0.977   3.899   1.483  0.00  0.00    -0.078 A 
ATOM      5  C3  OXE d   1       0.528   3.612   0.197  0.00  0.00     0.003 A 
ATOM      6  C4  OXE d   1      -0.400   2.586  -0.017  0.00  0.00    -0.002 A 
ATOM      7  C5  OXE d   1      -0.803   1.761   1.038  0.00  0.00    -0.002 A 
ATOM      8  C6  OXE d   1      -0.268   1.965   2.305  0.00  0.00     0.003 A 
ENDROOT
TORSDOF 0
ENDMDL
