MODEL 1
REMARK minimizedAffinity 12.2790575
REMARK minimizedRMSD -1
REMARK  0 active torsions:
REMARK  status: ('A' for Active; 'I' for Inactive)
ROOT
ATOM      1  C2' OXE d   1      -1.982   5.908   0.473  0.00  0.00     0.078 C 
ATOM      2  C1' OXE d   1      -4.184   5.874  -1.267  0.00  0.00     0.078 C 
ATOM      3  C1  OXE d   1      -4.460   5.928   0.214  0.00  0.00    -0.078 A 
ATOM      4  C2  OXE d   1      -3.377   5.897   1.060  0.00  0.00    -0.078 A 
ATOM      5  C3  OXE d   1      -3.573   6.000   2.435  0.00  0.00     0.003 A 
ATOM      6  C4  OXE d   1      -4.867   5.979   2.970  0.00  0.00    -0.002 A 
ATOM      7  C5  OXE d   1      -5.984   5.971   2.127  0.00  0.00    -0.002 A 
ATOM      8  C6  OXE d   1      -5.798   5.988   0.749  0.00  0.00     0.003 A 
ENDROOT
TORSDOF 0
ENDMDL
