MODEL 1
REMARK minimizedAffinity 14.0531397
REMARK minimizedRMSD -1
REMARK  0 active torsions:
REMARK  status: ('A' for Active; 'I' for Inactive)
ROOT
ATOM      1  C2' OXE d   1       0.784   4.252  -2.998  0.00  0.00     0.078 C 
ATOM      2  C1' OXE d   1      -1.651   3.002  -3.622  0.00  0.00     0.078 C 
ATOM      3  C1  OXE d   1      -1.073   2.770  -2.249  0.00  0.00    -0.078 A 
ATOM      4  C2  OXE d   1       0.142   3.348  -1.968  0.00  0.00    -0.078 A 
ATOM      5  C3  OXE d   1       0.693   3.212  -0.698  0.00  0.00     0.003 A 
ATOM      6  C4  OXE d   1       0.098   2.366   0.246  0.00  0.00    -0.002 A 
ATOM      7  C5  OXE d   1      -1.119   1.736  -0.033  0.00  0.00    -0.002 A 
ATOM      8  C6  OXE d   1      -1.738   1.961  -1.258  0.00  0.00     0.003 A 
ENDROOT
TORSDOF 0
ENDMDL
