MODEL 1
REMARK minimizedAffinity 14.161067
REMARK minimizedRMSD -1
REMARK  0 active torsions:
REMARK  status: ('A' for Active; 'I' for Inactive)
ROOT
ATOM      1  C2' OXE d   1       2.100  -1.234  -5.991  0.00  0.00     0.078 C 
ATOM      2  C1' OXE d   1       0.640  -3.631  -5.997  0.00  0.00     0.078 C 
ATOM      3  C1  OXE d   1       1.025  -3.046  -4.661  0.00  0.00    -0.078 A 
ATOM      4  C2  OXE d   1       1.780  -1.897  -4.669  0.00  0.00    -0.078 A 
ATOM      5  C3  OXE d   1       2.116  -1.285  -3.465  0.00  0.00     0.003 A 
ATOM      6  C4  OXE d   1       1.825  -1.910  -2.247  0.00  0.00    -0.002 A 
ATOM      7  C5  OXE d   1       1.092  -3.101  -2.217  0.00  0.00    -0.002 A 
ATOM      8  C6  OXE d   1       0.648  -3.658  -3.411  0.00  0.00     0.003 A 
ENDROOT
TORSDOF 0
ENDMDL
