MODEL 1
REMARK minimizedAffinity 15.6245642
REMARK minimizedRMSD -1
REMARK  0 active torsions:
REMARK  status: ('A' for Active; 'I' for Inactive)
ROOT
ATOM      1  C2' OXE d   1       0.392  -0.853  -5.931  0.00  0.00     0.078 C 
ATOM      2  C1' OXE d   1       0.785  -3.633  -5.933  0.00  0.00     0.078 C 
ATOM      3  C1  OXE d   1       2.007  -2.750  -5.940  0.00  0.00    -0.078 A 
ATOM      4  C2  OXE d   1       1.806  -1.391  -5.986  0.00  0.00    -0.078 A 
ATOM      5  C3  OXE d   1       2.898  -0.530  -5.939  0.00  0.00     0.003 A 
ATOM      6  C4  OXE d   1       4.203  -1.036  -6.000  0.00  0.00    -0.002 A 
ATOM      7  C5  OXE d   1       4.430  -2.416  -5.994  0.00  0.00    -0.002 A 
ATOM      8  C6  OXE d   1       3.346  -3.285  -5.921  0.00  0.00     0.003 A 
ENDROOT
TORSDOF 0
ENDMDL
