MODEL 1
REMARK minimizedAffinity 13.2987766
REMARK minimizedRMSD -1
REMARK  0 active torsions:
REMARK  status: ('A' for Active; 'I' for Inactive)
ROOT
ATOM      1  C2' OXE d   1      -1.367   1.360   2.920  0.00  0.00     0.078 C 
ATOM      2  C1' OXE d   1       1.315   2.188   2.929  0.00  0.00     0.078 C 
ATOM      3  C1  OXE d   1       0.482   2.514   1.714  0.00  0.00    -0.078 A 
ATOM      4  C2  OXE d   1      -0.816   2.064   1.699  0.00  0.00    -0.078 A 
ATOM      5  C3  OXE d   1      -1.644   2.384   0.627  0.00  0.00     0.003 A 
ATOM      6  C4  OXE d   1      -1.124   3.027  -0.503  0.00  0.00    -0.002 A 
ATOM      7  C5  OXE d   1       0.206   3.459  -0.525  0.00  0.00    -0.002 A 
ATOM      8  C6  OXE d   1       1.009   3.248   0.591  0.00  0.00     0.003 A 
ENDROOT
TORSDOF 0
ENDMDL
