MODEL 1
REMARK minimizedAffinity 20.8898315
REMARK minimizedRMSD -1
REMARK  0 active torsions:
REMARK  status: ('A' for Active; 'I' for Inactive)
ROOT
ATOM      1  C2' OXE d   1       0.029   5.999  -5.474  0.00  0.00     0.078 C 
ATOM      2  C1' OXE d   1       2.207   5.999  -3.703  0.00  0.00     0.078 C 
ATOM      3  C1  OXE d   1       1.073   5.046  -3.423  0.00  0.00    -0.078 A 
ATOM      4  C2  OXE d   1      -0.010   5.085  -4.268  0.00  0.00    -0.078 A 
ATOM      5  C3  OXE d   1      -1.059   4.189  -4.087  0.00  0.00     0.003 A 
ATOM      6  C4  OXE d   1      -1.092   3.354  -2.963  0.00  0.00    -0.002 A 
ATOM      7  C5  OXE d   1      -0.017   3.326  -2.068  0.00  0.00    -0.002 A 
ATOM      8  C6  OXE d   1       1.089   4.133  -2.306  0.00  0.00     0.003 A 
ENDROOT
TORSDOF 0
ENDMDL
