MODEL 1
REMARK minimizedAffinity 26.3761196
REMARK minimizedRMSD -1
REMARK  0 active torsions:
REMARK  status: ('A' for Active; 'I' for Inactive)
ROOT
ATOM      1  C2' OXE d   1      -1.350   3.205  -3.050  0.00  0.00     0.078 C 
ATOM      2  C1' OXE d   1       1.361   3.457  -2.369  0.00  0.00     0.078 C 
ATOM      3  C1  OXE d   1       0.433   2.849  -1.348  0.00  0.00    -0.078 A 
ATOM      4  C2  OXE d   1      -0.900   2.772  -1.671  0.00  0.00    -0.078 A 
ATOM      5  C3  OXE d   1      -1.790   2.170  -0.787  0.00  0.00     0.003 A 
ATOM      6  C4  OXE d   1      -1.368   1.781   0.490  0.00  0.00    -0.002 A 
ATOM      7  C5  OXE d   1      -0.021   1.887   0.855  0.00  0.00    -0.002 A 
ATOM      8  C6  OXE d   1       0.898   2.378  -0.066  0.00  0.00     0.003 A 
ENDROOT
TORSDOF 0
ENDMDL
