MODEL 1
REMARK minimizedAffinity 16.5665703
REMARK minimizedRMSD -1
REMARK  0 active torsions:
REMARK  status: ('A' for Active; 'I' for Inactive)
ROOT
ATOM      1  C2' OXE d   1       0.086  -3.622  -6.000  0.00  0.00     0.078 C 
ATOM      2  C1' OXE d   1       2.297  -1.893  -6.000  0.00  0.00     0.078 C 
ATOM      3  C1  OXE d   1       2.248  -2.972  -4.947  0.00  0.00    -0.078 A 
ATOM      4  C2  OXE d   1       1.140  -3.784  -4.926  0.00  0.00    -0.078 A 
ATOM      5  C3  OXE d   1       1.069  -4.830  -4.010  0.00  0.00     0.003 A 
ATOM      6  C4  OXE d   1       2.043  -4.966  -3.014  0.00  0.00    -0.002 A 
ATOM      7  C5  OXE d   1       3.161  -4.125  -2.993  0.00  0.00    -0.002 A 
ATOM      8  C6  OXE d   1       3.299  -3.152  -3.976  0.00  0.00     0.003 A 
ENDROOT
TORSDOF 0
ENDMDL
