MODEL 1
REMARK minimizedAffinity 11.7477484
REMARK minimizedRMSD -1
REMARK  0 active torsions:
REMARK  status: ('A' for Active; 'I' for Inactive)
ROOT
ATOM      1  C2' OXE d   1       1.494  -2.621  -2.961  0.00  0.00     0.078 C 
ATOM      2  C1' OXE d   1       2.115  -4.997  -1.600  0.00  0.00     0.078 C 
ATOM      3  C1  OXE d   1       1.992  -3.732  -0.787  0.00  0.00    -0.078 A 
ATOM      4  C2  OXE d   1       1.734  -2.566  -1.467  0.00  0.00    -0.078 A 
ATOM      5  C3  OXE d   1       1.557  -1.381  -0.760  0.00  0.00     0.003 A 
ATOM      6  C4  OXE d   1       1.791  -1.337   0.620  0.00  0.00    -0.002 A 
ATOM      7  C5  OXE d   1       2.093  -2.506   1.326  0.00  0.00    -0.002 A 
ATOM      8  C6  OXE d   1       2.156  -3.717   0.645  0.00  0.00     0.003 A 
ENDROOT
TORSDOF 0
ENDMDL
