MODEL 1
REMARK minimizedAffinity 4.66014719
REMARK minimizedRMSD -1
REMARK  0 active torsions:
REMARK  status: ('A' for Active; 'I' for Inactive)
ROOT
ATOM      1  C2' OXE d   1      -5.976  -4.233  -0.000  0.00  0.00     0.078 C 
ATOM      2  C1' OXE d   1      -4.905  -2.030   1.371  0.00  0.00     0.078 C 
ATOM      3  C1  OXE d   1      -5.194  -3.280   2.164  0.00  0.00    -0.078 A 
ATOM      4  C2  OXE d   1      -5.761  -4.337   1.494  0.00  0.00    -0.078 A 
ATOM      5  C3  OXE d   1      -5.997  -5.533   2.167  0.00  0.00     0.003 A 
ATOM      6  C4  OXE d   1      -5.804  -5.617   3.551  0.00  0.00    -0.002 A 
ATOM      7  C5  OXE d   1      -5.264  -4.538   4.260  0.00  0.00    -0.002 A 
ATOM      8  C6  OXE d   1      -4.914  -3.380   3.575  0.00  0.00     0.003 A 
ENDROOT
TORSDOF 0
ENDMDL
