MODEL 1
REMARK minimizedAffinity 14.9620905
REMARK minimizedRMSD -1
REMARK  0 active torsions:
REMARK  status: ('A' for Active; 'I' for Inactive)
ROOT
ATOM      1  C2' OXE d   1       1.052   4.861   0.282  0.00  0.00     0.078 C 
ATOM      2  C1' OXE d   1      -0.352   2.430   0.335  0.00  0.00     0.078 C 
ATOM      3  C1  OXE d   1      -0.371   3.226  -0.947  0.00  0.00    -0.078 A 
ATOM      4  C2  OXE d   1       0.280   4.436  -0.949  0.00  0.00    -0.078 A 
ATOM      5  C3  OXE d   1       0.341   5.184  -2.122  0.00  0.00     0.003 A 
ATOM      6  C4  OXE d   1      -0.384   4.788  -3.253  0.00  0.00    -0.002 A 
ATOM      7  C5  OXE d   1      -1.086   3.578  -3.259  0.00  0.00    -0.002 A 
ATOM      8  C6  OXE d   1      -1.055   2.767  -2.130  0.00  0.00     0.003 A 
ENDROOT
TORSDOF 0
ENDMDL
