MODEL 1
REMARK minimizedAffinity 17.518589
REMARK minimizedRMSD -1
REMARK  0 active torsions:
REMARK  status: ('A' for Active; 'I' for Inactive)
ROOT
ATOM      1  C2' OXE d   1       0.671  -3.670  -3.209  0.00  0.00     0.078 C 
ATOM      2  C1' OXE d   1       1.839  -5.583  -1.518  0.00  0.00     0.078 C 
ATOM      3  C1  OXE d   1       1.592  -4.205  -0.957  0.00  0.00    -0.078 A 
ATOM      4  C2  OXE d   1       1.064  -3.262  -1.805  0.00  0.00    -0.078 A 
ATOM      5  C3  OXE d   1       0.766  -1.990  -1.323  0.00  0.00     0.003 A 
ATOM      6  C4  OXE d   1       1.141  -1.618  -0.026  0.00  0.00    -0.002 A 
ATOM      7  C5  OXE d   1       1.717  -2.552   0.842  0.00  0.00    -0.002 A 
ATOM      8  C6  OXE d   1       1.910  -3.859   0.407  0.00  0.00     0.003 A 
ENDROOT
TORSDOF 0
ENDMDL
