MODEL 1
REMARK minimizedAffinity 11.5626144
REMARK minimizedRMSD -1
REMARK  0 active torsions:
REMARK  status: ('A' for Active; 'I' for Inactive)
ROOT
ATOM      1  C2' OXE d   1      -0.186   1.755   0.300  0.00  0.00     0.078 C 
ATOM      2  C1' OXE d   1       1.161   2.595  -2.015  0.00  0.00     0.078 C 
ATOM      3  C1  OXE d   1       0.466   3.645  -1.185  0.00  0.00    -0.078 A 
ATOM      4  C2  OXE d   1      -0.230   3.219  -0.079  0.00  0.00    -0.078 A 
ATOM      5  C3  OXE d   1      -0.843   4.153   0.751  0.00  0.00     0.003 A 
ATOM      6  C4  OXE d   1      -0.888   5.504   0.387  0.00  0.00    -0.002 A 
ATOM      7  C5  OXE d   1      -0.219   5.954  -0.756  0.00  0.00    -0.002 A 
ATOM      8  C6  OXE d   1       0.497   5.046  -1.528  0.00  0.00     0.003 A 
ENDROOT
TORSDOF 0
ENDMDL
