MODEL 1
REMARK minimizedAffinity 7.49920654
REMARK minimizedRMSD -1
REMARK  0 active torsions:
REMARK  status: ('A' for Active; 'I' for Inactive)
ROOT
ATOM      1  C2' OXE d   1      -2.104   1.437   0.380  0.00  0.00     0.078 C 
ATOM      2  C1' OXE d   1       0.571   1.542   1.225  0.00  0.00     0.078 C 
ATOM      3  C1  OXE d   1       0.151   2.458   0.102  0.00  0.00    -0.078 A 
ATOM      4  C2  OXE d   1      -1.148   2.366  -0.336  0.00  0.00    -0.078 A 
ATOM      5  C3  OXE d   1      -1.601   3.226  -1.332  0.00  0.00     0.003 A 
ATOM      6  C4  OXE d   1      -0.708   4.076  -1.996  0.00  0.00    -0.002 A 
ATOM      7  C5  OXE d   1       0.629   4.156  -1.592  0.00  0.00    -0.002 A 
ATOM      8  C6  OXE d   1       1.064   3.386  -0.519  0.00  0.00     0.003 A 
ENDROOT
TORSDOF 0
ENDMDL
