MODEL 1
REMARK minimizedAffinity 17.0428009
REMARK minimizedRMSD -1
REMARK  1 active torsions:
REMARK  status: ('A' for Active; 'I' for Inactive)
REMARK    1  A    between atoms: C1_2  and  C2_3 
ROOT
ATOM      1  C2  UNL d   1       2.289  -1.781  -1.306  0.00  0.00    -0.081 A 
ATOM      2  C3  UNL d   1       2.456  -0.559  -1.969  0.00  0.00     0.006 A 
ATOM      3  C4  UNL d   1       2.771   0.598  -1.252  0.00  0.00     0.002 A 
ATOM      4  C5  UNL d   1       2.932   0.551   0.137  0.00  0.00    -0.080 A 
ATOM      5  C6  UNL d   1       3.300   1.780   0.914  0.00  0.00     0.076 C 
ATOM      6  C7  UNL d   1       2.748  -0.666   0.801  0.00  0.00     0.002 A 
ATOM      7  C8  UNL d   1       2.433  -1.823   0.085  0.00  0.00     0.006 A 
ENDROOT
BRANCH   1   8
ATOM      8  C1  UNL d   1       2.013  -3.042  -2.084  0.00  0.00     0.054 C 
ATOM      9  C   UNL d   1       2.570  -2.955  -3.497  0.00  0.00     0.018 C 
ENDBRANCH   1   8
TORSDOF 1
ENDMDL
