MODEL 1
REMARK minimizedAffinity 9.40969753
REMARK minimizedRMSD -1
REMARK  1 active torsions:
REMARK  status: ('A' for Active; 'I' for Inactive)
REMARK    1  A    between atoms: C1_2  and  C2_3 
ROOT
ATOM      1  C2  UNL d   1       4.134   1.233   0.120  0.00  0.00    -0.081 A 
ATOM      2  C3  UNL d   1       4.019   0.098   0.934  0.00  0.00     0.006 A 
ATOM      3  C4  UNL d   1       3.366  -1.045   0.466  0.00  0.00     0.002 A 
ATOM      4  C5  UNL d   1       2.826  -1.076  -0.824  0.00  0.00    -0.080 A 
ATOM      5  C6  UNL d   1       2.149  -2.307  -1.349  0.00  0.00     0.076 C 
ATOM      6  C7  UNL d   1       2.926   0.063  -1.630  0.00  0.00     0.002 A 
ATOM      7  C8  UNL d   1       3.577   1.207  -1.163  0.00  0.00     0.006 A 
ENDROOT
BRANCH   1   8
ATOM      8  C1  UNL d   1       4.894   2.444   0.598  0.00  0.00     0.054 C 
ATOM      9  C   UNL d   1       4.322   2.976   1.904  0.00  0.00     0.018 C 
ENDBRANCH   1   8
TORSDOF 1
ENDMDL
