MODEL 1
REMARK minimizedAffinity 5.75969267
REMARK minimizedRMSD -1
REMARK  1 active torsions:
REMARK  status: ('A' for Active; 'I' for Inactive)
REMARK    1  A    between atoms: C1_2  and  C2_3 
ROOT
ATOM      1  C2  UNL d   1       3.549   1.529  -1.183  0.00  0.00    -0.081 A 
ATOM      2  C3  UNL d   1       4.311   1.438  -0.011  0.00  0.00     0.006 A 
ATOM      3  C4  UNL d   1       4.081   0.408   0.904  0.00  0.00     0.002 A 
ATOM      4  C5  UNL d   1       3.094  -0.552   0.660  0.00  0.00    -0.080 A 
ATOM      5  C6  UNL d   1       2.858  -1.680   1.619  0.00  0.00     0.076 C 
ATOM      6  C7  UNL d   1       2.321  -0.451  -0.502  0.00  0.00     0.002 A 
ATOM      7  C8  UNL d   1       2.549   0.579  -1.418  0.00  0.00     0.006 A 
ENDROOT
BRANCH   1   8
ATOM      8  C1  UNL d   1       3.837   2.601  -2.203  0.00  0.00     0.054 C 
ATOM      9  C   UNL d   1       5.311   2.982  -2.204  0.00  0.00     0.018 C 
ENDBRANCH   1   8
TORSDOF 1
ENDMDL
