MODEL 1
REMARK minimizedAffinity 10.0190516
REMARK minimizedRMSD -1
REMARK  1 active torsions:
REMARK  status: ('A' for Active; 'I' for Inactive)
REMARK    1  A    between atoms: C1_2  and  C2_3 
ROOT
ATOM      1  C2  UNL d   1      -4.324   3.758   2.017  0.00  0.00    -0.081 A 
ATOM      2  C3  UNL d   1      -4.337   4.140   0.670  0.00  0.00     0.006 A 
ATOM      3  C4  UNL d   1      -4.192   3.185  -0.339  0.00  0.00     0.002 A 
ATOM      4  C5  UNL d   1      -4.039   1.832  -0.019  0.00  0.00    -0.080 A 
ATOM      5  C6  UNL d   1      -3.913   0.793  -1.093  0.00  0.00     0.076 C 
ATOM      6  C7  UNL d   1      -4.008   1.452   1.327  0.00  0.00     0.002 A 
ATOM      7  C8  UNL d   1      -4.152   2.406   2.336  0.00  0.00     0.006 A 
ENDROOT
BRANCH   1   8
ATOM      8  C1  UNL d   1      -4.545   4.777   3.106  0.00  0.00     0.054 C 
ATOM      9  C   UNL d   1      -5.989   4.770   3.585  0.00  0.00     0.018 C 
ENDBRANCH   1   8
TORSDOF 1
ENDMDL
