MODEL 1
REMARK minimizedAffinity 14.3305387
REMARK minimizedRMSD -1
REMARK  1 active torsions:
REMARK  status: ('A' for Active; 'I' for Inactive)
REMARK    1  A    between atoms: C1_2  and  C2_3 
ROOT
ATOM      1  C2  UNL d   1       2.329  -1.121  -0.939  0.00  0.00    -0.081 A 
ATOM      2  C3  UNL d   1       2.816  -1.248   0.368  0.00  0.00     0.006 A 
ATOM      3  C4  UNL d   1       3.112  -0.114   1.127  0.00  0.00     0.002 A 
ATOM      4  C5  UNL d   1       2.918   1.166   0.595  0.00  0.00    -0.080 A 
ATOM      5  C6  UNL d   1       3.203   2.392   1.410  0.00  0.00     0.076 C 
ATOM      6  C7  UNL d   1       2.448   1.293  -0.716  0.00  0.00     0.002 A 
ATOM      7  C8  UNL d   1       2.153   0.159  -1.476  0.00  0.00     0.006 A 
ENDROOT
BRANCH   1   8
ATOM      8  C1  UNL d   1       1.948  -2.342  -1.737  0.00  0.00     0.054 C 
ATOM      9  C   UNL d   1       2.401  -2.220  -3.185  0.00  0.00     0.018 C 
ENDBRANCH   1   8
TORSDOF 1
ENDMDL
