MODEL 1
REMARK minimizedAffinity 1.56003892
REMARK minimizedRMSD -1
REMARK  1 active torsions:
REMARK  status: ('A' for Active; 'I' for Inactive)
REMARK    1  A    between atoms: C1_2  and  C2_3 
ROOT
ATOM      1  C2  UNL d   1      -5.927   4.876   4.147  0.00  0.00    -0.081 A 
ATOM      2  C3  UNL d   1      -5.758   3.517   4.438  0.00  0.00     0.006 A 
ATOM      3  C4  UNL d   1      -5.632   2.582   3.408  0.00  0.00     0.002 A 
ATOM      4  C5  UNL d   1      -5.664   2.991   2.071  0.00  0.00    -0.080 A 
ATOM      5  C6  UNL d   1      -5.499   2.001   0.956  0.00  0.00     0.076 C 
ATOM      6  C7  UNL d   1      -5.850   4.346   1.779  0.00  0.00     0.002 A 
ATOM      7  C8  UNL d   1      -5.977   5.282   2.808  0.00  0.00     0.006 A 
ENDROOT
BRANCH   1   8
ATOM      8  C1  UNL d   1      -5.999   5.895   5.255  0.00  0.00     0.054 C 
ATOM      9  C   UNL d   1      -4.675   5.997   6.000  0.00  0.00     0.018 C 
ENDBRANCH   1   8
TORSDOF 1
ENDMDL
