MODEL 1
REMARK minimizedAffinity -0.431279868
REMARK minimizedRMSD -1
REMARK  1 active torsions:
REMARK  status: ('A' for Active; 'I' for Inactive)
REMARK    1  A    between atoms: C1_2  and  C2_3 
ROOT
ATOM      1  C2  UNL d   1       4.453   3.737   5.120  0.00  0.00    -0.081 A 
ATOM      2  C3  UNL d   1       4.163   3.717   3.751  0.00  0.00     0.006 A 
ATOM      3  C4  UNL d   1       3.057   3.012   3.271  0.00  0.00     0.002 A 
ATOM      4  C5  UNL d   1       2.218   2.322   4.153  0.00  0.00    -0.080 A 
ATOM      5  C6  UNL d   1       1.010   1.586   3.655  0.00  0.00     0.076 C 
ATOM      6  C7  UNL d   1       2.518   2.327   5.520  0.00  0.00     0.002 A 
ATOM      7  C8  UNL d   1       3.624   3.032   6.000  0.00  0.00     0.006 A 
ENDROOT
BRANCH   1   8
ATOM      8  C1  UNL d   1       5.608   4.550   5.648  0.00  0.00     0.054 C 
ATOM      9  C   UNL d   1       5.173   5.965   6.000  0.00  0.00     0.018 C 
ENDBRANCH   1   8
TORSDOF 1
ENDMDL
