MODEL 1
REMARK minimizedAffinity 8.77631187
REMARK minimizedRMSD -1
REMARK  1 active torsions:
REMARK  status: ('A' for Active; 'I' for Inactive)
REMARK    1  A    between atoms: C3_4  and  O_7 
ROOT
ATOM      1  C   UNL d   1      -0.007   1.422   2.486  0.00  0.00    -0.033 A 
ATOM      2  C1  UNL d   1       0.306   1.375   3.846  0.00  0.00     0.039 A 
ATOM      3  C2  UNL d   1       0.783   0.192   4.414  0.00  0.00    -0.080 A 
ATOM      4  C3  UNL d   1       0.943  -0.935   3.612  0.00  0.00     0.150 A 
ATOM      5  C4  UNL d   1       0.636  -0.894   2.256  0.00  0.00    -0.007 A 
ATOM      6  C5  UNL d   1       0.159   0.288   1.691  0.00  0.00     0.039 A 
ENDROOT
BRANCH   4   7
ATOM      7  O   UNL d   1       1.401  -2.113   4.123  0.00  0.00    -0.526 OA
ATOM      8  H5  UNL d   1       1.544  -2.000   5.077  0.00  0.00     0.418 HD
ENDBRANCH   4   7
TORSDOF 1
ENDMDL
