MODEL 1
REMARK minimizedAffinity 6.28462791
REMARK minimizedRMSD -1
REMARK  1 active torsions:
REMARK  status: ('A' for Active; 'I' for Inactive)
REMARK    1  A    between atoms: C3_4  and  O_7 
ROOT
ATOM      1  C   UNL d   1       1.241  -0.937  -5.290  0.00  0.00    -0.033 A 
ATOM      2  C1  UNL d   1       0.555  -2.120  -5.571  0.00  0.00     0.039 A 
ATOM      3  C2  UNL d   1      -0.665  -2.387  -4.946  0.00  0.00    -0.080 A 
ATOM      4  C3  UNL d   1      -1.187  -1.463  -4.045  0.00  0.00     0.150 A 
ATOM      5  C4  UNL d   1      -0.511  -0.281  -3.763  0.00  0.00    -0.007 A 
ATOM      6  C5  UNL d   1       0.708  -0.017  -4.387  0.00  0.00     0.039 A 
ENDROOT
BRANCH   4   7
ATOM      7  O   UNL d   1      -2.372  -1.682  -3.407  0.00  0.00    -0.526 OA
ATOM      8  H5  UNL d   1      -2.712  -2.551  -3.678  0.00  0.00     0.418 HD
ENDBRANCH   4   7
TORSDOF 1
ENDMDL
