MODEL 1
REMARK minimizedAffinity 6.54971218
REMARK minimizedRMSD -1
REMARK  1 active torsions:
REMARK  status: ('A' for Active; 'I' for Inactive)
REMARK    1  A    between atoms: C3_4  and  O_7 
ROOT
ATOM      1  C   UNL d   1       3.886   0.355  -5.306  0.00  0.00    -0.033 A 
ATOM      2  C1  UNL d   1       5.272   0.361  -5.139  0.00  0.00     0.039 A 
ATOM      3  C2  UNL d   1       5.999   1.531  -5.367  0.00  0.00    -0.080 A 
ATOM      4  C3  UNL d   1       5.329   2.686  -5.760  0.00  0.00     0.150 A 
ATOM      5  C4  UNL d   1       3.947   2.688  -5.925  0.00  0.00    -0.007 A 
ATOM      6  C5  UNL d   1       3.223   1.518  -5.698  0.00  0.00     0.039 A 
ENDROOT
BRANCH   4   7
ATOM      7  O   UNL d   1       5.996   3.851  -5.999  0.00  0.00    -0.526 OA
ATOM      8  H5  UNL d   1       6.946   3.693  -5.873  0.00  0.00     0.418 HD
ENDBRANCH   4   7
TORSDOF 1
ENDMDL
