MODEL 1
REMARK minimizedAffinity 1.34967649
REMARK minimizedRMSD -1
REMARK  1 active torsions:
REMARK  status: ('A' for Active; 'I' for Inactive)
REMARK    1  A    between atoms: C3_4  and  O_7 
ROOT
ATOM      1  C   UNL d   1       4.250   1.858   3.256  0.00  0.00    -0.033 A 
ATOM      2  C1  UNL d   1       4.573   2.514   4.446  0.00  0.00     0.039 A 
ATOM      3  C2  UNL d   1       4.600   3.909   4.492  0.00  0.00    -0.080 A 
ATOM      4  C3  UNL d   1       4.303   4.636   3.342  0.00  0.00     0.150 A 
ATOM      5  C4  UNL d   1       3.976   3.990   2.155  0.00  0.00    -0.007 A 
ATOM      6  C5  UNL d   1       3.950   2.596   2.111  0.00  0.00     0.039 A 
ENDROOT
BRANCH   4   7
ATOM      7  O   UNL d   1       4.321   5.999   3.337  0.00  0.00    -0.526 OA
ATOM      8  H5  UNL d   1       4.591   6.307   4.218  0.00  0.00     0.418 HD
ENDBRANCH   4   7
TORSDOF 1
ENDMDL
