MODEL 1
REMARK minimizedAffinity 12.2609091
REMARK minimizedRMSD -1
REMARK  1 active torsions:
REMARK  status: ('A' for Active; 'I' for Inactive)
REMARK    1  A    between atoms: C3_4  and  O_7 
ROOT
ATOM      1  C   UNL d   1       4.239   0.339  -5.250  0.00  0.00    -0.033 A 
ATOM      2  C1  UNL d   1       3.633   1.396  -4.567  0.00  0.00     0.039 A 
ATOM      3  C2  UNL d   1       4.210   2.667  -4.593  0.00  0.00    -0.080 A 
ATOM      4  C3  UNL d   1       5.389   2.869  -5.305  0.00  0.00     0.150 A 
ATOM      5  C4  UNL d   1       5.995   1.821  -5.991  0.00  0.00    -0.007 A 
ATOM      6  C5  UNL d   1       5.419   0.552  -5.963  0.00  0.00     0.039 A 
ENDROOT
BRANCH   4   7
ATOM      7  O   UNL d   1       5.991   4.091  -5.356  0.00  0.00    -0.526 OA
ATOM      8  H5  UNL d   1       5.476   4.710  -4.813  0.00  0.00     0.418 HD
ENDBRANCH   4   7
TORSDOF 1
ENDMDL
