MODEL 1
REMARK minimizedAffinity 1.56602395
REMARK minimizedRMSD -1
REMARK  1 active torsions:
REMARK  status: ('A' for Active; 'I' for Inactive)
REMARK    1  A    between atoms: C3_4  and  O_7 
ROOT
ATOM      1  C   UNL d   1       4.502   5.936   1.717  0.00  0.00    -0.033 A 
ATOM      2  C1  UNL d   1       5.564   6.000   2.623  0.00  0.00     0.039 A 
ATOM      3  C2  UNL d   1       5.967   4.853   3.310  0.00  0.00    -0.080 A 
ATOM      4  C3  UNL d   1       5.303   3.651   3.083  0.00  0.00     0.150 A 
ATOM      5  C4  UNL d   1       4.248   3.579   2.180  0.00  0.00    -0.007 A 
ATOM      6  C5  UNL d   1       3.846   4.725   1.495  0.00  0.00     0.039 A 
ENDROOT
BRANCH   4   7
ATOM      7  O   UNL d   1       5.658   2.507   3.734  0.00  0.00    -0.526 OA
ATOM      8  H5  UNL d   1       6.383   2.714   4.347  0.00  0.00     0.418 HD
ENDBRANCH   4   7
TORSDOF 1
ENDMDL
