MODEL 1
REMARK minimizedAffinity 6.97357321
REMARK minimizedRMSD -1
REMARK  1 active torsions:
REMARK  status: ('A' for Active; 'I' for Inactive)
REMARK    1  A    between atoms: C3_4  and  O_7 
ROOT
ATOM      1  C   UNL d   1       3.933   1.889   5.408  0.00  0.00    -0.033 A 
ATOM      2  C1  UNL d   1       2.920   0.951   5.201  0.00  0.00     0.039 A 
ATOM      3  C2  UNL d   1       1.584   1.309   5.395  0.00  0.00    -0.080 A 
ATOM      4  C3  UNL d   1       1.275   2.606   5.794  0.00  0.00     0.150 A 
ATOM      5  C4  UNL d   1       2.279   3.547   5.998  0.00  0.00    -0.007 A 
ATOM      6  C5  UNL d   1       3.612   3.188   5.805  0.00  0.00     0.039 A 
ENDROOT
BRANCH   4   7
ATOM      7  O   UNL d   1      -0.013   3.001   6.000  0.00  0.00    -0.526 OA
ATOM      8  H5  UNL d   1      -0.596   2.238   5.849  0.00  0.00     0.418 HD
ENDBRANCH   4   7
TORSDOF 1
ENDMDL
