MODEL 1
REMARK minimizedAffinity 8.68582821
REMARK minimizedRMSD -1
REMARK  1 active torsions:
REMARK  status: ('A' for Active; 'I' for Inactive)
REMARK    1  A    between atoms: C3_4  and  O_7 
ROOT
ATOM      1  C   UNL d   1      -5.992   3.915  -0.341  0.00  0.00    -0.033 A 
ATOM      2  C1  UNL d   1      -5.948   4.056  -1.730  0.00  0.00     0.039 A 
ATOM      3  C2  UNL d   1      -5.909   2.924  -2.547  0.00  0.00    -0.080 A 
ATOM      4  C3  UNL d   1      -5.914   1.660  -1.965  0.00  0.00     0.150 A 
ATOM      5  C4  UNL d   1      -5.962   1.512  -0.582  0.00  0.00    -0.007 A 
ATOM      6  C5  UNL d   1      -6.000   2.643   0.232  0.00  0.00     0.039 A 
ENDROOT
BRANCH   4   7
ATOM      7  O   UNL d   1      -5.872   0.527  -2.721  0.00  0.00    -0.526 OA
ATOM      8  H5  UNL d   1      -5.813   0.783  -3.656  0.00  0.00     0.418 HD
ENDBRANCH   4   7
TORSDOF 1
ENDMDL
