MODEL 1
REMARK minimizedAffinity 4.26987267
REMARK minimizedRMSD -1
REMARK  1 active torsions:
REMARK  status: ('A' for Active; 'I' for Inactive)
REMARK    1  A    between atoms: C3_4  and  O_7 
ROOT
ATOM      1  C   UNL d   1      -1.117   1.278   2.158  0.00  0.00    -0.033 A 
ATOM      2  C1  UNL d   1      -1.613  -0.003   1.906  0.00  0.00     0.039 A 
ATOM      3  C2  UNL d   1      -0.900  -1.126   2.330  0.00  0.00    -0.080 A 
ATOM      4  C3  UNL d   1       0.306  -0.955   3.004  0.00  0.00     0.150 A 
ATOM      5  C4  UNL d   1       0.805   0.318   3.262  0.00  0.00    -0.007 A 
ATOM      6  C5  UNL d   1       0.092   1.438   2.837  0.00  0.00     0.039 A 
ENDROOT
BRANCH   4   7
ATOM      7  O   UNL d   1       1.040  -2.021   3.433  0.00  0.00    -0.526 OA
ATOM      8  H5  UNL d   1       0.587  -2.836   3.160  0.00  0.00     0.418 HD
ENDBRANCH   4   7
TORSDOF 1
ENDMDL
