MODEL 1
REMARK minimizedAffinity -1.4086225
REMARK minimizedRMSD -1
REMARK  0 active torsions:
REMARK  status: ('A' for Active; 'I' for Inactive)
ROOT
ATOM      1  N1  IND d   1       2.091  -2.593   1.046  0.00  0.00    -0.196 N 
ATOM      2  C2  IND d   1       1.730  -1.281   0.912  0.00  0.00     0.054 A 
ATOM      3  C3  IND d   1       0.683  -0.997   1.719  0.00  0.00    -0.031 A 
ATOM      4  C4  IND d   1      -0.528  -2.503   3.419  0.00  0.00     0.051 A 
ATOM      5  C5  IND d   1      -0.579  -3.792   3.872  0.00  0.00    -0.031 A 
ATOM      6  C6  IND d   1       0.276  -4.765   3.399  0.00  0.00     0.015 A 
ATOM      7  C7  IND d   1       1.227  -4.483   2.459  0.00  0.00    -0.016 A 
ATOM      8  C8  IND d   1       1.277  -3.177   1.991  0.00  0.00    -0.047 A 
ATOM      9  C9  IND d   1       0.383  -2.195   2.437  0.00  0.00    -0.096 A 
ATOM     10  HN1 IND d   1       2.721  -2.986   0.613  0.00  0.00     0.298 HD
ENDROOT
TORSDOF 0
ENDMDL
