MODEL 1
REMARK minimizedAffinity -3.156708
REMARK minimizedRMSD -1
REMARK  0 active torsions:
REMARK  status: ('A' for Active; 'I' for Inactive)
ROOT
ATOM      1  N1  IND d   1       0.150  -0.019  -0.865  0.00  0.00    -0.196 N 
ATOM      2  C2  IND d   1      -1.183  -0.090  -0.571  0.00  0.00     0.054 A 
ATOM      3  C3  IND d   1      -1.364  -0.548   0.688  0.00  0.00    -0.031 A 
ATOM      4  C4  IND d   1       0.388  -1.146   2.477  0.00  0.00     0.051 A 
ATOM      5  C5  IND d   1       1.736  -1.276   2.664  0.00  0.00    -0.031 A 
ATOM      6  C6  IND d   1       2.642  -0.985   1.665  0.00  0.00     0.015 A 
ATOM      7  C7  IND d   1       2.233  -0.540   0.440  0.00  0.00    -0.016 A 
ATOM      8  C8  IND d   1       0.865  -0.414   0.244  0.00  0.00    -0.047 A 
ATOM      9  C9  IND d   1      -0.061  -0.749   1.240  0.00  0.00    -0.096 A 
ATOM     10  HN1 IND d   1       0.485   0.231  -1.617  0.00  0.00     0.298 HD
ENDROOT
TORSDOF 0
ENDMDL
