MODEL 1
REMARK minimizedAffinity 0.0410367511
REMARK minimizedRMSD -1
REMARK  0 active torsions:
REMARK  status: ('A' for Active; 'I' for Inactive)
ROOT
ATOM      1  N1  IND d   1      -1.799  -1.172   1.077  0.00  0.00    -0.196 N 
ATOM      2  C2  IND d   1      -1.862  -0.361  -0.022  0.00  0.00     0.054 A 
ATOM      3  C3  IND d   1      -0.677   0.258  -0.218  0.00  0.00    -0.031 A 
ATOM      4  C4  IND d   1       1.532   0.012   1.080  0.00  0.00     0.051 A 
ATOM      5  C5  IND d   1       2.071  -0.585   2.185  0.00  0.00    -0.031 A 
ATOM      6  C6  IND d   1       1.334  -1.427   2.992  0.00  0.00     0.015 A 
ATOM      7  C7  IND d   1       0.027  -1.714   2.716  0.00  0.00    -0.016 A 
ATOM      8  C8  IND d   1      -0.526  -1.104   1.599  0.00  0.00    -0.047 A 
ATOM      9  C9  IND d   1       0.205  -0.215   0.801  0.00  0.00    -0.096 A 
ATOM     10  HN1 IND d   1      -2.445  -1.645   1.389  0.00  0.00     0.298 HD
ENDROOT
TORSDOF 0
ENDMDL
