MODEL 1
REMARK minimizedAffinity -3.4131484
REMARK minimizedRMSD -1
REMARK  0 active torsions:
REMARK  status: ('A' for Active; 'I' for Inactive)
ROOT
ATOM      1  N1  IND d   1       1.535   0.807  -0.330  0.00  0.00    -0.196 N 
ATOM      2  C2  IND d   1       0.396   1.094  -1.030  0.00  0.00     0.054 A 
ATOM      3  C3  IND d   1      -0.681   0.554  -0.416  0.00  0.00    -0.031 A 
ATOM      4  C4  IND d   1      -0.819  -0.751   1.798  0.00  0.00     0.051 A 
ATOM      5  C5  IND d   1      -0.037  -1.294   2.779  0.00  0.00    -0.031 A 
ATOM      6  C6  IND d   1       1.336  -1.159   2.775  0.00  0.00     0.015 A 
ATOM      7  C7  IND d   1       1.981  -0.463   1.792  0.00  0.00    -0.016 A 
ATOM      8  C8  IND d   1       1.191   0.083   0.790  0.00  0.00    -0.047 A 
ATOM      9  C9  IND d   1      -0.200  -0.087   0.766  0.00  0.00    -0.096 A 
ATOM     10  HN1 IND d   1       2.333   1.039  -0.553  0.00  0.00     0.298 HD
ENDROOT
TORSDOF 0
ENDMDL
