MODEL 1
REMARK minimizedAffinity 0.635886669
REMARK minimizedRMSD -1
REMARK  0 active torsions:
REMARK  status: ('A' for Active; 'I' for Inactive)
ROOT
ATOM      1  N1  IND d   1      -1.310  -2.598   2.478  0.00  0.00    -0.196 N 
ATOM      2  C2  IND d   1      -1.742  -3.771   3.031  0.00  0.00     0.054 A 
ATOM      3  C3  IND d   1      -0.713  -4.639   3.159  0.00  0.00    -0.031 A 
ATOM      4  C4  IND d   1       1.782  -4.307   2.618  0.00  0.00     0.051 A 
ATOM      5  C5  IND d   1       2.654  -3.416   2.059  0.00  0.00    -0.031 A 
ATOM      6  C6  IND d   1       2.241  -2.180   1.605  0.00  0.00     0.015 A 
ATOM      7  C7  IND d   1       0.937  -1.784   1.703  0.00  0.00    -0.016 A 
ATOM      8  C8  IND d   1       0.048  -2.689   2.263  0.00  0.00    -0.047 A 
ATOM      9  C9  IND d   1       0.453  -3.961   2.688  0.00  0.00    -0.096 A 
ATOM     10  HN1 IND d   1      -1.803  -1.918   2.294  0.00  0.00     0.298 HD
ENDROOT
TORSDOF 0
ENDMDL
