MODEL 1
REMARK minimizedAffinity -2.65074849
REMARK minimizedRMSD -1
REMARK  0 active torsions:
REMARK  status: ('A' for Active; 'I' for Inactive)
ROOT
ATOM      1  N1  IND d   1      -1.468  -1.708   2.538  0.00  0.00    -0.196 N 
ATOM      2  C2  IND d   1      -0.667  -2.425   3.382  0.00  0.00     0.054 A 
ATOM      3  C3  IND d   1       0.636  -2.187   3.109  0.00  0.00    -0.031 A 
ATOM      4  C4  IND d   1       1.680  -0.580   1.390  0.00  0.00     0.051 A 
ATOM      5  C5  IND d   1       1.351   0.264   0.366  0.00  0.00    -0.031 A 
ATOM      6  C6  IND d   1       0.040   0.501   0.009  0.00  0.00     0.015 A 
ATOM      7  C7  IND d   1      -0.997  -0.092   0.672  0.00  0.00    -0.016 A 
ATOM      8  C8  IND d   1      -0.667  -0.955   1.707  0.00  0.00    -0.047 A 
ATOM      9  C9  IND d   1       0.663  -1.232   2.047  0.00  0.00    -0.096 A 
ATOM     10  HN1 IND d   1      -2.328  -1.724   2.528  0.00  0.00     0.298 HD
ENDROOT
TORSDOF 0
ENDMDL
