MODEL 1
REMARK minimizedAffinity -1.40004623
REMARK minimizedRMSD -1
REMARK  0 active torsions:
REMARK  status: ('A' for Active; 'I' for Inactive)
ROOT
ATOM      1  N1  IND d   1      -3.179  -2.618   0.825  0.00  0.00    -0.196 N 
ATOM      2  C2  IND d   1      -3.721  -2.777  -0.420  0.00  0.00     0.054 A 
ATOM      3  C3  IND d   1      -3.026  -2.058  -1.331  0.00  0.00    -0.031 A 
ATOM      4  C4  IND d   1      -0.906  -0.632  -1.016  0.00  0.00     0.051 A 
ATOM      5  C5  IND d   1      -0.061  -0.156  -0.054  0.00  0.00    -0.031 A 
ATOM      6  C6  IND d   1      -0.214  -0.484   1.278  0.00  0.00     0.015 A 
ATOM      7  C7  IND d   1      -1.215  -1.314   1.696  0.00  0.00    -0.016 A 
ATOM      8  C8  IND d   1      -2.079  -1.795   0.722  0.00  0.00    -0.047 A 
ATOM      9  C9  IND d   1      -1.955  -1.431  -0.625  0.00  0.00    -0.096 A 
ATOM     10  HN1 IND d   1      -3.475  -2.972   1.550  0.00  0.00     0.298 HD
ENDROOT
TORSDOF 0
ENDMDL
