MODEL 1
REMARK minimizedAffinity -4.17889357
REMARK minimizedRMSD -1
REMARK  0 active torsions:
REMARK  status: ('A' for Active; 'I' for Inactive)
ROOT
ATOM      1  N1  IND d   1      -1.563  -1.093   0.508  0.00  0.00    -0.196 N 
ATOM      2  C2  IND d   1      -1.320  -0.811  -0.807  0.00  0.00     0.054 A 
ATOM      3  C3  IND d   1      -0.033  -0.432  -0.977  0.00  0.00    -0.031 A 
ATOM      4  C4  IND d   1       1.874  -0.299   0.747  0.00  0.00     0.051 A 
ATOM      5  C5  IND d   1       2.128  -0.425   2.084  0.00  0.00    -0.031 A 
ATOM      6  C6  IND d   1       1.146  -0.790   2.982  0.00  0.00     0.015 A 
ATOM      7  C7  IND d   1      -0.130  -1.055   2.572  0.00  0.00    -0.016 A 
ATOM      8  C8  IND d   1      -0.394  -0.921   1.217  0.00  0.00    -0.047 A 
ATOM      9  C9  IND d   1       0.589  -0.510   0.307  0.00  0.00    -0.096 A 
ATOM     10  HN1 IND d   1      -2.319  -1.337   0.838  0.00  0.00     0.298 HD
ENDROOT
TORSDOF 0
ENDMDL
