MODEL 1
REMARK minimizedAffinity -2.4475143
REMARK minimizedRMSD -1
REMARK  0 active torsions:
REMARK  status: ('A' for Active; 'I' for Inactive)
ROOT
ATOM      1  N1  IND d   1       0.547  -1.284  -0.872  0.00  0.00    -0.196 N 
ATOM      2  C2  IND d   1       1.885  -1.434  -1.106  0.00  0.00     0.054 A 
ATOM      3  C3  IND d   1       2.595  -1.118   0.000  0.00  0.00    -0.031 A 
ATOM      4  C4  IND d   1       1.761  -0.429   2.337  0.00  0.00     0.051 A 
ATOM      5  C5  IND d   1       0.622  -0.120   3.026  0.00  0.00    -0.031 A 
ATOM      6  C6  IND d   1      -0.626  -0.188   2.441  0.00  0.00     0.015 A 
ATOM      7  C7  IND d   1      -0.782  -0.579   1.141  0.00  0.00    -0.016 A 
ATOM      8  C8  IND d   1       0.372  -0.886   0.436  0.00  0.00    -0.047 A 
ATOM      9  C9  IND d   1       1.645  -0.779   1.012  0.00  0.00    -0.096 A 
ATOM     10  HN1 IND d   1      -0.081  -1.415  -1.445  0.00  0.00     0.298 HD
ENDROOT
TORSDOF 0
ENDMDL
