MODEL 1
REMARK minimizedAffinity 10.9096861
REMARK minimizedRMSD -1
REMARK  0 active torsions:
REMARK  status: ('A' for Active; 'I' for Inactive)
ROOT
ATOM      1  C   UNL d   1       5.777  -0.505  -5.997  0.00  0.00     0.077 C 
ATOM      2  C1  UNL d   1       4.471  -0.753  -5.302  0.00  0.00    -0.074 A 
ATOM      3  C2  UNL d   1       4.433  -1.311  -4.020  0.00  0.00    -0.005 A 
ATOM      4  C3  UNL d   1       3.211  -1.527  -3.384  0.00  0.00     0.006 A 
ATOM      5  C4  UNL d   1       2.017  -1.188  -4.021  0.00  0.00    -0.005 A 
ATOM      6  C5  UNL d   1       2.036  -0.629  -5.302  0.00  0.00    -0.074 A 
ATOM      7  C6  UNL d   1       0.762  -0.250  -5.998  0.00  0.00     0.077 C 
ATOM      8  C7  UNL d   1       3.268  -0.408  -5.933  0.00  0.00    -0.001 A 
ENDROOT
TORSDOF 0
ENDMDL
