MODEL 1
REMARK minimizedAffinity 6.11661196
REMARK minimizedRMSD -1
REMARK  0 active torsions:
REMARK  status: ('A' for Active; 'I' for Inactive)
ROOT
ATOM      1  C   UNL d   1       0.362  -2.382  -2.648  0.00  0.00     0.077 C 
ATOM      2  C1  UNL d   1       0.839  -1.574  -3.818  0.00  0.00    -0.074 A 
ATOM      3  C2  UNL d   1      -0.066  -0.896  -4.640  0.00  0.00    -0.005 A 
ATOM      4  C3  UNL d   1       0.394  -0.141  -5.719  0.00  0.00     0.006 A 
ATOM      5  C4  UNL d   1       1.761  -0.057  -5.986  0.00  0.00    -0.005 A 
ATOM      6  C5  UNL d   1       2.681  -0.727  -5.175  0.00  0.00    -0.074 A 
ATOM      7  C6  UNL d   1       4.154  -0.639  -5.442  0.00  0.00     0.077 C 
ATOM      8  C7  UNL d   1       2.212  -1.478  -4.088  0.00  0.00    -0.001 A 
ENDROOT
TORSDOF 0
ENDMDL
