MODEL 1
REMARK minimizedAffinity 4.14175892
REMARK minimizedRMSD -1
REMARK  0 active torsions:
REMARK  status: ('A' for Active; 'I' for Inactive)
ROOT
ATOM      1  C   UNL d   1       3.220  -1.510  -2.424  0.00  0.00     0.077 C 
ATOM      2  C1  UNL d   1       2.487  -1.112  -3.671  0.00  0.00    -0.074 A 
ATOM      3  C2  UNL d   1       3.179  -0.642  -4.792  0.00  0.00    -0.005 A 
ATOM      4  C3  UNL d   1       2.486  -0.284  -5.948  0.00  0.00     0.006 A 
ATOM      5  C4  UNL d   1       1.095  -0.393  -5.995  0.00  0.00    -0.005 A 
ATOM      6  C5  UNL d   1       0.386  -0.863  -4.885  0.00  0.00    -0.074 A 
ATOM      7  C6  UNL d   1      -1.107  -0.995  -4.922  0.00  0.00     0.077 C 
ATOM      8  C7  UNL d   1       1.091  -1.226  -3.729  0.00  0.00    -0.001 A 
ENDROOT
TORSDOF 0
ENDMDL
