MODEL 1
REMARK minimizedAffinity -0.835407138
REMARK minimizedRMSD -1
REMARK  0 active torsions:
REMARK  status: ('A' for Active; 'I' for Inactive)
ROOT
ATOM      1  C   UNL d   1       3.928  -0.393  -6.000  0.00  0.00     0.077 C 
ATOM      2  C1  UNL d   1       2.651  -0.715  -5.282  0.00  0.00    -0.074 A 
ATOM      3  C2  UNL d   1       2.668  -1.232  -3.983  0.00  0.00    -0.005 A 
ATOM      4  C3  UNL d   1       1.472  -1.518  -3.325  0.00  0.00     0.006 A 
ATOM      5  C4  UNL d   1       0.249  -1.290  -3.958  0.00  0.00    -0.005 A 
ATOM      6  C5  UNL d   1       0.213  -0.772  -5.256  0.00  0.00    -0.074 A 
ATOM      7  C6  UNL d   1      -1.093  -0.512  -5.947  0.00  0.00     0.077 C 
ATOM      8  C7  UNL d   1       1.419  -0.481  -5.909  0.00  0.00    -0.001 A 
ENDROOT
TORSDOF 0
ENDMDL
