MODEL 1
REMARK minimizedAffinity 0.987428069
REMARK minimizedRMSD -1
REMARK  0 active torsions:
REMARK  status: ('A' for Active; 'I' for Inactive)
ROOT
ATOM      1  C   UNL d   1      -1.125  -1.116  -5.856  0.00  0.00     0.077 C 
ATOM      2  C1  UNL d   1       0.283  -1.082  -5.338  0.00  0.00    -0.074 A 
ATOM      3  C2  UNL d   1       1.274  -0.351  -6.000  0.00  0.00    -0.005 A 
ATOM      4  C3  UNL d   1       2.577  -0.320  -5.501  0.00  0.00     0.006 A 
ATOM      5  C4  UNL d   1       2.900  -1.020  -4.338  0.00  0.00    -0.005 A 
ATOM      6  C5  UNL d   1       1.921  -1.756  -3.662  0.00  0.00    -0.074 A 
ATOM      7  C6  UNL d   1       2.249  -2.505  -2.405  0.00  0.00     0.077 C 
ATOM      8  C7  UNL d   1       0.613  -1.775  -4.166  0.00  0.00    -0.001 A 
ENDROOT
TORSDOF 0
ENDMDL
