MODEL 1
REMARK minimizedAffinity 10.238699
REMARK minimizedRMSD -1
REMARK  0 active torsions:
REMARK  status: ('A' for Active; 'I' for Inactive)
ROOT
ATOM      1  C   UNL d   1      -1.873  -1.883   3.001  0.00  0.00     0.077 C 
ATOM      2  C1  UNL d   1      -0.403  -1.676   3.218  0.00  0.00    -0.074 A 
ATOM      3  C2  UNL d   1       0.518  -1.943   2.200  0.00  0.00    -0.005 A 
ATOM      4  C3  UNL d   1       1.881  -1.736   2.413  0.00  0.00     0.006 A 
ATOM      5  C4  UNL d   1       2.335  -1.262   3.644  0.00  0.00    -0.005 A 
ATOM      6  C5  UNL d   1       1.429  -0.989   4.673  0.00  0.00    -0.074 A 
ATOM      7  C6  UNL d   1       1.900  -0.470   5.999  0.00  0.00     0.077 C 
ATOM      8  C7  UNL d   1       0.060  -1.193   4.449  0.00  0.00    -0.001 A 
ENDROOT
TORSDOF 0
ENDMDL
