MODEL 1
REMARK minimizedAffinity 5.05397272
REMARK minimizedRMSD -1
REMARK  0 active torsions:
REMARK  status: ('A' for Active; 'I' for Inactive)
ROOT
ATOM      1  C   UNL d   1      -1.191  -0.777  -5.030  0.00  0.00     0.077 C 
ATOM      2  C1  UNL d   1       0.301  -0.919  -4.977  0.00  0.00    -0.074 A 
ATOM      3  C2  UNL d   1       1.108  -0.412  -6.000  0.00  0.00    -0.005 A 
ATOM      4  C3  UNL d   1       2.495  -0.543  -5.932  0.00  0.00     0.006 A 
ATOM      5  C4  UNL d   1       3.088  -1.182  -4.842  0.00  0.00    -0.005 A 
ATOM      6  C5  UNL d   1       2.296  -1.694  -3.809  0.00  0.00    -0.074 A 
ATOM      7  C6  UNL d   1       2.918  -2.375  -2.625  0.00  0.00     0.077 C 
ATOM      8  C7  UNL d   1       0.904  -1.552  -3.881  0.00  0.00    -0.001 A 
ENDROOT
TORSDOF 0
ENDMDL
