MODEL 1
REMARK minimizedAffinity 5.21504021
REMARK minimizedRMSD -1
REMARK  0 active torsions:
REMARK  status: ('A' for Active; 'I' for Inactive)
ROOT
ATOM      1  C   UNL d   1       2.946  -2.216  -2.592  0.00  0.00     0.077 C 
ATOM      2  C1  UNL d   1       2.240  -1.632  -3.780  0.00  0.00    -0.074 A 
ATOM      3  C2  UNL d   1       2.937  -0.884  -4.734  0.00  0.00    -0.005 A 
ATOM      4  C3  UNL d   1       2.269  -0.355  -5.838  0.00  0.00     0.006 A 
ATOM      5  C4  UNL d   1       0.900  -0.569  -6.000  0.00  0.00    -0.005 A 
ATOM      6  C5  UNL d   1       0.186  -1.315  -5.056  0.00  0.00    -0.074 A 
ATOM      7  C6  UNL d   1      -1.284  -1.562  -5.220  0.00  0.00     0.077 C 
ATOM      8  C7  UNL d   1       0.866  -1.849  -3.953  0.00  0.00    -0.001 A 
ENDROOT
TORSDOF 0
ENDMDL
