MODEL 1
REMARK minimizedAffinity 12.5402298
REMARK minimizedRMSD -1
REMARK  2 active torsions:
REMARK  status: ('A' for Active; 'I' for Inactive)
REMARK    1  A    between atoms: C2'_3  and  C1'_4 
REMARK    2  A    between atoms: C1'_4  and  C1_5 
ROOT
ATOM      1  C1  I4B d   1       3.365   4.934  -2.453  0.00  0.00    -0.075 A 
ATOM      2  C2  I4B d   1       4.401   4.616  -1.611  0.00  0.00     0.003 A 
ATOM      3  C3  I4B d   1       5.725   4.998  -1.933  0.00  0.00     0.002 A 
ATOM      4  C4  I4B d   1       5.974   5.650  -3.124  0.00  0.00    -0.004 A 
ATOM      5  C5  I4B d   1       4.920   5.992  -3.966  0.00  0.00     0.002 A 
ATOM      6  C6  I4B d   1       3.606   5.643  -3.623  0.00  0.00     0.003 A 
ENDROOT
BRANCH   1   7
ATOM      7  C1' I4B d   1       1.983   4.485  -2.098  0.00  0.00     0.060 C 
BRANCH   7   8
ATOM      8  C2' I4B d   1       1.481   5.366  -0.972  0.00  0.00    -0.013 C 
ATOM      9  C4' I4B d   1       0.137   5.959  -1.301  0.00  0.00     0.013 C 
ATOM     10  C3' I4B d   1       1.415   4.532   0.273  0.00  0.00     0.013 C 
ENDBRANCH   7   8
ENDBRANCH   1   7
TORSDOF 2
ENDMDL
