MODEL 1
REMARK minimizedAffinity 5.87534142
REMARK minimizedRMSD -1
REMARK  2 active torsions:
REMARK  status: ('A' for Active; 'I' for Inactive)
REMARK    1  A    between atoms: C2'_3  and  C1'_4 
REMARK    2  A    between atoms: C1'_4  and  C1_5 
ROOT
ATOM      1  C1  I4B d   1       5.545   5.231  -3.540  0.00  0.00    -0.075 A 
ATOM      2  C2  I4B d   1       4.812   5.865  -4.511  0.00  0.00     0.003 A 
ATOM      3  C3  I4B d   1       4.451   5.177  -5.695  0.00  0.00     0.002 A 
ATOM      4  C4  I4B d   1       4.885   3.881  -5.887  0.00  0.00    -0.004 A 
ATOM      5  C5  I4B d   1       5.609   3.232  -4.891  0.00  0.00     0.002 A 
ATOM      6  C6  I4B d   1       5.931   3.907  -3.705  0.00  0.00     0.003 A 
ENDROOT
BRANCH   1   7
ATOM      7  C1' I4B d   1       5.937   5.998  -2.317  0.00  0.00     0.060 C 
BRANCH   7   8
ATOM      8  C2' I4B d   1       5.685   5.115  -1.112  0.00  0.00    -0.013 C 
ATOM      9  C4' I4B d   1       5.997   5.840   0.171  0.00  0.00     0.013 C 
ATOM     10  C3' I4B d   1       4.252   4.676  -1.151  0.00  0.00     0.013 C 
ENDBRANCH   7   8
ENDBRANCH   1   7
TORSDOF 2
ENDMDL
