MODEL 1
REMARK minimizedAffinity 13.3462324
REMARK minimizedRMSD -1
REMARK  2 active torsions:
REMARK  status: ('A' for Active; 'I' for Inactive)
REMARK    1  A    between atoms: C2'_3  and  C1'_4 
REMARK    2  A    between atoms: C1'_4  and  C1_5 
ROOT
ATOM      1  C1  I4B d   1       0.997  -2.000  -1.680  0.00  0.00    -0.075 A 
ATOM      2  C2  I4B d   1       2.103  -1.976  -0.868  0.00  0.00     0.003 A 
ATOM      3  C3  I4B d   1       3.376  -1.669  -1.408  0.00  0.00     0.002 A 
ATOM      4  C4  I4B d   1       3.504  -1.445  -2.763  0.00  0.00    -0.004 A 
ATOM      5  C5  I4B d   1       2.377  -1.447  -3.581  0.00  0.00     0.002 A 
ATOM      6  C6  I4B d   1       1.113  -1.714  -3.034  0.00  0.00     0.003 A 
ENDROOT
BRANCH   1   7
ATOM      7  C1' I4B d   1      -0.327  -2.359  -1.083  0.00  0.00     0.060 C 
BRANCH   7   8
ATOM      8  C2' I4B d   1      -0.366  -1.811   0.329  0.00  0.00    -0.013 C 
ATOM      9  C4' I4B d   1      -1.644  -1.056   0.586  0.00  0.00     0.013 C 
ATOM     10  C3' I4B d   1      -0.219  -2.964   1.278  0.00  0.00     0.013 C 
ENDBRANCH   7   8
ENDBRANCH   1   7
TORSDOF 2
ENDMDL
