MODEL 1
REMARK minimizedAffinity 8.01144791
REMARK minimizedRMSD -1
REMARK  2 active torsions:
REMARK  status: ('A' for Active; 'I' for Inactive)
REMARK    1  A    between atoms: C2'_3  and  C1'_4 
REMARK    2  A    between atoms: C1'_4  and  C1_5 
ROOT
ATOM      1  C1  I4B d   1       1.881  -2.486  -3.547  0.00  0.00    -0.075 A 
ATOM      2  C2  I4B d   1       1.082  -3.071  -4.498  0.00  0.00     0.003 A 
ATOM      3  C3  I4B d   1      -0.328  -3.011  -4.379  0.00  0.00     0.002 A 
ATOM      4  C4  I4B d   1      -0.892  -2.403  -3.276  0.00  0.00    -0.004 A 
ATOM      5  C5  I4B d   1      -0.081  -1.790  -2.325  0.00  0.00     0.002 A 
ATOM      6  C6  I4B d   1       1.314  -1.821  -2.468  0.00  0.00     0.003 A 
ENDROOT
BRANCH   1   7
ATOM      7  C1' I4B d   1       3.366  -2.597  -3.687  0.00  0.00     0.060 C 
BRANCH   7   8
ATOM      8  C2' I4B d   1       3.989  -1.383  -3.028  0.00  0.00    -0.013 C 
ATOM      9  C4' I4B d   1       4.601  -1.739  -1.698  0.00  0.00     0.013 C 
ATOM     10  C3' I4B d   1       5.017  -0.824  -3.965  0.00  0.00     0.013 C 
ENDBRANCH   7   8
ENDBRANCH   1   7
TORSDOF 2
ENDMDL
