MODEL 1
REMARK minimizedAffinity 6.40426874
REMARK minimizedRMSD -1
REMARK  2 active torsions:
REMARK  status: ('A' for Active; 'I' for Inactive)
REMARK    1  A    between atoms: C2'_3  and  C1'_4 
REMARK    2  A    between atoms: C1'_4  and  C1_5 
ROOT
ATOM      1  C1  I4B d   1       5.327   5.158  -3.188  0.00  0.00    -0.075 A 
ATOM      2  C2  I4B d   1       4.139   5.574  -3.734  0.00  0.00     0.003 A 
ATOM      3  C3  I4B d   1       3.589   4.893  -4.847  0.00  0.00     0.002 A 
ATOM      4  C4  I4B d   1       4.280   3.839  -5.409  0.00  0.00    -0.004 A 
ATOM      5  C5  I4B d   1       5.474   3.404  -4.839  0.00  0.00     0.002 A 
ATOM      6  C6  I4B d   1       5.995   4.059  -3.714  0.00  0.00     0.003 A 
ENDROOT
BRANCH   1   7
ATOM      7  C1' I4B d   1       5.896   5.920  -2.033  0.00  0.00     0.060 C 
BRANCH   7   8
ATOM      8  C2' I4B d   1       5.483   5.215  -0.758  0.00  0.00    -0.013 C 
ATOM      9  C4' I4B d   1       5.897   5.999   0.459  0.00  0.00     0.013 C 
ATOM     10  C3' I4B d   1       3.996   5.022  -0.797  0.00  0.00     0.013 C 
ENDBRANCH   7   8
ENDBRANCH   1   7
TORSDOF 2
ENDMDL
