MODEL 1
REMARK minimizedAffinity -0.197966665
REMARK minimizedRMSD -1
REMARK  2 active torsions:
REMARK  status: ('A' for Active; 'I' for Inactive)
REMARK    1  A    between atoms: C2'_3  and  C1'_4 
REMARK    2  A    between atoms: C1'_4  and  C1_5 
ROOT
ATOM      1  C1  I4B d   1      -0.740  -3.307  -3.894  0.00  0.00    -0.075 A 
ATOM      2  C2  I4B d   1      -1.489  -2.229  -3.495  0.00  0.00     0.003 A 
ATOM      3  C3  I4B d   1      -1.483  -1.820  -2.139  0.00  0.00     0.002 A 
ATOM      4  C4  I4B d   1      -0.758  -2.543  -1.214  0.00  0.00    -0.004 A 
ATOM      5  C5  I4B d   1       0.019  -3.623  -1.625  0.00  0.00     0.002 A 
ATOM      6  C6  I4B d   1       0.038  -4.000  -2.976  0.00  0.00     0.003 A 
ENDROOT
BRANCH   1   7
ATOM      7  C1' I4B d   1      -0.796  -3.732  -5.327  0.00  0.00     0.060 C 
BRANCH   7   8
ATOM      8  C2' I4B d   1      -1.687  -4.954  -5.418  0.00  0.00    -0.013 C 
ATOM      9  C4' I4B d   1      -1.284  -5.999  -4.411  0.00  0.00     0.013 C 
ATOM     10  C3' I4B d   1      -3.103  -4.511  -5.201  0.00  0.00     0.013 C 
ENDBRANCH   7   8
ENDBRANCH   1   7
TORSDOF 2
ENDMDL
