MODEL 1
REMARK minimizedAffinity 8.251441
REMARK minimizedRMSD -1
REMARK  2 active torsions:
REMARK  status: ('A' for Active; 'I' for Inactive)
REMARK    1  A    between atoms: C2'_3  and  C1'_4 
REMARK    2  A    between atoms: C1'_4  and  C1_5 
ROOT
ATOM      1  C1  I4B d   1       3.922   4.534  -3.530  0.00  0.00    -0.075 A 
ATOM      2  C2  I4B d   1       4.150   5.044  -4.784  0.00  0.00     0.003 A 
ATOM      3  C3  I4B d   1       3.144   5.793  -5.442  0.00  0.00     0.002 A 
ATOM      4  C4  I4B d   1       1.916   5.962  -4.836  0.00  0.00    -0.004 A 
ATOM      5  C5  I4B d   1       1.695   5.463  -3.556  0.00  0.00     0.002 A 
ATOM      6  C6  I4B d   1       2.708   4.755  -2.893  0.00  0.00     0.003 A 
ENDROOT
BRANCH   1   7
ATOM      7  C1' I4B d   1       4.994   3.720  -2.877  0.00  0.00     0.060 C 
BRANCH   7   8
ATOM      8  C2' I4B d   1       5.984   4.676  -2.243  0.00  0.00    -0.013 C 
ATOM      9  C4' I4B d   1       6.000   6.000  -2.961  0.00  0.00     0.013 C 
ATOM     10  C3' I4B d   1       5.607   4.845  -0.802  0.00  0.00     0.013 C 
ENDBRANCH   7   8
ENDBRANCH   1   7
TORSDOF 2
ENDMDL
