MODEL 1
REMARK minimizedAffinity 2.18789577
REMARK minimizedRMSD -1
REMARK  2 active torsions:
REMARK  status: ('A' for Active; 'I' for Inactive)
REMARK    1  A    between atoms: C2'_3  and  C1'_4 
REMARK    2  A    between atoms: C1'_4  and  C1_5 
ROOT
ATOM      1  C1  I4B d   1       3.942   5.410  -3.197  0.00  0.00    -0.075 A 
ATOM      2  C2  I4B d   1       4.993   5.923  -2.480  0.00  0.00     0.003 A 
ATOM      3  C3  I4B d   1       4.936   5.972  -1.066  0.00  0.00     0.002 A 
ATOM      4  C4  I4B d   1       3.795   5.546  -0.417  0.00  0.00    -0.004 A 
ATOM      5  C5  I4B d   1       2.739   5.005  -1.144  0.00  0.00     0.002 A 
ATOM      6  C6  I4B d   1       2.817   4.925  -2.542  0.00  0.00     0.003 A 
ENDROOT
BRANCH   1   7
ATOM      7  C1' I4B d   1       4.022   5.404  -4.690  0.00  0.00     0.060 C 
BRANCH   7   8
ATOM      8  C2' I4B d   1       5.417   4.961  -5.081  0.00  0.00    -0.013 C 
ATOM      9  C4' I4B d   1       5.395   3.606  -5.738  0.00  0.00     0.013 C 
ATOM     10  C3' I4B d   1       5.993   5.998  -5.998  0.00  0.00     0.013 C 
ENDBRANCH   7   8
ENDBRANCH   1   7
TORSDOF 2
ENDMDL
