MODEL 1
REMARK minimizedAffinity 1.67284429
REMARK minimizedRMSD -1
REMARK  2 active torsions:
REMARK  status: ('A' for Active; 'I' for Inactive)
REMARK    1  A    between atoms: C2'_3  and  C1'_4 
REMARK    2  A    between atoms: C1'_4  and  C1_5 
ROOT
ATOM      1  C1  I4B d   1       2.720   4.415  -2.550  0.00  0.00    -0.075 A 
ATOM      2  C2  I4B d   1       3.937   4.536  -1.926  0.00  0.00     0.003 A 
ATOM      3  C3  I4B d   1       4.998   5.226  -2.560  0.00  0.00     0.002 A 
ATOM      4  C4  I4B d   1       4.815   5.732  -3.831  0.00  0.00    -0.004 A 
ATOM      5  C5  I4B d   1       3.574   5.629  -4.453  0.00  0.00     0.002 A 
ATOM      6  C6  I4B d   1       2.516   4.977  -3.803  0.00  0.00     0.003 A 
ENDROOT
BRANCH   1   7
ATOM      7  C1' I4B d   1       1.632   3.651  -1.864  0.00  0.00     0.060 C 
BRANCH   7   8
ATOM      8  C2' I4B d   1       1.600   4.084  -0.413  0.00  0.00    -0.013 C 
ATOM      9  C4' I4B d   1       0.927   5.422  -0.257  0.00  0.00     0.013 C 
ATOM     10  C3' I4B d   1       0.886   3.023   0.371  0.00  0.00     0.013 C 
ENDBRANCH   7   8
ENDBRANCH   1   7
TORSDOF 2
ENDMDL
