MODEL 1
REMARK minimizedAffinity -3.35387707
REMARK minimizedRMSD -1
REMARK  2 active torsions:
REMARK  status: ('A' for Active; 'I' for Inactive)
REMARK    1  A    between atoms: C2'_3  and  C1'_4 
REMARK    2  A    between atoms: C1'_4  and  C1_5 
ROOT
ATOM      1  C1  I4B d   1       4.193   4.294  -3.836  0.00  0.00    -0.075 A 
ATOM      2  C2  I4B d   1       5.519   4.626  -3.707  0.00  0.00     0.003 A 
ATOM      3  C3  I4B d   1       5.999   5.193  -2.502  0.00  0.00     0.002 A 
ATOM      4  C4  I4B d   1       5.114   5.456  -1.476  0.00  0.00    -0.004 A 
ATOM      5  C5  I4B d   1       3.775   5.099  -1.599  0.00  0.00     0.002 A 
ATOM      6  C6  I4B d   1       3.313   4.503  -2.782  0.00  0.00     0.003 A 
ENDROOT
BRANCH   1   7
ATOM      7  C1' I4B d   1       3.715   3.728  -5.134  0.00  0.00     0.060 C 
BRANCH   7   8
ATOM      8  C2' I4B d   1       4.922   3.217  -5.894  0.00  0.00    -0.013 C 
ATOM      9  C4' I4B d   1       5.996   4.269  -5.983  0.00  0.00     0.013 C 
ATOM     10  C3' I4B d   1       5.424   1.989  -5.194  0.00  0.00     0.013 C 
ENDBRANCH   7   8
ENDBRANCH   1   7
TORSDOF 2
ENDMDL
