MODEL 1
REMARK minimizedAffinity 4.67241859
REMARK minimizedRMSD -1
REMARK  2 active torsions:
REMARK  status: ('A' for Active; 'I' for Inactive)
REMARK    1  A    between atoms: C2'_3  and  C1'_4 
REMARK    2  A    between atoms: C1'_4  and  C1_5 
ROOT
ATOM      1  C1  I4B d   1       4.196   5.598  -3.629  0.00  0.00    -0.075 A 
ATOM      2  C2  I4B d   1       5.489   5.936  -3.319  0.00  0.00     0.003 A 
ATOM      3  C3  I4B d   1       5.991   5.711  -2.014  0.00  0.00     0.002 A 
ATOM      4  C4  I4B d   1       5.156   5.195  -1.044  0.00  0.00    -0.004 A 
ATOM      5  C5  I4B d   1       3.852   4.831  -1.367  0.00  0.00     0.002 A 
ATOM      6  C6  I4B d   1       3.372   5.022  -2.671  0.00  0.00     0.003 A 
ENDROOT
BRANCH   1   7
ATOM      7  C1' I4B d   1       3.688   5.880  -5.008  0.00  0.00     0.060 C 
BRANCH   7   8
ATOM      8  C2' I4B d   1       4.663   5.275  -5.997  0.00  0.00    -0.013 C 
ATOM      9  C4' I4B d   1       5.996   5.972  -5.945  0.00  0.00     0.013 C 
ATOM     10  C3' I4B d   1       4.802   3.816  -5.677  0.00  0.00     0.013 C 
ENDBRANCH   7   8
ENDBRANCH   1   7
TORSDOF 2
ENDMDL
