MODEL 1
REMARK minimizedAffinity 0.828876972
REMARK minimizedRMSD -1
REMARK  2 active torsions:
REMARK  status: ('A' for Active; 'I' for Inactive)
REMARK    1  A    between atoms: C2'_3  and  C1'_4 
REMARK    2  A    between atoms: C1'_4  and  C1_5 
ROOT
ATOM      1  C1  I4B d   1       4.913   3.611  -4.901  0.00  0.00    -0.075 A 
ATOM      2  C2  I4B d   1       5.993   4.350  -4.489  0.00  0.00     0.003 A 
ATOM      3  C3  I4B d   1       5.842   5.330  -3.478  0.00  0.00     0.002 A 
ATOM      4  C4  I4B d   1       4.592   5.571  -2.946  0.00  0.00    -0.004 A 
ATOM      5  C5  I4B d   1       3.502   4.805  -3.349  0.00  0.00     0.002 A 
ATOM      6  C6  I4B d   1       3.665   3.810  -4.324  0.00  0.00     0.003 A 
ENDROOT
BRANCH   1   7
ATOM      7  C1' I4B d   1       5.101   2.607  -5.994  0.00  0.00     0.060 C 
BRANCH   7   8
ATOM      8  C2' I4B d   1       5.961   1.483  -5.453  0.00  0.00    -0.013 C 
ATOM      9  C4' I4B d   1       5.999   1.503  -3.948  0.00  0.00     0.013 C 
ATOM     10  C3' I4B d   1       5.405   0.188  -5.964  0.00  0.00     0.013 C 
ENDBRANCH   7   8
ENDBRANCH   1   7
TORSDOF 2
ENDMDL
