MODEL 1
REMARK minimizedAffinity 4.83525133
REMARK minimizedRMSD -1
REMARK  2 active torsions:
REMARK  status: ('A' for Active; 'I' for Inactive)
REMARK    1  A    between atoms: C2'_3  and  C1'_4 
REMARK    2  A    between atoms: C1'_4  and  C1_5 
ROOT
ATOM      1  C1  I4B d   1       5.860   3.754  -4.183  0.00  0.00    -0.075 A 
ATOM      2  C2  I4B d   1       5.683   3.497  -5.520  0.00  0.00     0.003 A 
ATOM      3  C3  I4B d   1       5.632   2.162  -5.989  0.00  0.00     0.002 A 
ATOM      4  C4  I4B d   1       5.813   1.122  -5.100  0.00  0.00    -0.004 A 
ATOM      5  C5  I4B d   1       5.969   1.384  -3.742  0.00  0.00     0.002 A 
ATOM      6  C6  I4B d   1       5.981   2.707  -3.278  0.00  0.00     0.003 A 
ENDROOT
BRANCH   1   7
ATOM      7  C1' I4B d   1       5.942   5.176  -3.727  0.00  0.00     0.060 C 
BRANCH   7   8
ATOM      8  C2' I4B d   1       4.529   5.712  -3.617  0.00  0.00    -0.013 C 
ATOM      9  C4' I4B d   1       3.856   5.757  -4.964  0.00  0.00     0.013 C 
ATOM     10  C3' I4B d   1       3.774   4.835  -2.663  0.00  0.00     0.013 C 
ENDBRANCH   7   8
ENDBRANCH   1   7
TORSDOF 2
ENDMDL
