MODEL 1
REMARK minimizedAffinity 0.689364433
REMARK minimizedRMSD -1
REMARK  2 active torsions:
REMARK  status: ('A' for Active; 'I' for Inactive)
REMARK    1  A    between atoms: C2'_3  and  C1'_4 
REMARK    2  A    between atoms: C1'_4  and  C1_5 
ROOT
ATOM      1  C1  I4B d   1       5.724   5.112  -3.606  0.00  0.00    -0.075 A 
ATOM      2  C2  I4B d   1       5.253   5.669  -4.769  0.00  0.00     0.003 A 
ATOM      3  C3  I4B d   1       5.051   4.862  -5.914  0.00  0.00     0.002 A 
ATOM      4  C4  I4B d   1       5.378   3.522  -5.868  0.00  0.00    -0.004 A 
ATOM      5  C5  I4B d   1       5.834   2.955  -4.682  0.00  0.00     0.002 A 
ATOM      6  C6  I4B d   1       5.996   3.752  -3.539  0.00  0.00     0.003 A 
ENDROOT
BRANCH   1   7
ATOM      7  C1' I4B d   1       5.957   6.000  -2.424  0.00  0.00     0.060 C 
BRANCH   7   8
ATOM      8  C2' I4B d   1       5.173   5.437  -1.256  0.00  0.00    -0.013 C 
ATOM      9  C4' I4B d   1       3.785   5.031  -1.676  0.00  0.00     0.013 C 
ATOM     10  C3' I4B d   1       5.936   4.270  -0.705  0.00  0.00     0.013 C 
ENDBRANCH   7   8
ENDBRANCH   1   7
TORSDOF 2
ENDMDL
