MODEL 1
REMARK minimizedAffinity -2.66702366
REMARK minimizedRMSD -1
REMARK  2 active torsions:
REMARK  status: ('A' for Active; 'I' for Inactive)
REMARK    1  A    between atoms: C2'_3  and  C1'_4 
REMARK    2  A    between atoms: C1'_4  and  C1_5 
ROOT
ATOM      1  C1  I4B d   1       4.284   4.226  -3.774  0.00  0.00    -0.075 A 
ATOM      2  C2  I4B d   1       3.335   4.986  -3.137  0.00  0.00     0.003 A 
ATOM      3  C3  I4B d   1       3.713   5.886  -2.112  0.00  0.00     0.002 A 
ATOM      4  C4  I4B d   1       5.035   5.956  -1.722  0.00  0.00    -0.004 A 
ATOM      5  C5  I4B d   1       5.999   5.201  -2.384  0.00  0.00     0.002 A 
ATOM      6  C6  I4B d   1       5.624   4.340  -3.425  0.00  0.00     0.003 A 
ENDROOT
BRANCH   1   7
ATOM      7  C1' I4B d   1       3.845   3.262  -4.830  0.00  0.00     0.060 C 
BRANCH   7   8
ATOM      8  C2' I4B d   1       4.853   3.318  -5.961  0.00  0.00    -0.013 C 
ATOM      9  C4' I4B d   1       5.617   4.616  -5.946  0.00  0.00     0.013 C 
ATOM     10  C3' I4B d   1       5.775   2.145  -5.818  0.00  0.00     0.013 C 
ENDBRANCH   7   8
ENDBRANCH   1   7
TORSDOF 2
ENDMDL
