MODEL 1
REMARK minimizedAffinity 5.73656273
REMARK minimizedRMSD -1
REMARK  0 active torsions:
REMARK  status: ('A' for Active; 'I' for Inactive)
ROOT
ATOM      1  O1  BZF d   1      -3.374   1.110   2.933  0.00  0.00    -0.204 OA
ATOM      2  C2  BZF d   1      -4.237   0.795   1.901  0.00  0.00     0.174 A 
ATOM      3  C3  BZF d   1      -3.638  -0.019   1.008  0.00  0.00    -0.012 A 
ATOM      4  C3A BZF d   1      -2.349  -0.301   1.561  0.00  0.00    -0.107 A 
ATOM      5  C4  BZF d   1      -1.296  -1.065   1.146  0.00  0.00     0.055 A 
ATOM      6  C5  BZF d   1      -0.153  -1.069   1.881  0.00  0.00    -0.016 A 
ATOM      7  C6  BZF d   1      -0.027  -0.319   3.032  0.00  0.00     0.022 A 
ATOM      8  C7  BZF d   1      -1.046   0.450   3.486  0.00  0.00     0.029 A 
ATOM      9  C7A BZF d   1      -2.214   0.431   2.763  0.00  0.00     0.058 A 
ENDROOT
TORSDOF 0
ENDMDL
