MODEL 1
REMARK minimizedAffinity -3.57375717
REMARK minimizedRMSD -1
REMARK  0 active torsions:
REMARK  status: ('A' for Active; 'I' for Inactive)
ROOT
ATOM      1  O1  BZF d   1      -1.529   0.637  -4.275  0.00  0.00    -0.204 OA
ATOM      2  C2  BZF d   1      -1.287   0.541  -5.632  0.00  0.00     0.174 A 
ATOM      3  C3  BZF d   1      -0.674  -0.624  -5.927  0.00  0.00    -0.012 A 
ATOM      4  C3A BZF d   1      -0.607  -1.338  -4.690  0.00  0.00    -0.107 A 
ATOM      5  C4  BZF d   1      -0.122  -2.566  -4.340  0.00  0.00     0.055 A 
ATOM      6  C5  BZF d   1      -0.143  -2.936  -3.032  0.00  0.00    -0.016 A 
ATOM      7  C6  BZF d   1      -0.636  -2.103  -2.050  0.00  0.00     0.022 A 
ATOM      8  C7  BZF d   1      -1.132  -0.878  -2.349  0.00  0.00     0.029 A 
ATOM      9  C7A BZF d   1      -1.143  -0.514  -3.673  0.00  0.00     0.058 A 
ENDROOT
TORSDOF 0
ENDMDL
