MODEL 1
REMARK minimizedAffinity 0.172148034
REMARK minimizedRMSD -1
REMARK  0 active torsions:
REMARK  status: ('A' for Active; 'I' for Inactive)
ROOT
ATOM      1  O1  BZF d   1      -4.733   0.894   1.572  0.00  0.00    -0.204 OA
ATOM      2  C2  BZF d   1      -5.145   0.474   0.322  0.00  0.00     0.174 A 
ATOM      3  C3  BZF d   1      -4.191  -0.272  -0.271  0.00  0.00    -0.012 A 
ATOM      4  C3A BZF d   1      -3.152  -0.399   0.705  0.00  0.00    -0.107 A 
ATOM      5  C4  BZF d   1      -1.945  -1.038   0.714  0.00  0.00     0.055 A 
ATOM      6  C5  BZF d   1      -1.135  -0.905   1.797  0.00  0.00    -0.016 A 
ATOM      7  C6  BZF d   1      -1.497  -0.136   2.884  0.00  0.00     0.022 A 
ATOM      8  C7  BZF d   1      -2.686   0.514   2.923  0.00  0.00     0.029 A 
ATOM      9  C7A BZF d   1      -3.521   0.354   1.844  0.00  0.00     0.058 A 
ENDROOT
TORSDOF 0
ENDMDL
