MODEL 1
REMARK minimizedAffinity -0.772002995
REMARK minimizedRMSD -1
REMARK  0 active torsions:
REMARK  status: ('A' for Active; 'I' for Inactive)
ROOT
ATOM      1  O1  BZF d   1      -5.221   0.633   1.288  0.00  0.00    -0.204 OA
ATOM      2  C2  BZF d   1      -5.469   0.560  -0.069  0.00  0.00     0.174 A 
ATOM      3  C3  BZF d   1      -4.359   0.187  -0.739  0.00  0.00    -0.012 A 
ATOM      4  C3A BZF d   1      -3.380  -0.073   0.271  0.00  0.00    -0.107 A 
ATOM      5  C4  BZF d   1      -2.081  -0.493   0.234  0.00  0.00     0.055 A 
ATOM      6  C5  BZF d   1      -1.380  -0.578   1.395  0.00  0.00    -0.016 A 
ATOM      7  C6  BZF d   1      -1.944  -0.245   2.609  0.00  0.00     0.022 A 
ATOM      8  C7  BZF d   1      -3.231   0.171   2.697  0.00  0.00     0.029 A 
ATOM      9  C7A BZF d   1      -3.952   0.226   1.529  0.00  0.00     0.058 A 
ENDROOT
TORSDOF 0
ENDMDL
