MODEL 1
REMARK minimizedAffinity -2.4916718
REMARK minimizedRMSD -1
REMARK  0 active torsions:
REMARK  status: ('A' for Active; 'I' for Inactive)
ROOT
ATOM      1  O1  BZF d   1       1.714   0.692  -3.885  0.00  0.00    -0.204 OA
ATOM      2  C2  BZF d   1       2.363   0.331  -5.050  0.00  0.00     0.174 A 
ATOM      3  C3  BZF d   1       1.476  -0.028  -6.000  0.00  0.00    -0.012 A 
ATOM      4  C3A BZF d   1       0.189   0.206  -5.421  0.00  0.00    -0.107 A 
ATOM      5  C4  BZF d   1      -1.089   0.055  -5.879  0.00  0.00     0.055 A 
ATOM      6  C5  BZF d   1      -2.126   0.303  -5.037  0.00  0.00    -0.016 A 
ATOM      7  C6  BZF d   1      -1.923   0.698  -3.731  0.00  0.00     0.022 A 
ATOM      8  C7  BZF d   1      -0.674   0.866  -3.233  0.00  0.00     0.029 A 
ATOM      9  C7A BZF d   1       0.376   0.648  -4.091  0.00  0.00     0.058 A 
ENDROOT
TORSDOF 0
ENDMDL
