MODEL 1
REMARK minimizedAffinity -0.735153735
REMARK minimizedRMSD -1
REMARK  0 active torsions:
REMARK  status: ('A' for Active; 'I' for Inactive)
ROOT
ATOM      1  O1  BZF d   1      -4.879   1.165   1.230  0.00  0.00    -0.204 OA
ATOM      2  C2  BZF d   1      -5.400   0.662   0.054  0.00  0.00     0.174 A 
ATOM      3  C3  BZF d   1      -4.508  -0.142  -0.560  0.00  0.00    -0.012 A 
ATOM      4  C3A BZF d   1      -3.391  -0.214   0.331  0.00  0.00    -0.107 A 
ATOM      5  C4  BZF d   1      -2.195  -0.873   0.287  0.00  0.00     0.055 A 
ATOM      6  C5  BZF d   1      -1.295  -0.674   1.285  0.00  0.00    -0.016 A 
ATOM      7  C6  BZF d   1      -1.554   0.177   2.338  0.00  0.00     0.022 A 
ATOM      8  C7  BZF d   1      -2.728   0.848   2.429  0.00  0.00     0.029 A 
ATOM      9  C7A BZF d   1      -3.654   0.625   1.439  0.00  0.00     0.058 A 
ENDROOT
TORSDOF 0
ENDMDL
