MODEL 1
REMARK minimizedAffinity -0.361465007
REMARK minimizedRMSD -1
REMARK  0 active torsions:
REMARK  status: ('A' for Active; 'I' for Inactive)
ROOT
ATOM      1  O1  BZF d   1      -5.008  -0.087  -0.728  0.00  0.00    -0.204 OA
ATOM      2  C2  BZF d   1      -5.997   0.751  -0.251  0.00  0.00     0.174 A 
ATOM      3  C3  BZF d   1      -5.642   1.283   0.937  0.00  0.00    -0.012 A 
ATOM      4  C3A BZF d   1      -4.311   0.816   1.176  0.00  0.00    -0.107 A 
ATOM      5  C4  BZF d   1      -3.414   1.014   2.185  0.00  0.00     0.055 A 
ATOM      6  C5  BZF d   1      -2.226   0.355   2.152  0.00  0.00    -0.016 A 
ATOM      7  C6  BZF d   1      -1.906  -0.513   1.129  0.00  0.00     0.022 A 
ATOM      8  C7  BZF d   1      -2.762  -0.739   0.103  0.00  0.00     0.029 A 
ATOM      9  C7A BZF d   1      -3.949  -0.049   0.117  0.00  0.00     0.058 A 
ENDROOT
TORSDOF 0
ENDMDL
