MODEL 1
REMARK minimizedAffinity 2.54694104
REMARK minimizedRMSD -1
REMARK  0 active torsions:
REMARK  status: ('A' for Active; 'I' for Inactive)
ROOT
ATOM      1  O1  BZF d   1       2.842  -1.107  -4.873  0.00  0.00    -0.204 OA
ATOM      2  C2  BZF d   1       3.553  -0.059  -5.427  0.00  0.00     0.174 A 
ATOM      3  C3  BZF d   1       2.720   0.834  -6.000  0.00  0.00    -0.012 A 
ATOM      4  C3A BZF d   1       1.402   0.358  -5.711  0.00  0.00    -0.107 A 
ATOM      5  C4  BZF d   1       0.151   0.824  -6.000  0.00  0.00     0.055 A 
ATOM      6  C5  BZF d   1      -0.930   0.085  -5.636  0.00  0.00    -0.016 A 
ATOM      7  C6  BZF d   1      -0.797  -1.126  -4.988  0.00  0.00     0.022 A 
ATOM      8  C7  BZF d   1       0.423  -1.627  -4.675  0.00  0.00     0.029 A 
ATOM      9  C7A BZF d   1       1.516  -0.866  -5.012  0.00  0.00     0.058 A 
ENDROOT
TORSDOF 0
ENDMDL
