MODEL 1
REMARK minimizedAffinity -2.70816016
REMARK minimizedRMSD -1
REMARK  0 active torsions:
REMARK  status: ('A' for Active; 'I' for Inactive)
ROOT
ATOM      1  O1  BZF d   1       2.809   1.505  -4.268  0.00  0.00    -0.204 OA
ATOM      2  C2  BZF d   1       3.599   0.917  -5.237  0.00  0.00     0.174 A 
ATOM      3  C3  BZF d   1       2.873   0.075  -6.000  0.00  0.00    -0.012 A 
ATOM      4  C3A BZF d   1       1.527   0.210  -5.534  0.00  0.00    -0.107 A 
ATOM      5  C4  BZF d   1       0.342  -0.357  -5.908  0.00  0.00     0.055 A 
ATOM      6  C5  BZF d   1      -0.781  -0.066  -5.202  0.00  0.00    -0.016 A 
ATOM      7  C6  BZF d   1      -0.756   0.783  -4.115  0.00  0.00     0.022 A 
ATOM      8  C7  BZF d   1       0.394   1.374  -3.709  0.00  0.00     0.029 A 
ATOM      9  C7A BZF d   1       1.525   1.108  -4.441  0.00  0.00     0.058 A 
ENDROOT
TORSDOF 0
ENDMDL
