MODEL 1
REMARK minimizedAffinity -1.5625906
REMARK minimizedRMSD -1
REMARK  0 active torsions:
REMARK  status: ('A' for Active; 'I' for Inactive)
ROOT
ATOM      1  O1  BZF d   1       1.955   1.425  -4.500  0.00  0.00    -0.204 OA
ATOM      2  C2  BZF d   1       2.867   0.845  -5.361  0.00  0.00     0.174 A 
ATOM      3  C3  BZF d   1       2.334  -0.237  -5.964  0.00  0.00    -0.012 A 
ATOM      4  C3A BZF d   1       0.976  -0.287  -5.517  0.00  0.00    -0.107 A 
ATOM      5  C4  BZF d   1      -0.069  -1.127  -5.779  0.00  0.00     0.055 A 
ATOM      6  C5  BZF d   1      -1.245  -0.943  -5.123  0.00  0.00    -0.016 A 
ATOM      7  C6  BZF d   1      -1.409   0.066  -4.196  0.00  0.00     0.022 A 
ATOM      8  C7  BZF d   1      -0.403   0.927  -3.907  0.00  0.00     0.029 A 
ATOM      9  C7A BZF d   1       0.776   0.764  -4.592  0.00  0.00     0.058 A 
ENDROOT
TORSDOF 0
ENDMDL
