MODEL 1
REMARK minimizedAffinity 1.62200058
REMARK minimizedRMSD -1
REMARK  0 active torsions:
REMARK  status: ('A' for Active; 'I' for Inactive)
ROOT
ATOM      1  O1  BZF d   1      -1.083   0.754  -4.616  0.00  0.00    -0.204 OA
ATOM      2  C2  BZF d   1      -0.911   0.366  -5.931  0.00  0.00     0.174 A 
ATOM      3  C3  BZF d   1      -0.429  -0.891  -5.999  0.00  0.00    -0.012 A 
ATOM      4  C3A BZF d   1      -0.378  -1.349  -4.645  0.00  0.00    -0.107 A 
ATOM      5  C4  BZF d   1       0.000  -2.526  -4.066  0.00  0.00     0.055 A 
ATOM      6  C5  BZF d   1       0.001  -2.625  -2.710  0.00  0.00    -0.016 A 
ATOM      7  C6  BZF d   1      -0.365  -1.567  -1.905  0.00  0.00     0.022 A 
ATOM      8  C7  BZF d   1      -0.752  -0.381  -2.434  0.00  0.00     0.029 A 
ATOM      9  C7A BZF d   1      -0.786  -0.288  -3.804  0.00  0.00     0.058 A 
ENDROOT
TORSDOF 0
ENDMDL
