MODEL 1
REMARK minimizedAffinity -4.38730955
REMARK minimizedRMSD -1
REMARK  0 active torsions:
REMARK  status: ('A' for Active; 'I' for Inactive)
ROOT
ATOM      1  O1  BZF d   1      -0.489  -0.763   1.280  0.00  0.00    -0.204 OA
ATOM      2  C2  BZF d   1      -0.160  -1.402   0.100  0.00  0.00     0.174 A 
ATOM      3  C3  BZF d   1      -1.207  -1.406  -0.750  0.00  0.00    -0.012 A 
ATOM      4  C3A BZF d   1      -2.227  -0.648  -0.094  0.00  0.00    -0.107 A 
ATOM      5  C4  BZF d   1      -3.497  -0.284  -0.442  0.00  0.00     0.055 A 
ATOM      6  C5  BZF d   1      -4.258   0.396   0.455  0.00  0.00    -0.016 A 
ATOM      7  C6  BZF d   1      -3.784   0.725   1.708  0.00  0.00     0.022 A 
ATOM      8  C7  BZF d   1      -2.530   0.390   2.097  0.00  0.00     0.029 A 
ATOM      9  C7A BZF d   1      -1.747  -0.269   1.181  0.00  0.00     0.058 A 
ENDROOT
TORSDOF 0
ENDMDL
