MODEL 1
REMARK minimizedAffinity -4.22488022
REMARK minimizedRMSD -1
REMARK  0 active torsions:
REMARK  status: ('A' for Active; 'I' for Inactive)
ROOT
ATOM      1  C   UNL d   1      -1.594   0.026   1.412  0.00  0.00    -0.002 A 
ATOM      2  C1  UNL d   1      -0.676  -0.347   2.383  0.00  0.00     0.010 A 
ATOM      3  C2  UNL d   1       0.585  -0.826   2.022  0.00  0.00     0.041 A 
ATOM      4  C3  UNL d   1       0.911  -0.924   0.654  0.00  0.00    -0.075 A 
ATOM      5  S   UNL d   1       2.394  -1.482  -0.023  0.00  0.00     0.015 SA
ATOM      6  C4  UNL d   1       1.844  -1.238  -1.618  0.00  0.00     0.022 A 
ATOM      7  C5  UNL d   1       0.562  -0.744  -1.651  0.00  0.00     0.026 A 
ATOM      8  C6  UNL d   1       0.003  -0.554  -0.342  0.00  0.00    -0.082 A 
ATOM      9  C7  UNL d   1      -1.268  -0.073   0.057  0.00  0.00     0.045 A 
ENDROOT
TORSDOF 0
ENDMDL
