MODEL 1
REMARK minimizedAffinity -2.61371207
REMARK minimizedRMSD -1
REMARK  0 active torsions:
REMARK  status: ('A' for Active; 'I' for Inactive)
ROOT
ATOM      1  C   UNL d   1      -0.298   3.669  -2.364  0.00  0.00    -0.002 A 
ATOM      2  C1  UNL d   1      -1.542   3.115  -2.634  0.00  0.00     0.010 A 
ATOM      3  C2  UNL d   1      -1.774   1.754  -2.424  0.00  0.00     0.041 A 
ATOM      4  C3  UNL d   1      -0.726   0.952  -1.931  0.00  0.00    -0.075 A 
ATOM      5  S   UNL d   1      -0.780  -0.738  -1.596  0.00  0.00     0.015 SA
ATOM      6  C4  UNL d   1       0.846  -0.765  -1.085  0.00  0.00     0.022 A 
ATOM      7  C5  UNL d   1       1.431   0.477  -1.162  0.00  0.00     0.026 A 
ATOM      8  C6  UNL d   1       0.535   1.487  -1.650  0.00  0.00    -0.082 A 
ATOM      9  C7  UNL d   1       0.739   2.870  -1.875  0.00  0.00     0.045 A 
ENDROOT
TORSDOF 0
ENDMDL
