MODEL 1
REMARK minimizedAffinity -3.67931056
REMARK minimizedRMSD -1
REMARK  0 active torsions:
REMARK  status: ('A' for Active; 'I' for Inactive)
ROOT
ATOM      1  C   UNL d   1       1.250  -1.865   2.929  0.00  0.00    -0.002 A 
ATOM      2  C1  UNL d   1       2.254  -2.072   1.995  0.00  0.00     0.010 A 
ATOM      3  C2  UNL d   1       2.059  -1.731   0.655  0.00  0.00     0.041 A 
ATOM      4  C3  UNL d   1       0.827  -1.170   0.267  0.00  0.00    -0.075 A 
ATOM      5  S   UNL d   1       0.363  -0.673  -1.317  0.00  0.00     0.015 SA
ATOM      6  C4  UNL d   1      -1.178  -0.173  -0.791  0.00  0.00     0.022 A 
ATOM      7  C5  UNL d   1      -1.353  -0.373   0.558  0.00  0.00     0.026 A 
ATOM      8  C6  UNL d   1      -0.200  -0.950   1.190  0.00  0.00    -0.082 A 
ATOM      9  C7  UNL d   1       0.029  -1.308   2.541  0.00  0.00     0.045 A 
ENDROOT
TORSDOF 0
ENDMDL
