MODEL 1
REMARK minimizedAffinity -5.68891144
REMARK minimizedRMSD -1
REMARK  0 active torsions:
REMARK  status: ('A' for Active; 'I' for Inactive)
ROOT
ATOM      1  C   UNL d   1       1.479  -0.758   2.958  0.00  0.00    -0.002 A 
ATOM      2  C1  UNL d   1       0.171  -0.299   2.907  0.00  0.00     0.010 A 
ATOM      3  C2  UNL d   1      -0.489  -0.169   1.684  0.00  0.00     0.041 A 
ATOM      4  C3  UNL d   1       0.194  -0.512   0.501  0.00  0.00    -0.075 A 
ATOM      5  S   UNL d   1      -0.413  -0.434  -1.111  0.00  0.00     0.015 SA
ATOM      6  C4  UNL d   1       1.050  -1.009  -1.770  0.00  0.00     0.022 A 
ATOM      7  C5  UNL d   1       1.990  -1.259  -0.798  0.00  0.00     0.026 A 
ATOM      8  C6  UNL d   1       1.512  -0.977   0.526  0.00  0.00    -0.082 A 
ATOM      9  C7  UNL d   1       2.154  -1.098   1.782  0.00  0.00     0.045 A 
ENDROOT
TORSDOF 0
ENDMDL
