MODEL 1
REMARK minimizedAffinity -0.259004891
REMARK minimizedRMSD -1
REMARK  0 active torsions:
REMARK  status: ('A' for Active; 'I' for Inactive)
ROOT
ATOM      1  C   UNL d   1      -0.876   3.436  -2.300  0.00  0.00    -0.002 A 
ATOM      2  C1  UNL d   1       0.457   3.183  -2.593  0.00  0.00     0.010 A 
ATOM      3  C2  UNL d   1       1.074   2.016  -2.140  0.00  0.00     0.041 A 
ATOM      4  C3  UNL d   1       0.322   1.097  -1.382  0.00  0.00    -0.075 A 
ATOM      5  S   UNL d   1       0.868  -0.399  -0.722  0.00  0.00     0.015 SA
ATOM      6  C4  UNL d   1      -0.655  -0.738  -0.036  0.00  0.00     0.022 A 
ATOM      7  C5  UNL d   1      -1.569   0.255  -0.294  0.00  0.00     0.026 A 
ATOM      8  C6  UNL d   1      -1.021   1.329  -1.074  0.00  0.00    -0.082 A 
ATOM      9  C7  UNL d   1      -1.619   2.523  -1.547  0.00  0.00     0.045 A 
ENDROOT
TORSDOF 0
ENDMDL
