MODEL 1
REMARK minimizedAffinity -5.36442137
REMARK minimizedRMSD -1
REMARK  0 active torsions:
REMARK  status: ('A' for Active; 'I' for Inactive)
ROOT
ATOM      1  C   UNL d   1       1.847  -1.346   3.256  0.00  0.00    -0.002 A 
ATOM      2  C1  UNL d   1       2.801  -1.935   2.438  0.00  0.00     0.010 A 
ATOM      3  C2  UNL d   1       2.720  -1.811   1.049  0.00  0.00     0.041 A 
ATOM      4  C3  UNL d   1       1.655  -1.076   0.491  0.00  0.00    -0.075 A 
ATOM      5  S   UNL d   1       1.354  -0.790  -1.182  0.00  0.00     0.015 SA
ATOM      6  C4  UNL d   1      -0.047   0.122  -0.850  0.00  0.00     0.022 A 
ATOM      7  C5  UNL d   1      -0.294   0.215   0.499  0.00  0.00     0.026 A 
ATOM      8  C6  UNL d   1       0.683  -0.473   1.295  0.00  0.00    -0.082 A 
ATOM      9  C7  UNL d   1       0.792  -0.618   2.699  0.00  0.00     0.045 A 
ENDROOT
TORSDOF 0
ENDMDL
