MODEL 1
REMARK minimizedAffinity -2.14993429
REMARK minimizedRMSD -1
REMARK  0 active torsions:
REMARK  status: ('A' for Active; 'I' for Inactive)
ROOT
ATOM      1  C   UNL d   1      -1.477   0.145   1.967  0.00  0.00    -0.002 A 
ATOM      2  C1  UNL d   1      -1.603   0.549   0.645  0.00  0.00     0.010 A 
ATOM      3  C2  UNL d   1      -0.676   0.138  -0.315  0.00  0.00     0.041 A 
ATOM      4  C3  UNL d   1       0.389  -0.695   0.080  0.00  0.00    -0.075 A 
ATOM      5  S   UNL d   1       1.644  -1.323  -0.923  0.00  0.00     0.015 SA
ATOM      6  C4  UNL d   1       2.376  -2.143   0.379  0.00  0.00     0.022 A 
ATOM      7  C5  UNL d   1       1.694  -1.953   1.558  0.00  0.00     0.026 A 
ATOM      8  C6  UNL d   1       0.537  -1.116   1.404  0.00  0.00    -0.082 A 
ATOM      9  C7  UNL d   1      -0.419  -0.682   2.354  0.00  0.00     0.045 A 
ENDROOT
TORSDOF 0
ENDMDL
