MODEL 1
REMARK minimizedAffinity 4.2957716
REMARK minimizedRMSD -1
REMARK  1 active torsions:
REMARK  status: ('A' for Active; 'I' for Inactive)
REMARK    1  A    between atoms: N_2  and  C1_3 
ROOT
ATOM      1  C1  UNL d   1       0.065   2.598   0.852  0.00  0.00     0.143 A 
ATOM      2  C2  UNL d   1      -0.620   1.827  -0.093  0.00  0.00    -0.057 A 
ATOM      3  C3  UNL d   1      -0.969   2.351  -1.343  0.00  0.00     0.033 A 
ATOM      4  C4  UNL d   1      -0.664   3.671  -1.660  0.00  0.00    -0.042 A 
ATOM      5  C5  UNL d   1      -0.006   4.464  -0.727  0.00  0.00     0.033 A 
ATOM      6  C6  UNL d   1       0.346   3.932   0.518  0.00  0.00    -0.057 A 
ENDROOT
BRANCH   1   7
ATOM      7  N   UNL d   1       0.352   2.165   2.149  0.00  0.00    -0.732 N 
ATOM      8  C   UNL d   1      -0.127   0.884   2.621  0.00  0.00     0.284 C 
ATOM      9  H3  UNL d   1       1.307   2.380   2.427  0.00  0.00     0.395 HD
ENDBRANCH   1   7
TORSDOF 1
ENDMDL
