MODEL 1
REMARK minimizedAffinity 6.12648869
REMARK minimizedRMSD -1
REMARK  1 active torsions:
REMARK  status: ('A' for Active; 'I' for Inactive)
REMARK    1  A    between atoms: N_2  and  C1_3 
ROOT
ATOM      1  C1  UNL d   1      -0.014   2.071   1.102  0.00  0.00     0.143 A 
ATOM      2  C2  UNL d   1      -1.160   1.963   1.897  0.00  0.00    -0.057 A 
ATOM      3  C3  UNL d   1      -1.159   1.204   3.074  0.00  0.00     0.033 A 
ATOM      4  C4  UNL d   1      -0.015   0.513   3.461  0.00  0.00    -0.042 A 
ATOM      5  C5  UNL d   1       1.128   0.585   2.673  0.00  0.00     0.033 A 
ATOM      6  C6  UNL d   1       1.122   1.350   1.503  0.00  0.00    -0.057 A 
ENDROOT
BRANCH   1   7
ATOM      7  N   UNL d   1       0.019   2.729  -0.130  0.00  0.00    -0.732 N 
ATOM      8  C   UNL d   1      -0.069   1.984  -1.367  0.00  0.00     0.284 C 
ATOM      9  H3  UNL d   1      -0.522   3.591  -0.124  0.00  0.00     0.395 HD
ENDBRANCH   1   7
TORSDOF 1
ENDMDL
