MODEL 1
REMARK minimizedAffinity 6.57352686
REMARK minimizedRMSD -1
REMARK  1 active torsions:
REMARK  status: ('A' for Active; 'I' for Inactive)
REMARK    1  A    between atoms: N_2  and  C1_3 
ROOT
ATOM      1  C1  UNL d   1       0.178  -5.255  -3.890  0.00  0.00     0.143 A 
ATOM      2  C2  UNL d   1       1.442  -5.632  -3.422  0.00  0.00    -0.057 A 
ATOM      3  C3  UNL d   1       1.705  -5.744  -2.051  0.00  0.00     0.033 A 
ATOM      4  C4  UNL d   1       0.713  -5.452  -1.120  0.00  0.00    -0.042 A 
ATOM      5  C5  UNL d   1      -0.543  -5.052  -1.562  0.00  0.00     0.033 A 
ATOM      6  C6  UNL d   1      -0.801  -4.948  -2.932  0.00  0.00    -0.057 A 
ENDROOT
BRANCH   1   7
ATOM      7  N   UNL d   1      -0.117  -5.031  -5.236  0.00  0.00    -0.732 N 
ATOM      8  C   UNL d   1      -0.878  -6.000  -5.996  0.00  0.00     0.284 C 
ATOM      9  H3  UNL d   1      -0.373  -4.064  -5.422  0.00  0.00     0.395 HD
ENDBRANCH   1   7
TORSDOF 1
ENDMDL
