MODEL 1
REMARK minimizedAffinity 5.18876839
REMARK minimizedRMSD -1
REMARK  1 active torsions:
REMARK  status: ('A' for Active; 'I' for Inactive)
REMARK    1  A    between atoms: N_2  and  C1_3 
ROOT
ATOM      1  C1  UNL d   1      -0.154   2.248   0.717  0.00  0.00     0.143 A 
ATOM      2  C2  UNL d   1      -0.013   1.085  -0.048  0.00  0.00    -0.057 A 
ATOM      3  C3  UNL d   1      -0.101   1.120  -1.445  0.00  0.00     0.033 A 
ATOM      4  C4  UNL d   1      -0.361   2.318  -2.102  0.00  0.00    -0.042 A 
ATOM      5  C5  UNL d   1      -0.530   3.482  -1.360  0.00  0.00     0.033 A 
ATOM      6  C6  UNL d   1      -0.435   3.442   0.034  0.00  0.00    -0.057 A 
ENDROOT
BRANCH   1   7
ATOM      7  N   UNL d   1      -0.176   2.262   2.114  0.00  0.00    -0.732 N 
ATOM      8  C   UNL d   1      -0.671   1.122   2.855  0.00  0.00     0.284 C 
ATOM      9  H3  UNL d   1       0.660   2.684   2.511  0.00  0.00     0.395 HD
ENDBRANCH   1   7
TORSDOF 1
ENDMDL
