MODEL 1
REMARK minimizedAffinity -1.40878582
REMARK minimizedRMSD -1
REMARK  1 active torsions:
REMARK  status: ('A' for Active; 'I' for Inactive)
REMARK    1  A    between atoms: N_2  and  C1_3 
ROOT
ATOM      1  C1  UNL d   1       0.473   2.378   1.057  0.00  0.00     0.143 A 
ATOM      2  C2  UNL d   1       0.488   1.427   0.032  0.00  0.00    -0.057 A 
ATOM      3  C3  UNL d   1       0.766   0.080   0.296  0.00  0.00     0.033 A 
ATOM      4  C4  UNL d   1       1.063  -0.335   1.590  0.00  0.00    -0.042 A 
ATOM      5  C5  UNL d   1       1.078   0.598   2.621  0.00  0.00     0.033 A 
ATOM      6  C6  UNL d   1       0.793   1.940   2.352  0.00  0.00    -0.057 A 
ENDROOT
BRANCH   1   7
ATOM      7  N   UNL d   1       0.301   3.748   0.845  0.00  0.00    -0.732 N 
ATOM      8  C   UNL d   1       0.686   4.353  -0.412  0.00  0.00     0.284 C 
ATOM      9  H3  UNL d   1      -0.581   4.092   1.218  0.00  0.00     0.395 HD
ENDBRANCH   1   7
TORSDOF 1
ENDMDL
