MODEL 1
REMARK minimizedAffinity -4.16210747
REMARK minimizedRMSD -1
REMARK  0 active torsions:
REMARK  status: ('A' for Active; 'I' for Inactive)
ROOT
ATOM      1  C   UNL d   1       2.967   0.140  -0.610  0.00  0.00     0.077 C 
ATOM      2  C1  UNL d   1       1.521   0.018  -0.231  0.00  0.00    -0.074 A 
ATOM      3  C2  UNL d   1       0.658  -0.814  -0.951  0.00  0.00    -0.005 A 
ATOM      4  C3  UNL d   1      -0.683  -0.925  -0.581  0.00  0.00     0.006 A 
ATOM      5  C4  UNL d   1      -1.172  -0.207   0.511  0.00  0.00    -0.005 A 
ATOM      6  C5  UNL d   1      -0.323   0.628   1.244  0.00  0.00    -0.074 A 
ATOM      7  C6  UNL d   1      -0.830   1.399   2.427  0.00  0.00     0.077 C 
ATOM      8  C7  UNL d   1       1.024   0.729   0.870  0.00  0.00    -0.001 A 
ENDROOT
TORSDOF 0
ENDMDL
