MODEL 1
REMARK minimizedAffinity 0.936565101
REMARK minimizedRMSD -1
REMARK  0 active torsions:
REMARK  status: ('A' for Active; 'I' for Inactive)
ROOT
ATOM      1  C   UNL d   1       1.398   0.808  -1.716  0.00  0.00     0.077 C 
ATOM      2  C1  UNL d   1       0.622  -0.019  -0.734  0.00  0.00    -0.074 A 
ATOM      3  C2  UNL d   1       0.889  -1.382  -0.573  0.00  0.00    -0.005 A 
ATOM      4  C3  UNL d   1       0.165  -2.136   0.351  0.00  0.00     0.006 A 
ATOM      5  C4  UNL d   1      -0.830  -1.535   1.123  0.00  0.00    -0.005 A 
ATOM      6  C5  UNL d   1      -1.110  -0.172   0.976  0.00  0.00    -0.074 A 
ATOM      7  C6  UNL d   1      -2.170   0.492   1.805  0.00  0.00     0.077 C 
ATOM      8  C7  UNL d   1      -0.374   0.580   0.050  0.00  0.00    -0.001 A 
ENDROOT
TORSDOF 0
ENDMDL
