MODEL 1
REMARK minimizedAffinity -5.5789876
REMARK minimizedRMSD -1
REMARK  0 active torsions:
REMARK  status: ('A' for Active; 'I' for Inactive)
ROOT
ATOM      1  C   UNL d   1       3.313  -0.354  -1.164  0.00  0.00     0.077 C 
ATOM      2  C1  UNL d   1       1.859  -0.334  -0.797  0.00  0.00    -0.074 A 
ATOM      3  C2  UNL d   1       1.176   0.874  -0.629  0.00  0.00    -0.005 A 
ATOM      4  C3  UNL d   1      -0.179   0.877  -0.297  0.00  0.00     0.006 A 
ATOM      5  C4  UNL d   1      -0.863  -0.328  -0.130  0.00  0.00    -0.005 A 
ATOM      6  C5  UNL d   1      -0.197  -1.546  -0.293  0.00  0.00    -0.074 A 
ATOM      7  C6  UNL d   1      -0.920  -2.850  -0.126  0.00  0.00     0.077 C 
ATOM      8  C7  UNL d   1       1.163  -1.540  -0.634  0.00  0.00    -0.001 A 
ENDROOT
TORSDOF 0
ENDMDL
