MODEL 1
REMARK minimizedAffinity -5.068367
REMARK minimizedRMSD -1
REMARK  0 active torsions:
REMARK  status: ('A' for Active; 'I' for Inactive)
ROOT
ATOM      1  C   UNL d   1       2.084  -1.546  -0.815  0.00  0.00     0.077 C 
ATOM      2  C1  UNL d   1       0.946  -0.576  -0.925  0.00  0.00    -0.074 A 
ATOM      3  C2  UNL d   1      -0.253  -0.792  -0.239  0.00  0.00    -0.005 A 
ATOM      4  C3  UNL d   1      -1.299   0.124  -0.344  0.00  0.00     0.006 A 
ATOM      5  C4  UNL d   1      -1.157   1.265  -1.135  0.00  0.00    -0.005 A 
ATOM      6  C5  UNL d   1       0.035   1.499  -1.829  0.00  0.00    -0.074 A 
ATOM      7  C6  UNL d   1       0.208   2.724  -2.676  0.00  0.00     0.077 C 
ATOM      8  C7  UNL d   1       1.084   0.576  -1.712  0.00  0.00    -0.001 A 
ENDROOT
TORSDOF 0
ENDMDL
