MODEL 1
REMARK minimizedAffinity -4.15237999
REMARK minimizedRMSD -1
REMARK  0 active torsions:
REMARK  status: ('A' for Active; 'I' for Inactive)
ROOT
ATOM      1  C   UNL d   1      -2.137   0.398   1.217  0.00  0.00     0.077 C 
ATOM      2  C1  UNL d   1      -0.918   0.094   0.397  0.00  0.00    -0.074 A 
ATOM      3  C2  UNL d   1      -0.453  -1.218   0.260  0.00  0.00    -0.005 A 
ATOM      4  C3  UNL d   1       0.676  -1.486  -0.513  0.00  0.00     0.006 A 
ATOM      5  C4  UNL d   1       1.350  -0.448  -1.157  0.00  0.00    -0.005 A 
ATOM      6  C5  UNL d   1       0.899   0.870  -1.033  0.00  0.00    -0.074 A 
ATOM      7  C6  UNL d   1       1.606   1.997  -1.726  0.00  0.00     0.077 C 
ATOM      8  C7  UNL d   1      -0.240   1.131  -0.259  0.00  0.00    -0.001 A 
ENDROOT
TORSDOF 0
ENDMDL
