MODEL 1
REMARK minimizedAffinity -5.65796041
REMARK minimizedRMSD -1
REMARK  0 active torsions:
REMARK  status: ('A' for Active; 'I' for Inactive)
ROOT
ATOM      1  C   UNL d   1       3.254  -0.273  -1.527  0.00  0.00     0.077 C 
ATOM      2  C1  UNL d   1       1.900  -0.477  -0.916  0.00  0.00    -0.074 A 
ATOM      3  C2  UNL d   1       1.605  -1.635  -0.190  0.00  0.00    -0.005 A 
ATOM      4  C3  UNL d   1       0.344  -1.807   0.380  0.00  0.00     0.006 A 
ATOM      5  C4  UNL d   1      -0.634  -0.823   0.230  0.00  0.00    -0.005 A 
ATOM      6  C5  UNL d   1      -0.358   0.342  -0.492  0.00  0.00    -0.074 A 
ATOM      7  C6  UNL d   1      -1.396   1.413  -0.655  0.00  0.00     0.077 C 
ATOM      8  C7  UNL d   1       0.914   0.510  -1.056  0.00  0.00    -0.001 A 
ENDROOT
TORSDOF 0
ENDMDL
