MODEL 1
REMARK minimizedAffinity -4.92059278
REMARK minimizedRMSD -1
REMARK  0 active torsions:
REMARK  status: ('A' for Active; 'I' for Inactive)
ROOT
ATOM      1  C   UNL d   1       2.795  -0.241  -0.755  0.00  0.00     0.077 C 
ATOM      2  C1  UNL d   1       1.342  -0.148  -0.395  0.00  0.00    -0.074 A 
ATOM      3  C2  UNL d   1       0.457  -1.184  -0.706  0.00  0.00    -0.005 A 
ATOM      4  C3  UNL d   1      -0.890  -1.087  -0.357  0.00  0.00     0.006 A 
ATOM      5  C4  UNL d   1      -1.364   0.046   0.306  0.00  0.00    -0.005 A 
ATOM      6  C5  UNL d   1      -0.493   1.092   0.626  0.00  0.00    -0.074 A 
ATOM      7  C6  UNL d   1      -0.984   2.312   1.348  0.00  0.00     0.077 C 
ATOM      8  C7  UNL d   1       0.860   0.983   0.278  0.00  0.00    -0.001 A 
ENDROOT
TORSDOF 0
ENDMDL
