MODEL 1
REMARK minimizedAffinity -5.12675476
REMARK minimizedRMSD -1
REMARK  0 active torsions:
REMARK  status: ('A' for Active; 'I' for Inactive)
ROOT
ATOM      1  C   UNL d   1       3.194  -0.701  -1.949  0.00  0.00     0.077 C 
ATOM      2  C1  UNL d   1       1.859  -0.391  -1.339  0.00  0.00    -0.074 A 
ATOM      3  C2  UNL d   1       1.360   0.916  -1.328  0.00  0.00    -0.005 A 
ATOM      4  C3  UNL d   1       0.113   1.188  -0.766  0.00  0.00     0.006 A 
ATOM      5  C4  UNL d   1      -0.647   0.158  -0.209  0.00  0.00    -0.005 A 
ATOM      6  C5  UNL d   1      -0.164  -1.155  -0.212  0.00  0.00    -0.074 A 
ATOM      7  C6  UNL d   1      -0.972  -2.275   0.374  0.00  0.00     0.077 C 
ATOM      8  C7  UNL d   1       1.087  -1.421  -0.785  0.00  0.00    -0.001 A 
ENDROOT
TORSDOF 0
ENDMDL
