MODEL 1
REMARK minimizedAffinity -4.90749598
REMARK minimizedRMSD -1
REMARK  0 active torsions:
REMARK  status: ('A' for Active; 'I' for Inactive)
ROOT
ATOM      1  C   UNL d   1       3.131  -0.411  -1.530  0.00  0.00     0.077 C 
ATOM      2  C1  UNL d   1       1.738  -0.450  -0.974  0.00  0.00    -0.074 A 
ATOM      3  C2  UNL d   1       1.067   0.728  -0.632  0.00  0.00    -0.005 A 
ATOM      4  C3  UNL d   1      -0.231   0.677  -0.126  0.00  0.00     0.006 A 
ATOM      5  C4  UNL d   1      -0.871  -0.552   0.043  0.00  0.00    -0.005 A 
ATOM      6  C5  UNL d   1      -0.217  -1.741  -0.294  0.00  0.00    -0.074 A 
ATOM      7  C6  UNL d   1      -0.894  -3.069  -0.128  0.00  0.00     0.077 C 
ATOM      8  C7  UNL d   1       1.085  -1.680  -0.809  0.00  0.00    -0.001 A 
ENDROOT
TORSDOF 0
ENDMDL
