MODEL 1
REMARK minimizedAffinity -3.7559514
REMARK minimizedRMSD -1
REMARK  0 active torsions:
REMARK  status: ('A' for Active; 'I' for Inactive)
ROOT
ATOM      1  C   UNL d   1       2.144  -1.790  -2.363  0.00  0.00     0.077 C 
ATOM      2  C1  UNL d   1       1.804  -0.865  -1.232  0.00  0.00    -0.074 A 
ATOM      3  C2  UNL d   1       2.776  -0.036  -0.664  0.00  0.00    -0.005 A 
ATOM      4  C3  UNL d   1       2.442   0.826   0.380  0.00  0.00     0.006 A 
ATOM      5  C4  UNL d   1       1.134   0.868   0.866  0.00  0.00    -0.005 A 
ATOM      6  C5  UNL d   1       0.148   0.048   0.309  0.00  0.00    -0.074 A 
ATOM      7  C6  UNL d   1      -1.264   0.088   0.812  0.00  0.00     0.077 C 
ATOM      8  C7  UNL d   1       0.490  -0.811  -0.745  0.00  0.00    -0.001 A 
ENDROOT
TORSDOF 0
ENDMDL
