MODEL 1
REMARK minimizedAffinity -5.66932392
REMARK minimizedRMSD -1
REMARK  0 active torsions:
REMARK  status: ('A' for Active; 'I' for Inactive)
ROOT
ATOM      1  C   UNL d   1       3.271  -0.404  -1.409  0.00  0.00     0.077 C 
ATOM      2  C1  UNL d   1       1.836  -0.331  -0.978  0.00  0.00    -0.074 A 
ATOM      3  C2  UNL d   1       1.198   0.903  -0.811  0.00  0.00    -0.005 A 
ATOM      4  C3  UNL d   1      -0.140   0.955  -0.419  0.00  0.00     0.006 A 
ATOM      5  C4  UNL d   1      -0.852  -0.223  -0.191  0.00  0.00    -0.005 A 
ATOM      6  C5  UNL d   1      -0.231  -1.466  -0.354  0.00  0.00    -0.074 A 
ATOM      7  C6  UNL d   1      -0.984  -2.742  -0.123  0.00  0.00     0.077 C 
ATOM      8  C7  UNL d   1       1.112  -1.510  -0.755  0.00  0.00    -0.001 A 
ENDROOT
TORSDOF 0
ENDMDL
