MODEL 1
REMARK minimizedAffinity -4.84613752
REMARK minimizedRMSD -1
REMARK  0 active torsions:
REMARK  status: ('A' for Active; 'I' for Inactive)
ROOT
ATOM      1  C   UNL d   1       3.268  -0.806  -1.067  0.00  0.00     0.077 C 
ATOM      2  C1  UNL d   1       1.856  -0.388  -0.781  0.00  0.00    -0.074 A 
ATOM      3  C2  UNL d   1       1.000  -1.207  -0.038  0.00  0.00    -0.005 A 
ATOM      4  C3  UNL d   1      -0.307  -0.800   0.228  0.00  0.00     0.006 A 
ATOM      5  C4  UNL d   1      -0.771   0.429  -0.244  0.00  0.00    -0.005 A 
ATOM      6  C5  UNL d   1       0.071   1.262  -0.988  0.00  0.00    -0.074 A 
ATOM      7  C6  UNL d   1      -0.408   2.590  -1.495  0.00  0.00     0.077 C 
ATOM      8  C7  UNL d   1       1.386   0.849  -1.245  0.00  0.00    -0.001 A 
ENDROOT
TORSDOF 0
ENDMDL
