MODEL 1
REMARK minimizedAffinity -4.85374355
REMARK minimizedRMSD -1
REMARK  0 active torsions:
REMARK  status: ('A' for Active; 'I' for Inactive)
ROOT
ATOM      1  C   UNL d   1      -1.347   1.293  -0.999  0.00  0.00     0.077 C 
ATOM      2  C1  UNL d   1      -0.317   0.233  -0.747  0.00  0.00    -0.074 A 
ATOM      3  C2  UNL d   1      -0.626  -0.905   0.004  0.00  0.00    -0.005 A 
ATOM      4  C3  UNL d   1       0.340  -1.888   0.222  0.00  0.00     0.006 A 
ATOM      5  C4  UNL d   1       1.623  -1.742  -0.309  0.00  0.00    -0.005 A 
ATOM      6  C5  UNL d   1       1.949  -0.611  -1.064  0.00  0.00    -0.074 A 
ATOM      7  C6  UNL d   1       3.320  -0.443  -1.650  0.00  0.00     0.077 C 
ATOM      8  C7  UNL d   1       0.971   0.368  -1.284  0.00  0.00    -0.001 A 
ENDROOT
TORSDOF 0
ENDMDL
