MODEL 1
REMARK minimizedAffinity -4.00420666
REMARK minimizedRMSD -1
REMARK  0 active torsions:
REMARK  status: ('A' for Active; 'I' for Inactive)
ROOT
ATOM      1  C   UNL d   1       3.368  -0.745  -1.515  0.00  0.00     0.077 C 
ATOM      2  C1  UNL d   1       1.952  -0.536  -1.068  0.00  0.00    -0.074 A 
ATOM      3  C2  UNL d   1       1.354   0.726  -1.141  0.00  0.00    -0.005 A 
ATOM      4  C3  UNL d   1       0.032   0.903  -0.731  0.00  0.00     0.006 A 
ATOM      5  C4  UNL d   1      -0.703  -0.179  -0.245  0.00  0.00    -0.005 A 
ATOM      6  C5  UNL d   1      -0.123  -1.449  -0.166  0.00  0.00    -0.074 A 
ATOM      7  C6  UNL d   1      -0.902  -2.624   0.344  0.00  0.00     0.077 C 
ATOM      8  C7  UNL d   1       1.203  -1.620  -0.587  0.00  0.00    -0.001 A 
ENDROOT
TORSDOF 0
ENDMDL
