MODEL 1
REMARK minimizedAffinity -5.68331432
REMARK minimizedRMSD -1
REMARK  0 active torsions:
REMARK  status: ('A' for Active; 'I' for Inactive)
ROOT
ATOM      1  C   UNL d   1       3.516  -0.217  -0.966  0.00  0.00     0.077 C 
ATOM      2  C1  UNL d   1       2.041  -0.471  -0.871  0.00  0.00    -0.074 A 
ATOM      3  C2  UNL d   1       1.549  -1.737  -0.535  0.00  0.00    -0.005 A 
ATOM      4  C3  UNL d   1       0.175  -1.955  -0.442  0.00  0.00     0.006 A 
ATOM      5  C4  UNL d   1      -0.720  -0.912  -0.684  0.00  0.00    -0.005 A 
ATOM      6  C5  UNL d   1      -0.247   0.360  -1.020  0.00  0.00    -0.074 A 
ATOM      7  C6  UNL d   1      -1.196   1.494  -1.273  0.00  0.00     0.077 C 
ATOM      8  C7  UNL d   1       1.135   0.573  -1.105  0.00  0.00    -0.001 A 
ENDROOT
TORSDOF 0
ENDMDL
