MODEL 1
REMARK minimizedAffinity -4.43679047
REMARK minimizedRMSD -1
REMARK  0 active torsions:
REMARK  status: ('A' for Active; 'I' for Inactive)
ROOT
ATOM      1  C   UNL d   1      -2.010   0.268   1.957  0.00  0.00     0.077 C 
ATOM      2  C1  UNL d   1      -1.141   0.371   0.739  0.00  0.00    -0.074 A 
ATOM      3  C2  UNL d   1      -1.371   1.355  -0.227  0.00  0.00    -0.005 A 
ATOM      4  C3  UNL d   1      -0.549   1.444  -1.350  0.00  0.00     0.006 A 
ATOM      5  C4  UNL d   1       0.510   0.551  -1.518  0.00  0.00    -0.005 A 
ATOM      6  C5  UNL d   1       0.756  -0.439  -0.562  0.00  0.00    -0.074 A 
ATOM      7  C6  UNL d   1       1.896  -1.401  -0.723  0.00  0.00     0.077 C 
ATOM      8  C7  UNL d   1      -0.071  -0.518   0.567  0.00  0.00    -0.001 A 
ENDROOT
TORSDOF 0
ENDMDL
