MODEL 1
REMARK minimizedAffinity -4.77118301
REMARK minimizedRMSD -1
REMARK  0 active torsions:
REMARK  status: ('A' for Active; 'I' for Inactive)
ROOT
ATOM      1  C   UNL d   1      -1.164   1.510   3.032  0.00  0.00     0.077 C 
ATOM      2  C1  UNL d   1      -0.891   0.833   1.721  0.00  0.00    -0.074 A 
ATOM      3  C2  UNL d   1      -1.883   0.089   1.076  0.00  0.00    -0.005 A 
ATOM      4  C3  UNL d   1      -1.617  -0.527  -0.147  0.00  0.00     0.006 A 
ATOM      5  C4  UNL d   1      -0.358  -0.404  -0.736  0.00  0.00    -0.005 A 
ATOM      6  C5  UNL d   1       0.647   0.337  -0.106  0.00  0.00    -0.074 A 
ATOM      7  C6  UNL d   1       2.002   0.487  -0.730  0.00  0.00     0.077 C 
ATOM      8  C7  UNL d   1       0.369   0.958   1.119  0.00  0.00    -0.001 A 
ENDROOT
TORSDOF 0
ENDMDL
