MODEL 1
REMARK minimizedAffinity -4.59838486
REMARK minimizedRMSD -1
REMARK  0 active torsions:
REMARK  status: ('A' for Active; 'I' for Inactive)
ROOT
ATOM      1  C   UNL d   1       2.947  -0.683  -1.396  0.00  0.00     0.077 C 
ATOM      2  C1  UNL d   1       1.607  -0.289  -0.850  0.00  0.00    -0.074 A 
ATOM      3  C2  UNL d   1       1.019  -1.005   0.198  0.00  0.00    -0.005 A 
ATOM      4  C3  UNL d   1      -0.224  -0.621   0.702  0.00  0.00     0.006 A 
ATOM      5  C4  UNL d   1      -0.890   0.480   0.163  0.00  0.00    -0.005 A 
ATOM      6  C5  UNL d   1      -0.318   1.209  -0.884  0.00  0.00    -0.074 A 
ATOM      7  C6  UNL d   1      -1.016   2.401  -1.467  0.00  0.00     0.077 C 
ATOM      8  C7  UNL d   1       0.935   0.821  -1.380  0.00  0.00    -0.001 A 
ENDROOT
TORSDOF 0
ENDMDL
