MODEL 1
REMARK minimizedAffinity 18.5746078
REMARK minimizedRMSD -1
REMARK  1 active torsions:
REMARK  status: ('A' for Active; 'I' for Inactive)
REMARK    1  A    between atoms: C1_2  and  C2_3 
ROOT
ATOM      1  C2  UNL d   1       3.416   2.996  -3.683  0.00  0.00    -0.076 A 
ATOM      2  C3  UNL d   1       2.399   3.838  -4.165  0.00  0.00     0.004 A 
ATOM      3  C4  UNL d   1       1.080   3.685  -3.743  0.00  0.00    -0.003 A 
ATOM      4  C5  UNL d   1       0.756   2.687  -2.830  0.00  0.00     0.000 A 
ATOM      5  C6  UNL d   1       1.755   1.853  -2.328  0.00  0.00     0.000 A 
ATOM      6  C7  UNL d   1       3.093   2.005  -2.731  0.00  0.00    -0.073 A 
ATOM      7  C8  UNL d   1       4.128   1.075  -2.162  0.00  0.00     0.078 C 
ENDROOT
BRANCH   1   8
ATOM      8  C1  UNL d   1       4.824   3.192  -4.198  0.00  0.00     0.053 C 
ATOM      9  C   UNL d   1       5.470   4.459  -3.660  0.00  0.00     0.018 C 
ENDBRANCH   1   8
TORSDOF 1
ENDMDL
