MODEL 1
REMARK minimizedAffinity 8.27993393
REMARK minimizedRMSD -1
REMARK  1 active torsions:
REMARK  status: ('A' for Active; 'I' for Inactive)
REMARK    1  A    between atoms: C1_2  and  C2_3 
ROOT
ATOM      1  C2  UNL d   1      -3.400  -0.051   2.637  0.00  0.00    -0.076 A 
ATOM      2  C3  UNL d   1      -2.948  -0.558   1.406  0.00  0.00     0.004 A 
ATOM      3  C4  UNL d   1      -1.673  -1.106   1.281  0.00  0.00    -0.003 A 
ATOM      4  C5  UNL d   1      -0.828  -1.156   2.384  0.00  0.00     0.000 A 
ATOM      5  C6  UNL d   1      -1.266  -0.673   3.617  0.00  0.00     0.000 A 
ATOM      6  C7  UNL d   1      -2.555  -0.133   3.764  0.00  0.00    -0.073 A 
ATOM      7  C8  UNL d   1      -2.973   0.379   5.116  0.00  0.00     0.078 C 
ENDROOT
BRANCH   1   8
ATOM      8  C1  UNL d   1      -4.783   0.556   2.706  0.00  0.00     0.053 C 
ATOM      9  C   UNL d   1      -5.396   0.769   1.330  0.00  0.00     0.018 C 
ENDBRANCH   1   8
TORSDOF 1
ENDMDL
