MODEL 1
REMARK minimizedAffinity 5.51422596
REMARK minimizedRMSD -1
REMARK  1 active torsions:
REMARK  status: ('A' for Active; 'I' for Inactive)
REMARK    1  A    between atoms: C1_2  and  C2_3 
ROOT
ATOM      1  C2  UNL d   1      -3.579   4.876  -3.676  0.00  0.00    -0.076 A 
ATOM      2  C3  UNL d   1      -4.285   5.207  -4.846  0.00  0.00     0.004 A 
ATOM      3  C4  UNL d   1      -3.614   5.614  -5.998  0.00  0.00    -0.003 A 
ATOM      4  C5  UNL d   1      -2.226   5.697  -5.999  0.00  0.00     0.000 A 
ATOM      5  C6  UNL d   1      -1.509   5.355  -4.853  0.00  0.00     0.000 A 
ATOM      6  C7  UNL d   1      -2.169   4.927  -3.688  0.00  0.00    -0.073 A 
ATOM      7  C8  UNL d   1      -1.346   4.578  -2.479  0.00  0.00     0.078 C 
ENDROOT
BRANCH   1   8
ATOM      8  C1  UNL d   1      -4.362   4.467  -2.449  0.00  0.00     0.053 C 
ATOM      9  C   UNL d   1      -5.864   4.461  -2.692  0.00  0.00     0.018 C 
ENDBRANCH   1   8
TORSDOF 1
ENDMDL
