MODEL 1
REMARK minimizedAffinity 10.8416862
REMARK minimizedRMSD -1
REMARK  1 active torsions:
REMARK  status: ('A' for Active; 'I' for Inactive)
REMARK    1  A    between atoms: C1_2  and  C2_3 
ROOT
ATOM      1  C2  UNL d   1      -2.671  -1.990   2.007  0.00  0.00    -0.076 A 
ATOM      2  C3  UNL d   1      -3.664  -1.037   2.293  0.00  0.00     0.004 A 
ATOM      3  C4  UNL d   1      -3.337   0.303   2.490  0.00  0.00    -0.003 A 
ATOM      4  C5  UNL d   1      -2.011   0.713   2.403  0.00  0.00     0.000 A 
ATOM      5  C6  UNL d   1      -1.015  -0.216   2.102  0.00  0.00     0.000 A 
ATOM      6  C7  UNL d   1      -1.330  -1.568   1.885  0.00  0.00    -0.073 A 
ATOM      7  C8  UNL d   1      -0.215  -2.528   1.570  0.00  0.00     0.078 C 
ENDROOT
BRANCH   1   8
ATOM      8  C1  UNL d   1      -3.082  -3.435   1.831  0.00  0.00     0.053 C 
ATOM      9  C   UNL d   1      -4.379  -3.763   2.554  0.00  0.00     0.018 C 
ENDBRANCH   1   8
TORSDOF 1
ENDMDL
