MODEL 1
REMARK minimizedAffinity 6.33319569
REMARK minimizedRMSD -1
REMARK  1 active torsions:
REMARK  status: ('A' for Active; 'I' for Inactive)
REMARK    1  A    between atoms: C1_2  and  C2_3 
ROOT
ATOM      1  C2  UNL d   1      -1.751  -0.192   2.917  0.00  0.00    -0.076 A 
ATOM      2  C3  UNL d   1      -0.413  -0.504   2.617  0.00  0.00     0.004 A 
ATOM      3  C4  UNL d   1      -0.099  -1.475   1.668  0.00  0.00    -0.003 A 
ATOM      4  C5  UNL d   1      -1.116  -2.149   1.002  0.00  0.00     0.000 A 
ATOM      5  C6  UNL d   1      -2.448  -1.840   1.274  0.00  0.00     0.000 A 
ATOM      6  C7  UNL d   1      -2.783  -0.852   2.217  0.00  0.00    -0.073 A 
ATOM      7  C8  UNL d   1      -4.237  -0.564   2.475  0.00  0.00     0.078 C 
ENDROOT
BRANCH   1   8
ATOM      8  C1  UNL d   1      -2.032   0.851   3.976  0.00  0.00     0.053 C 
ATOM      9  C   UNL d   1      -2.208   0.244   5.359  0.00  0.00     0.018 C 
ENDBRANCH   1   8
TORSDOF 1
ENDMDL
