MODEL 1
REMARK minimizedAffinity -1.66512501
REMARK minimizedRMSD -1
REMARK  1 active torsions:
REMARK  status: ('A' for Active; 'I' for Inactive)
REMARK    1  A    between atoms: C1_2  and  C2_3 
ROOT
ATOM      1  C2  UNL d   1      -4.175   0.116   4.623  0.00  0.00    -0.076 A 
ATOM      2  C3  UNL d   1      -3.554   0.415   3.397  0.00  0.00     0.004 A 
ATOM      3  C4  UNL d   1      -3.682  -0.438   2.302  0.00  0.00    -0.003 A 
ATOM      4  C5  UNL d   1      -4.435  -1.602   2.414  0.00  0.00     0.000 A 
ATOM      5  C6  UNL d   1      -5.072  -1.904   3.616  0.00  0.00     0.000 A 
ATOM      6  C7  UNL d   1      -4.966  -1.047   4.726  0.00  0.00    -0.073 A 
ATOM      7  C8  UNL d   1      -5.670  -1.426   6.000  0.00  0.00     0.078 C 
ENDROOT
BRANCH   1   8
ATOM      8  C1  UNL d   1      -3.977   1.064   5.784  0.00  0.00     0.053 C 
ATOM      9  C   UNL d   1      -2.791   1.994   5.582  0.00  0.00     0.018 C 
ENDBRANCH   1   8
TORSDOF 1
ENDMDL
