MODEL 1
REMARK minimizedAffinity 6.3323369
REMARK minimizedRMSD -1
REMARK  1 active torsions:
REMARK  status: ('A' for Active; 'I' for Inactive)
REMARK    1  A    between atoms: C1_2  and  C2_3 
ROOT
ATOM      1  C2  UNL d   1      -3.610   5.290  -4.354  0.00  0.00    -0.076 A 
ATOM      2  C3  UNL d   1      -3.256   4.673  -3.142  0.00  0.00     0.004 A 
ATOM      3  C4  UNL d   1      -4.230   4.170  -2.282  0.00  0.00    -0.003 A 
ATOM      4  C5  UNL d   1      -5.575   4.274  -2.621  0.00  0.00     0.000 A 
ATOM      5  C6  UNL d   1      -5.943   4.867  -3.828  0.00  0.00     0.000 A 
ATOM      6  C7  UNL d   1      -4.972   5.365  -4.714  0.00  0.00    -0.073 A 
ATOM      7  C8  UNL d   1      -5.426   6.000  -6.000  0.00  0.00     0.078 C 
ENDROOT
BRANCH   1   8
ATOM      8  C1  UNL d   1      -2.511   5.842  -5.234  0.00  0.00     0.053 C 
ATOM      9  C   UNL d   1      -1.474   4.791  -5.600  0.00  0.00     0.018 C 
ENDBRANCH   1   8
TORSDOF 1
ENDMDL
