MODEL 1
REMARK minimizedAffinity 10.4441509
REMARK minimizedRMSD -1
REMARK  1 active torsions:
REMARK  status: ('A' for Active; 'I' for Inactive)
REMARK    1  A    between atoms: C1_2  and  C2_3 
ROOT
ATOM      1  C2  UNL d   1      -4.651  -0.011   4.620  0.00  0.00    -0.076 A 
ATOM      2  C3  UNL d   1      -4.262   0.552   5.848  0.00  0.00     0.004 A 
ATOM      3  C4  UNL d   1      -3.025   1.177   5.991  0.00  0.00    -0.003 A 
ATOM      4  C5  UNL d   1      -2.156   1.251   4.908  0.00  0.00     0.000 A 
ATOM      5  C6  UNL d   1      -2.533   0.714   3.677  0.00  0.00     0.000 A 
ATOM      6  C7  UNL d   1      -3.783   0.095   3.512  0.00  0.00    -0.073 A 
ATOM      7  C8  UNL d   1      -4.135  -0.473   2.164  0.00  0.00     0.078 C 
ENDROOT
BRANCH   1   8
ATOM      8  C1  UNL d   1      -5.994  -0.700   4.532  0.00  0.00     0.053 C 
ATOM      9  C   UNL d   1      -5.879  -2.214   4.630  0.00  0.00     0.018 C 
ENDBRANCH   1   8
TORSDOF 1
ENDMDL
