MODEL 1
REMARK minimizedAffinity -2.29132938
REMARK minimizedRMSD -1
REMARK  1 active torsions:
REMARK  status: ('A' for Active; 'I' for Inactive)
REMARK    1  A    between atoms: C1_2  and  C2_3 
ROOT
ATOM      1  C2  UNL d   1      -3.380  -0.038   4.252  0.00  0.00    -0.076 A 
ATOM      2  C3  UNL d   1      -4.574  -0.347   4.926  0.00  0.00     0.004 A 
ATOM      3  C4  UNL d   1      -5.346  -1.445   4.551  0.00  0.00    -0.003 A 
ATOM      4  C5  UNL d   1      -4.936  -2.253   3.496  0.00  0.00     0.000 A 
ATOM      5  C6  UNL d   1      -3.745  -1.972   2.827  0.00  0.00     0.000 A 
ATOM      6  C7  UNL d   1      -2.947  -0.878   3.203  0.00  0.00    -0.073 A 
ATOM      7  C8  UNL d   1      -1.675  -0.618   2.444  0.00  0.00     0.078 C 
ENDROOT
BRANCH   1   8
ATOM      8  C1  UNL d   1      -2.597   1.181   4.686  0.00  0.00     0.053 C 
ATOM      9  C   UNL d   1      -1.863   0.965   6.000  0.00  0.00     0.018 C 
ENDBRANCH   1   8
TORSDOF 1
ENDMDL
