MODEL 1
REMARK minimizedAffinity 13.1056719
REMARK minimizedRMSD -1
REMARK  1 active torsions:
REMARK  status: ('A' for Active; 'I' for Inactive)
REMARK    1  A    between atoms: C1_2  and  C2_3 
ROOT
ATOM      1  C2  UNL d   1      -2.346   0.417   3.404  0.00  0.00    -0.076 A 
ATOM      2  C3  UNL d   1      -1.046  -0.030   3.113  0.00  0.00     0.004 A 
ATOM      3  C4  UNL d   1      -0.819  -0.974   2.114  0.00  0.00    -0.003 A 
ATOM      4  C5  UNL d   1      -1.889  -1.487   1.388  0.00  0.00     0.000 A 
ATOM      5  C6  UNL d   1      -3.184  -1.041   1.651  0.00  0.00     0.000 A 
ATOM      6  C7  UNL d   1      -3.428  -0.078   2.645  0.00  0.00    -0.073 A 
ATOM      7  C8  UNL d   1      -4.845   0.362   2.890  0.00  0.00     0.078 C 
ENDROOT
BRANCH   1   8
ATOM      8  C1  UNL d   1      -2.534   1.423   4.517  0.00  0.00     0.053 C 
ATOM      9  C   UNL d   1      -2.857   0.764   5.850  0.00  0.00     0.018 C 
ENDBRANCH   1   8
TORSDOF 1
ENDMDL
