MODEL 1
REMARK minimizedAffinity 9.40874958
REMARK minimizedRMSD -1
REMARK  1 active torsions:
REMARK  status: ('A' for Active; 'I' for Inactive)
REMARK    1  A    between atoms: C1_2  and  C2_3 
ROOT
ATOM      1  C2  UNL d   1       3.608   3.018  -2.462  0.00  0.00    -0.076 A 
ATOM      2  C3  UNL d   1       3.956   3.385  -1.151  0.00  0.00     0.004 A 
ATOM      3  C4  UNL d   1       5.143   4.068  -0.888  0.00  0.00    -0.003 A 
ATOM      4  C5  UNL d   1       6.000   4.396  -1.933  0.00  0.00     0.000 A 
ATOM      5  C6  UNL d   1       5.662   4.055  -3.242  0.00  0.00     0.000 A 
ATOM      6  C7  UNL d   1       4.462   3.381  -3.526  0.00  0.00    -0.073 A 
ATOM      7  C8  UNL d   1       4.150   3.032  -4.956  0.00  0.00     0.078 C 
ENDROOT
BRANCH   1   8
ATOM      8  C1  UNL d   1       2.322   2.254  -2.683  0.00  0.00     0.053 C 
ATOM      9  C   UNL d   1       1.274   3.078  -3.415  0.00  0.00     0.018 C 
ENDBRANCH   1   8
TORSDOF 1
ENDMDL
