MODEL 1
REMARK minimizedAffinity 7.02462006
REMARK minimizedRMSD -1
REMARK  1 active torsions:
REMARK  status: ('A' for Active; 'I' for Inactive)
REMARK    1  A    between atoms: C1_2  and  C2_3 
ROOT
ATOM      1  C2  UNL d   1      -3.739   0.025   3.634  0.00  0.00    -0.076 A 
ATOM      2  C3  UNL d   1      -3.383  -1.316   3.410  0.00  0.00     0.004 A 
ATOM      3  C4  UNL d   1      -4.322  -2.242   2.959  0.00  0.00    -0.003 A 
ATOM      4  C5  UNL d   1      -5.633  -1.842   2.725  0.00  0.00     0.000 A 
ATOM      5  C6  UNL d   1      -5.999  -0.511   2.925  0.00  0.00     0.000 A 
ATOM      6  C7  UNL d   1      -5.061   0.439   3.363  0.00  0.00    -0.073 A 
ATOM      7  C8  UNL d   1      -5.513   1.859   3.568  0.00  0.00     0.078 C 
ENDROOT
BRANCH   1   8
ATOM      8  C1  UNL d   1      -2.684   0.979   4.148  0.00  0.00     0.053 C 
ATOM      9  C   UNL d   1      -1.402   0.267   4.551  0.00  0.00     0.018 C 
ENDBRANCH   1   8
TORSDOF 1
ENDMDL
