MODEL 1
REMARK minimizedAffinity 13.5332003
REMARK minimizedRMSD -1
REMARK  0 active torsions:
REMARK  status: ('A' for Active; 'I' for Inactive)
ROOT
ATOM      1  C   UNL d   1      -5.709   3.786   2.140  0.00  0.00    -0.002 A 
ATOM      2  C1  UNL d   1      -5.799   4.531   0.973  0.00  0.00     0.010 A 
ATOM      3  C2  UNL d   1      -4.777   4.489   0.023  0.00  0.00     0.041 A 
ATOM      4  C3  UNL d   1      -3.652   3.677   0.268  0.00  0.00    -0.075 A 
ATOM      5  S   UNL d   1      -2.279   3.468  -0.753  0.00  0.00     0.015 SA
ATOM      6  C4  UNL d   1      -1.541   2.384   0.336  0.00  0.00     0.022 A 
ATOM      7  C5  UNL d   1      -2.309   2.176   1.457  0.00  0.00     0.026 A 
ATOM      8  C6  UNL d   1      -3.539   2.917   1.436  0.00  0.00    -0.082 A 
ATOM      9  C7  UNL d   1      -4.592   2.982   2.380  0.00  0.00     0.045 A 
ENDROOT
TORSDOF 0
ENDMDL
