MODEL 1
REMARK minimizedAffinity 15.0300045
REMARK minimizedRMSD -1
REMARK  0 active torsions:
REMARK  status: ('A' for Active; 'I' for Inactive)
ROOT
ATOM      1  C   UNL d   1       1.524  -3.383   5.072  0.00  0.00    -0.002 A 
ATOM      2  C1  UNL d   1       2.305  -4.084   4.164  0.00  0.00     0.010 A 
ATOM      3  C2  UNL d   1       2.668  -3.508   2.945  0.00  0.00     0.041 A 
ATOM      4  C3  UNL d   1       2.230  -2.201   2.652  0.00  0.00    -0.075 A 
ATOM      5  S   UNL d   1       2.552  -1.293   1.222  0.00  0.00     0.015 SA
ATOM      6  C4  UNL d   1       1.662   0.048   1.783  0.00  0.00     0.022 A 
ATOM      7  C5  UNL d   1       1.124  -0.175   3.029  0.00  0.00     0.026 A 
ATOM      8  C6  UNL d   1       1.443  -1.474   3.550  0.00  0.00    -0.082 A 
ATOM      9  C7  UNL d   1       1.092  -2.087   4.777  0.00  0.00     0.045 A 
ENDROOT
TORSDOF 0
ENDMDL
