MODEL 1
REMARK minimizedAffinity 14.6565638
REMARK minimizedRMSD -1
REMARK  0 active torsions:
REMARK  status: ('A' for Active; 'I' for Inactive)
ROOT
ATOM      1  C   UNL d   1       1.120  -4.606   4.641  0.00  0.00    -0.002 A 
ATOM      2  C1  UNL d   1       2.125  -4.973   3.758  0.00  0.00     0.010 A 
ATOM      3  C2  UNL d   1       2.855  -4.001   3.071  0.00  0.00     0.041 A 
ATOM      4  C3  UNL d   1       2.557  -2.642   3.291  0.00  0.00    -0.075 A 
ATOM      5  S   UNL d   1       3.320  -1.279   2.562  0.00  0.00     0.015 SA
ATOM      6  C4  UNL d   1       2.331  -0.178   3.407  0.00  0.00     0.022 A 
ATOM      7  C5  UNL d   1       1.434  -0.818   4.229  0.00  0.00     0.026 A 
ATOM      8  C6  UNL d   1       1.550  -2.248   4.176  0.00  0.00    -0.082 A 
ATOM      9  C7  UNL d   1       0.826  -3.257   4.857  0.00  0.00     0.045 A 
ENDROOT
TORSDOF 0
ENDMDL
