MODEL 1
REMARK minimizedAffinity 3.08113909
REMARK minimizedRMSD -1
REMARK  0 active torsions:
REMARK  status: ('A' for Active; 'I' for Inactive)
ROOT
ATOM      1  C   UNL d   1       4.983  -3.177   5.935  0.00  0.00    -0.002 A 
ATOM      2  C1  UNL d   1       5.993  -2.383   5.409  0.00  0.00     0.010 A 
ATOM      3  C2  UNL d   1       5.713  -1.447   4.411  0.00  0.00     0.041 A 
ATOM      4  C3  UNL d   1       4.389  -1.319   3.949  0.00  0.00    -0.075 A 
ATOM      5  S   UNL d   1       3.812  -0.239   2.735  0.00  0.00     0.015 SA
ATOM      6  C4  UNL d   1       2.211  -0.805   2.887  0.00  0.00     0.022 A 
ATOM      7  C5  UNL d   1       2.102  -1.794   3.836  0.00  0.00     0.026 A 
ATOM      8  C6  UNL d   1       3.355  -2.106   4.464  0.00  0.00    -0.082 A 
ATOM      9  C7  UNL d   1       3.671  -3.047   5.473  0.00  0.00     0.045 A 
ENDROOT
TORSDOF 0
ENDMDL
