MODEL 1
REMARK minimizedAffinity 7.74475002
REMARK minimizedRMSD -1
REMARK  0 active torsions:
REMARK  status: ('A' for Active; 'I' for Inactive)
ROOT
ATOM      1  C   UNL d   1       2.954   2.413   3.134  0.00  0.00    -0.002 A 
ATOM      2  C1  UNL d   1       2.479   2.188   4.418  0.00  0.00     0.010 A 
ATOM      3  C2  UNL d   1       2.018   0.924   4.793  0.00  0.00     0.041 A 
ATOM      4  C3  UNL d   1       2.045  -0.119   3.847  0.00  0.00    -0.075 A 
ATOM      5  S   UNL d   1       1.532  -1.749   4.082  0.00  0.00     0.015 SA
ATOM      6  C4  UNL d   1       1.932  -2.184   2.483  0.00  0.00     0.022 A 
ATOM      7  C5  UNL d   1       2.445  -1.124   1.773  0.00  0.00     0.026 A 
ATOM      8  C6  UNL d   1       2.519   0.083   2.548  0.00  0.00    -0.082 A 
ATOM      9  C7  UNL d   1       2.979   1.376   2.198  0.00  0.00     0.045 A 
ENDROOT
TORSDOF 0
ENDMDL
