MODEL 1
REMARK minimizedAffinity -4.93762732
REMARK minimizedRMSD -1
REMARK  0 active torsions:
REMARK  status: ('A' for Active; 'I' for Inactive)
ROOT
ATOM      1  C4' PXY d   1      -0.618   1.064  -1.870  0.00  0.00     0.077 C 
ATOM      2  C1' PXY d   1      -2.513  -3.049   1.722  0.00  0.00     0.077 C 
ATOM      3  C1  PXY d   1      -2.025  -1.974   0.771  0.00  0.00    -0.082 A 
ATOM      4  C2  PXY d   1      -0.775  -1.547   0.852  0.00  0.00     0.003 A 
ATOM      5  C3  PXY d   1      -0.327  -0.553   0.021  0.00  0.00     0.003 A 
ATOM      6  C4  PXY d   1      -1.151  -0.027  -0.937  0.00  0.00    -0.082 A 
ATOM      7  C5  PXY d   1      -2.425  -0.464  -1.033  0.00  0.00     0.003 A 
ATOM      8  C6  PXY d   1      -2.873  -1.445  -0.153  0.00  0.00     0.003 A 
ENDROOT
TORSDOF 0
ENDMDL
