MODEL 1
REMARK minimizedAffinity -3.84360623
REMARK minimizedRMSD -1
REMARK  0 active torsions:
REMARK  status: ('A' for Active; 'I' for Inactive)
ROOT
ATOM      1  C4' PXY d   1       2.269   0.690   0.083  0.00  0.00     0.077 C 
ATOM      2  C1' PXY d   1      -3.248  -0.942  -0.479  0.00  0.00     0.077 C 
ATOM      3  C1  PXY d   1      -1.802  -0.513  -0.319  0.00  0.00    -0.082 A 
ATOM      4  C2  PXY d   1      -1.171   0.051  -1.335  0.00  0.00     0.003 A 
ATOM      5  C3  PXY d   1       0.146   0.415  -1.218  0.00  0.00     0.003 A 
ATOM      6  C4  PXY d   1       0.807   0.250  -0.030  0.00  0.00    -0.082 A 
ATOM      7  C5  PXY d   1       0.166  -0.315   1.015  0.00  0.00     0.003 A 
ATOM      8  C6  PXY d   1      -1.158  -0.716   0.862  0.00  0.00     0.003 A 
ENDROOT
TORSDOF 0
ENDMDL
