MODEL 1
REMARK minimizedAffinity -5.08353615
REMARK minimizedRMSD -1
REMARK  0 active torsions:
REMARK  status: ('A' for Active; 'I' for Inactive)
ROOT
ATOM      1  C4' PXY d   1       1.900   0.536  -0.230  0.00  0.00     0.077 C 
ATOM      2  C1' PXY d   1      -3.448  -1.644   0.014  0.00  0.00     0.077 C 
ATOM      3  C1  PXY d   1      -2.046  -1.071  -0.063  0.00  0.00    -0.082 A 
ATOM      4  C2  PXY d   1      -1.192  -1.298   0.922  0.00  0.00     0.003 A 
ATOM      5  C3  PXY d   1       0.069  -0.761   0.883  0.00  0.00     0.003 A 
ATOM      6  C4  PXY d   1       0.478  -0.029  -0.199  0.00  0.00    -0.082 A 
ATOM      7  C5  PXY d   1      -0.384   0.197  -1.213  0.00  0.00     0.003 A 
ATOM      8  C6  PXY d   1      -1.673  -0.322  -1.136  0.00  0.00     0.003 A 
ENDROOT
TORSDOF 0
ENDMDL
