MODEL 1
REMARK minimizedAffinity -5.02352953
REMARK minimizedRMSD -1
REMARK  0 active torsions:
REMARK  status: ('A' for Active; 'I' for Inactive)
ROOT
ATOM      1  C4' PXY d   1      -1.454   0.815  -2.360  0.00  0.00     0.077 C 
ATOM      2  C1' PXY d   1      -1.838  -2.931   2.026  0.00  0.00     0.077 C 
ATOM      3  C1  PXY d   1      -1.730  -1.940   0.883  0.00  0.00    -0.082 A 
ATOM      4  C2  PXY d   1      -2.632  -1.957  -0.084  0.00  0.00     0.003 A 
ATOM      5  C3  PXY d   1      -2.532  -1.090  -1.142  0.00  0.00     0.003 A 
ATOM      6  C4  PXY d   1      -1.528  -0.160  -1.182  0.00  0.00    -0.082 A 
ATOM      7  C5  PXY d   1      -0.609  -0.129  -0.193  0.00  0.00     0.003 A 
ATOM      8  C6  PXY d   1      -0.705  -1.045   0.850  0.00  0.00     0.003 A 
ENDROOT
TORSDOF 0
ENDMDL
