MODEL 1
REMARK minimizedAffinity -5.61435604
REMARK minimizedRMSD -1
REMARK  0 active torsions:
REMARK  status: ('A' for Active; 'I' for Inactive)
ROOT
ATOM      1  C4' PXY d   1      -1.850  -2.545   1.940  0.00  0.00     0.077 C 
ATOM      2  C1' PXY d   1      -0.543   1.167  -2.294  0.00  0.00     0.077 C 
ATOM      3  C1  PXY d   1      -0.899   0.196  -1.185  0.00  0.00    -0.082 A 
ATOM      4  C2  PXY d   1       0.003  -0.103  -0.265  0.00  0.00     0.003 A 
ATOM      5  C3  PXY d   1      -0.291  -1.004   0.727  0.00  0.00     0.003 A 
ATOM      6  C4  PXY d   1      -1.538  -1.563   0.807  0.00  0.00    -0.082 A 
ATOM      7  C5  PXY d   1      -2.467  -1.253  -0.122  0.00  0.00     0.003 A 
ATOM      8  C6  PXY d   1      -2.136  -0.369  -1.144  0.00  0.00     0.003 A 
ENDROOT
TORSDOF 0
ENDMDL
