MODEL 1
REMARK minimizedAffinity -5.08266878
REMARK minimizedRMSD -1
REMARK  0 active torsions:
REMARK  status: ('A' for Active; 'I' for Inactive)
ROOT
ATOM      1  C4' PXY d   1       1.654   0.534  -0.068  0.00  0.00     0.077 C 
ATOM      2  C1' PXY d   1      -3.785  -1.421  -0.161  0.00  0.00     0.077 C 
ATOM      3  C1  PXY d   1      -2.359  -0.907  -0.149  0.00  0.00    -0.082 A 
ATOM      4  C2  PXY d   1      -1.564  -1.206   0.865  0.00  0.00     0.003 A 
ATOM      5  C3  PXY d   1      -0.281  -0.723   0.907  0.00  0.00     0.003 A 
ATOM      6  C4  PXY d   1       0.210   0.030  -0.126  0.00  0.00    -0.082 A 
ATOM      7  C5  PXY d   1      -0.592   0.330  -1.170  0.00  0.00     0.003 A 
ATOM      8  C6  PXY d   1      -1.903  -0.136  -1.174  0.00  0.00     0.003 A 
ENDROOT
TORSDOF 0
ENDMDL
