MODEL 1
REMARK minimizedAffinity -3.5564661
REMARK minimizedRMSD -1
REMARK  0 active torsions:
REMARK  status: ('A' for Active; 'I' for Inactive)
ROOT
ATOM      1  C4' PXY d   1       1.875   0.536  -0.516  0.00  0.00     0.077 C 
ATOM      2  C1' PXY d   1      -3.710  -0.886  -0.071  0.00  0.00     0.077 C 
ATOM      3  C1  PXY d   1      -2.245  -0.513  -0.175  0.00  0.00    -0.082 A 
ATOM      4  C2  PXY d   1      -1.802   0.107  -1.257  0.00  0.00     0.003 A 
ATOM      5  C3  PXY d   1      -0.474   0.422  -1.381  0.00  0.00     0.003 A 
ATOM      6  C4  PXY d   1       0.401   0.149  -0.364  0.00  0.00    -0.082 A 
ATOM      7  C5  PXY d   1      -0.044  -0.474   0.748  0.00  0.00     0.003 A 
ATOM      8  C6  PXY d   1      -1.389  -0.823   0.836  0.00  0.00     0.003 A 
ENDROOT
TORSDOF 0
ENDMDL
