MODEL 1
REMARK minimizedAffinity -4.57056141
REMARK minimizedRMSD -1
REMARK  0 active torsions:
REMARK  status: ('A' for Active; 'I' for Inactive)
ROOT
ATOM      1  C4' PXY d   1       3.439   2.959   1.517  0.00  0.00     0.077 C 
ATOM      2  C1' PXY d   1      -1.084   0.286  -0.896  0.00  0.00     0.077 C 
ATOM      3  C1  PXY d   1       0.098   0.999  -0.268  0.00  0.00    -0.082 A 
ATOM      4  C2  PXY d   1       1.207   0.324  -0.011  0.00  0.00     0.003 A 
ATOM      5  C3  PXY d   1       2.274   0.946   0.586  0.00  0.00     0.003 A 
ATOM      6  C4  PXY d   1       2.224   2.283   0.875  0.00  0.00    -0.082 A 
ATOM      7  C5  PXY d   1       1.100   2.980   0.606  0.00  0.00     0.003 A 
ATOM      8  C6  PXY d   1       0.013   2.322   0.037  0.00  0.00     0.003 A 
ENDROOT
TORSDOF 0
ENDMDL
