MODEL 1
REMARK minimizedAffinity -4.27844763
REMARK minimizedRMSD -1
REMARK  0 active torsions:
REMARK  status: ('A' for Active; 'I' for Inactive)
ROOT
ATOM      1  C4' PXY d   1       1.905   0.227  -0.006  0.00  0.00     0.077 C 
ATOM      2  C1' PXY d   1      -3.491  -1.846   0.048  0.00  0.00     0.077 C 
ATOM      3  C1  PXY d   1      -2.077  -1.301   0.021  0.00  0.00    -0.082 A 
ATOM      4  C2  PXY d   1      -1.222  -1.651   0.968  0.00  0.00     0.003 A 
ATOM      5  C3  PXY d   1       0.051  -1.141   0.977  0.00  0.00     0.003 A 
ATOM      6  C4  PXY d   1       0.470  -0.307  -0.024  0.00  0.00    -0.082 A 
ATOM      7  C5  PXY d   1      -0.393   0.047  -1.000  0.00  0.00     0.003 A 
ATOM      8  C6  PXY d   1      -1.693  -0.448  -0.968  0.00  0.00     0.003 A 
ENDROOT
TORSDOF 0
ENDMDL
