MODEL 1
REMARK minimizedAffinity -5.25962543
REMARK minimizedRMSD -1
REMARK  0 active torsions:
REMARK  status: ('A' for Active; 'I' for Inactive)
ROOT
ATOM      1  C4' PXY d   1       2.169  -0.747   0.524  0.00  0.00     0.077 C 
ATOM      2  C1' PXY d   1      -3.568  -1.190  -0.036  0.00  0.00     0.077 C 
ATOM      3  C1  PXY d   1      -2.063  -1.068   0.099  0.00  0.00    -0.082 A 
ATOM      4  C2  PXY d   1      -1.408  -1.896   0.898  0.00  0.00     0.003 A 
ATOM      5  C3  PXY d   1      -0.051  -1.779   1.056  0.00  0.00     0.003 A 
ATOM      6  C4  PXY d   1       0.650  -0.839   0.350  0.00  0.00    -0.082 A 
ATOM      7  C5  PXY d   1      -0.009   0.002  -0.475  0.00  0.00     0.003 A 
ATOM      8  C6  PXY d   1      -1.392  -0.106  -0.590  0.00  0.00     0.003 A 
ENDROOT
TORSDOF 0
ENDMDL
