MODEL 1
REMARK minimizedAffinity -3.81585073
REMARK minimizedRMSD -1
REMARK  0 active torsions:
REMARK  status: ('A' for Active; 'I' for Inactive)
ROOT
ATOM      1  C4' PXY d   1       1.512   0.488   0.101  0.00  0.00     0.077 C 
ATOM      2  C1' PXY d   1      -3.746  -1.913   0.197  0.00  0.00     0.077 C 
ATOM      3  C1  PXY d   1      -2.368  -1.281   0.159  0.00  0.00    -0.082 A 
ATOM      4  C2  PXY d   1      -1.452  -1.656   1.037  0.00  0.00     0.003 A 
ATOM      5  C3  PXY d   1      -0.212  -1.071   1.038  0.00  0.00     0.003 A 
ATOM      6  C4  PXY d   1       0.111  -0.131   0.096  0.00  0.00    -0.082 A 
ATOM      7  C5  PXY d   1      -0.815   0.249  -0.810  0.00  0.00     0.003 A 
ATOM      8  C6  PXY d   1      -2.081  -0.326  -0.767  0.00  0.00     0.003 A 
ENDROOT
TORSDOF 0
ENDMDL
