MODEL 1
REMARK minimizedAffinity -4.12358379
REMARK minimizedRMSD -1
REMARK  0 active torsions:
REMARK  status: ('A' for Active; 'I' for Inactive)
ROOT
ATOM      1  C4' PXY d   1       1.570   0.262   0.071  0.00  0.00     0.077 C 
ATOM      2  C1' PXY d   1      -3.958  -1.426  -0.038  0.00  0.00     0.077 C 
ATOM      3  C1  PXY d   1      -2.509  -0.983   0.003  0.00  0.00    -0.082 A 
ATOM      4  C2  PXY d   1      -1.979  -0.378  -1.047  0.00  0.00     0.003 A 
ATOM      5  C3  PXY d   1      -0.661   0.000  -1.039  0.00  0.00     0.003 A 
ATOM      6  C4  PXY d   1       0.108  -0.195   0.077  0.00  0.00    -0.082 A 
ATOM      7  C5  PXY d   1      -0.428  -0.802   1.157  0.00  0.00     0.003 A 
ATOM      8  C6  PXY d   1      -1.756  -1.216   1.113  0.00  0.00     0.003 A 
ENDROOT
TORSDOF 0
ENDMDL
