MODEL 1
REMARK minimizedAffinity -2.96566606
REMARK minimizedRMSD -1
REMARK  0 active torsions:
REMARK  status: ('A' for Active; 'I' for Inactive)
ROOT
ATOM      1  C4' PXY d   1       1.887   0.688   0.476  0.00  0.00     0.077 C 
ATOM      2  C1' PXY d   1      -3.406  -1.444  -0.446  0.00  0.00     0.077 C 
ATOM      3  C1  PXY d   1      -2.015  -0.888  -0.216  0.00  0.00    -0.082 A 
ATOM      4  C2  PXY d   1      -1.533  -0.819   1.014  0.00  0.00     0.003 A 
ATOM      5  C3  PXY d   1      -0.289  -0.289   1.243  0.00  0.00     0.003 A 
ATOM      6  C4  PXY d   1       0.491   0.125   0.196  0.00  0.00    -0.082 A 
ATOM      7  C5  PXY d   1       0.010   0.047  -1.063  0.00  0.00     0.003 A 
ATOM      8  C6  PXY d   1      -1.271  -0.456  -1.270  0.00  0.00     0.003 A 
ENDROOT
TORSDOF 0
ENDMDL
