MODEL 1
REMARK minimizedAffinity -3.7037046
REMARK minimizedRMSD -1
REMARK  0 active torsions:
REMARK  status: ('A' for Active; 'I' for Inactive)
ROOT
ATOM      1  C4' PXY d   1       1.711   0.601   0.070  0.00  0.00     0.077 C 
ATOM      2  C1' PXY d   1      -3.730  -1.352   0.012  0.00  0.00     0.077 C 
ATOM      3  C1  PXY d   1      -2.303  -0.839   0.014  0.00  0.00    -0.082 A 
ATOM      4  C2  PXY d   1      -1.522  -1.083   1.054  0.00  0.00     0.003 A 
ATOM      5  C3  PXY d   1      -0.240  -0.599   1.087  0.00  0.00     0.003 A 
ATOM      6  C4  PXY d   1       0.266   0.095   0.020  0.00  0.00    -0.082 A 
ATOM      7  C5  PXY d   1      -0.520   0.338  -1.049  0.00  0.00     0.003 A 
ATOM      8  C6  PXY d   1      -1.833  -0.126  -1.045  0.00  0.00     0.003 A 
ENDROOT
TORSDOF 0
ENDMDL
