MODEL 1
REMARK minimizedAffinity -4.75108671
REMARK minimizedRMSD -1
REMARK  0 active torsions:
REMARK  status: ('A' for Active; 'I' for Inactive)
ROOT
ATOM      1  C4' PXY d   1       1.590   0.057  -0.275  0.00  0.00     0.077 C 
ATOM      2  C1' PXY d   1      -3.829  -1.904   0.173  0.00  0.00     0.077 C 
ATOM      3  C1  PXY d   1      -2.410  -1.386   0.043  0.00  0.00    -0.082 A 
ATOM      4  C2  PXY d   1      -1.466  -1.856   0.843  0.00  0.00     0.003 A 
ATOM      5  C3  PXY d   1      -0.185  -1.376   0.760  0.00  0.00     0.003 A 
ATOM      6  C4  PXY d   1       0.146  -0.443  -0.186  0.00  0.00    -0.082 A 
ATOM      7  C5  PXY d   1      -0.809   0.033  -1.013  0.00  0.00     0.003 A 
ATOM      8  C6  PXY d   1      -2.112  -0.437  -0.886  0.00  0.00     0.003 A 
ENDROOT
TORSDOF 0
ENDMDL
