MODEL 1
REMARK minimizedAffinity -2.81646848
REMARK minimizedRMSD -1
REMARK  0 active torsions:
REMARK  status: ('A' for Active; 'I' for Inactive)
ROOT
ATOM      1  C4' PXY d   1       1.887   0.669   0.313  0.00  0.00     0.077 C 
ATOM      2  C1' PXY d   1      -3.362  -1.566  -0.616  0.00  0.00     0.077 C 
ATOM      3  C1  PXY d   1      -1.986  -0.985  -0.360  0.00  0.00    -0.082 A 
ATOM      4  C2  PXY d   1      -1.569   0.048  -1.074  0.00  0.00     0.003 A 
ATOM      5  C3  PXY d   1      -0.315   0.566  -0.878  0.00  0.00     0.003 A 
ATOM      6  C4  PXY d   1       0.501   0.055   0.096  0.00  0.00    -0.082 A 
ATOM      7  C5  PXY d   1       0.079  -0.991   0.836  0.00  0.00     0.003 A 
ATOM      8  C6  PXY d   1      -1.182  -1.529   0.593  0.00  0.00     0.003 A 
ENDROOT
TORSDOF 0
ENDMDL
