MODEL 1
REMARK minimizedAffinity -3.81957746
REMARK minimizedRMSD -1
REMARK  0 active torsions:
REMARK  status: ('A' for Active; 'I' for Inactive)
ROOT
ATOM      1  C4' PXY d   1      -3.989  -1.514  -0.221  0.00  0.00     0.077 C 
ATOM      2  C1' PXY d   1       1.612  -0.354   0.612  0.00  0.00     0.077 C 
ATOM      3  C1  PXY d   1       0.145  -0.670   0.399  0.00  0.00    -0.082 A 
ATOM      4  C2  PXY d   1      -0.536  -0.020  -0.531  0.00  0.00     0.003 A 
ATOM      5  C3  PXY d   1      -1.871  -0.271  -0.716  0.00  0.00     0.003 A 
ATOM      6  C4  PXY d   1      -2.504  -1.234   0.023  0.00  0.00    -0.082 A 
ATOM      7  C5  PXY d   1      -1.814  -1.909   0.967  0.00  0.00     0.003 A 
ATOM      8  C6  PXY d   1      -0.469  -1.611   1.167  0.00  0.00     0.003 A 
ENDROOT
TORSDOF 0
ENDMDL
