MODEL 1
REMARK minimizedAffinity -1.67016542
REMARK minimizedRMSD -1
REMARK  0 active torsions:
REMARK  status: ('A' for Active; 'I' for Inactive)
ROOT
ATOM      1  C4' PXY d   1      -3.443  -0.611  -0.180  0.00  0.00     0.077 C 
ATOM      2  C1' PXY d   1       2.257   0.334  -0.010  0.00  0.00     0.077 C 
ATOM      3  C1  PXY d   1       0.761   0.095  -0.064  0.00  0.00    -0.082 A 
ATOM      4  C2  PXY d   1       0.138  -0.391   0.997  0.00  0.00     0.003 A 
ATOM      5  C3  PXY d   1      -1.209  -0.643   0.955  0.00  0.00     0.003 A 
ATOM      6  C4  PXY d   1      -1.935  -0.345  -0.167  0.00  0.00    -0.082 A 
ATOM      7  C5  PXY d   1      -1.308   0.161  -1.250  0.00  0.00     0.003 A 
ATOM      8  C6  PXY d   1       0.067   0.371  -1.201  0.00  0.00     0.003 A 
ENDROOT
TORSDOF 0
ENDMDL
