MODEL 1
REMARK minimizedAffinity -1.16420853
REMARK minimizedRMSD -1
REMARK  2 active torsions:
REMARK  status: ('A' for Active; 'I' for Inactive)
REMARK    1  A    between atoms: C2'_3  and  C1'_4 
REMARK    2  A    between atoms: C1'_4  and  C1_5 
ROOT
ATOM      1  C1  I4B d   1       0.075   0.620  -0.311  0.00  0.00    -0.075 A 
ATOM      2  C2  I4B d   1      -0.536   1.056   0.838  0.00  0.00     0.003 A 
ATOM      3  C3  I4B d   1      -0.596   2.440   1.133  0.00  0.00     0.002 A 
ATOM      4  C4  I4B d   1       0.009   3.343   0.282  0.00  0.00    -0.004 A 
ATOM      5  C5  I4B d   1       0.608   2.900  -0.894  0.00  0.00     0.002 A 
ATOM      6  C6  I4B d   1       0.631   1.531  -1.199  0.00  0.00     0.003 A 
ENDROOT
BRANCH   1   7
ATOM      7  C1' I4B d   1       0.148  -0.851  -0.574  0.00  0.00     0.060 C 
BRANCH   7   8
ATOM      8  C2' I4B d   1       1.037  -1.471   0.485  0.00  0.00    -0.013 C 
ATOM      9  C4' I4B d   1       2.205  -0.577   0.809  0.00  0.00     0.013 C 
ATOM     10  C3' I4B d   1       0.198  -1.727   1.701  0.00  0.00     0.013 C 
ENDBRANCH   7   8
ENDBRANCH   1   7
TORSDOF 2
ENDMDL
