MODEL 1
REMARK minimizedAffinity 2.6517036
REMARK minimizedRMSD -1
REMARK  2 active torsions:
REMARK  status: ('A' for Active; 'I' for Inactive)
REMARK    1  A    between atoms: C2'_3  and  C1'_4 
REMARK    2  A    between atoms: C1'_4  and  C1_5 
ROOT
ATOM      1  C1  I4B d   1      -0.020   2.133   0.257  0.00  0.00    -0.075 A 
ATOM      2  C2  I4B d   1      -0.987   1.183   0.473  0.00  0.00     0.003 A 
ATOM      3  C3  I4B d   1      -2.008   1.410   1.427  0.00  0.00     0.002 A 
ATOM      4  C4  I4B d   1      -1.995   2.570   2.174  0.00  0.00    -0.004 A 
ATOM      5  C5  I4B d   1      -1.027   3.542   1.937  0.00  0.00     0.002 A 
ATOM      6  C6  I4B d   1      -0.040   3.328   0.964  0.00  0.00     0.003 A 
ENDROOT
BRANCH   1   7
ATOM      7  C1' I4B d   1       1.063   1.847  -0.735  0.00  0.00     0.060 C 
BRANCH   7   8
ATOM      8  C2' I4B d   1       1.567   0.440  -0.483  0.00  0.00    -0.013 C 
ATOM      9  C4' I4B d   1       2.387  -0.061  -1.642  0.00  0.00     0.013 C 
ATOM     10  C3' I4B d   1       2.372   0.457   0.782  0.00  0.00     0.013 C 
ENDBRANCH   7   8
ENDBRANCH   1   7
TORSDOF 2
ENDMDL
