MODEL 1
REMARK minimizedAffinity -1.41900897
REMARK minimizedRMSD -1
REMARK  2 active torsions:
REMARK  status: ('A' for Active; 'I' for Inactive)
REMARK    1  A    between atoms: C2'_3  and  C1'_4 
REMARK    2  A    between atoms: C1'_4  and  C1_5 
ROOT
ATOM      1  C1  I4B d   1      -0.564   1.720   0.911  0.00  0.00    -0.075 A 
ATOM      2  C2  I4B d   1      -1.223   0.581   1.302  0.00  0.00     0.003 A 
ATOM      3  C3  I4B d   1      -1.087  -0.614   0.554  0.00  0.00     0.002 A 
ATOM      4  C4  I4B d   1      -0.328  -0.611  -0.599  0.00  0.00    -0.004 A 
ATOM      5  C5  I4B d   1       0.357   0.538  -0.981  0.00  0.00     0.002 A 
ATOM      6  C6  I4B d   1       0.249   1.708  -0.215  0.00  0.00     0.003 A 
ENDROOT
BRANCH   1   7
ATOM      7  C1' I4B d   1      -0.756   2.973   1.705  0.00  0.00     0.060 C 
BRANCH   7   8
ATOM      8  C2' I4B d   1      -0.701   2.606   3.175  0.00  0.00    -0.013 C 
ATOM      9  C4' I4B d   1       0.613   3.010   3.789  0.00  0.00     0.013 C 
ATOM     10  C3' I4B d   1      -1.850   3.281   3.863  0.00  0.00     0.013 C 
ENDBRANCH   7   8
ENDBRANCH   1   7
TORSDOF 2
ENDMDL
