MODEL 1
REMARK minimizedAffinity -6.27933931
REMARK minimizedRMSD -1
REMARK  2 active torsions:
REMARK  status: ('A' for Active; 'I' for Inactive)
REMARK    1  A    between atoms: C2'_3  and  C1'_4 
REMARK    2  A    between atoms: C1'_4  and  C1_5 
ROOT
ATOM      1  C1  I4B d   1      -0.912   0.952  -0.622  0.00  0.00    -0.075 A 
ATOM      2  C2  I4B d   1       0.256   1.555  -1.017  0.00  0.00     0.003 A 
ATOM      3  C3  I4B d   1       0.764   2.663  -0.297  0.00  0.00     0.002 A 
ATOM      4  C4  I4B d   1       0.051   3.162   0.774  0.00  0.00    -0.004 A 
ATOM      5  C5  I4B d   1      -1.121   2.535   1.187  0.00  0.00     0.002 A 
ATOM      6  C6  I4B d   1      -1.599   1.415   0.492  0.00  0.00     0.003 A 
ENDROOT
BRANCH   1   7
ATOM      7  C1' I4B d   1      -1.438  -0.196  -1.426  0.00  0.00     0.060 C 
BRANCH   7   8
ATOM      8  C2' I4B d   1      -0.346  -1.242  -1.515  0.00  0.00    -0.013 C 
ATOM      9  C4' I4B d   1       0.057  -1.728  -0.148  0.00  0.00     0.013 C 
ATOM     10  C3' I4B d   1      -0.854  -2.370  -2.363  0.00  0.00     0.013 C 
ENDBRANCH   7   8
ENDBRANCH   1   7
TORSDOF 2
ENDMDL
