MODEL 1
REMARK minimizedAffinity -4.86312246
REMARK minimizedRMSD -1
REMARK  2 active torsions:
REMARK  status: ('A' for Active; 'I' for Inactive)
REMARK    1  A    between atoms: C2'_3  and  C1'_4 
REMARK    2  A    between atoms: C1'_4  and  C1_5 
ROOT
ATOM      1  C1  I4B d   1      -0.597   0.856   0.300  0.00  0.00    -0.075 A 
ATOM      2  C2  I4B d   1       0.219   1.346  -0.689  0.00  0.00     0.003 A 
ATOM      3  C3  I4B d   1       0.742   2.659  -0.596  0.00  0.00     0.002 A 
ATOM      4  C4  I4B d   1       0.385   3.459   0.470  0.00  0.00    -0.004 A 
ATOM      5  C5  I4B d   1      -0.424   2.952   1.483  0.00  0.00     0.002 A 
ATOM      6  C6  I4B d   1      -0.909   1.639   1.404  0.00  0.00     0.003 A 
ENDROOT
BRANCH   1   7
ATOM      7  C1' I4B d   1      -1.158  -0.523   0.154  0.00  0.00     0.060 C 
BRANCH   7   8
ATOM      8  C2' I4B d   1      -0.003  -1.474  -0.085  0.00  0.00    -0.013 C 
ATOM      9  C4' I4B d   1       0.950  -1.478   1.081  0.00  0.00     0.013 C 
ATOM     10  C3' I4B d   1      -0.571  -2.841  -0.325  0.00  0.00     0.013 C 
ENDBRANCH   7   8
ENDBRANCH   1   7
TORSDOF 2
ENDMDL
