MODEL 1
REMARK minimizedAffinity -3.32088709
REMARK minimizedRMSD -1
REMARK  2 active torsions:
REMARK  status: ('A' for Active; 'I' for Inactive)
REMARK    1  A    between atoms: C2'_3  and  C1'_4 
REMARK    2  A    between atoms: C1'_4  and  C1_5 
ROOT
ATOM      1  C1  I4B d   1      -0.995   0.766  -0.053  0.00  0.00    -0.075 A 
ATOM      2  C2  I4B d   1      -1.462   1.180   1.169  0.00  0.00     0.003 A 
ATOM      3  C3  I4B d   1      -1.144   2.473   1.653  0.00  0.00     0.002 A 
ATOM      4  C4  I4B d   1      -0.319   3.292   0.910  0.00  0.00    -0.004 A 
ATOM      5  C5  I4B d   1       0.135   2.879  -0.339  0.00  0.00     0.002 A 
ATOM      6  C6  I4B d   1      -0.215   1.613  -0.830  0.00  0.00     0.003 A 
ENDROOT
BRANCH   1   7
ATOM      7  C1' I4B d   1      -1.323  -0.617  -0.519  0.00  0.00     0.060 C 
BRANCH   7   8
ATOM      8  C2' I4B d   1      -0.019  -1.343  -0.781  0.00  0.00    -0.013 C 
ATOM      9  C4' I4B d   1       0.800  -1.464   0.477  0.00  0.00     0.013 C 
ATOM     10  C3' I4B d   1      -0.347  -2.694  -1.345  0.00  0.00     0.013 C 
ENDBRANCH   7   8
ENDBRANCH   1   7
TORSDOF 2
ENDMDL
