MODEL 1
REMARK minimizedAffinity -4.57712603
REMARK minimizedRMSD -1
REMARK  2 active torsions:
REMARK  status: ('A' for Active; 'I' for Inactive)
REMARK    1  A    between atoms: C2'_3  and  C1'_4 
REMARK    2  A    between atoms: C1'_4  and  C1_5 
ROOT
ATOM      1  C1  I4B d   1       0.155   0.580  -0.703  0.00  0.00    -0.075 A 
ATOM      2  C2  I4B d   1       0.517   1.892  -0.875  0.00  0.00     0.003 A 
ATOM      3  C3  I4B d   1       0.079   2.879   0.042  0.00  0.00     0.002 A 
ATOM      4  C4  I4B d   1      -0.757   2.519   1.079  0.00  0.00    -0.004 A 
ATOM      5  C5  I4B d   1      -1.104   1.184   1.265  0.00  0.00     0.002 A 
ATOM      6  C6  I4B d   1      -0.636   0.206   0.376  0.00  0.00     0.003 A 
ENDROOT
BRANCH   1   7
ATOM      7  C1' I4B d   1       0.609  -0.431  -1.708  0.00  0.00     0.060 C 
BRANCH   7   8
ATOM      8  C2' I4B d   1      -0.520  -1.420  -1.918  0.00  0.00    -0.013 C 
ATOM      9  C4' I4B d   1      -1.770  -0.727  -2.394  0.00  0.00     0.013 C 
ATOM     10  C3' I4B d   1      -0.058  -2.445  -2.910  0.00  0.00     0.013 C 
ENDBRANCH   7   8
ENDBRANCH   1   7
TORSDOF 2
ENDMDL
