MODEL 1
REMARK minimizedAffinity -4.56151724
REMARK minimizedRMSD -1
REMARK  2 active torsions:
REMARK  status: ('A' for Active; 'I' for Inactive)
REMARK    1  A    between atoms: C2'_3  and  C1'_4 
REMARK    2  A    between atoms: C1'_4  and  C1_5 
ROOT
ATOM      1  C1  I4B d   1       0.067  -0.049   0.239  0.00  0.00    -0.075 A 
ATOM      2  C2  I4B d   1       1.022   0.840  -0.187  0.00  0.00     0.003 A 
ATOM      3  C3  I4B d   1       0.752   2.230  -0.188  0.00  0.00     0.002 A 
ATOM      4  C4  I4B d   1      -0.495   2.681   0.194  0.00  0.00    -0.004 A 
ATOM      5  C5  I4B d   1      -1.455   1.780   0.647  0.00  0.00     0.002 A 
ATOM      6  C6  I4B d   1      -1.168   0.408   0.682  0.00  0.00     0.003 A 
ENDROOT
BRANCH   1   7
ATOM      7  C1' I4B d   1       0.374  -1.512   0.197  0.00  0.00     0.060 C 
BRANCH   7   8
ATOM      8  C2' I4B d   1      -0.526  -2.148  -0.844  0.00  0.00    -0.013 C 
ATOM      9  C4' I4B d   1       0.271  -2.957  -1.832  0.00  0.00     0.013 C 
ATOM     10  C3' I4B d   1      -1.529  -3.002  -0.128  0.00  0.00     0.013 C 
ENDBRANCH   7   8
ENDBRANCH   1   7
TORSDOF 2
ENDMDL
