MODEL 1
REMARK minimizedAffinity -4.818892
REMARK minimizedRMSD -1
REMARK  2 active torsions:
REMARK  status: ('A' for Active; 'I' for Inactive)
REMARK    1  A    between atoms: C2'_3  and  C1'_4 
REMARK    2  A    between atoms: C1'_4  and  C1_5 
ROOT
ATOM      1  C1  I4B d   1      -0.441   0.743  -0.307  0.00  0.00    -0.075 A 
ATOM      2  C2  I4B d   1      -1.566   0.470   0.430  0.00  0.00     0.003 A 
ATOM      3  C3  I4B d   1      -1.975   1.353   1.460  0.00  0.00     0.002 A 
ATOM      4  C4  I4B d   1      -1.207   2.462   1.749  0.00  0.00    -0.004 A 
ATOM      5  C5  I4B d   1      -0.079   2.749   0.985  0.00  0.00     0.002 A 
ATOM      6  C6  I4B d   1       0.299   1.891  -0.058  0.00  0.00     0.003 A 
ENDROOT
BRANCH   1   7
ATOM      7  C1' I4B d   1      -0.020  -0.227  -1.365  0.00  0.00     0.060 C 
BRANCH   7   8
ATOM      8  C2' I4B d   1      -0.308  -1.625  -0.857  0.00  0.00    -0.013 C 
ATOM      9  C4' I4B d   1      -0.327  -2.622  -1.985  0.00  0.00     0.013 C 
ATOM     10  C3' I4B d   1       0.742  -1.974   0.156  0.00  0.00     0.013 C 
ENDBRANCH   7   8
ENDBRANCH   1   7
TORSDOF 2
ENDMDL
