MODEL 1
REMARK minimizedAffinity -5.71490765
REMARK minimizedRMSD -1
REMARK  2 active torsions:
REMARK  status: ('A' for Active; 'I' for Inactive)
REMARK    1  A    between atoms: C2'_3  and  C1'_4 
REMARK    2  A    between atoms: C1'_4  and  C1_5 
ROOT
ATOM      1  C1  I4B d   1       0.072  -0.015  -0.318  0.00  0.00    -0.075 A 
ATOM      2  C2  I4B d   1       1.209  -0.264   0.409  0.00  0.00     0.003 A 
ATOM      3  C3  I4B d   1       1.653  -1.595   0.604  0.00  0.00     0.002 A 
ATOM      4  C4  I4B d   1       0.906  -2.641   0.100  0.00  0.00    -0.004 A 
ATOM      5  C5  I4B d   1      -0.234  -2.385  -0.656  0.00  0.00     0.002 A 
ATOM      6  C6  I4B d   1      -0.648  -1.063  -0.877  0.00  0.00     0.003 A 
ENDROOT
BRANCH   1   7
ATOM      7  C1' I4B d   1      -0.386   1.401  -0.476  0.00  0.00     0.060 C 
BRANCH   7   8
ATOM      8  C2' I4B d   1      -0.089   2.135   0.816  0.00  0.00    -0.013 C 
ATOM      9  C4' I4B d   1       0.741   3.366   0.565  0.00  0.00     0.013 C 
ATOM     10  C3' I4B d   1      -1.397   2.485   1.461  0.00  0.00     0.013 C 
ENDBRANCH   7   8
ENDBRANCH   1   7
TORSDOF 2
ENDMDL
