MODEL 1
REMARK minimizedAffinity -1.31375098
REMARK minimizedRMSD -1
REMARK  2 active torsions:
REMARK  status: ('A' for Active; 'I' for Inactive)
REMARK    1  A    between atoms: C2'_3  and  C1'_4 
REMARK    2  A    between atoms: C1'_4  and  C1_5 
ROOT
ATOM      1  C1  I4B d   1      -0.338  -0.687  -0.360  0.00  0.00    -0.075 A 
ATOM      2  C2  I4B d   1       0.699   0.005  -0.934  0.00  0.00     0.003 A 
ATOM      3  C3  I4B d   1       0.897   1.374  -0.632  0.00  0.00     0.002 A 
ATOM      4  C4  I4B d   1       0.009   2.021   0.204  0.00  0.00    -0.004 A 
ATOM      5  C5  I4B d   1      -1.028   1.312   0.803  0.00  0.00     0.002 A 
ATOM      6  C6  I4B d   1      -1.196  -0.053   0.530  0.00  0.00     0.003 A 
ENDROOT
BRANCH   1   7
ATOM      7  C1' I4B d   1      -0.536  -2.123  -0.726  0.00  0.00     0.060 C 
BRANCH   7   8
ATOM      8  C2' I4B d   1      -0.851  -2.188  -2.207  0.00  0.00    -0.013 C 
ATOM      9  C4' I4B d   1       0.229  -2.915  -2.963  0.00  0.00     0.013 C 
ATOM     10  C3' I4B d   1      -2.178  -2.869  -2.369  0.00  0.00     0.013 C 
ENDBRANCH   7   8
ENDBRANCH   1   7
TORSDOF 2
ENDMDL
