MODEL 1
REMARK minimizedAffinity -2.56876326
REMARK minimizedRMSD -1
REMARK  2 active torsions:
REMARK  status: ('A' for Active; 'I' for Inactive)
REMARK    1  A    between atoms: C2'_3  and  C1'_4 
REMARK    2  A    between atoms: C1'_4  and  C1_5 
ROOT
ATOM      1  C1  I4B d   1       0.038  -0.754  -0.198  0.00  0.00    -0.075 A 
ATOM      2  C2  I4B d   1      -0.898   0.242  -0.321  0.00  0.00     0.003 A 
ATOM      3  C3  I4B d   1      -0.599   1.558   0.110  0.00  0.00     0.002 A 
ATOM      4  C4  I4B d   1       0.620   1.819   0.699  0.00  0.00    -0.004 A 
ATOM      5  C5  I4B d   1       1.577   0.813   0.802  0.00  0.00     0.002 A 
ATOM      6  C6  I4B d   1       1.289  -0.479   0.340  0.00  0.00     0.003 A 
ENDROOT
BRANCH   1   7
ATOM      7  C1' I4B d   1      -0.322  -2.140  -0.632  0.00  0.00     0.060 C 
BRANCH   7   8
ATOM      8  C2' I4B d   1      -0.882  -2.057  -2.038  0.00  0.00    -0.013 C 
ATOM      9  C4' I4B d   1       0.046  -2.701  -3.033  0.00  0.00     0.013 C 
ATOM     10  C3' I4B d   1      -2.226  -2.723  -2.041  0.00  0.00     0.013 C 
ENDBRANCH   7   8
ENDBRANCH   1   7
TORSDOF 2
ENDMDL
