MODEL 1
REMARK minimizedAffinity -3.82555437
REMARK minimizedRMSD -1
REMARK  2 active torsions:
REMARK  status: ('A' for Active; 'I' for Inactive)
REMARK    1  A    between atoms: C2'_3  and  C1'_4 
REMARK    2  A    between atoms: C1'_4  and  C1_5 
ROOT
ATOM      1  C1  I4B d   1       0.215  -0.422   0.418  0.00  0.00    -0.075 A 
ATOM      2  C2  I4B d   1       1.303  -1.022   1.000  0.00  0.00     0.003 A 
ATOM      3  C3  I4B d   1       2.561  -0.373   0.998  0.00  0.00     0.002 A 
ATOM      4  C4  I4B d   1       2.696   0.845   0.362  0.00  0.00    -0.004 A 
ATOM      5  C5  I4B d   1       1.587   1.462  -0.208  0.00  0.00     0.002 A 
ATOM      6  C6  I4B d   1       0.335   0.830  -0.169  0.00  0.00     0.003 A 
ENDROOT
BRANCH   1   7
ATOM      7  C1' I4B d   1      -1.091  -1.151   0.409  0.00  0.00     0.060 C 
BRANCH   7   8
ATOM      8  C2' I4B d   1      -0.817  -2.596   0.042  0.00  0.00    -0.013 C 
ATOM      9  C4' I4B d   1      -1.831  -3.519   0.666  0.00  0.00     0.013 C 
ATOM     10  C3' I4B d   1      -0.834  -2.704  -1.454  0.00  0.00     0.013 C 
ENDBRANCH   7   8
ENDBRANCH   1   7
TORSDOF 2
ENDMDL
