MODEL 1
REMARK minimizedAffinity -2.6946919
REMARK minimizedRMSD -1
REMARK  1 active torsions:
REMARK  status: ('A' for Active; 'I' for Inactive)
REMARK    1  A    between atoms: C1_2  and  C2_3 
ROOT
ATOM      1  C2  UNL d   1      -0.023  -0.190   2.338  0.00  0.00    -0.077 A 
ATOM      2  C3  UNL d   1      -1.331   0.271   2.546  0.00  0.00     0.002 A 
ATOM      3  C4  UNL d   1      -2.183   0.492   1.462  0.00  0.00     0.002 A 
ATOM      4  C5  UNL d   1      -1.739   0.250   0.164  0.00  0.00    -0.004 A 
ATOM      5  C6  UNL d   1      -0.439  -0.207  -0.054  0.00  0.00     0.002 A 
ATOM      6  C7  UNL d   1       0.414  -0.426   1.028  0.00  0.00     0.002 A 
ENDROOT
BRANCH   1   7
ATOM      7  C1  UNL d   1       0.881  -0.475   3.508  0.00  0.00     0.055 C 
ATOM      8  C   UNL d   1       2.301  -0.772   3.051  0.00  0.00     0.019 C 
ENDBRANCH   1   7
TORSDOF 1
ENDMDL
