MODEL 1
REMARK minimizedAffinity -4.57918406
REMARK minimizedRMSD -1
REMARK  0 active torsions:
REMARK  status: ('A' for Active; 'I' for Inactive)
ROOT
ATOM      1  C1  BNZ d   1      -1.183   3.346   1.485  0.00  0.00     0.000 A 
ATOM      2  C2  BNZ d   1      -1.042   2.204   2.228  0.00  0.00     0.000 A 
ATOM      3  C3  BNZ d   1      -0.662   1.030   1.640  0.00  0.00     0.000 A 
ATOM      4  C4  BNZ d   1      -0.464   0.989   0.307  0.00  0.00     0.000 A 
ATOM      5  C5  BNZ d   1      -0.612   2.130  -0.457  0.00  0.00     0.000 A 
ATOM      6  C6  BNZ d   1      -0.956   3.319   0.144  0.00  0.00     0.000 A 
ENDROOT
TORSDOF 0
ENDMDL
