MODEL 1
REMARK minimizedAffinity -3.38149834
REMARK minimizedRMSD -1
REMARK  0 active torsions:
REMARK  status: ('A' for Active; 'I' for Inactive)
ROOT
ATOM      1  C1  BNZ d   1      -0.046   0.969   1.730  0.00  0.00     0.000 A 
ATOM      2  C2  BNZ d   1      -0.218   2.220   2.260  0.00  0.00     0.000 A 
ATOM      3  C3  BNZ d   1      -0.472   3.293   1.453  0.00  0.00     0.000 A 
ATOM      4  C4  BNZ d   1      -0.514   3.121   0.116  0.00  0.00     0.000 A 
ATOM      5  C5  BNZ d   1      -0.334   1.868  -0.434  0.00  0.00     0.000 A 
ATOM      6  C6  BNZ d   1      -0.117   0.783   0.384  0.00  0.00     0.000 A 
ENDROOT
TORSDOF 0
ENDMDL
