MODEL 1
REMARK minimizedAffinity -4.35887289
REMARK minimizedRMSD -1
REMARK  0 active torsions:
REMARK  status: ('A' for Active; 'I' for Inactive)
ROOT
ATOM      1  C1  BNZ d   1      -0.924   0.232   0.088  0.00  0.00     0.000 A 
ATOM      2  C2  BNZ d   1      -1.338   1.413   0.643  0.00  0.00     0.000 A 
ATOM      3  C3  BNZ d   1      -0.622   2.003   1.648  0.00  0.00     0.000 A 
ATOM      4  C4  BNZ d   1       0.482   1.391   2.122  0.00  0.00     0.000 A 
ATOM      5  C5  BNZ d   1       0.907   0.195   1.579  0.00  0.00     0.000 A 
ATOM      6  C6  BNZ d   1       0.206  -0.375   0.541  0.00  0.00     0.000 A 
ENDROOT
TORSDOF 0
ENDMDL
