MODEL 1
REMARK minimizedAffinity -2.55240464
REMARK minimizedRMSD -1
REMARK  0 active torsions:
REMARK  status: ('A' for Active; 'I' for Inactive)
ROOT
ATOM      1  C1  BNZ d   1       0.363   0.924  -2.082  0.00  0.00     0.000 A 
ATOM      2  C2  BNZ d   1       0.591  -0.078  -1.176  0.00  0.00     0.000 A 
ATOM      3  C3  BNZ d   1       0.564   0.173   0.167  0.00  0.00     0.000 A 
ATOM      4  C4  BNZ d   1       0.349   1.431   0.602  0.00  0.00     0.000 A 
ATOM      5  C5  BNZ d   1       0.126   2.454  -0.298  0.00  0.00     0.000 A 
ATOM      6  C6  BNZ d   1       0.116   2.190  -1.649  0.00  0.00     0.000 A 
ENDROOT
TORSDOF 0
ENDMDL
