MODEL 1
REMARK minimizedAffinity -4.81200075
REMARK minimizedRMSD -1
REMARK  0 active torsions:
REMARK  status: ('A' for Active; 'I' for Inactive)
ROOT
ATOM      1  C1  BNZ d   1      -1.227   1.956   0.949  0.00  0.00     0.000 A 
ATOM      2  C2  BNZ d   1      -0.724   0.899   0.238  0.00  0.00     0.000 A 
ATOM      3  C3  BNZ d   1       0.224   0.078   0.781  0.00  0.00     0.000 A 
ATOM      4  C4  BNZ d   1       0.696   0.337   2.018  0.00  0.00     0.000 A 
ATOM      5  C5  BNZ d   1       0.205   1.404   2.744  0.00  0.00     0.000 A 
ATOM      6  C6  BNZ d   1      -0.777   2.206   2.209  0.00  0.00     0.000 A 
ENDROOT
TORSDOF 0
ENDMDL
