MODEL 1
REMARK minimizedAffinity -4.50700331
REMARK minimizedRMSD -1
REMARK  0 active torsions:
REMARK  status: ('A' for Active; 'I' for Inactive)
ROOT
ATOM      1  C1  BNZ d   1       0.112   1.049  -0.192  0.00  0.00     0.000 A 
ATOM      2  C2  BNZ d   1      -0.498   2.161   0.323  0.00  0.00     0.000 A 
ATOM      3  C3  BNZ d   1      -0.716   2.280   1.668  0.00  0.00     0.000 A 
ATOM      4  C4  BNZ d   1      -0.361   1.270   2.489  0.00  0.00     0.000 A 
ATOM      5  C5  BNZ d   1       0.246   0.139   1.983  0.00  0.00     0.000 A 
ATOM      6  C6  BNZ d   1       0.500   0.039   0.634  0.00  0.00     0.000 A 
ENDROOT
TORSDOF 0
ENDMDL
