MODEL 1
REMARK minimizedAffinity 0.620714545
REMARK minimizedRMSD -1
REMARK  0 active torsions:
REMARK  status: ('A' for Active; 'I' for Inactive)
ROOT
ATOM      1  C1  BNZ d   1       0.499   1.321   2.813  0.00  0.00     0.000 A 
ATOM      2  C2  BNZ d   1       0.726   0.923   1.522  0.00  0.00     0.000 A 
ATOM      3  C3  BNZ d   1       1.232  -0.317   1.251  0.00  0.00     0.000 A 
ATOM      4  C4  BNZ d   1       1.546  -1.142   2.270  0.00  0.00     0.000 A 
ATOM      5  C5  BNZ d   1       1.332  -0.752   3.577  0.00  0.00     0.000 A 
ATOM      6  C6  BNZ d   1       0.786   0.482   3.845  0.00  0.00     0.000 A 
ENDROOT
TORSDOF 0
ENDMDL
