MODEL 1
REMARK minimizedAffinity -3.92393136
REMARK minimizedRMSD -1
REMARK  0 active torsions:
REMARK  status: ('A' for Active; 'I' for Inactive)
ROOT
ATOM      1  C1  BNZ d   1       1.471  -0.075   0.783  0.00  0.00     0.000 A 
ATOM      2  C2  BNZ d   1       0.823   1.109   0.554  0.00  0.00     0.000 A 
ATOM      3  C3  BNZ d   1       0.402   1.890   1.594  0.00  0.00     0.000 A 
ATOM      4  C4  BNZ d   1       0.594   1.466   2.860  0.00  0.00     0.000 A 
ATOM      5  C5  BNZ d   1       1.238   0.270   3.107  0.00  0.00     0.000 A 
ATOM      6  C6  BNZ d   1       1.695  -0.494   2.058  0.00  0.00     0.000 A 
ENDROOT
TORSDOF 0
ENDMDL
