MODEL 1
REMARK minimizedAffinity 4.04538822
REMARK minimizedRMSD -1
REMARK  0 active torsions:
REMARK  status: ('A' for Active; 'I' for Inactive)
ROOT
ATOM      1  C   UNL d   1      -1.923  -4.187   0.659  0.00  0.00     0.077 C 
ATOM      2  C1  UNL d   1      -2.095  -2.768   1.113  0.00  0.00    -0.074 A 
ATOM      3  C2  UNL d   1      -2.462  -1.765   0.211  0.00  0.00    -0.005 A 
ATOM      4  C3  UNL d   1      -2.628  -0.451   0.650  0.00  0.00     0.006 A 
ATOM      5  C4  UNL d   1      -2.429  -0.128   1.993  0.00  0.00    -0.005 A 
ATOM      6  C5  UNL d   1      -2.063  -1.119   2.909  0.00  0.00    -0.074 A 
ATOM      7  C6  UNL d   1      -1.854  -0.791   4.358  0.00  0.00     0.077 C 
ATOM      8  C7  UNL d   1      -1.905  -2.438   2.462  0.00  0.00    -0.001 A 
ENDROOT
TORSDOF 0
ENDMDL
