MODEL 1
REMARK minimizedAffinity 6.26417828
REMARK minimizedRMSD -1
REMARK  0 active torsions:
REMARK  status: ('A' for Active; 'I' for Inactive)
ROOT
ATOM      1  C   UNL d   1       6.000   2.315  -1.807  0.00  0.00     0.077 C 
ATOM      2  C1  UNL d   1       5.387   1.483  -0.720  0.00  0.00    -0.074 A 
ATOM      3  C2  UNL d   1       4.273   0.676  -0.974  0.00  0.00    -0.005 A 
ATOM      4  C3  UNL d   1       3.720  -0.100   0.044  0.00  0.00     0.006 A 
ATOM      5  C4  UNL d   1       4.273  -0.076   1.325  0.00  0.00    -0.005 A 
ATOM      6  C5  UNL d   1       5.387   0.725   1.598  0.00  0.00    -0.074 A 
ATOM      7  C6  UNL d   1       6.000   0.754   2.966  0.00  0.00     0.077 C 
ATOM      8  C7  UNL d   1       5.942   1.496   0.567  0.00  0.00    -0.001 A 
ENDROOT
TORSDOF 0
ENDMDL
