MODEL 1
REMARK minimizedAffinity 7.86079216
REMARK minimizedRMSD -1
REMARK  0 active torsions:
REMARK  status: ('A' for Active; 'I' for Inactive)
ROOT
ATOM      1  O1  BZF d   1       0.497   3.792   6.000  0.00  0.00    -0.204 OA
ATOM      2  C2  BZF d   1      -0.188   4.977   5.809  0.00  0.00     0.174 A 
ATOM      3  C3  BZF d   1       0.669   5.997   5.602  0.00  0.00    -0.012 A 
ATOM      4  C3A BZF d   1       1.968   5.398   5.575  0.00  0.00    -0.107 A 
ATOM      5  C4  BZF d   1       3.227   5.894   5.390  0.00  0.00     0.055 A 
ATOM      6  C5  BZF d   1       4.290   5.053   5.495  0.00  0.00    -0.016 A 
ATOM      7  C6  BZF d   1       4.131   3.715   5.789  0.00  0.00     0.022 A 
ATOM      8  C7  BZF d   1       2.902   3.176   5.977  0.00  0.00     0.029 A 
ATOM      9  C7A BZF d   1       1.824   4.016   5.838  0.00  0.00     0.058 A 
ENDROOT
TORSDOF 0
ENDMDL
