MODEL 1
REMARK minimizedAffinity -2.58922505
REMARK minimizedRMSD -1
REMARK  0 active torsions:
REMARK  status: ('A' for Active; 'I' for Inactive)
ROOT
ATOM      1  O1  BZF d   1       2.249  -2.625   5.312  0.00  0.00    -0.204 OA
ATOM      2  C2  BZF d   1       1.874  -1.655   4.402  0.00  0.00     0.174 A 
ATOM      3  C3  BZF d   1       0.755  -2.022   3.745  0.00  0.00    -0.012 A 
ATOM      4  C3A BZF d   1       0.356  -3.259   4.343  0.00  0.00    -0.107 A 
ATOM      5  C4  BZF d   1      -0.691  -4.110   4.132  0.00  0.00     0.055 A 
ATOM      6  C5  BZF d   1      -0.751  -5.271   4.836  0.00  0.00    -0.016 A 
ATOM      7  C6  BZF d   1       0.220  -5.615   5.753  0.00  0.00     0.022 A 
ATOM      8  C7  BZF d   1       1.275  -4.802   6.000  0.00  0.00     0.029 A 
ATOM      9  C7A BZF d   1       1.321  -3.612   5.315  0.00  0.00     0.058 A 
ENDROOT
TORSDOF 0
ENDMDL
