MODEL 1
REMARK minimizedAffinity -0.318786025
REMARK minimizedRMSD -1
REMARK  0 active torsions:
REMARK  status: ('A' for Active; 'I' for Inactive)
ROOT
ATOM      1  O1  BZF d   1       0.507   4.113   6.000  0.00  0.00    -0.204 OA
ATOM      2  C2  BZF d   1       0.820   5.418   5.670  0.00  0.00     0.174 A 
ATOM      3  C3  BZF d   1       2.114   5.522   5.308  0.00  0.00    -0.012 A 
ATOM      4  C3A BZF d   1       2.621   4.184   5.329  0.00  0.00    -0.107 A 
ATOM      5  C4  BZF d   1       3.840   3.637   5.048  0.00  0.00     0.055 A 
ATOM      6  C5  BZF d   1       4.026   2.305   5.239  0.00  0.00    -0.016 A 
ATOM      7  C6  BZF d   1       3.017   1.491   5.712  0.00  0.00     0.022 A 
ATOM      8  C7  BZF d   1       1.789   1.987   6.000  0.00  0.00     0.029 A 
ATOM      9  C7A BZF d   1       1.588   3.328   5.777  0.00  0.00     0.058 A 
ENDROOT
TORSDOF 0
ENDMDL
