MODEL 1
REMARK minimizedAffinity 3.65049219
REMARK minimizedRMSD -1
REMARK  0 active torsions:
REMARK  status: ('A' for Active; 'I' for Inactive)
ROOT
ATOM      1  O1  BZF d   1       1.929   1.843   5.942  0.00  0.00    -0.204 OA
ATOM      2  C2  BZF d   1       3.259   1.471   5.940  0.00  0.00     0.174 A 
ATOM      3  C3  BZF d   1       4.060   2.555   5.905  0.00  0.00    -0.012 A 
ATOM      4  C3A BZF d   1       3.176   3.678   5.977  0.00  0.00    -0.107 A 
ATOM      5  C4  BZF d   1       3.374   5.029   5.999  0.00  0.00     0.055 A 
ATOM      6  C5  BZF d   1       2.295   5.855   5.999  0.00  0.00    -0.016 A 
ATOM      7  C6  BZF d   1       1.005   5.365   5.973  0.00  0.00     0.022 A 
ATOM      8  C7  BZF d   1       0.759   4.032   5.956  0.00  0.00     0.029 A 
ATOM      9  C7A BZF d   1       1.847   3.195   5.989  0.00  0.00     0.058 A 
ENDROOT
TORSDOF 0
ENDMDL
