MODEL 1
REMARK minimizedAffinity 7.95351315
REMARK minimizedRMSD -1
REMARK  0 active torsions:
REMARK  status: ('A' for Active; 'I' for Inactive)
ROOT
ATOM      1  O1  BZF d   1       2.526   5.382   3.911  0.00  0.00    -0.204 OA
ATOM      2  C2  BZF d   1       3.165   4.811   4.994  0.00  0.00     0.174 A 
ATOM      3  C3  BZF d   1       2.296   4.585   5.999  0.00  0.00    -0.012 A 
ATOM      4  C3A BZF d   1       1.016   4.959   5.481  0.00  0.00    -0.107 A 
ATOM      5  C4  BZF d   1      -0.247   4.948   6.000  0.00  0.00     0.055 A 
ATOM      6  C5  BZF d   1      -1.271   5.448   5.258  0.00  0.00    -0.016 A 
ATOM      7  C6  BZF d   1      -1.066   5.971   3.998  0.00  0.00     0.022 A 
ATOM      8  C7  BZF d   1       0.168   5.999   3.439  0.00  0.00     0.029 A 
ATOM      9  C7A BZF d   1       1.199   5.464   4.173  0.00  0.00     0.058 A 
ENDROOT
TORSDOF 0
ENDMDL
