MODEL 1
REMARK minimizedAffinity -1.03685927
REMARK minimizedRMSD -1
REMARK  0 active torsions:
REMARK  status: ('A' for Active; 'I' for Inactive)
ROOT
ATOM      1  O1  BZF d   1      -1.430  -3.908   4.250  0.00  0.00    -0.204 OA
ATOM      2  C2  BZF d   1      -1.474  -4.912   5.197  0.00  0.00     0.174 A 
ATOM      3  C3  BZF d   1      -0.389  -4.863   5.997  0.00  0.00    -0.012 A 
ATOM      4  C3A BZF d   1       0.336  -3.703   5.577  0.00  0.00    -0.107 A 
ATOM      5  C4  BZF d   1       1.494  -3.115   6.000  0.00  0.00     0.055 A 
ATOM      6  C5  BZF d   1       1.967  -2.032   5.330  0.00  0.00    -0.016 A 
ATOM      7  C6  BZF d   1       1.312  -1.514   4.232  0.00  0.00     0.022 A 
ATOM      8  C7  BZF d   1       0.158  -2.059   3.779  0.00  0.00     0.029 A 
ATOM      9  C7A BZF d   1      -0.341  -3.134   4.474  0.00  0.00     0.058 A 
ENDROOT
TORSDOF 0
ENDMDL
