MODEL 1
REMARK minimizedAffinity 1.91118431
REMARK minimizedRMSD -1
REMARK  0 active torsions:
REMARK  status: ('A' for Active; 'I' for Inactive)
ROOT
ATOM      1  O1  BZF d   1       0.218  -3.039   5.894  0.00  0.00    -0.204 OA
ATOM      2  C2  BZF d   1       1.113  -2.641   4.920  0.00  0.00     0.174 A 
ATOM      3  C3  BZF d   1       0.997  -3.412   3.820  0.00  0.00    -0.012 A 
ATOM      4  C3A BZF d   1      -0.099  -4.292   4.091  0.00  0.00    -0.107 A 
ATOM      5  C4  BZF d   1      -0.709  -5.280   3.373  0.00  0.00     0.055 A 
ATOM      6  C5  BZF d   1      -1.705  -6.000   3.953  0.00  0.00    -0.016 A 
ATOM      7  C6  BZF d   1      -2.112  -5.761   5.249  0.00  0.00     0.022 A 
ATOM      8  C7  BZF d   1      -1.541  -4.787   5.999  0.00  0.00     0.029 A 
ATOM      9  C7A BZF d   1      -0.556  -4.037   5.404  0.00  0.00     0.058 A 
ENDROOT
TORSDOF 0
ENDMDL
