MODEL 1
REMARK minimizedAffinity -1.48904419
REMARK minimizedRMSD -1
REMARK  0 active torsions:
REMARK  status: ('A' for Active; 'I' for Inactive)
ROOT
ATOM      1  O1  BZF d   1       1.097   4.038   6.000  0.00  0.00    -0.204 OA
ATOM      2  C2  BZF d   1       1.675   5.243   5.648  0.00  0.00     0.174 A 
ATOM      3  C3  BZF d   1       2.953   5.065   5.258  0.00  0.00    -0.012 A 
ATOM      4  C3A BZF d   1       3.161   3.649   5.285  0.00  0.00    -0.107 A 
ATOM      5  C4  BZF d   1       4.229   2.851   4.986  0.00  0.00     0.055 A 
ATOM      6  C5  BZF d   1       4.128   1.511   5.189  0.00  0.00    -0.016 A 
ATOM      7  C6  BZF d   1       2.980   0.937   5.694  0.00  0.00     0.022 A 
ATOM      8  C7  BZF d   1       1.894   1.687   6.000  0.00  0.00     0.029 A 
ATOM      9  C7A BZF d   1       1.980   3.038   5.765  0.00  0.00     0.058 A 
ENDROOT
TORSDOF 0
ENDMDL
