MODEL 1
REMARK minimizedAffinity 3.42899275
REMARK minimizedRMSD -1
REMARK  0 active torsions:
REMARK  status: ('A' for Active; 'I' for Inactive)
ROOT
ATOM      1  O1  BZF d   1      -0.734  -5.912   4.704  0.00  0.00    -0.204 OA
ATOM      2  C2  BZF d   1      -0.302  -5.684   5.996  0.00  0.00     0.174 A 
ATOM      3  C3  BZF d   1       0.812  -4.923   6.000  0.00  0.00    -0.012 A 
ATOM      4  C3A BZF d   1       1.040  -4.583   4.629  0.00  0.00    -0.107 A 
ATOM      5  C4  BZF d   1       1.987  -3.832   3.993  0.00  0.00     0.055 A 
ATOM      6  C5  BZF d   1       1.970  -3.758   2.636  0.00  0.00    -0.016 A 
ATOM      7  C6  BZF d   1       1.025  -4.425   1.885  0.00  0.00     0.022 A 
ATOM      8  C7  BZF d   1       0.063  -5.178   2.471  0.00  0.00     0.029 A 
ATOM      9  C7A BZF d   1       0.057  -5.228   3.843  0.00  0.00     0.058 A 
ENDROOT
TORSDOF 0
ENDMDL
