MODEL 1
REMARK minimizedAffinity -3.74929547
REMARK minimizedRMSD -1
REMARK  0 active torsions:
REMARK  status: ('A' for Active; 'I' for Inactive)
ROOT
ATOM      1  C   UNL d   1       1.737   0.397  -1.958  0.00  0.00     0.023 A 
ATOM      2  C1  UNL d   1       1.472   1.499  -1.145  0.00  0.00     0.003 A 
ATOM      3  C2  UNL d   1       0.412   1.460  -0.236  0.00  0.00     0.048 A 
ATOM      4  C3  UNL d   1      -0.378   0.315  -0.145  0.00  0.00     0.023 A 
ATOM      5  C4  UNL d   1      -0.116  -0.791  -0.956  0.00  0.00     0.048 A 
ATOM      6  C5  UNL d   1       0.943  -0.747  -1.863  0.00  0.00     0.003 A 
ATOM      7  I   UNL d   1      -1.956   0.253   1.207  0.00  0.00    -0.146 I 
ENDROOT
TORSDOF 0
ENDMDL
