MODEL 1
REMARK minimizedAffinity -3.85172701
REMARK minimizedRMSD -1
REMARK  0 active torsions:
REMARK  status: ('A' for Active; 'I' for Inactive)
ROOT
ATOM      1  C   UNL d   1       2.285  -1.086  -2.927  0.00  0.00     0.023 A 
ATOM      2  C1  UNL d   1       1.958  -2.130  -2.061  0.00  0.00     0.003 A 
ATOM      3  C2  UNL d   1       1.084  -1.908  -0.996  0.00  0.00     0.048 A 
ATOM      4  C3  UNL d   1       0.538  -0.639  -0.802  0.00  0.00     0.023 A 
ATOM      5  C4  UNL d   1       0.861   0.408  -1.666  0.00  0.00     0.048 A 
ATOM      6  C5  UNL d   1       1.737   0.182  -2.730  0.00  0.00     0.003 A 
ATOM      7  I   UNL d   1      -0.764  -0.306   0.783  0.00  0.00    -0.146 I 
ENDROOT
TORSDOF 0
ENDMDL
