MODEL 1
REMARK minimizedAffinity -3.36688185
REMARK minimizedRMSD -1
REMARK  0 active torsions:
REMARK  status: ('A' for Active; 'I' for Inactive)
ROOT
ATOM      1  C   UNL d   1       2.316  -0.042  -2.528  0.00  0.00     0.023 A 
ATOM      2  C1  UNL d   1       2.225   1.047  -1.661  0.00  0.00     0.003 A 
ATOM      3  C2  UNL d   1       1.318   1.022  -0.600  0.00  0.00     0.048 A 
ATOM      4  C3  UNL d   1       0.506  -0.096  -0.410  0.00  0.00     0.023 A 
ATOM      5  C4  UNL d   1       0.594  -1.188  -1.275  0.00  0.00     0.048 A 
ATOM      6  C5  UNL d   1       1.501  -1.158  -2.336  0.00  0.00     0.003 A 
ATOM      7  I   UNL d   1      -0.845  -0.135   1.169  0.00  0.00    -0.146 I 
ENDROOT
TORSDOF 0
ENDMDL
