MODEL 1
REMARK minimizedAffinity -3.94811392
REMARK minimizedRMSD -1
REMARK  0 active torsions:
REMARK  status: ('A' for Active; 'I' for Inactive)
ROOT
ATOM      1  C   UNL d   1       2.317  -1.660  -2.426  0.00  0.00     0.023 A 
ATOM      2  C1  UNL d   1       2.132  -0.279  -2.353  0.00  0.00     0.003 A 
ATOM      3  C2  UNL d   1       1.152   0.252  -1.512  0.00  0.00     0.048 A 
ATOM      4  C3  UNL d   1       0.362  -0.604  -0.745  0.00  0.00     0.023 A 
ATOM      5  C4  UNL d   1       0.544  -1.986  -0.814  0.00  0.00     0.048 A 
ATOM      6  C5  UNL d   1       1.525  -2.512  -1.658  0.00  0.00     0.003 A 
ATOM      7  I   UNL d   1      -1.097   0.184   0.508  0.00  0.00    -0.146 I 
ENDROOT
TORSDOF 0
ENDMDL
