MODEL 1
REMARK minimizedAffinity -4.41073036
REMARK minimizedRMSD -1
REMARK  0 active torsions:
REMARK  status: ('A' for Active; 'I' for Inactive)
ROOT
ATOM      1  C   UNL d   1       0.380   0.767  -1.582  0.00  0.00     0.023 A 
ATOM      2  C1  UNL d   1      -0.614   1.743  -1.508  0.00  0.00     0.003 A 
ATOM      3  C2  UNL d   1      -1.586   1.677  -0.507  0.00  0.00     0.048 A 
ATOM      4  C3  UNL d   1      -1.557   0.633   0.417  0.00  0.00     0.023 A 
ATOM      5  C4  UNL d   1      -0.564  -0.345   0.347  0.00  0.00     0.048 A 
ATOM      6  C5  UNL d   1       0.405  -0.276  -0.655  0.00  0.00     0.003 A 
ATOM      7  I   UNL d   1      -3.003   0.533   1.907  0.00  0.00    -0.146 I 
ENDROOT
TORSDOF 0
ENDMDL
