MODEL 1
REMARK minimizedAffinity -5.28442001
REMARK minimizedRMSD -1
REMARK  0 active torsions:
REMARK  status: ('A' for Active; 'I' for Inactive)
ROOT
ATOM      1  C   UNL d   1       2.043  -0.530  -2.777  0.00  0.00     0.023 A 
ATOM      2  C1  UNL d   1       1.393   0.684  -2.553  0.00  0.00     0.003 A 
ATOM      3  C2  UNL d   1       0.478   0.804  -1.504  0.00  0.00     0.048 A 
ATOM      4  C3  UNL d   1       0.219  -0.293  -0.684  0.00  0.00     0.023 A 
ATOM      5  C4  UNL d   1       0.868  -1.510  -0.904  0.00  0.00     0.048 A 
ATOM      6  C5  UNL d   1       1.781  -1.625  -1.954  0.00  0.00     0.003 A 
ATOM      7  I   UNL d   1      -1.141  -0.117   0.878  0.00  0.00    -0.146 I 
ENDROOT
TORSDOF 0
ENDMDL
