MODEL 1
REMARK minimizedAffinity -1.35351086
REMARK minimizedRMSD -1
REMARK  0 active torsions:
REMARK  status: ('A' for Active; 'I' for Inactive)
ROOT
ATOM      1  C   UNL d   1       1.437   0.323  -2.881  0.00  0.00     0.023 A 
ATOM      2  C1  UNL d   1       0.113   0.746  -2.769  0.00  0.00     0.003 A 
ATOM      3  C2  UNL d   1      -0.561   0.619  -1.552  0.00  0.00     0.048 A 
ATOM      4  C3  UNL d   1       0.095   0.070  -0.452  0.00  0.00     0.023 A 
ATOM      5  C4  UNL d   1       1.421  -0.354  -0.559  0.00  0.00     0.048 A 
ATOM      6  C5  UNL d   1       2.091  -0.226  -1.777  0.00  0.00     0.003 A 
ATOM      7  I   UNL d   1      -0.906  -0.120   1.360  0.00  0.00    -0.146 I 
ENDROOT
TORSDOF 0
ENDMDL
