MODEL 1
REMARK minimizedAffinity -2.87981629
REMARK minimizedRMSD -1
REMARK  0 active torsions:
REMARK  status: ('A' for Active; 'I' for Inactive)
ROOT
ATOM      1  C   UNL d   1       0.821   1.576  -0.749  0.00  0.00     0.023 A 
ATOM      2  C1  UNL d   1       1.739   1.124  -1.698  0.00  0.00     0.003 A 
ATOM      3  C2  UNL d   1       1.867  -0.244  -1.950  0.00  0.00     0.048 A 
ATOM      4  C3  UNL d   1       1.075  -1.153  -1.250  0.00  0.00     0.023 A 
ATOM      5  C4  UNL d   1       0.155  -0.705  -0.301  0.00  0.00     0.048 A 
ATOM      6  C5  UNL d   1       0.030   0.663  -0.052  0.00  0.00     0.003 A 
ATOM      7  I   UNL d   1       1.265  -3.189  -1.624  0.00  0.00    -0.146 I 
ENDROOT
TORSDOF 0
ENDMDL
