MODEL 1
REMARK minimizedAffinity -4.66033411
REMARK minimizedRMSD -1
REMARK  0 active torsions:
REMARK  status: ('A' for Active; 'I' for Inactive)
ROOT
ATOM      1  C   UNL d   1      -1.721  -0.138   1.772  0.00  0.00     0.023 A 
ATOM      2  C1  UNL d   1      -0.464  -0.733   1.880  0.00  0.00     0.003 A 
ATOM      3  C2  UNL d   1       0.491  -0.535   0.880  0.00  0.00     0.048 A 
ATOM      4  C3  UNL d   1       0.183   0.260  -0.223  0.00  0.00     0.023 A 
ATOM      5  C4  UNL d   1      -1.074   0.858  -0.334  0.00  0.00     0.048 A 
ATOM      6  C5  UNL d   1      -2.026   0.657   0.667  0.00  0.00     0.003 A 
ATOM      7  I   UNL d   1       1.602   0.556  -1.712  0.00  0.00    -0.146 I 
ENDROOT
TORSDOF 0
ENDMDL
