MODEL 1
REMARK minimizedAffinity -3.09333324
REMARK minimizedRMSD -1
REMARK  0 active torsions:
REMARK  status: ('A' for Active; 'I' for Inactive)
ROOT
ATOM      1  C   UNL d   1       1.967   0.269  -1.135  0.00  0.00     0.023 A 
ATOM      2  C1  UNL d   1       1.694   1.223  -0.154  0.00  0.00     0.003 A 
ATOM      3  C2  UNL d   1       0.459   1.223   0.498  0.00  0.00     0.048 A 
ATOM      4  C3  UNL d   1      -0.498   0.265   0.165  0.00  0.00     0.023 A 
ATOM      5  C4  UNL d   1      -0.229  -0.692  -0.815  0.00  0.00     0.048 A 
ATOM      6  C5  UNL d   1       1.006  -0.687  -1.465  0.00  0.00     0.003 A 
ATOM      7  I   UNL d   1      -2.336   0.262   1.134  0.00  0.00    -0.146 I 
ENDROOT
TORSDOF 0
ENDMDL
