MODEL 1
REMARK minimizedAffinity 0.928793728
REMARK minimizedRMSD -1
REMARK  0 active torsions:
REMARK  status: ('A' for Active; 'I' for Inactive)
ROOT
ATOM      1  C   UNL d   1       0.521   0.437  -0.556  0.00  0.00     0.023 A 
ATOM      2  C1  UNL d   1      -0.525   1.129  -1.165  0.00  0.00     0.003 A 
ATOM      3  C2  UNL d   1      -1.809   1.081  -0.618  0.00  0.00     0.048 A 
ATOM      4  C3  UNL d   1      -2.039   0.339   0.540  0.00  0.00     0.023 A 
ATOM      5  C4  UNL d   1      -0.995  -0.355   1.154  0.00  0.00     0.048 A 
ATOM      6  C5  UNL d   1       0.287  -0.304   0.602  0.00  0.00     0.003 A 
ATOM      7  I   UNL d   1      -3.948   0.266   1.357  0.00  0.00    -0.146 I 
ENDROOT
TORSDOF 0
ENDMDL
