MODEL 1
REMARK minimizedAffinity -4.19699955
REMARK minimizedRMSD -1
REMARK  0 active torsions:
REMARK  status: ('A' for Active; 'I' for Inactive)
ROOT
ATOM      1  C   UNL d   1       0.757  -1.724  -0.829  0.00  0.00     0.023 A 
ATOM      2  C1  UNL d   1       0.326  -1.544   0.485  0.00  0.00     0.003 A 
ATOM      3  C2  UNL d   1       0.336  -0.269   1.056  0.00  0.00     0.048 A 
ATOM      4  C3  UNL d   1       0.777   0.821   0.306  0.00  0.00     0.023 A 
ATOM      5  C4  UNL d   1       1.208   0.645  -1.010  0.00  0.00     0.048 A 
ATOM      6  C5  UNL d   1       1.197  -0.631  -1.576  0.00  0.00     0.003 A 
ATOM      7  I   UNL d   1       0.792   2.719   1.153  0.00  0.00    -0.146 I 
ENDROOT
TORSDOF 0
ENDMDL
