MODEL 1
REMARK minimizedAffinity -4.43305111
REMARK minimizedRMSD -1
REMARK  0 active torsions:
REMARK  status: ('A' for Active; 'I' for Inactive)
ROOT
ATOM      1  C   UNL d   1       1.798   0.151  -2.145  0.00  0.00     0.023 A 
ATOM      2  C1  UNL d   1       0.799  -0.824  -2.137  0.00  0.00     0.003 A 
ATOM      3  C2  UNL d   1      -0.224  -0.769  -1.188  0.00  0.00     0.048 A 
ATOM      4  C3  UNL d   1      -0.243   0.263  -0.251  0.00  0.00     0.023 A 
ATOM      5  C4  UNL d   1       0.753   1.241  -0.256  0.00  0.00     0.048 A 
ATOM      6  C5  UNL d   1       1.775   1.182  -1.206  0.00  0.00     0.003 A 
ATOM      7  I   UNL d   1      -1.764   0.347   1.162  0.00  0.00    -0.146 I 
ENDROOT
TORSDOF 0
ENDMDL
