MODEL 1
REMARK minimizedAffinity -4.29184818
REMARK minimizedRMSD -1
REMARK  0 active torsions:
REMARK  status: ('A' for Active; 'I' for Inactive)
ROOT
ATOM      1  C   UNL d   1       0.322   0.346  -0.599  0.00  0.00     0.023 A 
ATOM      2  C1  UNL d   1       0.190  -0.111   0.713  0.00  0.00     0.003 A 
ATOM      3  C2  UNL d   1      -1.053  -0.063   1.348  0.00  0.00     0.048 A 
ATOM      4  C3  UNL d   1      -2.159   0.442   0.665  0.00  0.00     0.023 A 
ATOM      5  C4  UNL d   1      -2.032   0.899  -0.648  0.00  0.00     0.048 A 
ATOM      6  C5  UNL d   1      -0.787   0.850  -1.278  0.00  0.00     0.003 A 
ATOM      7  I   UNL d   1      -4.010   0.514   1.608  0.00  0.00    -0.146 I 
ENDROOT
TORSDOF 0
ENDMDL
