MODEL 1
REMARK minimizedAffinity -4.42004156
REMARK minimizedRMSD -1
REMARK  0 active torsions:
REMARK  status: ('A' for Active; 'I' for Inactive)
ROOT
ATOM      1  C   UNL d   1      -0.931   0.135   2.445  0.00  0.00     0.023 A 
ATOM      2  C1  UNL d   1       0.446  -0.069   2.361  0.00  0.00     0.003 A 
ATOM      3  C2  UNL d   1       1.063  -0.171   1.113  0.00  0.00     0.048 A 
ATOM      4  C3  UNL d   1       0.297  -0.067  -0.048  0.00  0.00     0.023 A 
ATOM      5  C4  UNL d   1      -1.082   0.138   0.032  0.00  0.00     0.048 A 
ATOM      6  C5  UNL d   1      -1.694   0.238   1.282  0.00  0.00     0.003 A 
ATOM      7  I   UNL d   1       1.213  -0.218  -1.907  0.00  0.00    -0.146 I 
ENDROOT
TORSDOF 0
ENDMDL
