MODEL 1
REMARK minimizedAffinity -3.49927592
REMARK minimizedRMSD -1
REMARK  0 active torsions:
REMARK  status: ('A' for Active; 'I' for Inactive)
ROOT
ATOM      1  C   UNL d   1      -1.201  -0.818   3.132  0.00  0.00     0.023 A 
ATOM      2  C1  UNL d   1      -0.000  -0.110   3.064  0.00  0.00     0.003 A 
ATOM      3  C2  UNL d   1       0.441   0.402   1.842  0.00  0.00     0.048 A 
ATOM      4  C3  UNL d   1      -0.323   0.204   0.693  0.00  0.00     0.023 A 
ATOM      5  C4  UNL d   1      -1.525  -0.503   0.757  0.00  0.00     0.048 A 
ATOM      6  C5  UNL d   1      -1.962  -1.014   1.980  0.00  0.00     0.003 A 
ATOM      7  I   UNL d   1       0.331   0.966  -1.126  0.00  0.00    -0.146 I 
ENDROOT
TORSDOF 0
ENDMDL
