MODEL 1
REMARK minimizedAffinity -3.48930287
REMARK minimizedRMSD -1
REMARK  0 active torsions:
REMARK  status: ('A' for Active; 'I' for Inactive)
ROOT
ATOM      1  C   UNL d   1      -0.909  -0.444   2.952  0.00  0.00     0.023 A 
ATOM      2  C1  UNL d   1       0.372   0.007   2.632  0.00  0.00     0.003 A 
ATOM      3  C2  UNL d   1       0.756   0.132   1.295  0.00  0.00     0.048 A 
ATOM      4  C3  UNL d   1      -0.146  -0.195   0.283  0.00  0.00     0.023 A 
ATOM      5  C4  UNL d   1      -1.429  -0.645   0.598  0.00  0.00     0.048 A 
ATOM      6  C5  UNL d   1      -1.808  -0.770   1.936  0.00  0.00     0.003 A 
ATOM      7  I   UNL d   1       0.423  -0.009  -1.707  0.00  0.00    -0.146 I 
ENDROOT
TORSDOF 0
ENDMDL
