MODEL 1
REMARK minimizedAffinity -2.72243357
REMARK minimizedRMSD -1
REMARK  0 active torsions:
REMARK  status: ('A' for Active; 'I' for Inactive)
ROOT
ATOM      1  C   UNL d   1      -0.122  -0.203   2.962  0.00  0.00     0.023 A 
ATOM      2  C1  UNL d   1       1.043   0.297   2.380  0.00  0.00     0.003 A 
ATOM      3  C2  UNL d   1       1.220   0.224   0.997  0.00  0.00     0.048 A 
ATOM      4  C3  UNL d   1       0.228  -0.348   0.202  0.00  0.00     0.023 A 
ATOM      5  C4  UNL d   1      -0.940  -0.848   0.780  0.00  0.00     0.048 A 
ATOM      6  C5  UNL d   1      -1.112  -0.774   2.163  0.00  0.00     0.003 A 
ATOM      7  I   UNL d   1       0.489  -0.457  -1.857  0.00  0.00    -0.146 I 
ENDROOT
TORSDOF 0
ENDMDL
