MODEL 1
REMARK minimizedAffinity -3.68485212
REMARK minimizedRMSD -1
REMARK  0 active torsions:
REMARK  status: ('A' for Active; 'I' for Inactive)
ROOT
ATOM      1  C   UNL d   1      -1.121  -0.553   2.985  0.00  0.00     0.023 A 
ATOM      2  C1  UNL d   1      -1.991  -0.651   1.899  0.00  0.00     0.003 A 
ATOM      3  C2  UNL d   1      -1.530  -0.390   0.607  0.00  0.00     0.048 A 
ATOM      4  C3  UNL d   1      -0.196  -0.033   0.408  0.00  0.00     0.023 A 
ATOM      5  C4  UNL d   1       0.679   0.064   1.491  0.00  0.00     0.048 A 
ATOM      6  C5  UNL d   1       0.213  -0.196   2.781  0.00  0.00     0.003 A 
ATOM      7  I   UNL d   1       0.493   0.355  -1.514  0.00  0.00    -0.146 I 
ENDROOT
TORSDOF 0
ENDMDL
