MODEL 1
REMARK minimizedAffinity -4.19400978
REMARK minimizedRMSD -1
REMARK  0 active torsions:
REMARK  status: ('A' for Active; 'I' for Inactive)
ROOT
ATOM      1  C   UNL d   1      -1.797  -0.221   1.847  0.00  0.00     0.023 A 
ATOM      2  C1  UNL d   1      -2.381   0.265   0.677  0.00  0.00     0.003 A 
ATOM      3  C2  UNL d   1      -1.680   0.214  -0.529  0.00  0.00     0.048 A 
ATOM      4  C3  UNL d   1      -0.394  -0.326  -0.559  0.00  0.00     0.023 A 
ATOM      5  C4  UNL d   1       0.194  -0.815   0.609  0.00  0.00     0.048 A 
ATOM      6  C5  UNL d   1      -0.511  -0.761   1.813  0.00  0.00     0.003 A 
ATOM      7  I   UNL d   1       0.652  -0.404  -2.353  0.00  0.00    -0.146 I 
ENDROOT
TORSDOF 0
ENDMDL
