MODEL 1
REMARK minimizedAffinity -3.91351056
REMARK minimizedRMSD -1
REMARK  0 active torsions:
REMARK  status: ('A' for Active; 'I' for Inactive)
ROOT
ATOM      1  C   UNL d   1       0.236  -0.430   2.757  0.00  0.00     0.023 A 
ATOM      2  C1  UNL d   1      -0.860  -0.855   2.006  0.00  0.00     0.003 A 
ATOM      3  C2  UNL d   1      -0.859  -0.702   0.618  0.00  0.00     0.048 A 
ATOM      4  C3  UNL d   1       0.242  -0.124  -0.013  0.00  0.00     0.023 A 
ATOM      5  C4  UNL d   1       1.342   0.301   0.734  0.00  0.00     0.048 A 
ATOM      6  C5  UNL d   1       1.336   0.147   2.122  0.00  0.00     0.003 A 
ATOM      7  I   UNL d   1       0.246   0.104  -2.079  0.00  0.00    -0.146 I 
ENDROOT
TORSDOF 0
ENDMDL
