MODEL 1
REMARK minimizedAffinity -5.60665369
REMARK minimizedRMSD -1
REMARK  0 active torsions:
REMARK  status: ('A' for Active; 'I' for Inactive)
ROOT
ATOM      1  C   UNL d   1      -1.615  -0.107   3.780  0.00  0.00     0.023 A 
ATOM      2  C1  UNL d   1      -2.585  -0.234   2.785  0.00  0.00     0.003 A 
ATOM      3  C2  UNL d   1      -2.212  -0.232   1.440  0.00  0.00     0.048 A 
ATOM      4  C3  UNL d   1      -0.866  -0.104   1.096  0.00  0.00     0.023 A 
ATOM      5  C4  UNL d   1       0.108   0.022   2.087  0.00  0.00     0.048 A 
ATOM      6  C5  UNL d   1      -0.270   0.021   3.431  0.00  0.00     0.003 A 
ATOM      7  I   UNL d   1      -0.308  -0.101  -0.906  0.00  0.00    -0.146 I 
ENDROOT
TORSDOF 0
ENDMDL
