MODEL 1
REMARK minimizedAffinity -5.07639647
REMARK minimizedRMSD -1
REMARK  0 active torsions:
REMARK  status: ('A' for Active; 'I' for Inactive)
ROOT
ATOM      1  C   UNL d   1      -2.335   0.016   3.054  0.00  0.00     0.023 A 
ATOM      2  C1  UNL d   1      -0.953  -0.164   3.094  0.00  0.00     0.003 A 
ATOM      3  C2  UNL d   1      -0.204  -0.101   1.917  0.00  0.00     0.048 A 
ATOM      4  C3  UNL d   1      -0.845   0.144   0.703  0.00  0.00     0.023 A 
ATOM      5  C4  UNL d   1      -2.228   0.326   0.658  0.00  0.00     0.048 A 
ATOM      6  C5  UNL d   1      -2.972   0.261   1.837  0.00  0.00     0.003 A 
ATOM      7  I   UNL d   1       0.266   0.239  -1.051  0.00  0.00    -0.146 I 
ENDROOT
TORSDOF 0
ENDMDL
