MODEL 1
REMARK minimizedAffinity -3.34246397
REMARK minimizedRMSD -1
REMARK  0 active torsions:
REMARK  status: ('A' for Active; 'I' for Inactive)
ROOT
ATOM      1  C   UNL d   1      -0.848   0.709  -1.479  0.00  0.00     0.023 A 
ATOM      2  C1  UNL d   1      -1.988   0.485  -0.707  0.00  0.00     0.003 A 
ATOM      3  C2  UNL d   1      -1.864   0.136   0.639  0.00  0.00     0.048 A 
ATOM      4  C3  UNL d   1      -0.596   0.013   1.207  0.00  0.00     0.023 A 
ATOM      5  C4  UNL d   1       0.547   0.238   0.439  0.00  0.00     0.048 A 
ATOM      6  C5  UNL d   1       0.418   0.586  -0.907  0.00  0.00     0.003 A 
ATOM      7  I   UNL d   1      -0.409  -0.506   3.211  0.00  0.00    -0.146 I 
ENDROOT
TORSDOF 0
ENDMDL
