MODEL 1
REMARK minimizedAffinity -3.91412807
REMARK minimizedRMSD -1
REMARK  0 active torsions:
REMARK  status: ('A' for Active; 'I' for Inactive)
ROOT
ATOM      1  C   UNL d   1      -0.469  -0.519   2.804  0.00  0.00     0.023 A 
ATOM      2  C1  UNL d   1       0.756  -0.062   2.319  0.00  0.00     0.003 A 
ATOM      3  C2  UNL d   1       0.910   0.215   0.959  0.00  0.00     0.048 A 
ATOM      4  C3  UNL d   1      -0.166   0.034   0.090  0.00  0.00     0.023 A 
ATOM      5  C4  UNL d   1      -1.394  -0.423   0.572  0.00  0.00     0.048 A 
ATOM      6  C5  UNL d   1      -1.542  -0.700   1.932  0.00  0.00     0.003 A 
ATOM      7  I   UNL d   1       0.061   0.446  -1.934  0.00  0.00    -0.146 I 
ENDROOT
TORSDOF 0
ENDMDL
