MODEL 1
REMARK minimizedAffinity -2.69738197
REMARK minimizedRMSD -1
REMARK  0 active torsions:
REMARK  status: ('A' for Active; 'I' for Inactive)
ROOT
ATOM      1  C   UNL d   1      -1.882  -0.064   1.065  0.00  0.00     0.023 A 
ATOM      2  C1  UNL d   1      -0.741  -0.865   1.034  0.00  0.00     0.003 A 
ATOM      3  C2  UNL d   1       0.132  -0.798  -0.054  0.00  0.00     0.048 A 
ATOM      4  C3  UNL d   1      -0.142   0.074  -1.108  0.00  0.00     0.023 A 
ATOM      5  C4  UNL d   1      -1.283   0.878  -1.080  0.00  0.00     0.048 A 
ATOM      6  C5  UNL d   1      -2.153   0.807   0.009  0.00  0.00     0.003 A 
ATOM      7  I   UNL d   1       1.155   0.176  -2.728  0.00  0.00    -0.146 I 
ENDROOT
TORSDOF 0
ENDMDL
