MODEL 1
REMARK minimizedAffinity -1.43884766
REMARK minimizedRMSD -1
REMARK  0 active torsions:
REMARK  status: ('A' for Active; 'I' for Inactive)
ROOT
ATOM      1  C   UNL d   1       1.673  -1.510  -4.478  0.00  0.00     0.023 A 
ATOM      2  C1  UNL d   1       2.318  -0.503  -3.760  0.00  0.00     0.003 A 
ATOM      3  C2  UNL d   1       1.697   0.074  -2.650  0.00  0.00     0.048 A 
ATOM      4  C3  UNL d   1       0.431  -0.363  -2.262  0.00  0.00     0.023 A 
ATOM      5  C4  UNL d   1      -0.218  -1.371  -2.976  0.00  0.00     0.048 A 
ATOM      6  C5  UNL d   1       0.406  -1.944  -4.086  0.00  0.00     0.003 A 
ATOM      7  I   UNL d   1      -0.495   0.493  -0.610  0.00  0.00    -0.146 I 
ENDROOT
TORSDOF 0
ENDMDL
