MODEL 1
REMARK minimizedAffinity -1.01908481
REMARK minimizedRMSD -1
REMARK  0 active torsions:
REMARK  status: ('A' for Active; 'I' for Inactive)
ROOT
ATOM      1  C   UNL d   1      -1.127  -0.739   2.936  0.00  0.00     0.023 A 
ATOM      2  C1  UNL d   1       0.061  -0.031   2.755  0.00  0.00     0.003 A 
ATOM      3  C2  UNL d   1       0.415   0.427   1.484  0.00  0.00     0.048 A 
ATOM      4  C3  UNL d   1      -0.424   0.175   0.400  0.00  0.00     0.023 A 
ATOM      5  C4  UNL d   1      -1.615  -0.531   0.577  0.00  0.00     0.048 A 
ATOM      6  C5  UNL d   1      -1.964  -0.988   1.849  0.00  0.00     0.003 A 
ATOM      7  I   UNL d   1       0.101   0.856  -1.493  0.00  0.00    -0.146 I 
ENDROOT
TORSDOF 0
ENDMDL
