MODEL 1
REMARK minimizedAffinity 0.722148538
REMARK minimizedRMSD -1
REMARK  1 active torsions:
REMARK  status: ('A' for Active; 'I' for Inactive)
REMARK    1  A    between atoms: N_2  and  C1_3 
ROOT
ATOM      1  C1  UNL d   1       4.969   0.632   1.102  0.00  0.00     0.143 A 
ATOM      2  C2  UNL d   1       3.914   1.189   0.370  0.00  0.00    -0.057 A 
ATOM      3  C3  UNL d   1       3.912   2.544   0.016  0.00  0.00     0.033 A 
ATOM      4  C4  UNL d   1       4.953   3.375   0.415  0.00  0.00    -0.042 A 
ATOM      5  C5  UNL d   1       6.000   2.849   1.164  0.00  0.00     0.033 A 
ATOM      6  C6  UNL d   1       6.000   1.493   1.509  0.00  0.00    -0.057 A 
ENDROOT
BRANCH   1   7
ATOM      7  N   UNL d   1       4.982  -0.684   1.569  0.00  0.00    -0.732 N 
ATOM      8  C   UNL d   1       5.975  -1.117   2.529  0.00  0.00     0.284 C 
ATOM      9  H3  UNL d   1       4.046  -1.042   1.749  0.00  0.00     0.395 HD
ENDBRANCH   1   7
TORSDOF 1
ENDMDL
