MODEL 1
REMARK minimizedAffinity -1.87921858
REMARK minimizedRMSD -1
REMARK  1 active torsions:
REMARK  status: ('A' for Active; 'I' for Inactive)
REMARK    1  A    between atoms: N_2  and  C1_3 
ROOT
ATOM      1  C1  UNL d   1      -3.051   1.763   3.320  0.00  0.00     0.143 A 
ATOM      2  C2  UNL d   1      -1.913   2.501   3.660  0.00  0.00    -0.057 A 
ATOM      3  C3  UNL d   1      -0.665   2.214   3.094  0.00  0.00     0.033 A 
ATOM      4  C4  UNL d   1      -0.527   1.161   2.196  0.00  0.00    -0.042 A 
ATOM      5  C5  UNL d   1      -1.640   0.397   1.862  0.00  0.00     0.033 A 
ATOM      6  C6  UNL d   1      -2.885   0.693   2.426  0.00  0.00    -0.057 A 
ENDROOT
BRANCH   1   7
ATOM      7  N   UNL d   1      -4.300   1.936   3.922  0.00  0.00    -0.732 N 
ATOM      8  C   UNL d   1      -5.475   1.286   3.383  0.00  0.00     0.284 C 
ATOM      9  H3  UNL d   1      -4.246   1.922   4.938  0.00  0.00     0.395 HD
ENDBRANCH   1   7
TORSDOF 1
ENDMDL
