MODEL 1
REMARK minimizedAffinity 1.32104743
REMARK minimizedRMSD -1
REMARK  1 active torsions:
REMARK  status: ('A' for Active; 'I' for Inactive)
REMARK    1  A    between atoms: N_2  and  C1_3 
ROOT
ATOM      1  C1  UNL d   1       0.623  -4.494  -1.692  0.00  0.00     0.143 A 
ATOM      2  C2  UNL d   1       0.454  -4.777  -0.332  0.00  0.00    -0.057 A 
ATOM      3  C3  UNL d   1      -0.815  -5.027   0.205  0.00  0.00     0.033 A 
ATOM      4  C4  UNL d   1      -1.943  -4.970  -0.606  0.00  0.00    -0.042 A 
ATOM      5  C5  UNL d   1      -1.801  -4.666  -1.955  0.00  0.00     0.033 A 
ATOM      6  C6  UNL d   1      -0.531  -4.424  -2.487  0.00  0.00    -0.057 A 
ENDROOT
BRANCH   1   7
ATOM      7  N   UNL d   1       1.847  -4.140  -2.266  0.00  0.00    -0.732 N 
ATOM      8  C   UNL d   1       1.984  -4.034  -3.703  0.00  0.00     0.284 C 
ATOM      9  H3  UNL d   1       2.320  -3.403  -1.748  0.00  0.00     0.395 HD
ENDBRANCH   1   7
TORSDOF 1
ENDMDL
