MODEL 1
REMARK minimizedAffinity 1.5469985
REMARK minimizedRMSD -1
REMARK  1 active torsions:
REMARK  status: ('A' for Active; 'I' for Inactive)
REMARK    1  A    between atoms: N_2  and  C1_3 
ROOT
ATOM      1  C1  UNL d   1      -3.520   2.123   3.998  0.00  0.00     0.143 A 
ATOM      2  C2  UNL d   1      -2.367   2.613   3.374  0.00  0.00    -0.057 A 
ATOM      3  C3  UNL d   1      -1.557   1.782   2.590  0.00  0.00     0.033 A 
ATOM      4  C4  UNL d   1      -1.870   0.435   2.440  0.00  0.00    -0.042 A 
ATOM      5  C5  UNL d   1      -2.997  -0.079   3.072  0.00  0.00     0.033 A 
ATOM      6  C6  UNL d   1      -3.806   0.757   3.847  0.00  0.00    -0.057 A 
ENDROOT
BRANCH   1   7
ATOM      7  N   UNL d   1      -4.312   2.874   4.869  0.00  0.00    -0.732 N 
ATOM      8  C   UNL d   1      -4.975   2.244   5.991  0.00  0.00     0.284 C 
ATOM      9  H3  UNL d   1      -3.902   3.780   5.084  0.00  0.00     0.395 HD
ENDBRANCH   1   7
TORSDOF 1
ENDMDL
