MODEL 1
REMARK minimizedAffinity 5.03340197
REMARK minimizedRMSD -1
REMARK  1 active torsions:
REMARK  status: ('A' for Active; 'I' for Inactive)
REMARK    1  A    between atoms: N_2  and  C1_3 
ROOT
ATOM      1  C1  UNL d   1      -2.663   2.669   0.684  0.00  0.00     0.143 A 
ATOM      2  C2  UNL d   1      -3.253   1.963   1.737  0.00  0.00    -0.057 A 
ATOM      3  C3  UNL d   1      -2.502   1.547   2.843  0.00  0.00     0.033 A 
ATOM      4  C4  UNL d   1      -1.136   1.805   2.901  0.00  0.00    -0.042 A 
ATOM      5  C5  UNL d   1      -0.524   2.483   1.853  0.00  0.00     0.033 A 
ATOM      6  C6  UNL d   1      -1.281   2.902   0.755  0.00  0.00    -0.057 A 
ENDROOT
BRANCH   1   7
ATOM      7  N   UNL d   1      -3.336   3.024  -0.488  0.00  0.00    -0.732 N 
ATOM      8  C   UNL d   1      -2.907   2.508  -1.770  0.00  0.00     0.284 C 
ATOM      9  H3  UNL d   1      -4.346   3.044  -0.365  0.00  0.00     0.395 HD
ENDBRANCH   1   7
TORSDOF 1
ENDMDL
