MODEL 1
REMARK minimizedAffinity -0.891193926
REMARK minimizedRMSD -1
REMARK  1 active torsions:
REMARK  status: ('A' for Active; 'I' for Inactive)
REMARK    1  A    between atoms: N_2  and  C1_3 
ROOT
ATOM      1  C1  UNL d   1      -1.792   1.848   2.392  0.00  0.00     0.143 A 
ATOM      2  C2  UNL d   1      -0.505   2.318   2.108  0.00  0.00    -0.057 A 
ATOM      3  C3  UNL d   1       0.495   1.457   1.641  0.00  0.00     0.033 A 
ATOM      4  C4  UNL d   1       0.234   0.101   1.477  0.00  0.00    -0.042 A 
ATOM      5  C5  UNL d   1      -1.031  -0.393   1.777  0.00  0.00     0.033 A 
ATOM      6  C6  UNL d   1      -2.028   0.473   2.236  0.00  0.00    -0.057 A 
ENDROOT
BRANCH   1   7
ATOM      7  N   UNL d   1      -2.801   2.635   2.952  0.00  0.00    -0.732 N 
ATOM      8  C   UNL d   1      -3.731   2.071   3.908  0.00  0.00     0.284 C 
ATOM      9  H3  UNL d   1      -2.478   3.571   3.189  0.00  0.00     0.395 HD
ENDBRANCH   1   7
TORSDOF 1
ENDMDL
