MODEL 1
REMARK minimizedAffinity 1.80975318
REMARK minimizedRMSD -1
REMARK  1 active torsions:
REMARK  status: ('A' for Active; 'I' for Inactive)
REMARK    1  A    between atoms: N_2  and  C1_3 
ROOT
ATOM      1  C1  UNL d   1      -3.335   1.868   3.889  0.00  0.00     0.143 A 
ATOM      2  C2  UNL d   1      -3.338   0.679   3.152  0.00  0.00    -0.057 A 
ATOM      3  C3  UNL d   1      -2.211   0.271   2.428  0.00  0.00     0.033 A 
ATOM      4  C4  UNL d   1      -1.067   1.061   2.406  0.00  0.00    -0.042 A 
ATOM      5  C5  UNL d   1      -1.050   2.259   3.112  0.00  0.00     0.033 A 
ATOM      6  C6  UNL d   1      -2.176   2.659   3.838  0.00  0.00    -0.057 A 
ENDROOT
BRANCH   1   7
ATOM      7  N   UNL d   1      -4.456   2.377   4.549  0.00  0.00    -0.732 N 
ATOM      8  C   UNL d   1      -4.477   2.485   5.992  0.00  0.00     0.284 C 
ATOM      9  H3  UNL d   1      -4.861   3.177   4.066  0.00  0.00     0.395 HD
ENDBRANCH   1   7
TORSDOF 1
ENDMDL
