MODEL 1
REMARK minimizedAffinity -1.41210938
REMARK minimizedRMSD -1
REMARK  1 active torsions:
REMARK  status: ('A' for Active; 'I' for Inactive)
REMARK    1  A    between atoms: N_2  and  C1_3 
ROOT
ATOM      1  C1  UNL d   1      -3.329   2.270   3.701  0.00  0.00     0.143 A 
ATOM      2  C2  UNL d   1      -3.369   2.708   2.373  0.00  0.00    -0.057 A 
ATOM      3  C3  UNL d   1      -2.230   2.665   1.559  0.00  0.00     0.033 A 
ATOM      4  C4  UNL d   1      -1.020   2.208   2.070  0.00  0.00    -0.042 A 
ATOM      5  C5  UNL d   1      -0.950   1.790   3.395  0.00  0.00     0.033 A 
ATOM      6  C6  UNL d   1      -2.093   1.830   4.200  0.00  0.00    -0.057 A 
ENDROOT
BRANCH   1   7
ATOM      7  N   UNL d   1      -4.402   2.380   4.589  0.00  0.00    -0.732 N 
ATOM      8  C   UNL d   1      -4.171   2.606   5.999  0.00  0.00     0.284 C 
ATOM      9  H3  UNL d   1      -5.172   2.919   4.202  0.00  0.00     0.395 HD
ENDBRANCH   1   7
TORSDOF 1
ENDMDL
