MODEL 1
REMARK minimizedAffinity 7.25565958
REMARK minimizedRMSD -1
REMARK  1 active torsions:
REMARK  status: ('A' for Active; 'I' for Inactive)
REMARK    1  A    between atoms: N_2  and  C1_3 
ROOT
ATOM      1  C1  UNL d   1      -3.209   2.639   3.613  0.00  0.00     0.143 A 
ATOM      2  C2  UNL d   1      -1.979   2.042   3.910  0.00  0.00    -0.057 A 
ATOM      3  C3  UNL d   1      -0.866   2.217   3.079  0.00  0.00     0.033 A 
ATOM      4  C4  UNL d   1      -0.973   2.973   1.915  0.00  0.00    -0.042 A 
ATOM      5  C5  UNL d   1      -2.192   3.555   1.587  0.00  0.00     0.033 A 
ATOM      6  C6  UNL d   1      -3.297   3.382   2.425  0.00  0.00    -0.057 A 
ENDROOT
BRANCH   1   7
ATOM      7  N   UNL d   1      -4.377   2.422   4.348  0.00  0.00    -0.732 N 
ATOM      8  C   UNL d   1      -4.699   3.258   5.484  0.00  0.00     0.284 C 
ATOM      9  H3  UNL d   1      -5.173   2.201   3.754  0.00  0.00     0.395 HD
ENDBRANCH   1   7
TORSDOF 1
ENDMDL
