MODEL 1
REMARK minimizedAffinity 9.81180477
REMARK minimizedRMSD -1
REMARK  1 active torsions:
REMARK  status: ('A' for Active; 'I' for Inactive)
REMARK    1  A    between atoms: N_2  and  C1_3 
ROOT
ATOM      1  C1  UNL d   1      -3.621   2.277   4.860  0.00  0.00     0.143 A 
ATOM      2  C2  UNL d   1      -3.659   3.558   5.422  0.00  0.00    -0.057 A 
ATOM      3  C3  UNL d   1      -4.831   4.062   5.999  0.00  0.00     0.033 A 
ATOM      4  C4  UNL d   1      -5.996   3.303   5.999  0.00  0.00    -0.042 A 
ATOM      5  C5  UNL d   1      -5.988   2.037   5.424  0.00  0.00     0.033 A 
ATOM      6  C6  UNL d   1      -4.814   1.536   4.855  0.00  0.00    -0.057 A 
ENDROOT
BRANCH   1   7
ATOM      7  N   UNL d   1      -2.515   1.757   4.183  0.00  0.00    -0.732 N 
ATOM      8  C   UNL d   1      -1.854   2.526   3.151  0.00  0.00     0.284 C 
ATOM      9  H3  UNL d   1      -1.879   1.260   4.803  0.00  0.00     0.395 HD
ENDBRANCH   1   7
TORSDOF 1
ENDMDL
