MODEL 1
REMARK minimizedAffinity -2.310256
REMARK minimizedRMSD -1
REMARK  1 active torsions:
REMARK  status: ('A' for Active; 'I' for Inactive)
REMARK    1  A    between atoms: C1_2  and  C2_3 
ROOT
ATOM      1  C2  UNL d   1      -0.382   0.163   0.337  0.00  0.00    -0.076 A 
ATOM      2  C3  UNL d   1      -0.647  -0.056   1.700  0.00  0.00     0.004 A 
ATOM      3  C4  UNL d   1      -0.634  -1.343   2.236  0.00  0.00    -0.003 A 
ATOM      4  C5  UNL d   1      -0.357  -2.432   1.417  0.00  0.00     0.000 A 
ATOM      5  C6  UNL d   1      -0.075  -2.232   0.066  0.00  0.00     0.000 A 
ATOM      6  C7  UNL d   1      -0.067  -0.939  -0.487  0.00  0.00    -0.073 A 
ATOM      7  C8  UNL d   1       0.238  -0.782  -1.951  0.00  0.00     0.078 C 
ENDROOT
BRANCH   1   8
ATOM      8  C1  UNL d   1      -0.436   1.578  -0.193  0.00  0.00     0.053 C 
ATOM      9  C   UNL d   1       0.761   2.408   0.240  0.00  0.00     0.018 C 
ENDBRANCH   1   8
TORSDOF 1
ENDMDL
