MODEL 1
REMARK minimizedAffinity -2.62998223
REMARK minimizedRMSD -1
REMARK  1 active torsions:
REMARK  status: ('A' for Active; 'I' for Inactive)
REMARK    1  A    between atoms: C1_2  and  C2_3 
ROOT
ATOM      1  C2  UNL d   1      -0.010  -1.510  -0.538  0.00  0.00    -0.076 A 
ATOM      2  C3  UNL d   1      -0.068  -2.686   0.230  0.00  0.00     0.004 A 
ATOM      3  C4  UNL d   1      -0.353  -2.639   1.593  0.00  0.00    -0.003 A 
ATOM      4  C5  UNL d   1      -0.584  -1.415   2.211  0.00  0.00     0.000 A 
ATOM      5  C6  UNL d   1      -0.547  -0.240   1.461  0.00  0.00     0.000 A 
ATOM      6  C7  UNL d   1      -0.278  -0.271   0.082  0.00  0.00    -0.073 A 
ATOM      7  C8  UNL d   1      -0.245   1.027  -0.676  0.00  0.00     0.078 C 
ENDROOT
BRANCH   1   8
ATOM      8  C1  UNL d   1       0.330  -1.620  -2.008  0.00  0.00     0.053 C 
ATOM      9  C   UNL d   1      -0.149  -2.928  -2.620  0.00  0.00     0.018 C 
ENDBRANCH   1   8
TORSDOF 1
ENDMDL
