MODEL 1
REMARK minimizedAffinity -1.05752909
REMARK minimizedRMSD -1
REMARK  1 active torsions:
REMARK  status: ('A' for Active; 'I' for Inactive)
REMARK    1  A    between atoms: C1_2  and  C2_3 
ROOT
ATOM      1  C2  UNL d   1      -0.311  -0.813  -0.727  0.00  0.00    -0.076 A 
ATOM      2  C3  UNL d   1      -0.653  -2.130  -0.373  0.00  0.00     0.004 A 
ATOM      3  C4  UNL d   1      -0.938  -2.466   0.949  0.00  0.00    -0.003 A 
ATOM      4  C5  UNL d   1      -0.886  -1.491   1.939  0.00  0.00     0.000 A 
ATOM      5  C6  UNL d   1      -0.566  -0.176   1.603  0.00  0.00     0.000 A 
ATOM      6  C7  UNL d   1      -0.292   0.183   0.272  0.00  0.00    -0.073 A 
ATOM      7  C8  UNL d   1       0.054   1.615  -0.032  0.00  0.00     0.078 C 
ENDROOT
BRANCH   1   8
ATOM      8  C1  UNL d   1       0.015  -0.513  -2.173  0.00  0.00     0.053 C 
ATOM      9  C   UNL d   1       0.179  -1.774  -3.007  0.00  0.00     0.018 C 
ENDBRANCH   1   8
TORSDOF 1
ENDMDL
