MODEL 1
REMARK minimizedAffinity -4.82196522
REMARK minimizedRMSD -1
REMARK  1 active torsions:
REMARK  status: ('A' for Active; 'I' for Inactive)
REMARK    1  A    between atoms: C1_2  and  C2_3 
ROOT
ATOM      1  C2  UNL d   1       0.400  -1.361  -0.079  0.00  0.00    -0.076 A 
ATOM      2  C3  UNL d   1       0.617  -1.579  -1.451  0.00  0.00     0.004 A 
ATOM      3  C4  UNL d   1       0.411  -0.561  -2.380  0.00  0.00    -0.003 A 
ATOM      4  C5  UNL d   1      -0.015   0.692  -1.953  0.00  0.00     0.000 A 
ATOM      5  C6  UNL d   1      -0.218   0.931  -0.594  0.00  0.00     0.000 A 
ATOM      6  C7  UNL d   1       0.000  -0.080   0.358  0.00  0.00    -0.073 A 
ATOM      7  C8  UNL d   1      -0.240   0.231   1.810  0.00  0.00     0.078 C 
ENDROOT
BRANCH   1   8
ATOM      8  C1  UNL d   1       0.613  -2.511   0.879  0.00  0.00     0.053 C 
ATOM      9  C   UNL d   1       0.270  -3.857   0.260  0.00  0.00     0.018 C 
ENDBRANCH   1   8
TORSDOF 1
ENDMDL
