MODEL 1
REMARK minimizedAffinity -4.84356689
REMARK minimizedRMSD -1
REMARK  1 active torsions:
REMARK  status: ('A' for Active; 'I' for Inactive)
REMARK    1  A    between atoms: C1_2  and  C2_3 
ROOT
ATOM      1  C2  UNL d   1      -0.247  -0.809  -0.686  0.00  0.00    -0.076 A 
ATOM      2  C3  UNL d   1      -0.700  -1.258   0.567  0.00  0.00     0.004 A 
ATOM      3  C4  UNL d   1      -0.839  -2.619   0.834  0.00  0.00    -0.003 A 
ATOM      4  C5  UNL d   1      -0.525  -3.553  -0.147  0.00  0.00     0.000 A 
ATOM      5  C6  UNL d   1      -0.058  -3.126  -1.389  0.00  0.00     0.000 A 
ATOM      6  C7  UNL d   1       0.103  -1.759  -1.669  0.00  0.00    -0.073 A 
ATOM      7  C8  UNL d   1       0.605  -1.354  -3.028  0.00  0.00     0.078 C 
ENDROOT
BRANCH   1   8
ATOM      8  C1  UNL d   1      -0.143   0.680  -0.927  0.00  0.00     0.053 C 
ATOM      9  C   UNL d   1       0.628   1.396   0.170  0.00  0.00     0.018 C 
ENDBRANCH   1   8
TORSDOF 1
ENDMDL
