MODEL 1
REMARK minimizedAffinity -4.42073059
REMARK minimizedRMSD -1
REMARK  1 active torsions:
REMARK  status: ('A' for Active; 'I' for Inactive)
REMARK    1  A    between atoms: C1_2  and  C2_3 
ROOT
ATOM      1  C2  UNL d   1       0.591   1.088   0.184  0.00  0.00    -0.076 A 
ATOM      2  C3  UNL d   1       0.310   0.709  -1.140  0.00  0.00     0.004 A 
ATOM      3  C4  UNL d   1       0.100  -0.628  -1.474  0.00  0.00    -0.003 A 
ATOM      4  C5  UNL d   1       0.167  -1.607  -0.489  0.00  0.00     0.000 A 
ATOM      5  C6  UNL d   1       0.427  -1.247   0.833  0.00  0.00     0.000 A 
ATOM      6  C7  UNL d   1       0.625   0.098   1.189  0.00  0.00    -0.073 A 
ATOM      7  C8  UNL d   1       0.909   0.430   2.629  0.00  0.00     0.078 C 
ENDROOT
BRANCH   1   8
ATOM      8  C1  UNL d   1       0.837   2.550   0.482  0.00  0.00     0.053 C 
ATOM      9  C   UNL d   1       2.303   2.933   0.353  0.00  0.00     0.018 C 
ENDBRANCH   1   8
TORSDOF 1
ENDMDL
