MODEL 1
REMARK minimizedAffinity -3.62624288
REMARK minimizedRMSD -1
REMARK  1 active torsions:
REMARK  status: ('A' for Active; 'I' for Inactive)
REMARK    1  A    between atoms: C1_2  and  C2_3 
ROOT
ATOM      1  C2  UNL d   1       0.174   0.058  -0.254  0.00  0.00    -0.076 A 
ATOM      2  C3  UNL d   1       0.754  -0.693  -1.292  0.00  0.00     0.004 A 
ATOM      3  C4  UNL d   1       0.794  -2.085  -1.234  0.00  0.00    -0.003 A 
ATOM      4  C5  UNL d   1       0.253  -2.749  -0.139  0.00  0.00     0.000 A 
ATOM      5  C6  UNL d   1      -0.343  -2.021   0.891  0.00  0.00     0.000 A 
ATOM      6  C7  UNL d   1      -0.405  -0.618   0.841  0.00  0.00    -0.073 A 
ATOM      7  C8  UNL d   1      -1.054   0.117   1.982  0.00  0.00     0.078 C 
ENDROOT
BRANCH   1   8
ATOM      8  C1  UNL d   1       0.184   1.566  -0.359  0.00  0.00     0.053 C 
ATOM      9  C   UNL d   1       1.446   2.182   0.226  0.00  0.00     0.018 C 
ENDBRANCH   1   8
TORSDOF 1
ENDMDL
