MODEL 1
REMARK minimizedAffinity 0.967258394
REMARK minimizedRMSD -1
REMARK  1 active torsions:
REMARK  status: ('A' for Active; 'I' for Inactive)
REMARK    1  A    between atoms: C1_2  and  C2_3 
ROOT
ATOM      1  C2  UNL d   1      -0.217  -1.140  -0.136  0.00  0.00    -0.076 A 
ATOM      2  C3  UNL d   1      -0.716   0.127   0.212  0.00  0.00     0.004 A 
ATOM      3  C4  UNL d   1      -1.532   0.296   1.330  0.00  0.00    -0.003 A 
ATOM      4  C5  UNL d   1      -1.862  -0.801   2.118  0.00  0.00     0.000 A 
ATOM      5  C6  UNL d   1      -1.361  -2.063   1.798  0.00  0.00     0.000 A 
ATOM      6  C7  UNL d   1      -0.524  -2.247   0.684  0.00  0.00    -0.073 A 
ATOM      7  C8  UNL d   1      -0.018  -3.631   0.382  0.00  0.00     0.078 C 
ENDROOT
BRANCH   1   8
ATOM      8  C1  UNL d   1       0.640  -1.266  -1.374  0.00  0.00     0.053 C 
ATOM      9  C   UNL d   1       0.395  -0.142  -2.370  0.00  0.00     0.018 C 
ENDBRANCH   1   8
TORSDOF 1
ENDMDL
