MODEL 1
REMARK minimizedAffinity -5.12637711
REMARK minimizedRMSD -1
REMARK  1 active torsions:
REMARK  status: ('A' for Active; 'I' for Inactive)
REMARK    1  A    between atoms: C1_2  and  C2_3 
ROOT
ATOM      1  C2  UNL d   1      -0.115  -1.445   0.440  0.00  0.00    -0.076 A 
ATOM      2  C3  UNL d   1      -0.291  -2.770   0.004  0.00  0.00     0.004 A 
ATOM      3  C4  UNL d   1      -0.029  -3.131  -1.316  0.00  0.00    -0.003 A 
ATOM      4  C5  UNL d   1       0.414  -2.174  -2.222  0.00  0.00     0.000 A 
ATOM      5  C6  UNL d   1       0.611  -0.859  -1.803  0.00  0.00     0.000 A 
ATOM      6  C7  UNL d   1       0.367  -0.481  -0.471  0.00  0.00    -0.073 A 
ATOM      7  C8  UNL d   1       0.591   0.953  -0.075  0.00  0.00     0.078 C 
ENDROOT
BRANCH   1   8
ATOM      8  C1  UNL d   1      -0.441  -1.106   1.877  0.00  0.00     0.053 C 
ATOM      9  C   UNL d   1      -1.905  -0.745   2.073  0.00  0.00     0.018 C 
ENDBRANCH   1   8
TORSDOF 1
ENDMDL
