MODEL 1
REMARK minimizedAffinity -5.20595074
REMARK minimizedRMSD -1
REMARK  1 active torsions:
REMARK  status: ('A' for Active; 'I' for Inactive)
REMARK    1  A    between atoms: C1_2  and  C2_3 
ROOT
ATOM      1  C2  UNL d   1       0.037  -0.941  -0.599  0.00  0.00    -0.076 A 
ATOM      2  C3  UNL d   1       0.120  -0.952  -2.002  0.00  0.00     0.004 A 
ATOM      3  C4  UNL d   1       0.088  -2.150  -2.714  0.00  0.00    -0.003 A 
ATOM      4  C5  UNL d   1      -0.030  -3.357  -2.033  0.00  0.00     0.000 A 
ATOM      5  C6  UNL d   1      -0.131  -3.364  -0.643  0.00  0.00     0.000 A 
ATOM      6  C7  UNL d   1      -0.116  -2.164   0.089  0.00  0.00    -0.073 A 
ATOM      7  C8  UNL d   1      -0.222  -2.231   1.588  0.00  0.00     0.078 C 
ENDROOT
BRANCH   1   8
ATOM      8  C1  UNL d   1       0.106   0.387   0.120  0.00  0.00     0.053 C 
ATOM      9  C   UNL d   1      -0.265   1.556  -0.779  0.00  0.00     0.018 C 
ENDBRANCH   1   8
TORSDOF 1
ENDMDL
