MODEL 1
REMARK minimizedAffinity -2.05894685
REMARK minimizedRMSD -1
REMARK  1 active torsions:
REMARK  status: ('A' for Active; 'I' for Inactive)
REMARK    1  A    between atoms: C1_2  and  C2_3 
ROOT
ATOM      1  C2  UNL d   1      -0.130   1.485  -0.084  0.00  0.00    -0.076 A 
ATOM      2  C3  UNL d   1       0.274   1.238  -1.407  0.00  0.00     0.004 A 
ATOM      3  C4  UNL d   1       0.269  -0.055  -1.929  0.00  0.00    -0.003 A 
ATOM      4  C5  UNL d   1      -0.140  -1.121  -1.135  0.00  0.00     0.000 A 
ATOM      5  C6  UNL d   1      -0.560  -0.891   0.175  0.00  0.00     0.000 A 
ATOM      6  C7  UNL d   1      -0.577   0.408   0.711  0.00  0.00    -0.073 A 
ATOM      7  C8  UNL d   1      -1.034   0.597   2.131  0.00  0.00     0.078 C 
ENDROOT
BRANCH   1   8
ATOM      8  C1  UNL d   1      -0.078   2.904   0.436  0.00  0.00     0.053 C 
ATOM      9  C   UNL d   1       1.337   3.459   0.476  0.00  0.00     0.018 C 
ENDBRANCH   1   8
TORSDOF 1
ENDMDL
