MODEL 1
REMARK minimizedAffinity -4.49594355
REMARK minimizedRMSD -1
REMARK  1 active torsions:
REMARK  status: ('A' for Active; 'I' for Inactive)
REMARK    1  A    between atoms: C1_2  and  C2_3 
ROOT
ATOM      1  C2  UNL d   1      -0.000  -0.329  -0.030  0.00  0.00    -0.076 A 
ATOM      2  C3  UNL d   1       0.508  -1.076  -1.108  0.00  0.00     0.004 A 
ATOM      3  C4  UNL d   1       0.401  -2.465  -1.132  0.00  0.00    -0.003 A 
ATOM      4  C5  UNL d   1      -0.218  -3.131  -0.079  0.00  0.00     0.000 A 
ATOM      5  C6  UNL d   1      -0.743  -2.405   0.989  0.00  0.00     0.000 A 
ATOM      6  C7  UNL d   1      -0.658  -1.003   1.021  0.00  0.00    -0.073 A 
ATOM      7  C8  UNL d   1      -1.237  -0.271   2.201  0.00  0.00     0.078 C 
ENDROOT
BRANCH   1   8
ATOM      8  C1  UNL d   1       0.169   1.173  -0.046  0.00  0.00     0.053 C 
ATOM      9  C   UNL d   1       1.566   1.606   0.371  0.00  0.00     0.018 C 
ENDBRANCH   1   8
TORSDOF 1
ENDMDL
