MODEL 1
REMARK minimizedAffinity -2.61352992
REMARK minimizedRMSD -1
REMARK  1 active torsions:
REMARK  status: ('A' for Active; 'I' for Inactive)
REMARK    1  A    between atoms: C1_2  and  C2_3 
ROOT
ATOM      1  C2  UNL d   1      -0.095  -1.112   0.333  0.00  0.00    -0.076 A 
ATOM      2  C3  UNL d   1      -0.367  -0.202   1.369  0.00  0.00     0.004 A 
ATOM      3  C4  UNL d   1      -0.056   1.151   1.236  0.00  0.00    -0.003 A 
ATOM      4  C5  UNL d   1       0.531   1.615   0.064  0.00  0.00     0.000 A 
ATOM      5  C6  UNL d   1       0.792   0.729  -0.981  0.00  0.00     0.000 A 
ATOM      6  C7  UNL d   1       0.470  -0.634  -0.869  0.00  0.00    -0.073 A 
ATOM      7  C8  UNL d   1       0.778  -1.546  -2.025  0.00  0.00     0.078 C 
ENDROOT
BRANCH   1   8
ATOM      8  C1  UNL d   1      -0.429  -2.571   0.544  0.00  0.00     0.053 C 
ATOM      9  C   UNL d   1      -1.918  -2.804   0.752  0.00  0.00     0.018 C 
ENDBRANCH   1   8
TORSDOF 1
ENDMDL
