MODEL 1
REMARK minimizedAffinity -6.6325326
REMARK minimizedRMSD -1
REMARK  0 active torsions:
REMARK  status: ('A' for Active; 'I' for Inactive)
ROOT
ATOM      1  N1  IND d   1       0.565   0.087   0.020  0.00  0.00    -0.196 N 
ATOM      2  C2  IND d   1       1.324   0.545  -1.020  0.00  0.00     0.054 A 
ATOM      3  C3  IND d   1       0.834   1.718  -1.480  0.00  0.00    -0.031 A 
ATOM      4  C4  IND d   1      -1.142   3.119  -0.609  0.00  0.00     0.051 A 
ATOM      5  C5  IND d   1      -2.162   3.094   0.301  0.00  0.00    -0.031 A 
ATOM      6  C6  IND d   1      -2.327   2.045   1.183  0.00  0.00     0.015 A 
ATOM      7  C7  IND d   1      -1.468   0.984   1.196  0.00  0.00    -0.016 A 
ATOM      8  C8  IND d   1      -0.435   1.002   0.269  0.00  0.00    -0.047 A 
ATOM      9  C9  IND d   1      -0.287   2.043  -0.657  0.00  0.00    -0.096 A 
ATOM     10  HN1 IND d   1       0.690  -0.648   0.447  0.00  0.00     0.298 HD
ENDROOT
TORSDOF 0
ENDMDL
