MODEL 1
REMARK minimizedAffinity -6.52585077
REMARK minimizedRMSD -1
REMARK  0 active torsions:
REMARK  status: ('A' for Active; 'I' for Inactive)
ROOT
ATOM      1  N1  IND d   1       0.552  -0.184  -0.630  0.00  0.00    -0.196 N 
ATOM      2  C2  IND d   1       0.287  -0.986   0.445  0.00  0.00     0.054 A 
ATOM      3  C3  IND d   1      -0.576  -0.375   1.287  0.00  0.00    -0.031 A 
ATOM      4  C4  IND d   1      -1.761   1.898   1.049  0.00  0.00     0.051 A 
ATOM      5  C5  IND d   1      -1.810   3.009   0.254  0.00  0.00    -0.031 A 
ATOM      6  C6  IND d   1      -1.062   3.113  -0.900  0.00  0.00     0.015 A 
ATOM      7  C7  IND d   1      -0.242   2.101  -1.311  0.00  0.00    -0.016 A 
ATOM      8  C8  IND d   1      -0.183   0.975  -0.503  0.00  0.00    -0.047 A 
ATOM      9  C9  IND d   1      -0.908   0.881   0.692  0.00  0.00    -0.096 A 
ATOM     10  HN1 IND d   1       1.087  -0.371  -1.276  0.00  0.00     0.298 HD
ENDROOT
TORSDOF 0
ENDMDL
