MODEL 1
REMARK minimizedAffinity -5.80051565
REMARK minimizedRMSD -1
REMARK  0 active torsions:
REMARK  status: ('A' for Active; 'I' for Inactive)
ROOT
ATOM      1  N1  IND d   1      -1.885  -1.317  -1.658  0.00  0.00    -0.196 N 
ATOM      2  C2  IND d   1      -1.647  -2.535  -2.230  0.00  0.00     0.054 A 
ATOM      3  C3  IND d   1      -0.392  -2.583  -2.730  0.00  0.00    -0.031 A 
ATOM      4  C4  IND d   1       1.476  -0.814  -2.630  0.00  0.00     0.051 A 
ATOM      5  C5  IND d   1       1.721   0.473  -2.241  0.00  0.00    -0.031 A 
ATOM      6  C6  IND d   1       0.758   1.244  -1.623  0.00  0.00     0.015 A 
ATOM      7  C7  IND d   1      -0.488   0.750  -1.359  0.00  0.00    -0.016 A 
ATOM      8  C8  IND d   1      -0.743  -0.554  -1.759  0.00  0.00    -0.047 A 
ATOM      9  C9  IND d   1       0.217  -1.327  -2.425  0.00  0.00    -0.096 A 
ATOM     10  HN1 IND d   1      -2.625  -1.069  -1.295  0.00  0.00     0.298 HD
ENDROOT
TORSDOF 0
ENDMDL
