MODEL 1
REMARK minimizedAffinity -1.64544487
REMARK minimizedRMSD -1
REMARK  0 active torsions:
REMARK  status: ('A' for Active; 'I' for Inactive)
ROOT
ATOM      1  N1  IND d   1       1.285  -0.368  -1.595  0.00  0.00    -0.196 N 
ATOM      2  C2  IND d   1       1.084  -1.328  -0.643  0.00  0.00     0.054 A 
ATOM      3  C3  IND d   1       0.288  -0.854   0.342  0.00  0.00    -0.031 A 
ATOM      4  C4  IND d   1      -0.877   1.433   0.545  0.00  0.00     0.051 A 
ATOM      5  C5  IND d   1      -0.965   2.654  -0.061  0.00  0.00    -0.031 A 
ATOM      6  C6  IND d   1      -0.296   2.936  -1.234  0.00  0.00     0.015 A 
ATOM      7  C7  IND d   1       0.480   1.998  -1.854  0.00  0.00    -0.016 A 
ATOM      8  C8  IND d   1       0.578   0.759  -1.238  0.00  0.00    -0.047 A 
ATOM      9  C9  IND d   1      -0.065   0.481  -0.025  0.00  0.00    -0.096 A 
ATOM     10  HN1 IND d   1       1.773  -0.453  -2.298  0.00  0.00     0.298 HD
ENDROOT
TORSDOF 0
ENDMDL
