MODEL 1
REMARK minimizedAffinity -5.55877686
REMARK minimizedRMSD -1
REMARK  0 active torsions:
REMARK  status: ('A' for Active; 'I' for Inactive)
ROOT
ATOM      1  N1  IND d   1       1.347   0.994  -1.155  0.00  0.00    -0.196 N 
ATOM      2  C2  IND d   1       1.387  -0.225  -0.538  0.00  0.00     0.054 A 
ATOM      3  C3  IND d   1       0.350  -0.351   0.320  0.00  0.00    -0.031 A 
ATOM      4  C4  IND d   1      -1.587   1.276   0.796  0.00  0.00     0.051 A 
ATOM      5  C5  IND d   1      -2.035   2.533   0.502  0.00  0.00    -0.031 A 
ATOM      6  C6  IND d   1      -1.366   3.357  -0.380  0.00  0.00     0.015 A 
ATOM      7  C7  IND d   1      -0.226   2.949  -1.012  0.00  0.00    -0.016 A 
ATOM      8  C8  IND d   1       0.236   1.675  -0.710  0.00  0.00    -0.047 A 
ATOM      9  C9  IND d   1      -0.415   0.851   0.217  0.00  0.00    -0.096 A 
ATOM     10  HN1 IND d   1       1.921   1.287  -1.725  0.00  0.00     0.298 HD
ENDROOT
TORSDOF 0
ENDMDL
