MODEL 1
REMARK minimizedAffinity -1.08456588
REMARK minimizedRMSD -1
REMARK  0 active torsions:
REMARK  status: ('A' for Active; 'I' for Inactive)
ROOT
ATOM      1  N1  IND d   1      -0.366   3.145   0.514  0.00  0.00    -0.196 N 
ATOM      2  C2  IND d   1       0.197   3.220  -0.730  0.00  0.00     0.054 A 
ATOM      3  C3  IND d   1       0.490   1.982  -1.189  0.00  0.00    -0.031 A 
ATOM      4  C4  IND d   1       0.038  -0.311  -0.109  0.00  0.00     0.051 A 
ATOM      5  C5  IND d   1      -0.423  -0.889   1.040  0.00  0.00    -0.031 A 
ATOM      6  C6  IND d   1      -0.902  -0.136   2.093  0.00  0.00     0.015 A 
ATOM      7  C7  IND d   1      -0.947   1.228   2.031  0.00  0.00    -0.016 A 
ATOM      8  C8  IND d   1      -0.472   1.818   0.868  0.00  0.00    -0.047 A 
ATOM      9  C9  IND d   1       0.054   1.061  -0.187  0.00  0.00    -0.096 A 
ATOM     10  HN1 IND d   1      -0.612   3.815   0.994  0.00  0.00     0.298 HD
ENDROOT
TORSDOF 0
ENDMDL
