MODEL 1
REMARK minimizedAffinity -5.61226797
REMARK minimizedRMSD -1
REMARK  0 active torsions:
REMARK  status: ('A' for Active; 'I' for Inactive)
ROOT
ATOM      1  N1  IND d   1      -0.332   0.423   0.252  0.00  0.00    -0.196 N 
ATOM      2  C2  IND d   1      -1.000  -0.207   1.265  0.00  0.00     0.054 A 
ATOM      3  C3  IND d   1      -1.783   0.672   1.930  0.00  0.00    -0.031 A 
ATOM      4  C4  IND d   1      -2.201   3.169   1.462  0.00  0.00     0.051 A 
ATOM      5  C5  IND d   1      -1.789   4.199   0.665  0.00  0.00    -0.031 A 
ATOM      6  C6  IND d   1      -0.853   4.019  -0.333  0.00  0.00     0.015 A 
ATOM      7  C7  IND d   1      -0.301   2.794  -0.579  0.00  0.00    -0.016 A 
ATOM      8  C8  IND d   1      -0.712   1.747   0.234  0.00  0.00    -0.047 A 
ATOM      9  C9  IND d   1      -1.629   1.933   1.276  0.00  0.00    -0.096 A 
ATOM     10  HN1 IND d   1       0.231   0.054  -0.283  0.00  0.00     0.298 HD
ENDROOT
TORSDOF 0
ENDMDL
