MODEL 1
REMARK minimizedAffinity -2.3842392
REMARK minimizedRMSD -1
REMARK  0 active torsions:
REMARK  status: ('A' for Active; 'I' for Inactive)
ROOT
ATOM      1  N1  IND d   1       0.753   0.243  -0.750  0.00  0.00    -0.196 N 
ATOM      2  C2  IND d   1       0.534  -0.887  -0.011  0.00  0.00     0.054 A 
ATOM      3  C3  IND d   1      -0.265  -0.612   1.044  0.00  0.00    -0.031 A 
ATOM      4  C4  IND d   1      -1.412   1.599   1.694  0.00  0.00     0.051 A 
ATOM      5  C5  IND d   1      -1.484   2.919   1.345  0.00  0.00    -0.031 A 
ATOM      6  C6  IND d   1      -0.803   3.423   0.256  0.00  0.00     0.015 A 
ATOM      7  C7  IND d   1      -0.030   2.621  -0.534  0.00  0.00    -0.016 A 
ATOM      8  C8  IND d   1       0.052   1.282  -0.179  0.00  0.00    -0.047 A 
ATOM      9  C9  IND d   1      -0.604   0.773   0.950  0.00  0.00    -0.096 A 
ATOM     10  HN1 IND d   1       1.245   0.295  -1.452  0.00  0.00     0.298 HD
ENDROOT
TORSDOF 0
ENDMDL
