MODEL 1
REMARK minimizedAffinity -4.6600008
REMARK minimizedRMSD -1
REMARK  0 active torsions:
REMARK  status: ('A' for Active; 'I' for Inactive)
ROOT
ATOM      1  N1  IND d   1      -0.174   0.072  -1.034  0.00  0.00    -0.196 N 
ATOM      2  C2  IND d   1       0.359  -0.887  -0.219  0.00  0.00     0.054 A 
ATOM      3  C3  IND d   1       0.009  -0.659   1.067  0.00  0.00    -0.031 A 
ATOM      4  C4  IND d   1      -1.515   1.169   2.047  0.00  0.00     0.051 A 
ATOM      5  C5  IND d   1      -2.207   2.296   1.699  0.00  0.00    -0.031 A 
ATOM      6  C6  IND d   1      -2.259   2.746   0.396  0.00  0.00     0.015 A 
ATOM      7  C7  IND d   1      -1.629   2.077  -0.615  0.00  0.00    -0.016 A 
ATOM      8  C8  IND d   1      -0.920   0.937  -0.264  0.00  0.00    -0.047 A 
ATOM      9  C9  IND d   1      -0.828   0.499   1.063  0.00  0.00    -0.096 A 
ATOM     10  HN1 IND d   1      -0.062   0.125  -1.885  0.00  0.00     0.298 HD
ENDROOT
TORSDOF 0
ENDMDL
