MODEL 1
REMARK minimizedAffinity -5.27922487
REMARK minimizedRMSD -1
REMARK  0 active torsions:
REMARK  status: ('A' for Active; 'I' for Inactive)
ROOT
ATOM      1  N1  IND d   1       1.027  -2.727  -0.695  0.00  0.00    -0.196 N 
ATOM      2  C2  IND d   1       1.028  -3.512  -1.814  0.00  0.00     0.054 A 
ATOM      3  C3  IND d   1       0.784  -2.765  -2.914  0.00  0.00    -0.031 A 
ATOM      4  C4  IND d   1       0.457  -0.220  -3.122  0.00  0.00     0.051 A 
ATOM      5  C5  IND d   1       0.336   0.916  -2.371  0.00  0.00    -0.031 A 
ATOM      6  C6  IND d   1       0.445   0.895  -0.995  0.00  0.00     0.015 A 
ATOM      7  C7  IND d   1       0.690  -0.265  -0.317  0.00  0.00    -0.016 A 
ATOM      8  C8  IND d   1       0.806  -1.421  -1.076  0.00  0.00    -0.047 A 
ATOM      9  C9  IND d   1       0.655  -1.413  -2.469  0.00  0.00    -0.096 A 
ATOM     10  HN1 IND d   1       1.145  -3.002   0.111  0.00  0.00     0.298 HD
ENDROOT
TORSDOF 0
ENDMDL
