MODEL 1
REMARK minimizedAffinity -4.08745861
REMARK minimizedRMSD -1
REMARK  0 active torsions:
REMARK  status: ('A' for Active; 'I' for Inactive)
ROOT
ATOM      1  N1  IND d   1       0.241   2.936  -0.959  0.00  0.00    -0.196 N 
ATOM      2  C2  IND d   1      -0.292   4.106  -0.494  0.00  0.00     0.054 A 
ATOM      3  C3  IND d   1      -1.132   3.863   0.537  0.00  0.00    -0.031 A 
ATOM      4  C4  IND d   1      -1.703   1.634   1.692  0.00  0.00     0.051 A 
ATOM      5  C5  IND d   1      -1.491   0.287   1.598  0.00  0.00    -0.031 A 
ATOM      6  C6  IND d   1      -0.672  -0.256   0.630  0.00  0.00     0.015 A 
ATOM      7  C7  IND d   1      -0.023   0.531  -0.279  0.00  0.00    -0.016 A 
ATOM      8  C8  IND d   1      -0.241   1.899  -0.191  0.00  0.00    -0.047 A 
ATOM      9  C9  IND d   1      -1.105   2.453   0.763  0.00  0.00    -0.096 A 
ATOM     10  HN1 IND d   1       0.786   2.860  -1.620  0.00  0.00     0.298 HD
ENDROOT
TORSDOF 0
ENDMDL
