MODEL 1
REMARK minimizedAffinity -4.74901438
REMARK minimizedRMSD -1
REMARK  0 active torsions:
REMARK  status: ('A' for Active; 'I' for Inactive)
ROOT
ATOM      1  N1  IND d   1       0.722   2.844  -0.997  0.00  0.00    -0.196 N 
ATOM      2  C2  IND d   1       0.363   4.074  -0.522  0.00  0.00     0.054 A 
ATOM      3  C3  IND d   1      -0.390   3.946   0.594  0.00  0.00    -0.031 A 
ATOM      4  C4  IND d   1      -1.070   1.818   1.872  0.00  0.00     0.051 A 
ATOM      5  C5  IND d   1      -1.010   0.454   1.803  0.00  0.00    -0.031 A 
ATOM      6  C6  IND d   1      -0.353  -0.196   0.778  0.00  0.00     0.015 A 
ATOM      7  C7  IND d   1       0.280   0.497  -0.215  0.00  0.00    -0.016 A 
ATOM      8  C8  IND d   1       0.214   1.882  -0.152  0.00  0.00    -0.047 A 
ATOM      9  C9  IND d   1      -0.487   2.547   0.863  0.00  0.00    -0.096 A 
ATOM     10  HN1 IND d   1       1.187   2.696  -1.705  0.00  0.00     0.298 HD
ENDROOT
TORSDOF 0
ENDMDL
