MODEL 1
REMARK minimizedAffinity -1.04016089
REMARK minimizedRMSD -1
REMARK  0 active torsions:
REMARK  status: ('A' for Active; 'I' for Inactive)
ROOT
ATOM      1  C   UNL d   1      -1.743   2.179   1.859  0.00  0.00    -0.002 A 
ATOM      2  C1  UNL d   1      -1.398   3.157   0.937  0.00  0.00     0.010 A 
ATOM      3  C2  UNL d   1      -0.619   2.840  -0.177  0.00  0.00     0.041 A 
ATOM      4  C3  UNL d   1      -0.190   1.509  -0.352  0.00  0.00    -0.075 A 
ATOM      5  S   UNL d   1       0.771   0.888  -1.642  0.00  0.00     0.015 SA
ATOM      6  C4  UNL d   1       0.745  -0.691  -1.000  0.00  0.00     0.022 A 
ATOM      7  C5  UNL d   1       0.026  -0.760   0.170  0.00  0.00     0.026 A 
ATOM      8  C6  UNL d   1      -0.525   0.506   0.562  0.00  0.00    -0.082 A 
ATOM      9  C7  UNL d   1      -1.315   0.860   1.682  0.00  0.00     0.045 A 
ENDROOT
TORSDOF 0
ENDMDL
