MODEL 1
REMARK minimizedAffinity -5.24834061
REMARK minimizedRMSD -1
REMARK  0 active torsions:
REMARK  status: ('A' for Active; 'I' for Inactive)
ROOT
ATOM      1  C   UNL d   1      -1.967   1.652   1.555  0.00  0.00    -0.002 A 
ATOM      2  C1  UNL d   1      -1.698   0.397   2.082  0.00  0.00     0.010 A 
ATOM      3  C2  UNL d   1      -0.637  -0.367   1.592  0.00  0.00     0.041 A 
ATOM      4  C3  UNL d   1       0.159   0.158   0.555  0.00  0.00    -0.075 A 
ATOM      5  S   UNL d   1       1.511  -0.597  -0.202  0.00  0.00     0.015 SA
ATOM      6  C4  UNL d   1       1.765   0.729  -1.242  0.00  0.00     0.022 A 
ATOM      7  C5  UNL d   1       0.849   1.732  -1.031  0.00  0.00     0.026 A 
ATOM      8  C6  UNL d   1      -0.092   1.420   0.008  0.00  0.00    -0.082 A 
ATOM      9  C7  UNL d   1      -1.176   2.169   0.526  0.00  0.00     0.045 A 
ENDROOT
TORSDOF 0
ENDMDL
