MODEL 1
REMARK minimizedAffinity 0.862961411
REMARK minimizedRMSD -1
REMARK  0 active torsions:
REMARK  status: ('A' for Active; 'I' for Inactive)
ROOT
ATOM      1  C   UNL d   1       0.668  -3.777  -3.626  0.00  0.00    -0.002 A 
ATOM      2  C1  UNL d   1       0.964  -2.747  -4.508  0.00  0.00     0.010 A 
ATOM      3  C2  UNL d   1       1.117  -1.439  -4.046  0.00  0.00     0.041 A 
ATOM      4  C3  UNL d   1       0.968  -1.180  -2.669  0.00  0.00    -0.075 A 
ATOM      5  S   UNL d   1       1.112   0.344  -1.877  0.00  0.00     0.015 SA
ATOM      6  C4  UNL d   1       0.785  -0.336  -0.348  0.00  0.00     0.022 A 
ATOM      7  C5  UNL d   1       0.569  -1.692  -0.423  0.00  0.00     0.026 A 
ATOM      8  C6  UNL d   1       0.672  -2.201  -1.762  0.00  0.00    -0.082 A 
ATOM      9  C7  UNL d   1       0.521  -3.517  -2.261  0.00  0.00     0.045 A 
ENDROOT
TORSDOF 0
ENDMDL
