MODEL 1
REMARK minimizedAffinity -0.284669757
REMARK minimizedRMSD -1
REMARK  0 active torsions:
REMARK  status: ('A' for Active; 'I' for Inactive)
ROOT
ATOM      1  C   UNL d   1       0.667  -3.415  -3.188  0.00  0.00    -0.002 A 
ATOM      2  C1  UNL d   1       1.398  -3.901  -2.112  0.00  0.00     0.010 A 
ATOM      3  C2  UNL d   1       1.490  -3.168  -0.928  0.00  0.00     0.041 A 
ATOM      4  C3  UNL d   1       0.827  -1.928  -0.840  0.00  0.00    -0.075 A 
ATOM      5  S   UNL d   1       0.799  -0.858   0.512  0.00  0.00     0.015 SA
ATOM      6  C4  UNL d   1      -0.184   0.269  -0.306  0.00  0.00     0.022 A 
ATOM      7  C5  UNL d   1      -0.493  -0.145  -1.580  0.00  0.00     0.026 A 
ATOM      8  C6  UNL d   1       0.085  -1.418  -1.909  0.00  0.00    -0.082 A 
ATOM      9  C7  UNL d   1       0.011  -2.185  -3.097  0.00  0.00     0.045 A 
ENDROOT
TORSDOF 0
ENDMDL
