MODEL 1
REMARK minimizedAffinity -3.9739759
REMARK minimizedRMSD -1
REMARK  0 active torsions:
REMARK  status: ('A' for Active; 'I' for Inactive)
ROOT
ATOM      1  C   UNL d   1      -1.596   2.444   1.795  0.00  0.00    -0.002 A 
ATOM      2  C1  UNL d   1      -1.999   2.311   0.473  0.00  0.00     0.010 A 
ATOM      3  C2  UNL d   1      -1.478   1.295  -0.330  0.00  0.00     0.041 A 
ATOM      4  C3  UNL d   1      -0.538   0.403   0.223  0.00  0.00    -0.075 A 
ATOM      5  S   UNL d   1       0.233  -0.918  -0.571  0.00  0.00     0.015 SA
ATOM      6  C4  UNL d   1       1.116  -1.339   0.825  0.00  0.00     0.022 A 
ATOM      7  C5  UNL d   1       0.841  -0.502   1.881  0.00  0.00     0.026 A 
ATOM      8  C6  UNL d   1      -0.117   0.515   1.551  0.00  0.00    -0.082 A 
ATOM      9  C7  UNL d   1      -0.663   1.557   2.340  0.00  0.00     0.045 A 
ENDROOT
TORSDOF 0
ENDMDL
