MODEL 1
REMARK minimizedAffinity -2.40451813
REMARK minimizedRMSD -1
REMARK  0 active torsions:
REMARK  status: ('A' for Active; 'I' for Inactive)
ROOT
ATOM      1  C   UNL d   1      -1.426   0.942   1.957  0.00  0.00    -0.002 A 
ATOM      2  C1  UNL d   1      -1.494   1.833   0.896  0.00  0.00     0.010 A 
ATOM      3  C2  UNL d   1      -0.854   1.549  -0.312  0.00  0.00     0.041 A 
ATOM      4  C3  UNL d   1      -0.138   0.342  -0.437  0.00  0.00    -0.075 A 
ATOM      5  S   UNL d   1       0.724  -0.217  -1.821  0.00  0.00     0.015 SA
ATOM      6  C4  UNL d   1       1.203  -1.652  -1.036  0.00  0.00     0.022 A 
ATOM      7  C5  UNL d   1       0.726  -1.719   0.252  0.00  0.00     0.026 A 
ATOM      8  C6  UNL d   1      -0.055  -0.571   0.618  0.00  0.00    -0.082 A 
ATOM      9  C7  UNL d   1      -0.715  -0.254   1.830  0.00  0.00     0.045 A 
ENDROOT
TORSDOF 0
ENDMDL
