MODEL 1
REMARK minimizedAffinity 11.5654135
REMARK minimizedRMSD -1
REMARK  1 active torsions:
REMARK  status: ('A' for Active; 'I' for Inactive)
REMARK    1  A    between atoms: C1_2  and  C2_3 
ROOT
ATOM      1  C2  UNL d   1       3.745   1.996   1.287  0.00  0.00    -0.076 A 
ATOM      2  C3  UNL d   1       4.271   2.751   2.350  0.00  0.00     0.004 A 
ATOM      3  C4  UNL d   1       5.390   3.562   2.169  0.00  0.00    -0.003 A 
ATOM      4  C5  UNL d   1       6.000   3.633   0.922  0.00  0.00     0.000 A 
ATOM      5  C6  UNL d   1       5.481   2.905  -0.149  0.00  0.00     0.000 A 
ATOM      6  C7  UNL d   1       4.344   2.095   0.013  0.00  0.00    -0.073 A 
ATOM      7  C8  UNL d   1       3.830   1.327  -1.174  0.00  0.00     0.078 C 
ENDROOT
BRANCH   1   8
ATOM      8  C1  UNL d   1       2.546   1.113   1.550  0.00  0.00     0.053 C 
ATOM      9  C   UNL d   1       2.935  -0.333   1.815  0.00  0.00     0.018 C 
ENDBRANCH   1   8
TORSDOF 1
ENDMDL
