MODEL 1
REMARK minimizedAffinity 16.276022
REMARK minimizedRMSD -1
REMARK  1 active torsions:
REMARK  status: ('A' for Active; 'I' for Inactive)
REMARK    1  A    between atoms: C1_2  and  C2_3 
ROOT
ATOM      1  C2  UNL d   1      -1.694  -4.093  -4.012  0.00  0.00    -0.076 A 
ATOM      2  C3  UNL d   1      -3.013  -4.311  -4.448  0.00  0.00     0.004 A 
ATOM      3  C4  UNL d   1      -3.296  -5.256  -5.433  0.00  0.00    -0.003 A 
ATOM      4  C5  UNL d   1      -2.265  -6.000  -5.996  0.00  0.00     0.000 A 
ATOM      5  C6  UNL d   1      -0.953  -5.809  -5.563  0.00  0.00     0.000 A 
ATOM      6  C7  UNL d   1      -0.653  -4.871  -4.560  0.00  0.00    -0.073 A 
ATOM      7  C8  UNL d   1       0.780  -4.703  -4.136  0.00  0.00     0.078 C 
ENDROOT
BRANCH   1   8
ATOM      8  C1  UNL d   1      -1.445  -3.035  -2.961  0.00  0.00     0.053 C 
ATOM      9  C   UNL d   1      -1.401  -3.610  -1.554  0.00  0.00     0.018 C 
ENDBRANCH   1   8
TORSDOF 1
ENDMDL
