MODEL 1
REMARK minimizedAffinity 8.677845
REMARK minimizedRMSD -1
REMARK  1 active torsions:
REMARK  status: ('A' for Active; 'I' for Inactive)
REMARK    1  A    between atoms: C1_2  and  C2_3 
ROOT
ATOM      1  C2  UNL d   1      -3.516  -0.006   0.224  0.00  0.00    -0.076 A 
ATOM      2  C3  UNL d   1      -4.539   0.679   0.902  0.00  0.00     0.004 A 
ATOM      3  C4  UNL d   1      -5.595   1.264   0.205  0.00  0.00    -0.003 A 
ATOM      4  C5  UNL d   1      -5.645   1.173  -1.182  0.00  0.00     0.000 A 
ATOM      5  C6  UNL d   1      -4.647   0.482  -1.869  0.00  0.00     0.000 A 
ATOM      6  C7  UNL d   1      -3.584  -0.127  -1.180  0.00  0.00    -0.073 A 
ATOM      7  C8  UNL d   1      -2.533  -0.854  -1.973  0.00  0.00     0.078 C 
ENDROOT
BRANCH   1   8
ATOM      8  C1  UNL d   1      -2.382  -0.596   1.031  0.00  0.00     0.053 C 
ATOM      9  C   UNL d   1      -1.733   0.422   1.957  0.00  0.00     0.018 C 
ENDBRANCH   1   8
TORSDOF 1
ENDMDL
