MODEL 1
REMARK minimizedAffinity 5.11287546
REMARK minimizedRMSD -1
REMARK  1 active torsions:
REMARK  status: ('A' for Active; 'I' for Inactive)
REMARK    1  A    between atoms: C1_2  and  C2_3 
ROOT
ATOM      1  C2  UNL d   1      -1.690   5.964  -3.508  0.00  0.00    -0.076 A 
ATOM      2  C3  UNL d   1      -1.005   5.974  -4.736  0.00  0.00     0.004 A 
ATOM      3  C4  UNL d   1      -1.699   5.963  -5.944  0.00  0.00    -0.003 A 
ATOM      4  C5  UNL d   1      -3.090   5.942  -5.945  0.00  0.00     0.000 A 
ATOM      5  C6  UNL d   1      -3.785   5.949  -4.736  0.00  0.00     0.000 A 
ATOM      6  C7  UNL d   1      -3.101   5.977  -3.509  0.00  0.00    -0.073 A 
ATOM      7  C8  UNL d   1      -3.902   5.977  -2.236  0.00  0.00     0.078 C 
ENDROOT
BRANCH   1   8
ATOM      8  C1  UNL d   1      -0.883   5.949  -2.229  0.00  0.00     0.053 C 
ATOM      9  C   UNL d   1       0.615   5.994  -2.485  0.00  0.00     0.018 C 
ENDBRANCH   1   8
TORSDOF 1
ENDMDL
