MODEL 1
REMARK minimizedAffinity 10.3516531
REMARK minimizedRMSD -1
REMARK  1 active torsions:
REMARK  status: ('A' for Active; 'I' for Inactive)
REMARK    1  A    between atoms: C1_2  and  C2_3 
ROOT
ATOM      1  C2  UNL d   1       3.664   3.965  -3.284  0.00  0.00    -0.076 A 
ATOM      2  C3  UNL d   1       3.795   4.958  -2.298  0.00  0.00     0.004 A 
ATOM      3  C4  UNL d   1       4.842   5.877  -2.341  0.00  0.00    -0.003 A 
ATOM      4  C5  UNL d   1       5.774   5.818  -3.371  0.00  0.00     0.000 A 
ATOM      5  C6  UNL d   1       5.649   4.850  -4.368  0.00  0.00     0.000 A 
ATOM      6  C7  UNL d   1       4.590   3.926  -4.348  0.00  0.00    -0.073 A 
ATOM      7  C8  UNL d   1       4.507   2.900  -5.444  0.00  0.00     0.078 C 
ENDROOT
BRANCH   1   8
ATOM      8  C1  UNL d   1       2.523   2.978  -3.171  0.00  0.00     0.053 C 
ATOM      9  C   UNL d   1       2.866   1.791  -2.284  0.00  0.00     0.018 C 
ENDBRANCH   1   8
TORSDOF 1
ENDMDL
