MODEL 1
REMARK minimizedAffinity 3.47813869
REMARK minimizedRMSD -1
REMARK  1 active torsions:
REMARK  status: ('A' for Active; 'I' for Inactive)
REMARK    1  A    between atoms: C1_2  and  C2_3 
ROOT
ATOM      1  C2  UNL d   1      -1.617  -1.129   1.830  0.00  0.00    -0.076 A 
ATOM      2  C3  UNL d   1      -1.670  -0.965   0.435  0.00  0.00     0.004 A 
ATOM      3  C4  UNL d   1      -2.495  -0.001  -0.143  0.00  0.00    -0.003 A 
ATOM      4  C5  UNL d   1      -3.281   0.814   0.665  0.00  0.00     0.000 A 
ATOM      5  C6  UNL d   1      -3.227   0.676   2.051  0.00  0.00     0.000 A 
ATOM      6  C7  UNL d   1      -2.389  -0.279   2.651  0.00  0.00    -0.073 A 
ATOM      7  C8  UNL d   1      -2.376  -0.389   4.151  0.00  0.00     0.078 C 
ENDROOT
BRANCH   1   8
ATOM      8  C1  UNL d   1      -0.724  -2.209   2.398  0.00  0.00     0.053 C 
ATOM      9  C   UNL d   1       0.349  -1.652   3.321  0.00  0.00     0.018 C 
ENDBRANCH   1   8
TORSDOF 1
ENDMDL
