MODEL 1
REMARK minimizedAffinity 10.2551365
REMARK minimizedRMSD -1
REMARK  1 active torsions:
REMARK  status: ('A' for Active; 'I' for Inactive)
REMARK    1  A    between atoms: C1_2  and  C2_3 
ROOT
ATOM      1  C2  UNL d   1       4.817   3.135  -0.003  0.00  0.00    -0.076 A 
ATOM      2  C3  UNL d   1       3.855   2.581  -0.867  0.00  0.00     0.004 A 
ATOM      3  C4  UNL d   1       2.758   1.883  -0.366  0.00  0.00    -0.003 A 
ATOM      4  C5  UNL d   1       2.604   1.727   1.008  0.00  0.00     0.000 A 
ATOM      5  C6  UNL d   1       3.538   2.285   1.880  0.00  0.00     0.000 A 
ATOM      6  C7  UNL d   1       4.641   3.006   1.391  0.00  0.00    -0.073 A 
ATOM      7  C8  UNL d   1       5.621   3.581   2.377  0.00  0.00     0.078 C 
ENDROOT
BRANCH   1   8
ATOM      8  C1  UNL d   1       6.000   3.858  -0.605  0.00  0.00     0.053 C 
ATOM      9  C   UNL d   1       5.633   5.235  -1.136  0.00  0.00     0.018 C 
ENDBRANCH   1   8
TORSDOF 1
ENDMDL
