MODEL 1
REMARK minimizedAffinity 8.306633
REMARK minimizedRMSD -1
REMARK  1 active torsions:
REMARK  status: ('A' for Active; 'I' for Inactive)
REMARK    1  A    between atoms: C1_2  and  C2_3 
ROOT
ATOM      1  C2  UNL d   1      -3.628  -0.118   1.916  0.00  0.00    -0.076 A 
ATOM      2  C3  UNL d   1      -3.281  -1.293   1.227  0.00  0.00     0.004 A 
ATOM      3  C4  UNL d   1      -2.068  -1.936   1.471  0.00  0.00    -0.003 A 
ATOM      4  C5  UNL d   1      -1.183  -1.415   2.408  0.00  0.00     0.000 A 
ATOM      5  C6  UNL d   1      -1.519  -0.260   3.113  0.00  0.00     0.000 A 
ATOM      6  C7  UNL d   1      -2.744   0.392   2.891  0.00  0.00    -0.073 A 
ATOM      7  C8  UNL d   1      -3.052   1.638   3.676  0.00  0.00     0.078 C 
ENDROOT
BRANCH   1   8
ATOM      8  C1  UNL d   1      -4.944   0.550   1.590  0.00  0.00     0.053 C 
ATOM      9  C   UNL d   1      -5.195   0.645   0.093  0.00  0.00     0.018 C 
ENDBRANCH   1   8
TORSDOF 1
ENDMDL
