MODEL 1
REMARK minimizedAffinity 6.71430683
REMARK minimizedRMSD -1
REMARK  1 active torsions:
REMARK  status: ('A' for Active; 'I' for Inactive)
REMARK    1  A    between atoms: C1_2  and  C2_3 
ROOT
ATOM      1  C2  UNL d   1       1.887   3.480  -1.711  0.00  0.00    -0.076 A 
ATOM      2  C3  UNL d   1       1.354   2.998  -0.503  0.00  0.00     0.004 A 
ATOM      3  C4  UNL d   1       1.864   1.848   0.098  0.00  0.00    -0.003 A 
ATOM      4  C5  UNL d   1       2.917   1.163  -0.499  0.00  0.00     0.000 A 
ATOM      5  C6  UNL d   1       3.470   1.637  -1.688  0.00  0.00     0.000 A 
ATOM      6  C7  UNL d   1       2.977   2.804  -2.299  0.00  0.00    -0.073 A 
ATOM      7  C8  UNL d   1       3.607   3.267  -3.584  0.00  0.00     0.078 C 
ENDROOT
BRANCH   1   8
ATOM      8  C1  UNL d   1       1.275   4.716  -2.331  0.00  0.00     0.053 C 
ATOM      9  C   UNL d   1       0.063   4.397  -3.193  0.00  0.00     0.018 C 
ENDBRANCH   1   8
TORSDOF 1
ENDMDL
