MODEL 1
REMARK minimizedAffinity -3.56539893
REMARK minimizedRMSD -1
REMARK  1 active torsions:
REMARK  status: ('A' for Active; 'I' for Inactive)
REMARK    1  A    between atoms: C1_2  and  C2_3 
ROOT
ATOM      1  C2  UNL d   1       1.536   3.301  -1.310  0.00  0.00    -0.076 A 
ATOM      2  C3  UNL d   1       0.360   3.729  -1.949  0.00  0.00     0.004 A 
ATOM      3  C4  UNL d   1      -0.487   4.658  -1.347  0.00  0.00    -0.003 A 
ATOM      4  C5  UNL d   1      -0.171   5.175  -0.095  0.00  0.00     0.000 A 
ATOM      5  C6  UNL d   1       1.001   4.775   0.546  0.00  0.00     0.000 A 
ATOM      6  C7  UNL d   1       1.874   3.852  -0.055  0.00  0.00    -0.073 A 
ATOM      7  C8  UNL d   1       3.121   3.451   0.684  0.00  0.00     0.078 C 
ENDROOT
BRANCH   1   8
ATOM      8  C1  UNL d   1       2.402   2.271  -2.000  0.00  0.00     0.053 C 
ATOM      9  C   UNL d   1       2.401   2.429  -3.513  0.00  0.00     0.018 C 
ENDBRANCH   1   8
TORSDOF 1
ENDMDL
