MODEL 1
REMARK minimizedAffinity -5.73896646
REMARK minimizedRMSD -1
REMARK  0 active torsions:
REMARK  status: ('A' for Active; 'I' for Inactive)
ROOT
ATOM      1  C   UNL d   1      -1.081   2.912  -1.111  0.00  0.00     0.078 C 
ATOM      2  C1  UNL d   1      -0.802   2.299   0.228  0.00  0.00    -0.077 A 
ATOM      3  C2  UNL d   1      -1.364   2.831   1.396  0.00  0.00    -0.001 A 
ATOM      4  C3  UNL d   1      -1.088   2.255   2.637  0.00  0.00     0.003 A 
ATOM      5  C4  UNL d   1      -0.250   1.146   2.723  0.00  0.00    -0.005 A 
ATOM      6  C5  UNL d   1       0.315   0.611   1.567  0.00  0.00     0.003 A 
ATOM      7  C6  UNL d   1       0.041   1.185   0.325  0.00  0.00    -0.001 A 
ENDROOT
TORSDOF 0
ENDMDL
