MODEL 1
REMARK minimizedAffinity -4.73904324
REMARK minimizedRMSD -1
REMARK  0 active torsions:
REMARK  status: ('A' for Active; 'I' for Inactive)
ROOT
ATOM      1  C   UNL d   1      -0.051  -1.604  -0.527  0.00  0.00     0.078 C 
ATOM      2  C1  UNL d   1      -0.112  -0.377   0.332  0.00  0.00    -0.077 A 
ATOM      3  C2  UNL d   1      -1.152   0.551   0.192  0.00  0.00    -0.001 A 
ATOM      4  C3  UNL d   1      -1.190   1.694   0.992  0.00  0.00     0.003 A 
ATOM      5  C4  UNL d   1      -0.191   1.921   1.936  0.00  0.00    -0.005 A 
ATOM      6  C5  UNL d   1       0.848   1.005   2.081  0.00  0.00     0.003 A 
ATOM      7  C6  UNL d   1       0.889  -0.139   1.282  0.00  0.00    -0.001 A 
ENDROOT
TORSDOF 0
ENDMDL
