MODEL 1
REMARK minimizedAffinity -4.20823002
REMARK minimizedRMSD -1
REMARK  0 active torsions:
REMARK  status: ('A' for Active; 'I' for Inactive)
ROOT
ATOM      1  C   UNL d   1       0.239  -0.591  -0.329  0.00  0.00     0.078 C 
ATOM      2  C1  UNL d   1      -0.031   0.750   0.285  0.00  0.00    -0.077 A 
ATOM      3  C2  UNL d   1      -0.300   1.869  -0.513  0.00  0.00    -0.001 A 
ATOM      4  C3  UNL d   1      -0.540   3.113   0.073  0.00  0.00     0.003 A 
ATOM      5  C4  UNL d   1      -0.513   3.250   1.459  0.00  0.00    -0.005 A 
ATOM      6  C5  UNL d   1      -0.244   2.144   2.262  0.00  0.00     0.003 A 
ATOM      7  C6  UNL d   1      -0.004   0.899   1.678  0.00  0.00    -0.001 A 
ENDROOT
TORSDOF 0
ENDMDL
