MODEL 1
REMARK minimizedAffinity -0.101071224
REMARK minimizedRMSD -1
REMARK  0 active torsions:
REMARK  status: ('A' for Active; 'I' for Inactive)
ROOT
ATOM      1  C   UNL d   1       0.201   0.103  -0.974  0.00  0.00     0.078 C 
ATOM      2  C1  UNL d   1       0.417   0.553   0.440  0.00  0.00    -0.077 A 
ATOM      3  C2  UNL d   1       0.302  -0.345   1.508  0.00  0.00    -0.001 A 
ATOM      4  C3  UNL d   1       0.496   0.089   2.820  0.00  0.00     0.003 A 
ATOM      5  C4  UNL d   1       0.806   1.424   3.077  0.00  0.00    -0.005 A 
ATOM      6  C5  UNL d   1       0.921   2.325   2.020  0.00  0.00     0.003 A 
ATOM      7  C6  UNL d   1       0.727   1.892   0.708  0.00  0.00    -0.001 A 
ENDROOT
TORSDOF 0
ENDMDL
