MODEL 1
REMARK minimizedAffinity 3.52818823
REMARK minimizedRMSD -1
REMARK  0 active torsions:
REMARK  status: ('A' for Active; 'I' for Inactive)
ROOT
ATOM      1  C   UNL d   1      -5.957   2.580  -0.854  0.00  0.00     0.172 C 
ATOM      2  N   UNL d   1      -5.547   2.560  -2.239  0.00  0.00    -0.070 N 
ATOM      3  C1  UNL d   1      -6.000   3.404  -3.218  0.00  0.00    -0.004 A 
ATOM      4  C2  UNL d   1      -5.369   3.061  -4.394  0.00  0.00    -0.047 A 
ATOM      5  C3  UNL d   1      -4.509   1.974  -4.113  0.00  0.00    -0.047 A 
ATOM      6  C4  UNL d   1      -4.639   1.684  -2.771  0.00  0.00    -0.004 A 
ENDROOT
TORSDOF 0
ENDMDL
