MODEL 1
REMARK minimizedAffinity 1.04279578
REMARK minimizedRMSD -1
REMARK  0 active torsions:
REMARK  status: ('A' for Active; 'I' for Inactive)
ROOT
ATOM      1  C   UNL d   1       2.902   0.926   1.125  0.00  0.00     0.172 C 
ATOM      2  N   UNL d   1       2.629  -0.210   1.974  0.00  0.00    -0.070 N 
ATOM      3  C1  UNL d   1       3.571  -0.984   2.599  0.00  0.00    -0.004 A 
ATOM      4  C2  UNL d   1       2.909  -1.960   3.312  0.00  0.00    -0.047 A 
ATOM      5  C3  UNL d   1       1.522  -1.767   3.108  0.00  0.00    -0.047 A 
ATOM      6  C4  UNL d   1       1.377  -0.677   2.276  0.00  0.00    -0.004 A 
ENDROOT
TORSDOF 0
ENDMDL
