MODEL 1
REMARK minimizedAffinity 0.547701061
REMARK minimizedRMSD -1
REMARK  0 active torsions:
REMARK  status: ('A' for Active; 'I' for Inactive)
ROOT
ATOM      1  C   UNL d   1       2.931   1.610   1.104  0.00  0.00     0.172 C 
ATOM      2  N   UNL d   1       2.650   0.813   2.274  0.00  0.00    -0.070 N 
ATOM      3  C1  UNL d   1       2.422  -0.538   2.285  0.00  0.00    -0.004 A 
ATOM      4  C2  UNL d   1       2.195  -0.917   3.590  0.00  0.00    -0.047 A 
ATOM      5  C3  UNL d   1       2.289   0.245   4.392  0.00  0.00    -0.047 A 
ATOM      6  C4  UNL d   1       2.571   1.302   3.552  0.00  0.00    -0.004 A 
ENDROOT
TORSDOF 0
ENDMDL
