MODEL 1
REMARK minimizedAffinity 0.732555151
REMARK minimizedRMSD -1
REMARK  0 active torsions:
REMARK  status: ('A' for Active; 'I' for Inactive)
ROOT
ATOM      1  C   UNL d   1       2.011   1.009   1.509  0.00  0.00     0.172 C 
ATOM      2  N   UNL d   1       1.700   2.219   0.785  0.00  0.00    -0.070 N 
ATOM      3  C1  UNL d   1       2.578   2.939   0.019  0.00  0.00    -0.004 A 
ATOM      4  C2  UNL d   1       1.897   4.019  -0.500  0.00  0.00    -0.047 A 
ATOM      5  C3  UNL d   1       0.565   3.946  -0.030  0.00  0.00    -0.047 A 
ATOM      6  C4  UNL d   1       0.470   2.822   0.763  0.00  0.00    -0.004 A 
ENDROOT
TORSDOF 0
ENDMDL
