MODEL 1
REMARK minimizedAffinity 1.48697591
REMARK minimizedRMSD -1
REMARK  0 active torsions:
REMARK  status: ('A' for Active; 'I' for Inactive)
ROOT
ATOM      1  C   UNL d   1      -6.000   2.966  -0.728  0.00  0.00     0.172 C 
ATOM      2  N   UNL d   1      -5.505   2.777  -2.072  0.00  0.00    -0.070 N 
ATOM      3  C1  UNL d   1      -5.999   3.383  -3.197  0.00  0.00    -0.004 A 
ATOM      4  C2  UNL d   1      -5.258   2.943  -4.272  0.00  0.00    -0.047 A 
ATOM      5  C3  UNL d   1      -4.287   2.040  -3.777  0.00  0.00    -0.047 A 
ATOM      6  C4  UNL d   1      -4.462   1.957  -2.412  0.00  0.00    -0.004 A 
ENDROOT
TORSDOF 0
ENDMDL
