MODEL 1
REMARK minimizedAffinity 2.18595862
REMARK minimizedRMSD -1
REMARK  0 active torsions:
REMARK  status: ('A' for Active; 'I' for Inactive)
ROOT
ATOM      1  C   UNL d   1       2.316   1.108   1.855  0.00  0.00     0.172 C 
ATOM      2  N   UNL d   1       2.222  -0.148   2.562  0.00  0.00    -0.070 N 
ATOM      3  C1  UNL d   1       2.030  -0.292   3.911  0.00  0.00    -0.004 A 
ATOM      4  C2  UNL d   1       1.997  -1.641   4.190  0.00  0.00    -0.047 A 
ATOM      5  C3  UNL d   1       2.175  -2.331   2.967  0.00  0.00    -0.047 A 
ATOM      6  C4  UNL d   1       2.312  -1.383   1.976  0.00  0.00    -0.004 A 
ENDROOT
TORSDOF 0
ENDMDL
