MODEL 1
REMARK minimizedAffinity 1.66088593
REMARK minimizedRMSD -1
REMARK  0 active torsions:
REMARK  status: ('A' for Active; 'I' for Inactive)
ROOT
ATOM      1  C   UNL d   1      -4.113   2.620  -0.684  0.00  0.00     0.172 C 
ATOM      2  N   UNL d   1      -4.646   2.625  -2.026  0.00  0.00    -0.070 N 
ATOM      3  C1  UNL d   1      -4.055   2.057  -3.122  0.00  0.00    -0.004 A 
ATOM      4  C2  UNL d   1      -4.875   2.278  -4.207  0.00  0.00    -0.047 A 
ATOM      5  C3  UNL d   1      -5.999   3.005  -3.747  0.00  0.00    -0.047 A 
ATOM      6  C4  UNL d   1      -5.832   3.206  -2.393  0.00  0.00    -0.004 A 
ENDROOT
TORSDOF 0
ENDMDL
