MODEL 1
REMARK minimizedAffinity 4.69346523
REMARK minimizedRMSD -1
REMARK  0 active torsions:
REMARK  status: ('A' for Active; 'I' for Inactive)
ROOT
ATOM      1  C   UNL d   1       2.733   0.863   1.208  0.00  0.00     0.172 C 
ATOM      2  N   UNL d   1       2.707  -0.209   2.175  0.00  0.00    -0.070 N 
ATOM      3  C1  UNL d   1       3.799  -0.738   2.810  0.00  0.00    -0.004 A 
ATOM      4  C2  UNL d   1       3.356  -1.735   3.652  0.00  0.00    -0.047 A 
ATOM      5  C3  UNL d   1       1.949  -1.809   3.517  0.00  0.00    -0.047 A 
ATOM      6  C4  UNL d   1       1.574  -0.853   2.597  0.00  0.00    -0.004 A 
ENDROOT
TORSDOF 0
ENDMDL
