MODEL 1
REMARK minimizedAffinity 3.52607703
REMARK minimizedRMSD -1
REMARK  0 active torsions:
REMARK  status: ('A' for Active; 'I' for Inactive)
ROOT
ATOM      1  C   UNL d   1       2.951   0.715   1.098  0.00  0.00     0.172 C 
ATOM      2  N   UNL d   1       2.764  -0.416   1.976  0.00  0.00    -0.070 N 
ATOM      3  C1  UNL d   1       3.761  -1.204   2.486  0.00  0.00    -0.004 A 
ATOM      4  C2  UNL d   1       3.175  -2.170   3.274  0.00  0.00    -0.047 A 
ATOM      5  C3  UNL d   1       1.776  -1.957   3.236  0.00  0.00    -0.047 A 
ATOM      6  C4  UNL d   1       1.550  -0.865   2.425  0.00  0.00    -0.004 A 
ENDROOT
TORSDOF 0
ENDMDL
