MODEL 1
REMARK minimizedAffinity 4.19421864
REMARK minimizedRMSD -1
REMARK  0 active torsions:
REMARK  status: ('A' for Active; 'I' for Inactive)
ROOT
ATOM      1  C   UNL d   1      -4.353  -3.431  -1.762  0.00  0.00     0.172 C 
ATOM      2  N   UNL d   1      -2.955  -3.168  -1.515  0.00  0.00    -0.070 N 
ATOM      3  C1  UNL d   1      -2.267  -3.507  -0.381  0.00  0.00    -0.004 A 
ATOM      4  C2  UNL d   1      -0.964  -3.085  -0.535  0.00  0.00    -0.047 A 
ATOM      5  C3  UNL d   1      -0.866  -2.470  -1.806  0.00  0.00    -0.047 A 
ATOM      6  C4  UNL d   1      -2.113  -2.535  -2.391  0.00  0.00    -0.004 A 
ENDROOT
TORSDOF 0
ENDMDL
