MODEL 1
REMARK minimizedAffinity -3.47451067
REMARK minimizedRMSD -1
REMARK  0 active torsions:
REMARK  status: ('A' for Active; 'I' for Inactive)
ROOT
ATOM      1  N1  IND d   1      -1.705   0.275   0.259  0.00  0.00    -0.196 N 
ATOM      2  C2  IND d   1      -0.888   1.282  -0.171  0.00  0.00     0.054 A 
ATOM      3  C3  IND d   1       0.367   0.818  -0.369  0.00  0.00    -0.031 A 
ATOM      4  C4  IND d   1       1.277  -1.579  -0.145  0.00  0.00     0.051 A 
ATOM      5  C5  IND d   1       0.917  -2.836   0.255  0.00  0.00    -0.031 A 
ATOM      6  C6  IND d   1      -0.362  -3.126   0.683  0.00  0.00     0.015 A 
ATOM      7  C7  IND d   1      -1.336  -2.169   0.716  0.00  0.00    -0.016 A 
ATOM      8  C8  IND d   1      -0.972  -0.890   0.317  0.00  0.00    -0.047 A 
ATOM      9  C9  IND d   1       0.335  -0.580  -0.078  0.00  0.00    -0.096 A 
ATOM     10  HN1 IND d   1      -2.538   0.355   0.460  0.00  0.00     0.298 HD
ENDROOT
TORSDOF 0
ENDMDL
