MODEL 1
REMARK minimizedAffinity -3.22299743
REMARK minimizedRMSD -1
REMARK  0 active torsions:
REMARK  status: ('A' for Active; 'I' for Inactive)
ROOT
ATOM      1  N1  IND d   1       1.327  -0.166  -1.124  0.00  0.00    -0.196 N 
ATOM      2  C2  IND d   1       0.594   0.987  -1.083  0.00  0.00     0.054 A 
ATOM      3  C3  IND d   1      -0.453   0.849  -0.240  0.00  0.00    -0.031 A 
ATOM      4  C4  IND d   1      -1.098  -1.146   1.255  0.00  0.00     0.051 A 
ATOM      5  C5  IND d   1      -0.752  -2.438   1.535  0.00  0.00    -0.031 A 
ATOM      6  C6  IND d   1       0.329  -3.050   0.934  0.00  0.00     0.015 A 
ATOM      7  C7  IND d   1       1.113  -2.386   0.033  0.00  0.00    -0.016 A 
ATOM      8  C8  IND d   1       0.761  -1.076  -0.259  0.00  0.00    -0.047 A 
ATOM      9  C9  IND d   1      -0.360  -0.464   0.316  0.00  0.00    -0.096 A 
ATOM     10  HN1 IND d   1       2.025  -0.300  -1.608  0.00  0.00     0.298 HD
ENDROOT
TORSDOF 0
ENDMDL
