MODEL 1
REMARK minimizedAffinity -2.93829083
REMARK minimizedRMSD -1
REMARK  0 active torsions:
REMARK  status: ('A' for Active; 'I' for Inactive)
ROOT
ATOM      1  N1  IND d   1       1.584   0.412  -0.450  0.00  0.00    -0.196 N 
ATOM      2  C2  IND d   1       0.857   1.564  -0.339  0.00  0.00     0.054 A 
ATOM      3  C3  IND d   1      -0.399   1.289   0.082  0.00  0.00    -0.031 A 
ATOM      4  C4  IND d   1      -1.444  -0.968   0.746  0.00  0.00     0.051 A 
ATOM      5  C5  IND d   1      -1.182  -2.309   0.776  0.00  0.00    -0.031 A 
ATOM      6  C6  IND d   1       0.041  -2.821   0.394  0.00  0.00     0.015 A 
ATOM      7  C7  IND d   1       1.056  -2.007  -0.023  0.00  0.00    -0.016 A 
ATOM      8  C8  IND d   1       0.791  -0.646  -0.062  0.00  0.00    -0.047 A 
ATOM      9  C9  IND d   1      -0.462  -0.123   0.284  0.00  0.00    -0.096 A 
ATOM     10  HN1 IND d   1       2.399   0.357  -0.717  0.00  0.00     0.298 HD
ENDROOT
TORSDOF 0
ENDMDL
