MODEL 1
REMARK minimizedAffinity -2.64058924
REMARK minimizedRMSD -1
REMARK  0 active torsions:
REMARK  status: ('A' for Active; 'I' for Inactive)
ROOT
ATOM      1  N1  IND d   1      -1.179   0.593   0.845  0.00  0.00    -0.196 N 
ATOM      2  C2  IND d   1      -0.688   1.559   0.012  0.00  0.00     0.054 A 
ATOM      3  C3  IND d   1       0.196   1.024  -0.859  0.00  0.00    -0.031 A 
ATOM      4  C4  IND d   1       0.911  -1.431  -1.163  0.00  0.00     0.051 A 
ATOM      5  C5  IND d   1       0.760  -2.673  -0.613  0.00  0.00    -0.031 A 
ATOM      6  C6  IND d   1      -0.063  -2.894   0.472  0.00  0.00     0.015 A 
ATOM      7  C7  IND d   1      -0.779  -1.880   1.042  0.00  0.00    -0.016 A 
ATOM      8  C8  IND d   1      -0.623  -0.616   0.490  0.00  0.00    -0.047 A 
ATOM      9  C9  IND d   1       0.244  -0.377  -0.584  0.00  0.00    -0.096 A 
ATOM     10  HN1 IND d   1      -1.741   0.719   1.483  0.00  0.00     0.298 HD
ENDROOT
TORSDOF 0
ENDMDL
