MODEL 1
REMARK minimizedAffinity -2.58635521
REMARK minimizedRMSD -1
REMARK  0 active torsions:
REMARK  status: ('A' for Active; 'I' for Inactive)
ROOT
ATOM      1  N1  IND d   1      -0.972   0.877   0.250  0.00  0.00    -0.196 N 
ATOM      2  C2  IND d   1      -0.270   1.675  -0.610  0.00  0.00     0.054 A 
ATOM      3  C3  IND d   1       0.676   0.955  -1.254  0.00  0.00    -0.031 A 
ATOM      4  C4  IND d   1       1.181  -1.566  -1.127  0.00  0.00     0.051 A 
ATOM      5  C5  IND d   1       0.829  -2.702  -0.454  0.00  0.00    -0.031 A 
ATOM      6  C6  IND d   1      -0.163  -2.704   0.505  0.00  0.00     0.015 A 
ATOM      7  C7  IND d   1      -0.851  -1.567   0.820  0.00  0.00    -0.016 A 
ATOM      8  C8  IND d   1      -0.491  -0.409   0.144  0.00  0.00    -0.047 A 
ATOM      9  C9  IND d   1       0.544  -0.392  -0.800  0.00  0.00    -0.096 A 
ATOM     10  HN1 IND d   1      -1.606   1.136   0.769  0.00  0.00     0.298 HD
ENDROOT
TORSDOF 0
ENDMDL
