MODEL 1
REMARK minimizedAffinity -6.0340147
REMARK minimizedRMSD -1
REMARK  0 active torsions:
REMARK  status: ('A' for Active; 'I' for Inactive)
ROOT
ATOM      1  N1  IND d   1       0.040   0.452  -1.319  0.00  0.00    -0.196 N 
ATOM      2  C2  IND d   1      -0.533   0.803  -0.128  0.00  0.00     0.054 A 
ATOM      3  C3  IND d   1      -0.742  -0.294   0.634  0.00  0.00    -0.031 A 
ATOM      4  C4  IND d   1      -0.128  -2.751   0.168  0.00  0.00     0.051 A 
ATOM      5  C5  IND d   1       0.378  -3.569  -0.802  0.00  0.00    -0.031 A 
ATOM      6  C6  IND d   1       0.808  -3.079  -2.018  0.00  0.00     0.015 A 
ATOM      7  C7  IND d   1       0.759  -1.744  -2.306  0.00  0.00    -0.016 A 
ATOM      8  C8  IND d   1       0.239  -0.911  -1.325  0.00  0.00    -0.047 A 
ATOM      9  C9  IND d   1      -0.239  -1.408  -0.106  0.00  0.00    -0.096 A 
ATOM     10  HN1 IND d   1       0.242   0.992  -1.957  0.00  0.00     0.298 HD
ENDROOT
TORSDOF 0
ENDMDL
