MODEL 1
REMARK minimizedAffinity -3.53675938
REMARK minimizedRMSD -1
REMARK  0 active torsions:
REMARK  status: ('A' for Active; 'I' for Inactive)
ROOT
ATOM      1  N1  IND d   1       0.091   1.247  -1.352  0.00  0.00    -0.196 N 
ATOM      2  C2  IND d   1       0.114   2.037  -0.237  0.00  0.00     0.054 A 
ATOM      3  C3  IND d   1      -0.231   1.320   0.856  0.00  0.00    -0.031 A 
ATOM      4  C4  IND d   1      -0.774  -1.188   1.061  0.00  0.00     0.051 A 
ATOM      5  C5  IND d   1      -0.960  -2.315   0.311  0.00  0.00    -0.031 A 
ATOM      6  C6  IND d   1      -0.798  -2.313  -1.060  0.00  0.00     0.015 A 
ATOM      7  C7  IND d   1      -0.433  -1.181  -1.732  0.00  0.00    -0.016 A 
ATOM      8  C8  IND d   1      -0.251  -0.033  -0.974  0.00  0.00    -0.047 A 
ATOM      9  C9  IND d   1      -0.454  -0.019   0.412  0.00  0.00    -0.096 A 
ATOM     10  HN1 IND d   1       0.261   1.505  -2.154  0.00  0.00     0.298 HD
ENDROOT
TORSDOF 0
ENDMDL
