MODEL 1
REMARK minimizedAffinity -3.91093159
REMARK minimizedRMSD -1
REMARK  0 active torsions:
REMARK  status: ('A' for Active; 'I' for Inactive)
ROOT
ATOM      1  N1  IND d   1       0.448  -3.338   0.891  0.00  0.00    -0.196 N 
ATOM      2  C2  IND d   1       1.491  -3.333   0.007  0.00  0.00     0.054 A 
ATOM      3  C3  IND d   1       1.487  -2.192  -0.719  0.00  0.00    -0.031 A 
ATOM      4  C4  IND d   1      -0.077  -0.154  -0.553  0.00  0.00     0.051 A 
ATOM      5  C5  IND d   1      -1.203   0.291   0.081  0.00  0.00    -0.031 A 
ATOM      6  C6  IND d   1      -1.848  -0.465   1.039  0.00  0.00     0.015 A 
ATOM      7  C7  IND d   1      -1.382  -1.695   1.408  0.00  0.00    -0.016 A 
ATOM      8  C8  IND d   1      -0.242  -2.153   0.761  0.00  0.00    -0.047 A 
ATOM      9  C9  IND d   1       0.392  -1.409  -0.242  0.00  0.00    -0.096 A 
ATOM     10  HN1 IND d   1       0.256  -3.975   1.436  0.00  0.00     0.298 HD
ENDROOT
TORSDOF 0
ENDMDL
