MODEL 1
REMARK minimizedAffinity -2.57563615
REMARK minimizedRMSD -1
REMARK  0 active torsions:
REMARK  status: ('A' for Active; 'I' for Inactive)
ROOT
ATOM      1  N1  IND d   1      -0.223   0.473  -0.701  0.00  0.00    -0.196 N 
ATOM      2  C2  IND d   1       0.510   0.106  -1.795  0.00  0.00     0.054 A 
ATOM      3  C3  IND d   1       0.889  -1.188  -1.696  0.00  0.00    -0.031 A 
ATOM      4  C4  IND d   1       0.332  -2.919   0.126  0.00  0.00     0.051 A 
ATOM      5  C5  IND d   1      -0.278  -3.045   1.343  0.00  0.00    -0.031 A 
ATOM      6  C6  IND d   1      -0.916  -1.983   1.951  0.00  0.00     0.015 A 
ATOM      7  C7  IND d   1      -0.978  -0.754   1.358  0.00  0.00    -0.016 A 
ATOM      8  C8  IND d   1      -0.353  -0.621   0.126  0.00  0.00    -0.047 A 
ATOM      9  C9  IND d   1       0.332  -1.684  -0.477  0.00  0.00    -0.096 A 
ATOM     10  HN1 IND d   1      -0.548   1.255  -0.554  0.00  0.00     0.298 HD
ENDROOT
TORSDOF 0
ENDMDL
