MODEL 1
REMARK minimizedAffinity -3.88215137
REMARK minimizedRMSD -1
REMARK  0 active torsions:
REMARK  status: ('A' for Active; 'I' for Inactive)
ROOT
ATOM      1  N1  IND d   1      -0.474  -1.695   1.370  0.00  0.00    -0.196 N 
ATOM      2  C2  IND d   1      -0.339  -3.016   1.046  0.00  0.00     0.054 A 
ATOM      3  C3  IND d   1      -0.040  -3.150  -0.266  0.00  0.00    -0.031 A 
ATOM      4  C4  IND d   1       0.373  -1.334  -2.043  0.00  0.00     0.051 A 
ATOM      5  C5  IND d   1       0.327   0.018  -2.232  0.00  0.00    -0.031 A 
ATOM      6  C6  IND d   1       0.008   0.887  -1.209  0.00  0.00     0.015 A 
ATOM      7  C7  IND d   1      -0.267   0.434   0.050  0.00  0.00    -0.016 A 
ATOM      8  C8  IND d   1      -0.229  -0.940   0.244  0.00  0.00    -0.047 A 
ATOM      9  C9  IND d   1       0.053  -1.829  -0.801  0.00  0.00    -0.096 A 
ATOM     10  HN1 IND d   1      -0.679  -1.387   2.146  0.00  0.00     0.298 HD
ENDROOT
TORSDOF 0
ENDMDL
