MODEL 1
REMARK minimizedAffinity -5.97896004
REMARK minimizedRMSD -1
REMARK  0 active torsions:
REMARK  status: ('A' for Active; 'I' for Inactive)
ROOT
ATOM      1  N1  IND d   1       0.231   0.530  -1.280  0.00  0.00    -0.196 N 
ATOM      2  C2  IND d   1       0.010   1.063  -0.041  0.00  0.00     0.054 A 
ATOM      3  C3  IND d   1      -0.116   0.080   0.878  0.00  0.00    -0.031 A 
ATOM      4  C4  IND d   1       0.107  -2.468   0.590  0.00  0.00     0.051 A 
ATOM      5  C5  IND d   1       0.270  -3.434  -0.363  0.00  0.00    -0.031 A 
ATOM      6  C6  IND d   1       0.435  -3.122  -1.697  0.00  0.00     0.015 A 
ATOM      7  C7  IND d   1       0.454  -1.825  -2.128  0.00  0.00    -0.016 A 
ATOM      8  C8  IND d   1       0.281  -0.842  -1.164  0.00  0.00    -0.047 A 
ATOM      9  C9  IND d   1       0.071  -1.155   0.185  0.00  0.00    -0.096 A 
ATOM     10  HN1 IND d   1       0.323   0.976  -2.010  0.00  0.00     0.298 HD
ENDROOT
TORSDOF 0
ENDMDL
