MODEL 1
REMARK minimizedAffinity -2.5822432
REMARK minimizedRMSD -1
REMARK  0 active torsions:
REMARK  status: ('A' for Active; 'I' for Inactive)
ROOT
ATOM      1  N1  IND d   1       0.663   0.476  -0.980  0.00  0.00    -0.196 N 
ATOM      2  C2  IND d   1      -0.024   1.582  -0.563  0.00  0.00     0.054 A 
ATOM      3  C3  IND d   1      -0.943   1.242   0.368  0.00  0.00    -0.031 A 
ATOM      4  C4  IND d   1      -1.424  -1.054   1.429  0.00  0.00     0.051 A 
ATOM      5  C5  IND d   1      -1.078  -2.374   1.344  0.00  0.00    -0.031 A 
ATOM      6  C6  IND d   1      -0.113  -2.819   0.464  0.00  0.00     0.015 A 
ATOM      7  C7  IND d   1       0.554  -1.956  -0.359  0.00  0.00    -0.016 A 
ATOM      8  C8  IND d   1       0.200  -0.617  -0.281  0.00  0.00    -0.047 A 
ATOM      9  C9  IND d   1      -0.809  -0.164   0.580  0.00  0.00    -0.096 A 
ATOM     10  HN1 IND d   1       1.280   0.465  -1.578  0.00  0.00     0.298 HD
ENDROOT
TORSDOF 0
ENDMDL
