MODEL 1
REMARK minimizedAffinity -3.04873514
REMARK minimizedRMSD -1
REMARK  0 active torsions:
REMARK  status: ('A' for Active; 'I' for Inactive)
ROOT
ATOM      1  N1  IND d   1      -0.563   1.274  -0.460  0.00  0.00    -0.196 N 
ATOM      2  C2  IND d   1       0.321   1.454  -1.487  0.00  0.00     0.054 A 
ATOM      3  C3  IND d   1       1.009   0.314  -1.722  0.00  0.00    -0.031 A 
ATOM      4  C4  IND d   1       0.776  -1.995  -0.608  0.00  0.00     0.051 A 
ATOM      5  C5  IND d   1       0.127  -2.641   0.407  0.00  0.00    -0.031 A 
ATOM      6  C6  IND d   1      -0.806  -2.003   1.199  0.00  0.00     0.015 A 
ATOM      7  C7  IND d   1      -1.134  -0.692   0.997  0.00  0.00    -0.016 A 
ATOM      8  C8  IND d   1      -0.472  -0.031  -0.028  0.00  0.00    -0.047 A 
ATOM      9  C9  IND d   1       0.506  -0.662  -0.807  0.00  0.00    -0.096 A 
ATOM     10  HN1 IND d   1      -1.087   1.874  -0.138  0.00  0.00     0.298 HD
ENDROOT
TORSDOF 0
ENDMDL
