MODEL 1
REMARK minimizedAffinity -2.1179359
REMARK minimizedRMSD -1
REMARK  0 active torsions:
REMARK  status: ('A' for Active; 'I' for Inactive)
ROOT
ATOM      1  N1  IND d   1       1.412   1.109  -0.850  0.00  0.00    -0.196 N 
ATOM      2  C2  IND d   1       0.085   0.858  -1.064  0.00  0.00     0.054 A 
ATOM      3  C3  IND d   1      -0.677   1.716  -0.351  0.00  0.00    -0.031 A 
ATOM      4  C4  IND d   1       0.041   3.678   1.154  0.00  0.00     0.051 A 
ATOM      5  C5  IND d   1       1.148   4.278   1.687  0.00  0.00    -0.031 A 
ATOM      6  C6  IND d   1       2.425   3.845   1.394  0.00  0.00     0.015 A 
ATOM      7  C7  IND d   1       2.644   2.798   0.543  0.00  0.00    -0.016 A 
ATOM      8  C8  IND d   1       1.523   2.182   0.006  0.00  0.00    -0.047 A 
ATOM      9  C9  IND d   1       0.223   2.590   0.333  0.00  0.00    -0.096 A 
ATOM     10  HN1 IND d   1       2.067   0.669  -1.193  0.00  0.00     0.298 HD
ENDROOT
TORSDOF 0
ENDMDL
