MODEL 1
REMARK minimizedAffinity -1.13816047
REMARK minimizedRMSD -1
REMARK  0 active torsions:
REMARK  status: ('A' for Active; 'I' for Inactive)
ROOT
ATOM      1  N1  IND d   1       1.560   0.551  -0.428  0.00  0.00    -0.196 N 
ATOM      2  C2  IND d   1       0.795   1.658  -0.189  0.00  0.00     0.054 A 
ATOM      3  C3  IND d   1      -0.399   1.301   0.335  0.00  0.00    -0.031 A 
ATOM      4  C4  IND d   1      -1.270  -1.035   0.978  0.00  0.00     0.051 A 
ATOM      5  C5  IND d   1      -0.945  -2.361   0.915  0.00  0.00    -0.031 A 
ATOM      6  C6  IND d   1       0.257  -2.793   0.392  0.00  0.00     0.015 A 
ATOM      7  C7  IND d   1       1.188  -1.910  -0.078  0.00  0.00    -0.016 A 
ATOM      8  C8  IND d   1       0.858  -0.563  -0.021  0.00  0.00    -0.047 A 
ATOM      9  C9  IND d   1      -0.377  -0.121   0.469  0.00  0.00    -0.096 A 
ATOM     10  HN1 IND d   1       2.347   0.550  -0.774  0.00  0.00     0.298 HD
ENDROOT
TORSDOF 0
ENDMDL
