MODEL 1
REMARK minimizedAffinity -5.67125225
REMARK minimizedRMSD -1
REMARK  0 active torsions:
REMARK  status: ('A' for Active; 'I' for Inactive)
ROOT
ATOM      1  C   UNL d   1       2.243  -2.248   1.984  0.00  0.00     0.020 A 
ATOM      2  C1  UNL d   1       3.031  -1.201   1.509  0.00  0.00     0.020 A 
ATOM      3  C2  UNL d   1       2.433  -0.108   0.878  0.00  0.00     0.034 A 
ATOM      4  C3  UNL d   1       1.044  -0.059   0.721  0.00  0.00     0.017 A 
ATOM      5  C4  UNL d   1       0.253  -1.111   1.199  0.00  0.00     0.017 A 
ATOM      6  C5  UNL d   1       0.857  -2.203   1.830  0.00  0.00     0.034 A 
ATOM      7 Cl   UNL d   1      -1.468  -1.122   1.042  0.00  0.00    -0.070 Cl
ATOM      8 Cl1  UNL d   1       0.372   1.323  -0.069  0.00  0.00    -0.070 Cl
ENDROOT
TORSDOF 0
ENDMDL
