MODEL 1
REMARK minimizedAffinity -2.41269827
REMARK minimizedRMSD -1
REMARK  0 active torsions:
REMARK  status: ('A' for Active; 'I' for Inactive)
ROOT
ATOM      1  C   UNL d   1       3.200   0.085   0.224  0.00  0.00     0.020 A 
ATOM      2  C1  UNL d   1       2.372   1.202   0.131  0.00  0.00     0.020 A 
ATOM      3  C2  UNL d   1       1.013   1.091   0.431  0.00  0.00     0.034 A 
ATOM      4  C3  UNL d   1       0.478  -0.140   0.827  0.00  0.00     0.017 A 
ATOM      5  C4  UNL d   1       1.310  -1.262   0.920  0.00  0.00     0.017 A 
ATOM      6  C5  UNL d   1       2.670  -1.145   0.617  0.00  0.00     0.034 A 
ATOM      7 Cl   UNL d   1       0.723  -2.814   1.401  0.00  0.00    -0.070 Cl
ATOM      8 Cl1  UNL d   1      -1.211  -0.205   1.184  0.00  0.00    -0.070 Cl
ENDROOT
TORSDOF 0
ENDMDL
