MODEL 1
REMARK minimizedAffinity -5.12635851
REMARK minimizedRMSD -1
REMARK  0 active torsions:
REMARK  status: ('A' for Active; 'I' for Inactive)
ROOT
ATOM      1  C   UNL d   1       3.344  -1.025   1.325  0.00  0.00     0.020 A 
ATOM      2  C1  UNL d   1       2.535  -2.039   1.836  0.00  0.00     0.020 A 
ATOM      3  C2  UNL d   1       1.147  -1.885   1.850  0.00  0.00     0.034 A 
ATOM      4  C3  UNL d   1       0.564  -0.714   1.351  0.00  0.00     0.017 A 
ATOM      5  C4  UNL d   1       1.377   0.303   0.838  0.00  0.00     0.017 A 
ATOM      6  C5  UNL d   1       2.766   0.143   0.827  0.00  0.00     0.034 A 
ATOM      7 Cl   UNL d   1       0.730   1.776   0.206  0.00  0.00    -0.070 Cl
ATOM      8 Cl1  UNL d   1      -1.159  -0.592   1.399  0.00  0.00    -0.070 Cl
ENDROOT
TORSDOF 0
ENDMDL
