MODEL 1
REMARK minimizedAffinity -3.62754035
REMARK minimizedRMSD -1
REMARK  0 active torsions:
REMARK  status: ('A' for Active; 'I' for Inactive)
ROOT
ATOM      1  C   UNL d   1       3.186   0.105   0.184  0.00  0.00     0.020 A 
ATOM      2  C1  UNL d   1       2.448   1.043  -0.535  0.00  0.00     0.020 A 
ATOM      3  C2  UNL d   1       1.064   0.897  -0.659  0.00  0.00     0.034 A 
ATOM      4  C3  UNL d   1       0.415  -0.190  -0.063  0.00  0.00     0.017 A 
ATOM      5  C4  UNL d   1       1.157  -1.132   0.659  0.00  0.00     0.017 A 
ATOM      6  C5  UNL d   1       2.542  -0.980   0.780  0.00  0.00     0.034 A 
ATOM      7 Cl   UNL d   1       0.427  -2.499   1.423  0.00  0.00    -0.070 Cl
ATOM      8 Cl1  UNL d   1      -1.298  -0.308  -0.257  0.00  0.00    -0.070 Cl
ENDROOT
TORSDOF 0
ENDMDL
