MODEL 1
REMARK minimizedAffinity -2.94700074
REMARK minimizedRMSD -1
REMARK  0 active torsions:
REMARK  status: ('A' for Active; 'I' for Inactive)
ROOT
ATOM      1  C   UNL d   1       2.350   1.084   0.184  0.00  0.00     0.020 A 
ATOM      2  C1  UNL d   1       2.902  -0.009   0.850  0.00  0.00     0.020 A 
ATOM      3  C2  UNL d   1       2.080  -1.051   1.284  0.00  0.00     0.034 A 
ATOM      4  C3  UNL d   1       0.701  -1.003   1.051  0.00  0.00     0.017 A 
ATOM      5  C4  UNL d   1       0.147   0.094   0.382  0.00  0.00     0.017 A 
ATOM      6  C5  UNL d   1       0.975   1.135  -0.050  0.00  0.00     0.034 A 
ATOM      7 Cl   UNL d   1      -1.546   0.224   0.059  0.00  0.00    -0.070 Cl
ATOM      8 Cl1  UNL d   1      -0.256  -2.327   1.615  0.00  0.00    -0.070 Cl
ENDROOT
TORSDOF 0
ENDMDL
