MODEL 1
REMARK minimizedAffinity -4.49515915
REMARK minimizedRMSD -1
REMARK  0 active torsions:
REMARK  status: ('A' for Active; 'I' for Inactive)
ROOT
ATOM      1  C   UNL d   1       2.092  -1.594   0.956  0.00  0.00     0.020 A 
ATOM      2  C1  UNL d   1       2.975  -0.527   1.118  0.00  0.00     0.020 A 
ATOM      3  C2  UNL d   1       2.584   0.763   0.755  0.00  0.00     0.034 A 
ATOM      4  C3  UNL d   1       1.308   0.991   0.227  0.00  0.00     0.017 A 
ATOM      5  C4  UNL d   1       0.423  -0.081   0.064  0.00  0.00     0.017 A 
ATOM      6  C5  UNL d   1       0.818  -1.371   0.430  0.00  0.00     0.034 A 
ATOM      7 Cl   UNL d   1      -1.168   0.121  -0.580  0.00  0.00    -0.070 Cl
ATOM      8 Cl1  UNL d   1       0.892   2.612  -0.201  0.00  0.00    -0.070 Cl
ENDROOT
TORSDOF 0
ENDMDL
