MODEL 1
REMARK minimizedAffinity -1.75000215
REMARK minimizedRMSD -1
REMARK  0 active torsions:
REMARK  status: ('A' for Active; 'I' for Inactive)
ROOT
ATOM      1  C   UNL d   1      -1.206  -0.824   0.651  0.00  0.00     0.020 A 
ATOM      2  C1  UNL d   1      -0.431  -1.969   0.832  0.00  0.00     0.020 A 
ATOM      3  C2  UNL d   1       0.962  -1.886   0.773  0.00  0.00     0.034 A 
ATOM      4  C3  UNL d   1       1.584  -0.656   0.532  0.00  0.00     0.017 A 
ATOM      5  C4  UNL d   1       0.805   0.493   0.350  0.00  0.00     0.017 A 
ATOM      6  C5  UNL d   1      -0.589   0.404   0.410  0.00  0.00     0.034 A 
ATOM      7 Cl   UNL d   1       1.500   2.046   0.048  0.00  0.00    -0.070 Cl
ATOM      8 Cl1  UNL d   1       3.310  -0.626   0.472  0.00  0.00    -0.070 Cl
ENDROOT
TORSDOF 0
ENDMDL
