MODEL 1
REMARK minimizedAffinity 8.12636089
REMARK minimizedRMSD -1
REMARK  1 active torsions:
REMARK  status: ('A' for Active; 'I' for Inactive)
REMARK    1  A    between atoms: C1_2  and  C2_3 
ROOT
ATOM      1  C2  UNL d   1       0.486   0.131   0.760  0.00  0.00    -0.077 A 
ATOM      2  C3  UNL d   1       0.356  -0.551  -0.458  0.00  0.00     0.002 A 
ATOM      3  C4  UNL d   1      -0.904  -0.747  -1.026  0.00  0.00     0.002 A 
ATOM      4  C5  UNL d   1      -2.042  -0.260  -0.387  0.00  0.00    -0.004 A 
ATOM      5  C6  UNL d   1      -1.923   0.418   0.826  0.00  0.00     0.002 A 
ATOM      6  C7  UNL d   1      -0.665   0.613   1.396  0.00  0.00     0.002 A 
ENDROOT
BRANCH   1   7
ATOM      7  C1  UNL d   1       1.849   0.386   1.351  0.00  0.00     0.055 C 
ATOM      8  C   UNL d   1       2.733   1.163   0.386  0.00  0.00     0.019 C 
ENDBRANCH   1   7
TORSDOF 1
ENDMDL
