MODEL 1
REMARK minimizedAffinity 4.6937499
REMARK minimizedRMSD -1
REMARK  1 active torsions:
REMARK  status: ('A' for Active; 'I' for Inactive)
REMARK    1  A    between atoms: C1_2  and  C2_3 
ROOT
ATOM      1  C2  UNL d   1      -1.544  -0.309   0.201  0.00  0.00    -0.077 A 
ATOM      2  C3  UNL d   1      -0.909   0.515   1.141  0.00  0.00     0.002 A 
ATOM      3  C4  UNL d   1       0.474   0.446   1.320  0.00  0.00     0.002 A 
ATOM      4  C5  UNL d   1       1.233  -0.441   0.561  0.00  0.00    -0.004 A 
ATOM      5  C6  UNL d   1       0.611  -1.267  -0.375  0.00  0.00     0.002 A 
ATOM      6  C7  UNL d   1      -0.772  -1.200  -0.555  0.00  0.00     0.002 A 
ENDROOT
BRANCH   1   7
ATOM      7  C1  UNL d   1      -3.029  -0.202  -0.029  0.00  0.00     0.055 C 
ATOM      8  C   UNL d   1      -3.619  -1.534  -0.467  0.00  0.00     0.019 C 
ENDBRANCH   1   7
TORSDOF 1
ENDMDL
