MODEL 1
REMARK minimizedAffinity 6.39444065
REMARK minimizedRMSD -1
REMARK  1 active torsions:
REMARK  status: ('A' for Active; 'I' for Inactive)
REMARK    1  A    between atoms: C1_2  and  C2_3 
ROOT
ATOM      1  C2  UNL d   1       1.502   0.376   1.278  0.00  0.00    -0.077 A 
ATOM      2  C3  UNL d   1       2.421   1.419   1.459  0.00  0.00     0.002 A 
ATOM      3  C4  UNL d   1       3.416   1.657   0.509  0.00  0.00     0.002 A 
ATOM      4  C5  UNL d   1       3.499   0.860  -0.630  0.00  0.00    -0.004 A 
ATOM      5  C6  UNL d   1       2.591  -0.182  -0.819  0.00  0.00     0.002 A 
ATOM      6  C7  UNL d   1       1.597  -0.422   0.131  0.00  0.00     0.002 A 
ENDROOT
BRANCH   1   7
ATOM      7  C1  UNL d   1       0.398   0.149   2.277  0.00  0.00     0.055 C 
ATOM      8  C   UNL d   1      -0.323   1.447   2.610  0.00  0.00     0.019 C 
ENDBRANCH   1   7
TORSDOF 1
ENDMDL
