MODEL 1
REMARK minimizedAffinity 3.60661364
REMARK minimizedRMSD -1
REMARK  1 active torsions:
REMARK  status: ('A' for Active; 'I' for Inactive)
REMARK    1  A    between atoms: C1_2  and  C2_3 
ROOT
ATOM      1  C2  UNL d   1      -0.044   0.060   1.472  0.00  0.00    -0.077 A 
ATOM      2  C3  UNL d   1      -1.274   0.063   0.799  0.00  0.00     0.002 A 
ATOM      3  C4  UNL d   1      -1.445  -0.691  -0.363  0.00  0.00     0.002 A 
ATOM      4  C5  UNL d   1      -0.392  -1.456  -0.861  0.00  0.00    -0.004 A 
ATOM      5  C6  UNL d   1       0.836  -1.463  -0.200  0.00  0.00     0.002 A 
ATOM      6  C7  UNL d   1       1.009  -0.709   0.961  0.00  0.00     0.002 A 
ENDROOT
BRANCH   1   7
ATOM      7  C1  UNL d   1       0.127   0.834   2.753  0.00  0.00     0.055 C 
ATOM      8  C   UNL d   1      -1.174   1.503   3.174  0.00  0.00     0.019 C 
ENDBRANCH   1   7
TORSDOF 1
ENDMDL
