MODEL 1
REMARK minimizedAffinity 6.23834991
REMARK minimizedRMSD -1
REMARK  1 active torsions:
REMARK  status: ('A' for Active; 'I' for Inactive)
REMARK    1  A    between atoms: C1_2  and  C2_3 
ROOT
ATOM      1  C2  UNL d   1       2.767   5.899   1.746  0.00  0.00    -0.077 A 
ATOM      2  C3  UNL d   1       3.500   5.972   0.553  0.00  0.00     0.002 A 
ATOM      3  C4  UNL d   1       2.847   5.935  -0.681  0.00  0.00     0.002 A 
ATOM      4  C5  UNL d   1       1.459   5.829  -0.733  0.00  0.00    -0.004 A 
ATOM      5  C6  UNL d   1       0.721   5.754   0.448  0.00  0.00     0.002 A 
ATOM      6  C7  UNL d   1       1.372   5.790   1.682  0.00  0.00     0.002 A 
ENDROOT
BRANCH   1   7
ATOM      7  C1  UNL d   1       3.466   5.989   3.077  0.00  0.00     0.055 C 
ATOM      8  C   UNL d   1       4.977   5.922   2.915  0.00  0.00     0.019 C 
ENDBRANCH   1   7
TORSDOF 1
ENDMDL
