MODEL 1
REMARK minimizedAffinity 1.4975065
REMARK minimizedRMSD -1
REMARK  2 active torsions:
REMARK  status: ('A' for Active; 'I' for Inactive)
REMARK    1  A    between atoms: C1_2  and  C2_3 
REMARK    2  A    between atoms: C2_3  and  C3_4 
ROOT
ATOM      1  C3  UNL d   1       1.043  -2.189   1.052  0.00  0.00    -0.075 A 
ATOM      2  C4  UNL d   1       0.612  -2.200   2.386  0.00  0.00     0.002 A 
ATOM      3  C5  UNL d   1      -0.348  -1.289   2.828  0.00  0.00     0.002 A 
ATOM      4  C6  UNL d   1      -0.881  -0.352   1.947  0.00  0.00    -0.004 A 
ATOM      5  C7  UNL d   1      -0.449  -0.321   0.623  0.00  0.00     0.002 A 
ATOM      6  C8  UNL d   1       0.509  -1.234   0.177  0.00  0.00     0.002 A 
ENDROOT
BRANCH   1   7
ATOM      7  C2  UNL d   1       2.060  -3.191   0.560  0.00  0.00     0.056 C 
BRANCH   7   8
ATOM      8  C1  UNL d   1       2.863  -3.865   1.678  0.00  0.00     0.007 C 
ATOM      9  C   UNL d   1       4.274  -4.249   1.255  0.00  0.00     0.009 C 
ENDBRANCH   7   8
ENDBRANCH   1   7
TORSDOF 2
ENDMDL
