MODEL 1
REMARK minimizedAffinity 5.57519722
REMARK minimizedRMSD -1
REMARK  2 active torsions:
REMARK  status: ('A' for Active; 'I' for Inactive)
REMARK    1  A    between atoms: C1_2  and  C2_3 
REMARK    2  A    between atoms: C2_3  and  C3_4 
ROOT
ATOM      1  C3  UNL d   1       0.515  -2.694   3.050  0.00  0.00    -0.075 A 
ATOM      2  C4  UNL d   1       0.265  -1.329   2.849  0.00  0.00     0.002 A 
ATOM      3  C5  UNL d   1      -1.016  -0.808   3.035  0.00  0.00     0.002 A 
ATOM      4  C6  UNL d   1      -2.063  -1.645   3.413  0.00  0.00    -0.004 A 
ATOM      5  C7  UNL d   1      -1.830  -3.006   3.600  0.00  0.00     0.002 A 
ATOM      6  C8  UNL d   1      -0.548  -3.529   3.419  0.00  0.00     0.002 A 
ENDROOT
BRANCH   1   7
ATOM      7  C2  UNL d   1       1.905  -3.258   2.879  0.00  0.00     0.056 C 
BRANCH   7   8
ATOM      8  C1  UNL d   1       2.786  -3.135   4.127  0.00  0.00     0.007 C 
ATOM      9  C   UNL d   1       4.014  -4.035   4.086  0.00  0.00     0.009 C 
ENDBRANCH   7   8
ENDBRANCH   1   7
TORSDOF 2
ENDMDL
