MODEL 1
REMARK minimizedAffinity 3.46686387
REMARK minimizedRMSD -1
REMARK  2 active torsions:
REMARK  status: ('A' for Active; 'I' for Inactive)
REMARK    1  A    between atoms: C1_2  and  C2_3 
REMARK    2  A    between atoms: C2_3  and  C3_4 
ROOT
ATOM      1  C3  UNL d   1      -0.445  -0.659   2.660  0.00  0.00    -0.075 A 
ATOM      2  C4  UNL d   1      -1.417  -1.500   2.099  0.00  0.00     0.002 A 
ATOM      3  C5  UNL d   1      -2.754  -1.103   2.050  0.00  0.00     0.002 A 
ATOM      4  C6  UNL d   1      -3.137   0.132   2.568  0.00  0.00    -0.004 A 
ATOM      5  C7  UNL d   1      -2.182   0.968   3.143  0.00  0.00     0.002 A 
ATOM      6  C8  UNL d   1      -0.843   0.575   3.189  0.00  0.00     0.002 A 
ENDROOT
BRANCH   1   7
ATOM      7  C2  UNL d   1       1.008  -1.071   2.690  0.00  0.00     0.056 C 
BRANCH   7   8
ATOM      8  C1  UNL d   1       1.667  -1.131   1.308  0.00  0.00     0.007 C 
ATOM      9  C   UNL d   1       2.416  -2.433   1.057  0.00  0.00     0.009 C 
ENDBRANCH   7   8
ENDBRANCH   1   7
TORSDOF 2
ENDMDL
