MODEL 1
REMARK minimizedAffinity -2.33075666
REMARK minimizedRMSD -1
REMARK  2 active torsions:
REMARK  status: ('A' for Active; 'I' for Inactive)
REMARK    1  A    between atoms: C1_2  and  C2_3 
REMARK    2  A    between atoms: C2_3  and  C3_4 
ROOT
ATOM      1  C3  UNL d   1      -1.464   0.094  -1.246  0.00  0.00    -0.075 A 
ATOM      2  C4  UNL d   1      -2.370   0.067  -0.176  0.00  0.00     0.002 A 
ATOM      3  C5  UNL d   1      -1.947  -0.301   1.101  0.00  0.00     0.002 A 
ATOM      4  C6  UNL d   1      -0.618  -0.657   1.323  0.00  0.00    -0.004 A 
ATOM      5  C7  UNL d   1       0.287  -0.649   0.264  0.00  0.00     0.002 A 
ATOM      6  C8  UNL d   1      -0.133  -0.277  -1.014  0.00  0.00     0.002 A 
ENDROOT
BRANCH   1   7
ATOM      7  C2  UNL d   1      -1.909   0.521  -2.625  0.00  0.00     0.056 C 
BRANCH   7   8
ATOM      8  C1  UNL d   1      -2.233   2.014  -2.741  0.00  0.00     0.007 C 
ATOM      9  C   UNL d   1      -0.992   2.895  -2.794  0.00  0.00     0.009 C 
ENDBRANCH   7   8
ENDBRANCH   1   7
TORSDOF 2
ENDMDL
