MODEL 1
REMARK minimizedAffinity 3.0825851
REMARK minimizedRMSD -1
REMARK  2 active torsions:
REMARK  status: ('A' for Active; 'I' for Inactive)
REMARK    1  A    between atoms: C1_2  and  C2_3 
REMARK    2  A    between atoms: C2_3  and  C3_4 
ROOT
ATOM      1  C3  UNL d   1       1.077  -1.439   1.123  0.00  0.00    -0.075 A 
ATOM      2  C4  UNL d   1       1.537  -2.763   1.181  0.00  0.00     0.002 A 
ATOM      3  C5  UNL d   1       1.064  -3.634   2.163  0.00  0.00     0.002 A 
ATOM      4  C6  UNL d   1       0.136  -3.192   3.103  0.00  0.00    -0.004 A 
ATOM      5  C7  UNL d   1      -0.315  -1.875   3.065  0.00  0.00     0.002 A 
ATOM      6  C8  UNL d   1       0.152  -1.001   2.081  0.00  0.00     0.002 A 
ENDROOT
BRANCH   1   7
ATOM      7  C2  UNL d   1       1.562  -0.499   0.045  0.00  0.00     0.056 C 
BRANCH   7   8
ATOM      8  C1  UNL d   1       3.044  -0.667  -0.308  0.00  0.00     0.007 C 
ATOM      9  C   UNL d   1       3.774   0.658  -0.480  0.00  0.00     0.009 C 
ENDBRANCH   7   8
ENDBRANCH   1   7
TORSDOF 2
ENDMDL
