MODEL 1
REMARK minimizedAffinity -0.208912253
REMARK minimizedRMSD -1
REMARK  2 active torsions:
REMARK  status: ('A' for Active; 'I' for Inactive)
REMARK    1  A    between atoms: C1_2  and  C2_3 
REMARK    2  A    between atoms: C2_3  and  C3_4 
ROOT
ATOM      1  C3  UNL d   1       1.135  -2.009   1.271  0.00  0.00    -0.075 A 
ATOM      2  C4  UNL d   1       0.959  -3.333   1.697  0.00  0.00     0.002 A 
ATOM      3  C5  UNL d   1       0.044  -3.637   2.706  0.00  0.00     0.002 A 
ATOM      4  C6  UNL d   1      -0.698  -2.622   3.306  0.00  0.00    -0.004 A 
ATOM      5  C7  UNL d   1      -0.519  -1.301   2.902  0.00  0.00     0.002 A 
ATOM      6  C8  UNL d   1       0.392  -0.994   1.890  0.00  0.00     0.002 A 
ENDROOT
BRANCH   1   7
ATOM      7  C2  UNL d   1       2.102  -1.677   0.159  0.00  0.00     0.056 C 
BRANCH   7   8
ATOM      8  C1  UNL d   1       1.549  -0.691  -0.875  0.00  0.00     0.007 C 
ATOM      9  C   UNL d   1       2.500   0.459  -1.177  0.00  0.00     0.009 C 
ENDBRANCH   7   8
ENDBRANCH   1   7
TORSDOF 2
ENDMDL
