MODEL 1
REMARK minimizedAffinity 1.22887552
REMARK minimizedRMSD -1
REMARK  1 active torsions:
REMARK  status: ('A' for Active; 'I' for Inactive)
REMARK    1  A    between atoms: C3_4  and  O_7 
ROOT
ATOM      1  C   UNL d   1       5.958   5.921   3.071  0.00  0.00    -0.033 A 
ATOM      2  C1  UNL d   1       5.922   4.703   2.389  0.00  0.00     0.039 A 
ATOM      3  C2  UNL d   1       5.928   3.502   3.101  0.00  0.00    -0.080 A 
ATOM      4  C3  UNL d   1       5.968   3.532   4.492  0.00  0.00     0.150 A 
ATOM      5  C4  UNL d   1       6.000   4.742   5.178  0.00  0.00    -0.007 A 
ATOM      6  C5  UNL d   1       5.995   5.940   4.466  0.00  0.00     0.039 A 
ENDROOT
BRANCH   4   7
ATOM      7  O   UNL d   1       5.980   2.386   5.230  0.00  0.00    -0.526 OA
ATOM      8  H5  UNL d   1       5.984   1.628   4.622  0.00  0.00     0.418 HD
ENDBRANCH   4   7
TORSDOF 1
ENDMDL
