MODEL 1
REMARK minimizedAffinity -2.2313869
REMARK minimizedRMSD -1
REMARK  1 active torsions:
REMARK  status: ('A' for Active; 'I' for Inactive)
REMARK    1  A    between atoms: C3_4  and  O_7 
ROOT
ATOM      1  C   UNL d   1       5.736  -0.599   4.817  0.00  0.00    -0.033 A 
ATOM      2  C1  UNL d   1       5.580   0.135   5.994  0.00  0.00     0.039 A 
ATOM      3  C2  UNL d   1       5.631   1.530   5.961  0.00  0.00    -0.080 A 
ATOM      4  C3  UNL d   1       5.837   2.178   4.746  0.00  0.00     0.150 A 
ATOM      5  C4  UNL d   1       5.989   1.453   3.569  0.00  0.00    -0.007 A 
ATOM      6  C5  UNL d   1       5.939   0.060   3.604  0.00  0.00     0.039 A 
ENDROOT
BRANCH   4   7
ATOM      7  O   UNL d   1       5.899   3.537   4.665  0.00  0.00    -0.526 OA
ATOM      8  H5  UNL d   1       5.806   3.903   5.560  0.00  0.00     0.418 HD
ENDBRANCH   4   7
TORSDOF 1
ENDMDL
