MODEL 1
REMARK minimizedAffinity -1.92481863
REMARK minimizedRMSD -1
REMARK  1 active torsions:
REMARK  status: ('A' for Active; 'I' for Inactive)
REMARK    1  A    between atoms: C3_4  and  O_7 
ROOT
ATOM      1  C   UNL d   1       5.976   2.174   4.131  0.00  0.00    -0.033 A 
ATOM      2  C1  UNL d   1       5.840   1.288   3.061  0.00  0.00     0.039 A 
ATOM      3  C2  UNL d   1       5.726  -0.083   3.298  0.00  0.00    -0.080 A 
ATOM      4  C3  UNL d   1       5.749  -0.555   4.607  0.00  0.00     0.150 A 
ATOM      5  C4  UNL d   1       5.881   0.323   5.678  0.00  0.00    -0.007 A 
ATOM      6  C5  UNL d   1       5.995   1.692   5.440  0.00  0.00     0.039 A 
ENDROOT
BRANCH   4   7
ATOM      7  O   UNL d   1       5.647  -1.885   4.888  0.00  0.00    -0.526 OA
ATOM      8  H5  UNL d   1       5.591  -2.373   4.050  0.00  0.00     0.418 HD
ENDBRANCH   4   7
TORSDOF 1
ENDMDL
