MODEL 1
REMARK minimizedAffinity -1.31894886
REMARK minimizedRMSD -1
REMARK  1 active torsions:
REMARK  status: ('A' for Active; 'I' for Inactive)
REMARK    1  A    between atoms: C3_4  and  O_7 
ROOT
ATOM      1  C   UNL d   1       5.958   1.896   3.029  0.00  0.00    -0.033 A 
ATOM      2  C1  UNL d   1       5.938   2.408   4.328  0.00  0.00     0.039 A 
ATOM      3  C2  UNL d   1       5.950   3.788   4.537  0.00  0.00    -0.080 A 
ATOM      4  C3  UNL d   1       5.981   4.645   3.440  0.00  0.00     0.150 A 
ATOM      5  C4  UNL d   1       5.997   4.142   2.143  0.00  0.00    -0.007 A 
ATOM      6  C5  UNL d   1       5.986   2.764   1.936  0.00  0.00     0.039 A 
ENDROOT
BRANCH   4   7
ATOM      7  O   UNL d   1       5.999   5.999   3.594  0.00  0.00    -0.526 OA
ATOM      8  H5  UNL d   1       6.013   6.201   4.544  0.00  0.00     0.418 HD
ENDBRANCH   4   7
TORSDOF 1
ENDMDL
