MODEL 1
REMARK minimizedAffinity -1.97106159
REMARK minimizedRMSD -1
REMARK  1 active torsions:
REMARK  status: ('A' for Active; 'I' for Inactive)
REMARK    1  A    between atoms: C3_4  and  O_7 
ROOT
ATOM      1  C   UNL d   1       4.871   4.164   3.014  0.00  0.00    -0.033 A 
ATOM      2  C1  UNL d   1       3.744   3.742   3.723  0.00  0.00     0.039 A 
ATOM      3  C2  UNL d   1       3.743   2.500   4.360  0.00  0.00    -0.080 A 
ATOM      4  C3  UNL d   1       4.873   1.690   4.281  0.00  0.00     0.150 A 
ATOM      5  C4  UNL d   1       6.000   2.106   3.579  0.00  0.00    -0.007 A 
ATOM      6  C5  UNL d   1       5.999   3.347   2.943  0.00  0.00     0.039 A 
ENDROOT
BRANCH   4   7
ATOM      7  O   UNL d   1       4.917   0.467   4.882  0.00  0.00    -0.526 OA
ATOM      8  H5  UNL d   1       4.058   0.301   5.305  0.00  0.00     0.418 HD
ENDBRANCH   4   7
TORSDOF 1
ENDMDL
