MODEL 1
REMARK minimizedAffinity -3.10715699
REMARK minimizedRMSD -1
REMARK  1 active torsions:
REMARK  status: ('A' for Active; 'I' for Inactive)
REMARK    1  A    between atoms: C3_4  and  O_7 
ROOT
ATOM      1  C   UNL d   1       5.999   2.009   3.925  0.00  0.00    -0.033 A 
ATOM      2  C1  UNL d   1       5.777   0.839   3.195  0.00  0.00     0.039 A 
ATOM      3  C2  UNL d   1       5.543  -0.366   3.860  0.00  0.00    -0.080 A 
ATOM      4  C3  UNL d   1       5.532  -0.389   5.252  0.00  0.00     0.150 A 
ATOM      5  C4  UNL d   1       5.750   0.773   5.985  0.00  0.00    -0.007 A 
ATOM      6  C5  UNL d   1       5.984   1.976   5.320  0.00  0.00     0.039 A 
ENDROOT
BRANCH   4   7
ATOM      7  O   UNL d   1       5.313  -1.543   5.944  0.00  0.00    -0.526 OA
ATOM      8  H5  UNL d   1       5.208  -2.269   5.307  0.00  0.00     0.418 HD
ENDBRANCH   4   7
TORSDOF 1
ENDMDL
