MODEL 1
REMARK minimizedAffinity 1.16966331
REMARK minimizedRMSD -1
REMARK  1 active torsions:
REMARK  status: ('A' for Active; 'I' for Inactive)
REMARK    1  A    between atoms: C3_4  and  O_7 
ROOT
ATOM      1  C   UNL d   1       5.980   1.053   4.591  0.00  0.00    -0.033 A 
ATOM      2  C1  UNL d   1       5.973   0.356   5.801  0.00  0.00     0.039 A 
ATOM      3  C2  UNL d   1       5.976  -1.040   5.804  0.00  0.00    -0.080 A 
ATOM      4  C3  UNL d   1       5.988  -1.726   4.592  0.00  0.00     0.150 A 
ATOM      5  C4  UNL d   1       5.999  -1.038   3.384  0.00  0.00    -0.007 A 
ATOM      6  C5  UNL d   1       5.995   0.357   3.383  0.00  0.00     0.039 A 
ENDROOT
BRANCH   4   7
ATOM      7  O   UNL d   1       5.987  -3.089   4.545  0.00  0.00    -0.526 OA
ATOM      8  H5  UNL d   1       5.950  -3.428   5.454  0.00  0.00     0.418 HD
ENDBRANCH   4   7
TORSDOF 1
ENDMDL
