MODEL 1
REMARK minimizedAffinity -3.47903538
REMARK minimizedRMSD -1
REMARK  1 active torsions:
REMARK  status: ('A' for Active; 'I' for Inactive)
REMARK    1  A    between atoms: C3_4  and  O_7 
ROOT
ATOM      1  C   UNL d   1       5.544   2.365   3.913  0.00  0.00    -0.033 A 
ATOM      2  C1  UNL d   1       5.982   1.202   3.276  0.00  0.00     0.039 A 
ATOM      3  C2  UNL d   1       5.974  -0.016   3.960  0.00  0.00    -0.080 A 
ATOM      4  C3  UNL d   1       5.524  -0.057   5.276  0.00  0.00     0.150 A 
ATOM      5  C4  UNL d   1       5.082   1.097   5.915  0.00  0.00    -0.007 A 
ATOM      6  C5  UNL d   1       5.092   2.312   5.232  0.00  0.00     0.039 A 
ENDROOT
BRANCH   4   7
ATOM      7  O   UNL d   1       5.502  -1.221   5.985  0.00  0.00    -0.526 OA
ATOM      8  H5  UNL d   1       5.862  -1.929   5.426  0.00  0.00     0.418 HD
ENDBRANCH   4   7
TORSDOF 1
ENDMDL
