MODEL 1
REMARK minimizedAffinity -1.21791255
REMARK minimizedRMSD -1
REMARK  1 active torsions:
REMARK  status: ('A' for Active; 'I' for Inactive)
REMARK    1  A    between atoms: C3_4  and  O_7 
ROOT
ATOM      1  C   UNL d   1       5.718   1.600   4.378  0.00  0.00    -0.033 A 
ATOM      2  C1  UNL d   1       5.624   1.056   5.660  0.00  0.00     0.039 A 
ATOM      3  C2  UNL d   1       5.716  -0.325   5.843  0.00  0.00    -0.080 A 
ATOM      4  C3  UNL d   1       5.902  -1.150   4.737  0.00  0.00     0.150 A 
ATOM      5  C4  UNL d   1       6.000  -0.614   3.457  0.00  0.00    -0.007 A 
ATOM      6  C5  UNL d   1       5.907   0.765   3.276  0.00  0.00     0.039 A 
ENDROOT
BRANCH   4   7
ATOM      7  O   UNL d   1       5.992  -2.504   4.865  0.00  0.00    -0.526 OA
ATOM      8  H5  UNL d   1       5.878  -2.733   5.802  0.00  0.00     0.418 HD
ENDBRANCH   4   7
TORSDOF 1
ENDMDL
