MODEL 1
REMARK minimizedAffinity -1.05771172
REMARK minimizedRMSD -1
REMARK  1 active torsions:
REMARK  status: ('A' for Active; 'I' for Inactive)
REMARK    1  A    between atoms: C3_4  and  O_7 
ROOT
ATOM      1  C   UNL d   1       5.980   1.952   4.359  0.00  0.00    -0.033 A 
ATOM      2  C1  UNL d   1       6.000   1.004   3.334  0.00  0.00     0.039 A 
ATOM      3  C2  UNL d   1       5.999  -0.359   3.641  0.00  0.00    -0.080 A 
ATOM      4  C3  UNL d   1       5.978  -0.759   4.974  0.00  0.00     0.150 A 
ATOM      5  C4  UNL d   1       5.954   0.180   6.000  0.00  0.00    -0.007 A 
ATOM      6  C5  UNL d   1       5.955   1.540   5.692  0.00  0.00     0.039 A 
ENDROOT
BRANCH   4   7
ATOM      7  O   UNL d   1       5.981  -2.077   5.323  0.00  0.00    -0.526 OA
ATOM      8  H5  UNL d   1       6.028  -2.610   4.511  0.00  0.00     0.418 HD
ENDBRANCH   4   7
TORSDOF 1
ENDMDL
