MODEL 1
REMARK minimizedAffinity -1.97480845
REMARK minimizedRMSD -1
REMARK  1 active torsions:
REMARK  status: ('A' for Active; 'I' for Inactive)
REMARK    1  A    between atoms: C3_4  and  O_7 
ROOT
ATOM      1  C   UNL d   1      -1.445   3.592   3.881  0.00  0.00    -0.033 A 
ATOM      2  C1  UNL d   1      -2.255   2.897   4.781  0.00  0.00     0.039 A 
ATOM      3  C2  UNL d   1      -2.428   1.518   4.646  0.00  0.00    -0.080 A 
ATOM      4  C3  UNL d   1      -1.786   0.847   3.610  0.00  0.00     0.150 A 
ATOM      5  C4  UNL d   1      -0.975   1.533   2.711  0.00  0.00    -0.007 A 
ATOM      6  C5  UNL d   1      -0.804   2.910   2.847  0.00  0.00     0.039 A 
ENDROOT
BRANCH   4   7
ATOM      7  O   UNL d   1      -1.928  -0.497   3.435  0.00  0.00    -0.526 OA
ATOM      8  H5  UNL d   1      -2.540  -0.833   4.112  0.00  0.00     0.418 HD
ENDBRANCH   4   7
TORSDOF 1
ENDMDL
