MODEL 1
REMARK minimizedAffinity -2.98425961
REMARK minimizedRMSD -1
REMARK  1 active torsions:
REMARK  status: ('A' for Active; 'I' for Inactive)
REMARK    1  A    between atoms: C3_4  and  O_7 
ROOT
ATOM      1  C   UNL d   1       5.926   1.412   4.802  0.00  0.00    -0.033 A 
ATOM      2  C1  UNL d   1       6.000   0.710   3.598  0.00  0.00     0.039 A 
ATOM      3  C2  UNL d   1       5.871  -0.680   3.589  0.00  0.00    -0.080 A 
ATOM      4  C3  UNL d   1       5.668  -1.355   4.790  0.00  0.00     0.150 A 
ATOM      5  C4  UNL d   1       5.590  -0.662   5.993  0.00  0.00    -0.007 A 
ATOM      6  C5  UNL d   1       5.720   0.726   6.000  0.00  0.00     0.039 A 
ENDROOT
BRANCH   4   7
ATOM      7  O   UNL d   1       5.541  -2.712   4.832  0.00  0.00    -0.526 OA
ATOM      8  H5  UNL d   1       5.644  -3.059   3.930  0.00  0.00     0.418 HD
ENDBRANCH   4   7
TORSDOF 1
ENDMDL
