MODEL 1
REMARK minimizedAffinity -1.31861746
REMARK minimizedRMSD -1
REMARK  1 active torsions:
REMARK  status: ('A' for Active; 'I' for Inactive)
REMARK    1  A    between atoms: C3_4  and  O_7 
ROOT
ATOM      1  C   UNL d   1       5.998   2.122   3.939  0.00  0.00    -0.033 A 
ATOM      2  C1  UNL d   1       6.000   1.605   5.235  0.00  0.00     0.039 A 
ATOM      3  C2  UNL d   1       6.000   0.223   5.438  0.00  0.00    -0.080 A 
ATOM      4  C3  UNL d   1       5.998  -0.628   4.336  0.00  0.00     0.150 A 
ATOM      5  C4  UNL d   1       6.000  -0.120   3.042  0.00  0.00    -0.007 A 
ATOM      6  C5  UNL d   1       5.999   1.260   2.842  0.00  0.00     0.039 A 
ENDROOT
BRANCH   4   7
ATOM      7  O   UNL d   1       5.993  -1.984   4.484  0.00  0.00    -0.526 OA
ATOM      8  H5  UNL d   1       5.964  -2.190   5.433  0.00  0.00     0.418 HD
ENDBRANCH   4   7
TORSDOF 1
ENDMDL
