MODEL 1
REMARK minimizedAffinity -2.51889873
REMARK minimizedRMSD -1
REMARK  1 active torsions:
REMARK  status: ('A' for Active; 'I' for Inactive)
REMARK    1  A    between atoms: C3_4  and  O_7 
ROOT
ATOM      1  C   UNL d   1       5.964   2.347   4.862  0.00  0.00    -0.033 A 
ATOM      2  C1  UNL d   1       5.930   1.788   3.583  0.00  0.00     0.039 A 
ATOM      3  C2  UNL d   1       5.933   0.401   3.424  0.00  0.00    -0.080 A 
ATOM      4  C3  UNL d   1       5.970  -0.415   4.552  0.00  0.00     0.150 A 
ATOM      5  C4  UNL d   1       6.000   0.134   5.829  0.00  0.00    -0.007 A 
ATOM      6  C5  UNL d   1       5.998   1.520   5.985  0.00  0.00     0.039 A 
ENDROOT
BRANCH   4   7
ATOM      7  O   UNL d   1       5.979  -1.774   4.447  0.00  0.00    -0.526 OA
ATOM      8  H5  UNL d   1       5.985  -2.011   3.504  0.00  0.00     0.418 HD
ENDBRANCH   4   7
TORSDOF 1
ENDMDL
