MODEL 1
REMARK minimizedAffinity -3.51954079
REMARK minimizedRMSD -1
REMARK  1 active torsions:
REMARK  status: ('A' for Active; 'I' for Inactive)
REMARK    1  A    between atoms: C3_4  and  O_7 
ROOT
ATOM      1  C   UNL d   1       5.849   2.548   4.309  0.00  0.00    -0.033 A 
ATOM      2  C1  UNL d   1       5.629   2.165   5.633  0.00  0.00     0.039 A 
ATOM      3  C2  UNL d   1       5.555   0.811   5.967  0.00  0.00    -0.080 A 
ATOM      4  C3  UNL d   1       5.704  -0.148   4.969  0.00  0.00     0.150 A 
ATOM      5  C4  UNL d   1       5.927   0.227   3.648  0.00  0.00    -0.007 A 
ATOM      6  C5  UNL d   1       6.000   1.579   3.317  0.00  0.00     0.039 A 
ENDROOT
BRANCH   4   7
ATOM      7  O   UNL d   1       5.634  -1.481   5.246  0.00  0.00    -0.526 OA
ATOM      8  H5  UNL d   1       5.447  -1.589   6.194  0.00  0.00     0.418 HD
ENDBRANCH   4   7
TORSDOF 1
ENDMDL
