MODEL 1
REMARK minimizedAffinity -1.97507417
REMARK minimizedRMSD -1
REMARK  1 active torsions:
REMARK  status: ('A' for Active; 'I' for Inactive)
REMARK    1  A    between atoms: C3_4  and  O_7 
ROOT
ATOM      1  C   UNL d   1       5.993   1.476   4.593  0.00  0.00    -0.033 A 
ATOM      2  C1  UNL d   1       5.992   0.813   3.365  0.00  0.00     0.039 A 
ATOM      3  C2  UNL d   1       5.992  -0.583   3.323  0.00  0.00    -0.080 A 
ATOM      4  C3  UNL d   1       5.994  -1.302   4.515  0.00  0.00     0.150 A 
ATOM      5  C4  UNL d   1       5.991  -0.648   5.742  0.00  0.00    -0.007 A 
ATOM      6  C5  UNL d   1       5.992   0.746   5.782  0.00  0.00     0.039 A 
ENDROOT
BRANCH   4   7
ATOM      7  O   UNL d   1       5.999  -2.665   4.524  0.00  0.00    -0.526 OA
ATOM      8  H5  UNL d   1       6.029  -2.979   3.605  0.00  0.00     0.418 HD
ENDBRANCH   4   7
TORSDOF 1
ENDMDL
