MODEL 1
REMARK minimizedAffinity -1.35022354
REMARK minimizedRMSD -1
REMARK  1 active torsions:
REMARK  status: ('A' for Active; 'I' for Inactive)
REMARK    1  A    between atoms: C3_4  and  O_7 
ROOT
ATOM      1  C   UNL d   1       5.623   0.136   4.669  0.00  0.00    -0.033 A 
ATOM      2  C1  UNL d   1       6.000   0.531   3.384  0.00  0.00     0.039 A 
ATOM      3  C2  UNL d   1       6.000   1.884   3.040  0.00  0.00    -0.080 A 
ATOM      4  C3  UNL d   1       5.622   2.831   3.989  0.00  0.00     0.150 A 
ATOM      5  C4  UNL d   1       5.250   2.444   5.272  0.00  0.00    -0.007 A 
ATOM      6  C5  UNL d   1       5.250   1.092   5.613  0.00  0.00     0.039 A 
ENDROOT
BRANCH   4   7
ATOM      7  O   UNL d   1       5.602   4.162   3.698  0.00  0.00    -0.526 OA
ATOM      8  H5  UNL d   1       5.855   4.278   2.768  0.00  0.00     0.418 HD
ENDBRANCH   4   7
TORSDOF 1
ENDMDL
