MODEL 1
REMARK minimizedAffinity -0.220223323
REMARK minimizedRMSD -1
REMARK  1 active torsions:
REMARK  status: ('A' for Active; 'I' for Inactive)
REMARK    1  A    between atoms: C3_4  and  O_7 
ROOT
ATOM      1  C   UNL d   1       0.754   0.167  -1.497  0.00  0.00    -0.033 A 
ATOM      2  C1  UNL d   1       0.423  -0.965  -0.751  0.00  0.00     0.039 A 
ATOM      3  C2  UNL d   1       0.692  -2.239  -1.255  0.00  0.00    -0.080 A 
ATOM      4  C3  UNL d   1       1.293  -2.366  -2.505  0.00  0.00     0.150 A 
ATOM      5  C4  UNL d   1       1.629  -1.242  -3.252  0.00  0.00    -0.007 A 
ATOM      6  C5  UNL d   1       1.359   0.029  -2.747  0.00  0.00     0.039 A 
ENDROOT
BRANCH   4   7
ATOM      7  O   UNL d   1       1.570  -3.589  -3.040  0.00  0.00    -0.526 OA
ATOM      8  H5  UNL d   1       1.257  -4.273  -2.425  0.00  0.00     0.418 HD
ENDBRANCH   4   7
TORSDOF 1
ENDMDL
