MODEL 1
REMARK minimizedAffinity 1.81898248
REMARK minimizedRMSD -1
REMARK  0 active torsions:
REMARK  status: ('A' for Active; 'I' for Inactive)
ROOT
ATOM      1  C   UNL d   1       2.998   0.399   0.389  0.00  0.00     0.077 C 
ATOM      2  C1  UNL d   1       2.737   0.460   1.864  0.00  0.00    -0.074 A 
ATOM      3  C2  UNL d   1       1.430   0.499   2.362  0.00  0.00    -0.005 A 
ATOM      4  C3  UNL d   1       1.202   0.546   3.737  0.00  0.00     0.006 A 
ATOM      5  C4  UNL d   1       2.277   0.554   4.627  0.00  0.00    -0.005 A 
ATOM      6  C5  UNL d   1       3.590   0.515   4.148  0.00  0.00    -0.074 A 
ATOM      7  C6  UNL d   1       4.756   0.514   5.092  0.00  0.00     0.077 C 
ATOM      8  C7  UNL d   1       3.811   0.461   2.765  0.00  0.00    -0.001 A 
ENDROOT
TORSDOF 0
ENDMDL
