MODEL 1
REMARK minimizedAffinity 3.29686093
REMARK minimizedRMSD -1
REMARK  0 active torsions:
REMARK  status: ('A' for Active; 'I' for Inactive)
ROOT
ATOM      1  C   UNL d   1       3.270   0.452   0.313  0.00  0.00     0.077 C 
ATOM      2  C1  UNL d   1       3.044   0.519   1.794  0.00  0.00    -0.074 A 
ATOM      3  C2  UNL d   1       1.751   0.499   2.326  0.00  0.00    -0.005 A 
ATOM      4  C3  UNL d   1       1.556   0.552   3.706  0.00  0.00     0.006 A 
ATOM      5  C4  UNL d   1       2.652   0.625   4.567  0.00  0.00    -0.005 A 
ATOM      6  C5  UNL d   1       3.953   0.645   4.054  0.00  0.00    -0.074 A 
ATOM      7  C6  UNL d   1       5.141   0.713   4.967  0.00  0.00     0.077 C 
ATOM      8  C7  UNL d   1       4.140   0.584   2.667  0.00  0.00    -0.001 A 
ENDROOT
TORSDOF 0
ENDMDL
