MODEL 1
REMARK minimizedAffinity -0.183484152
REMARK minimizedRMSD -1
REMARK  0 active torsions:
REMARK  status: ('A' for Active; 'I' for Inactive)
ROOT
ATOM      1  C   UNL d   1      -1.784   0.720   3.103  0.00  0.00     0.077 C 
ATOM      2  C1  UNL d   1      -0.834   0.709   1.944  0.00  0.00    -0.074 A 
ATOM      3  C2  UNL d   1      -0.395  -0.495   1.385  0.00  0.00    -0.005 A 
ATOM      4  C3  UNL d   1       0.482  -0.490   0.300  0.00  0.00     0.006 A 
ATOM      5  C4  UNL d   1       0.928   0.719  -0.236  0.00  0.00    -0.005 A 
ATOM      6  C5  UNL d   1       0.500   1.933   0.309  0.00  0.00    -0.074 A 
ATOM      7  C6  UNL d   1       0.963   3.241  -0.261  0.00  0.00     0.077 C 
ATOM      8  C7  UNL d   1      -0.386   1.919   1.395  0.00  0.00    -0.001 A 
ENDROOT
TORSDOF 0
ENDMDL
