MODEL 1
REMARK minimizedAffinity -1.32088375
REMARK minimizedRMSD -1
REMARK  0 active torsions:
REMARK  status: ('A' for Active; 'I' for Inactive)
ROOT
ATOM      1  C   UNL d   1      -2.234  -0.048   2.027  0.00  0.00     0.077 C 
ATOM      2  C1  UNL d   1      -0.980   0.010   1.206  0.00  0.00    -0.074 A 
ATOM      3  C2  UNL d   1      -0.583  -1.079   0.422  0.00  0.00    -0.005 A 
ATOM      4  C3  UNL d   1       0.580  -1.007  -0.344  0.00  0.00     0.006 A 
ATOM      5  C4  UNL d   1       1.357   0.152  -0.334  0.00  0.00    -0.005 A 
ATOM      6  C5  UNL d   1       0.976   1.251   0.443  0.00  0.00    -0.074 A 
ATOM      7  C6  UNL d   1       1.795   2.507   0.457  0.00  0.00     0.077 C 
ATOM      8  C7  UNL d   1      -0.198   1.173   1.204  0.00  0.00    -0.001 A 
ENDROOT
TORSDOF 0
ENDMDL
