MODEL 1
REMARK minimizedAffinity 0.595434904
REMARK minimizedRMSD -1
REMARK  0 active torsions:
REMARK  status: ('A' for Active; 'I' for Inactive)
ROOT
ATOM      1  C   UNL d   1       1.374   3.722   1.511  0.00  0.00     0.077 C 
ATOM      2  C1  UNL d   1       0.835   2.335   1.327  0.00  0.00    -0.074 A 
ATOM      3  C2  UNL d   1       1.289   1.519   0.286  0.00  0.00    -0.005 A 
ATOM      4  C3  UNL d   1       0.785   0.228   0.133  0.00  0.00     0.006 A 
ATOM      5  C4  UNL d   1      -0.176  -0.261   1.019  0.00  0.00    -0.005 A 
ATOM      6  C5  UNL d   1      -0.642   0.540   2.066  0.00  0.00    -0.074 A 
ATOM      7  C6  UNL d   1      -1.668   0.027   3.033  0.00  0.00     0.077 C 
ATOM      8  C7  UNL d   1      -0.126   1.834   2.217  0.00  0.00    -0.001 A 
ENDROOT
TORSDOF 0
ENDMDL
