MODEL 1
REMARK minimizedAffinity 5.51374531
REMARK minimizedRMSD -1
REMARK  0 active torsions:
REMARK  status: ('A' for Active; 'I' for Inactive)
ROOT
ATOM      1  C   UNL d   1       1.653   3.323  -0.308  0.00  0.00     0.077 C 
ATOM      2  C1  UNL d   1       1.290   1.868  -0.283  0.00  0.00    -0.074 A 
ATOM      3  C2  UNL d   1       0.619   1.313   0.812  0.00  0.00    -0.005 A 
ATOM      4  C3  UNL d   1       0.280  -0.040   0.817  0.00  0.00     0.006 A 
ATOM      5  C4  UNL d   1       0.607  -0.850  -0.271  0.00  0.00    -0.005 A 
ATOM      6  C5  UNL d   1       1.276  -0.313  -1.375  0.00  0.00    -0.074 A 
ATOM      7  C6  UNL d   1       1.627  -1.168  -2.556  0.00  0.00     0.077 C 
ATOM      8  C7  UNL d   1       1.608   1.049  -1.375  0.00  0.00    -0.001 A 
ENDROOT
TORSDOF 0
ENDMDL
