MODEL 1
REMARK minimizedAffinity 4.63504744
REMARK minimizedRMSD -1
REMARK  0 active torsions:
REMARK  status: ('A' for Active; 'I' for Inactive)
ROOT
ATOM      1  C   UNL d   1       1.128   1.017  -1.824  0.00  0.00     0.077 C 
ATOM      2  C1  UNL d   1       0.980   1.513  -0.417  0.00  0.00    -0.074 A 
ATOM      3  C2  UNL d   1       1.449   2.778  -0.047  0.00  0.00    -0.005 A 
ATOM      4  C3  UNL d   1       1.295   3.230   1.263  0.00  0.00     0.006 A 
ATOM      5  C4  UNL d   1       0.671   2.424   2.216  0.00  0.00    -0.005 A 
ATOM      6  C5  UNL d   1       0.195   1.157   1.865  0.00  0.00    -0.074 A 
ATOM      7  C6  UNL d   1      -0.486   0.281   2.875  0.00  0.00     0.077 C 
ATOM      8  C7  UNL d   1       0.347   0.712   0.545  0.00  0.00    -0.001 A 
ENDROOT
TORSDOF 0
ENDMDL
