MODEL 1
REMARK minimizedAffinity 1.1578604
REMARK minimizedRMSD -1
REMARK  0 active torsions:
REMARK  status: ('A' for Active; 'I' for Inactive)
ROOT
ATOM      1  C   UNL d   1      -0.056  -0.430   0.348  0.00  0.00     0.077 C 
ATOM      2  C1  UNL d   1       0.844   0.726   0.666  0.00  0.00    -0.074 A 
ATOM      3  C2  UNL d   1       0.321   2.003   0.896  0.00  0.00    -0.005 A 
ATOM      4  C3  UNL d   1       1.171   3.066   1.200  0.00  0.00     0.006 A 
ATOM      5  C4  UNL d   1       2.550   2.865   1.276  0.00  0.00    -0.005 A 
ATOM      6  C5  UNL d   1       3.091   1.596   1.049  0.00  0.00    -0.074 A 
ATOM      7  C6  UNL d   1       4.569   1.360   1.136  0.00  0.00     0.077 C 
ATOM      8  C7  UNL d   1       2.230   0.530   0.752  0.00  0.00    -0.001 A 
ENDROOT
TORSDOF 0
ENDMDL
