MODEL 1
REMARK minimizedAffinity -0.800379336
REMARK minimizedRMSD -1
REMARK  0 active torsions:
REMARK  status: ('A' for Active; 'I' for Inactive)
ROOT
ATOM      1  C   UNL d   1      -1.731   5.990  -1.762  0.00  0.00     0.077 C 
ATOM      2  C1  UNL d   1      -1.482   5.982  -3.241  0.00  0.00    -0.074 A 
ATOM      3  C2  UNL d   1      -2.546   5.998  -4.149  0.00  0.00    -0.005 A 
ATOM      4  C3  UNL d   1      -2.299   6.000  -5.522  0.00  0.00     0.006 A 
ATOM      5  C4  UNL d   1      -0.988   5.987  -6.000  0.00  0.00    -0.005 A 
ATOM      6  C5  UNL d   1       0.088   5.972  -5.107  0.00  0.00    -0.074 A 
ATOM      7  C6  UNL d   1       1.504   5.968  -5.604  0.00  0.00     0.077 C 
ATOM      8  C7  UNL d   1      -0.168   5.977  -3.729  0.00  0.00    -0.001 A 
ENDROOT
TORSDOF 0
ENDMDL
