MODEL 1
REMARK minimizedAffinity 7.03358555
REMARK minimizedRMSD -1
REMARK  0 active torsions:
REMARK  status: ('A' for Active; 'I' for Inactive)
ROOT
ATOM      1  C   UNL d   1       2.785   1.213   0.520  0.00  0.00     0.077 C 
ATOM      2  C1  UNL d   1       1.357   0.755   0.479  0.00  0.00    -0.074 A 
ATOM      3  C2  UNL d   1       0.330   1.636   0.126  0.00  0.00    -0.005 A 
ATOM      4  C3  UNL d   1      -0.992   1.194   0.084  0.00  0.00     0.006 A 
ATOM      5  C4  UNL d   1      -1.300  -0.132   0.393  0.00  0.00    -0.005 A 
ATOM      6  C5  UNL d   1      -0.286  -1.027   0.748  0.00  0.00    -0.074 A 
ATOM      7  C6  UNL d   1      -0.598  -2.458   1.074  0.00  0.00     0.077 C 
ATOM      8  C7  UNL d   1       1.041  -0.577   0.781  0.00  0.00    -0.001 A 
ENDROOT
TORSDOF 0
ENDMDL
