MODEL 1
REMARK minimizedAffinity -2.24056315
REMARK minimizedRMSD -1
REMARK  0 active torsions:
REMARK  status: ('A' for Active; 'I' for Inactive)
ROOT
ATOM      1  C   UNL d   1      -0.814   5.999  -3.715  0.00  0.00     0.077 C 
ATOM      2  C1  UNL d   1      -2.224   5.991  -3.204  0.00  0.00    -0.074 A 
ATOM      3  C2  UNL d   1      -2.492   5.997  -1.831  0.00  0.00    -0.005 A 
ATOM      4  C3  UNL d   1      -3.808   5.999  -1.371  0.00  0.00     0.006 A 
ATOM      5  C4  UNL d   1      -4.869   5.994  -2.277  0.00  0.00    -0.005 A 
ATOM      6  C5  UNL d   1      -4.622   5.988  -3.654  0.00  0.00    -0.074 A 
ATOM      7  C6  UNL d   1      -5.750   5.992  -4.641  0.00  0.00     0.077 C 
ATOM      8  C7  UNL d   1      -3.296   5.993  -4.108  0.00  0.00    -0.001 A 
ENDROOT
TORSDOF 0
ENDMDL
