MODEL 1
REMARK minimizedAffinity 4.06487894
REMARK minimizedRMSD -1
REMARK  0 active torsions:
REMARK  status: ('A' for Active; 'I' for Inactive)
ROOT
ATOM      1  C   UNL d   1       0.595   5.962  -5.952  0.00  0.00     0.077 C 
ATOM      2  C1  UNL d   1       1.895   5.261  -5.689  0.00  0.00    -0.074 A 
ATOM      3  C2  UNL d   1       1.918   3.950  -5.202  0.00  0.00    -0.005 A 
ATOM      4  C3  UNL d   1       3.134   3.307  -4.971  0.00  0.00     0.006 A 
ATOM      5  C4  UNL d   1       4.337   3.967  -5.224  0.00  0.00    -0.005 A 
ATOM      6  C5  UNL d   1       4.333   5.278  -5.712  0.00  0.00    -0.074 A 
ATOM      7  C6  UNL d   1       5.617   5.998  -5.999  0.00  0.00     0.077 C 
ATOM      8  C7  UNL d   1       3.107   5.914  -5.948  0.00  0.00    -0.001 A 
ENDROOT
TORSDOF 0
ENDMDL
