MODEL 1
REMARK minimizedAffinity -2.52684116
REMARK minimizedRMSD -1
REMARK  0 active torsions:
REMARK  status: ('A' for Active; 'I' for Inactive)
ROOT
ATOM      1  C   UNL d   1       3.618   1.438  -0.042  0.00  0.00     0.077 C 
ATOM      2  C1  UNL d   1       2.146   1.159   0.034  0.00  0.00    -0.074 A 
ATOM      3  C2  UNL d   1       1.211   2.191  -0.096  0.00  0.00    -0.005 A 
ATOM      4  C3  UNL d   1      -0.155   1.914  -0.033  0.00  0.00     0.006 A 
ATOM      5  C4  UNL d   1      -0.598   0.606   0.161  0.00  0.00    -0.005 A 
ATOM      6  C5  UNL d   1       0.322  -0.439   0.292  0.00  0.00    -0.074 A 
ATOM      7  C6  UNL d   1      -0.138  -1.853   0.491  0.00  0.00     0.077 C 
ATOM      8  C7  UNL d   1       1.692  -0.154   0.220  0.00  0.00    -0.001 A 
ENDROOT
TORSDOF 0
ENDMDL
