MODEL 1
REMARK minimizedAffinity 3.83140969
REMARK minimizedRMSD -1
REMARK  0 active torsions:
REMARK  status: ('A' for Active; 'I' for Inactive)
ROOT
ATOM      1  C   UNL d   1       1.811   3.492  -3.014  0.00  0.00     0.077 C 
ATOM      2  C1  UNL d   1       2.436   4.363  -4.062  0.00  0.00    -0.074 A 
ATOM      3  C2  UNL d   1       1.647   5.150  -4.907  0.00  0.00    -0.005 A 
ATOM      4  C3  UNL d   1       2.244   5.963  -5.871  0.00  0.00     0.006 A 
ATOM      5  C4  UNL d   1       3.633   5.997  -6.000  0.00  0.00    -0.005 A 
ATOM      6  C5  UNL d   1       4.438   5.218  -5.163  0.00  0.00    -0.074 A 
ATOM      7  C6  UNL d   1       5.933   5.250  -5.281  0.00  0.00     0.077 C 
ATOM      8  C7  UNL d   1       3.831   4.409  -4.192  0.00  0.00    -0.001 A 
ENDROOT
TORSDOF 0
ENDMDL
