MODEL 1
REMARK minimizedAffinity 6.09166861
REMARK minimizedRMSD -1
REMARK  0 active torsions:
REMARK  status: ('A' for Active; 'I' for Inactive)
ROOT
ATOM      1  C   UNL d   1       1.458  -0.540  -1.503  0.00  0.00     0.077 C 
ATOM      2  C1  UNL d   1       0.780   0.285  -0.450  0.00  0.00    -0.074 A 
ATOM      3  C2  UNL d   1      -0.077  -0.305   0.485  0.00  0.00    -0.005 A 
ATOM      4  C3  UNL d   1      -0.692   0.475   1.464  0.00  0.00     0.006 A 
ATOM      5  C4  UNL d   1      -0.457   1.849   1.519  0.00  0.00    -0.005 A 
ATOM      6  C5  UNL d   1       0.397   2.456   0.593  0.00  0.00    -0.074 A 
ATOM      7  C6  UNL d   1       0.668   3.930   0.644  0.00  0.00     0.077 C 
ATOM      8  C7  UNL d   1       1.017   1.665  -0.384  0.00  0.00    -0.001 A 
ENDROOT
TORSDOF 0
ENDMDL
