MODEL 1
REMARK minimizedAffinity 5.21403503
REMARK minimizedRMSD -1
REMARK  0 active torsions:
REMARK  status: ('A' for Active; 'I' for Inactive)
ROOT
ATOM      1  C   UNL d   1       0.553   0.372   2.452  0.00  0.00     0.077 C 
ATOM      2  C1  UNL d   1       1.364   0.554   1.203  0.00  0.00    -0.074 A 
ATOM      3  C2  UNL d   1       0.773   1.022   0.025  0.00  0.00    -0.005 A 
ATOM      4  C3  UNL d   1       1.542   1.196  -1.126  0.00  0.00     0.006 A 
ATOM      5  C4  UNL d   1       2.907   0.905  -1.110  0.00  0.00    -0.005 A 
ATOM      6  C5  UNL d   1       3.515   0.437   0.060  0.00  0.00    -0.074 A 
ATOM      7  C6  UNL d   1       4.982   0.129   0.097  0.00  0.00     0.077 C 
ATOM      8  C7  UNL d   1       2.737   0.272   1.214  0.00  0.00    -0.001 A 
ENDROOT
TORSDOF 0
ENDMDL
