MODEL 1
REMARK minimizedAffinity 25.3333988
REMARK minimizedRMSD -1
REMARK  0 active torsions:
REMARK  status: ('A' for Active; 'I' for Inactive)
ROOT
ATOM      1  C   UNL d   1       1.568  -0.195   1.795  0.00  0.00     0.124 A 
ATOM      2  C1  UNL d   1       1.265   0.456   2.983  0.00  0.00     0.062 A 
ATOM      3  C2  UNL d   1       1.259  -0.247   4.185  0.00  0.00     0.162 A 
ATOM      4  C3  UNL d   1       1.558  -1.609   4.205  0.00  0.00    -0.034 A 
ATOM      5  C4  UNL d   1       1.860  -2.257   3.006  0.00  0.00     0.162 A 
ATOM      6  C5  UNL d   1       1.866  -1.551   1.808  0.00  0.00     0.062 A 
ATOM      7  F   UNL d   1       2.159  -2.181   0.661  0.00  0.00    -0.097 F 
ATOM      8  F1  UNL d   1       2.152  -3.566   2.989  0.00  0.00    -0.096 F 
ATOM      9  I   UNL d   1       1.549  -2.664   5.999  0.00  0.00    -0.060 I 
ATOM     10  F2  UNL d   1       0.962   0.407   5.317  0.00  0.00    -0.096 F 
ATOM     11  F3  UNL d   1       0.977   1.765   2.974  0.00  0.00    -0.097 F 
ATOM     12  F4  UNL d   1       1.573   0.483   0.641  0.00  0.00    -0.092 F 
ENDROOT
TORSDOF 0
ENDMDL
