MODEL 1
REMARK minimizedAffinity 14.1093302
REMARK minimizedRMSD -1
REMARK  0 active torsions:
REMARK  status: ('A' for Active; 'I' for Inactive)
ROOT
ATOM      1  C   UNL d   1       1.606  -1.936   4.734  0.00  0.00     0.124 A 
ATOM      2  C1  UNL d   1       2.215  -3.100   4.285  0.00  0.00     0.062 A 
ATOM      3  C2  UNL d   1       2.659  -3.195   2.970  0.00  0.00     0.162 A 
ATOM      4  C3  UNL d   1       2.497  -2.123   2.092  0.00  0.00    -0.034 A 
ATOM      5  C4  UNL d   1       1.883  -0.956   2.551  0.00  0.00     0.162 A 
ATOM      6  C5  UNL d   1       1.441  -0.865   3.866  0.00  0.00     0.062 A 
ATOM      7  F   UNL d   1       0.852   0.260   4.298  0.00  0.00    -0.097 F 
ATOM      8  F1  UNL d   1       1.711   0.094   1.734  0.00  0.00    -0.096 F 
ATOM      9  I   UNL d   1       3.160  -2.261   0.124  0.00  0.00    -0.060 I 
ATOM     10  F2  UNL d   1       3.244  -4.332   2.563  0.00  0.00    -0.096 F 
ATOM     11  F3  UNL d   1       2.375  -4.136   5.121  0.00  0.00    -0.097 F 
ATOM     12  F4  UNL d   1       1.179  -1.847   6.000  0.00  0.00    -0.092 F 
ENDROOT
TORSDOF 0
ENDMDL
