MODEL 1
REMARK minimizedAffinity 8.96160603
REMARK minimizedRMSD -1
REMARK  0 active torsions:
REMARK  status: ('A' for Active; 'I' for Inactive)
ROOT
ATOM      1  C   UNL d   1      -4.433   3.969  -4.568  0.00  0.00     0.124 A 
ATOM      2  C1  UNL d   1      -3.949   2.670  -4.622  0.00  0.00     0.062 A 
ATOM      3  C2  UNL d   1      -3.506   2.039  -3.463  0.00  0.00     0.162 A 
ATOM      4  C3  UNL d   1      -3.547   2.706  -2.239  0.00  0.00    -0.034 A 
ATOM      5  C4  UNL d   1      -4.035   4.013  -2.193  0.00  0.00     0.162 A 
ATOM      6  C5  UNL d   1      -4.476   4.640  -3.354  0.00  0.00     0.062 A 
ATOM      7  F   UNL d   1      -4.944   5.895  -3.299  0.00  0.00    -0.097 F 
ATOM      8  F1  UNL d   1      -4.089   4.684  -1.032  0.00  0.00    -0.096 F 
ATOM      9  I   UNL d   1      -2.887   1.765  -0.504  0.00  0.00    -0.060 I 
ATOM     10  F2  UNL d   1      -3.043   0.782  -3.546  0.00  0.00    -0.096 F 
ATOM     11  F3  UNL d   1      -3.905   2.021  -5.795  0.00  0.00    -0.097 F 
ATOM     12  F4  UNL d   1      -4.857   4.575  -5.685  0.00  0.00    -0.092 F 
ENDROOT
TORSDOF 0
ENDMDL
