MODEL 1
REMARK minimizedAffinity 15.7977686
REMARK minimizedRMSD -1
REMARK  0 active torsions:
REMARK  status: ('A' for Active; 'I' for Inactive)
ROOT
ATOM      1  C   UNL d   1       1.744  -0.788   1.424  0.00  0.00     0.124 A 
ATOM      2  C1  UNL d   1       2.164  -2.085   1.686  0.00  0.00     0.062 A 
ATOM      3  C2  UNL d   1       2.174  -2.567   2.992  0.00  0.00     0.162 A 
ATOM      4  C3  UNL d   1       1.761  -1.753   4.046  0.00  0.00    -0.034 A 
ATOM      5  C4  UNL d   1       1.341  -0.449   3.775  0.00  0.00     0.162 A 
ATOM      6  C5  UNL d   1       1.333   0.028   2.468  0.00  0.00     0.062 A 
ATOM      7  F   UNL d   1       0.926   1.281   2.217  0.00  0.00    -0.097 F 
ATOM      8  F1  UNL d   1       0.937   0.361   4.765  0.00  0.00    -0.096 F 
ATOM      9  I   UNL d   1       1.774  -2.470   6.000  0.00  0.00    -0.060 I 
ATOM     10  F2  UNL d   1       2.585  -3.824   3.216  0.00  0.00    -0.096 F 
ATOM     11  F3  UNL d   1       2.563  -2.875   0.679  0.00  0.00    -0.097 F 
ATOM     12  F4  UNL d   1       1.736  -0.326   0.167  0.00  0.00    -0.092 F 
ENDROOT
TORSDOF 0
ENDMDL
