MODEL 1
REMARK minimizedAffinity 23.6772747
REMARK minimizedRMSD -1
REMARK  0 active torsions:
REMARK  status: ('A' for Active; 'I' for Inactive)
ROOT
ATOM      1  C   UNL d   1       1.246  -5.112  -1.621  0.00  0.00     0.124 A 
ATOM      2  C1  UNL d   1       2.372  -4.319  -1.447  0.00  0.00     0.062 A 
ATOM      3  C2  UNL d   1       2.449  -3.439  -0.371  0.00  0.00     0.162 A 
ATOM      4  C3  UNL d   1       1.396  -3.348   0.539  0.00  0.00    -0.034 A 
ATOM      5  C4  UNL d   1       0.267  -4.148   0.357  0.00  0.00     0.162 A 
ATOM      6  C5  UNL d   1       0.195  -5.026  -0.720  0.00  0.00     0.062 A 
ATOM      7  F   UNL d   1      -0.893  -5.791  -0.886  0.00  0.00    -0.097 F 
ATOM      8  F1  UNL d   1      -0.763  -4.085   1.214  0.00  0.00    -0.096 F 
ATOM      9  I   UNL d   1       1.507  -2.033   2.149  0.00  0.00    -0.060 I 
ATOM     10  F2  UNL d   1       3.548  -2.685  -0.228  0.00  0.00    -0.096 F 
ATOM     11  F3  UNL d   1       3.389  -4.400  -2.318  0.00  0.00    -0.097 F 
ATOM     12  F4  UNL d   1       1.175  -5.957  -2.658  0.00  0.00    -0.092 F 
ENDROOT
TORSDOF 0
ENDMDL
