MODEL 1
REMARK minimizedAffinity 15.2132492
REMARK minimizedRMSD -1
REMARK  0 active torsions:
REMARK  status: ('A' for Active; 'I' for Inactive)
ROOT
ATOM      1  C   UNL d   1       1.510  -0.982   2.407  0.00  0.00     0.124 A 
ATOM      2  C1  UNL d   1       2.227  -2.136   2.124  0.00  0.00     0.062 A 
ATOM      3  C2  UNL d   1       2.577  -3.012   3.147  0.00  0.00     0.162 A 
ATOM      4  C3  UNL d   1       2.210  -2.737   4.465  0.00  0.00    -0.034 A 
ATOM      5  C4  UNL d   1       1.490  -1.574   4.742  0.00  0.00     0.162 A 
ATOM      6  C5  UNL d   1       1.142  -0.702   3.716  0.00  0.00     0.062 A 
ATOM      7  F   UNL d   1       0.449   0.412   3.992  0.00  0.00    -0.097 F 
ATOM      8  F1  UNL d   1       1.121  -1.280   5.998  0.00  0.00    -0.096 F 
ATOM      9  I   UNL d   1       2.732  -4.044   5.998  0.00  0.00    -0.060 I 
ATOM     10  F2  UNL d   1       3.271  -4.119   2.844  0.00  0.00    -0.096 F 
ATOM     11  F3  UNL d   1       2.585  -2.408   0.860  0.00  0.00    -0.097 F 
ATOM     12  F4  UNL d   1       1.175  -0.141   1.421  0.00  0.00    -0.092 F 
ENDROOT
TORSDOF 0
ENDMDL
