MODEL 1
REMARK minimizedAffinity 0.212665215
REMARK minimizedRMSD -1
REMARK  0 active torsions:
REMARK  status: ('A' for Active; 'I' for Inactive)
ROOT
ATOM      1  C4' PXY d   1       0.035   5.901   4.530  0.00  0.00     0.077 C 
ATOM      2  C1' PXY d   1       5.610   4.579   5.293  0.00  0.00     0.077 C 
ATOM      3  C1  PXY d   1       4.144   4.915   5.100  0.00  0.00    -0.082 A 
ATOM      4  C2  PXY d   1       3.774   5.659   4.070  0.00  0.00     0.003 A 
ATOM      5  C3  PXY d   1       2.457   6.000   3.898  0.00  0.00     0.003 A 
ATOM      6  C4  PXY d   1       1.502   5.529   4.759  0.00  0.00    -0.082 A 
ATOM      7  C5  PXY d   1       1.870   4.761   5.806  0.00  0.00     0.003 A 
ATOM      8  C6  PXY d   1       3.217   4.461   5.987  0.00  0.00     0.003 A 
ENDROOT
TORSDOF 0
ENDMDL
