MODEL 1
REMARK minimizedAffinity -0.780784488
REMARK minimizedRMSD -1
REMARK  0 active torsions:
REMARK  status: ('A' for Active; 'I' for Inactive)
ROOT
ATOM      1  C4' PXY d   1       4.876   3.527   3.600  0.00  0.00     0.077 C 
ATOM      2  C1' PXY d   1       0.232   5.994   5.999  0.00  0.00     0.077 C 
ATOM      3  C1  PXY d   1       1.452   5.341   5.381  0.00  0.00    -0.082 A 
ATOM      4  C2  PXY d   1       2.057   5.922   4.358  0.00  0.00     0.003 A 
ATOM      5  C3  PXY d   1       3.143   5.329   3.767  0.00  0.00     0.003 A 
ATOM      6  C4  PXY d   1       3.647   4.156   4.262  0.00  0.00    -0.082 A 
ATOM      7  C5  PXY d   1       3.041   3.562   5.312  0.00  0.00     0.003 A 
ATOM      8  C6  PXY d   1       1.916   4.160   5.872  0.00  0.00     0.003 A 
ENDROOT
TORSDOF 0
ENDMDL
