MODEL 1
REMARK minimizedAffinity 10.4000731
REMARK minimizedRMSD -1
REMARK  0 active torsions:
REMARK  status: ('A' for Active; 'I' for Inactive)
ROOT
ATOM      1  C4' PXY d   1       3.654   0.419  -0.730  0.00  0.00     0.077 C 
ATOM      2  C1' PXY d   1      -1.682   1.746   1.054  0.00  0.00     0.077 C 
ATOM      3  C1  PXY d   1      -0.279   1.396   0.599  0.00  0.00    -0.082 A 
ATOM      4  C2  PXY d   1       0.144   1.804  -0.587  0.00  0.00     0.003 A 
ATOM      5  C3  PXY d   1       1.399   1.470  -1.028  0.00  0.00     0.003 A 
ATOM      6  C4  PXY d   1       2.248   0.756  -0.225  0.00  0.00    -0.082 A 
ATOM      7  C5  PXY d   1       1.827   0.346   0.990  0.00  0.00     0.003 A 
ATOM      8  C6  PXY d   1       0.536   0.661   1.402  0.00  0.00     0.003 A 
ENDROOT
TORSDOF 0
ENDMDL
