MODEL 1
REMARK minimizedAffinity 0.64756918
REMARK minimizedRMSD -1
REMARK  0 active torsions:
REMARK  status: ('A' for Active; 'I' for Inactive)
ROOT
ATOM      1  C4' PXY d   1      -2.056   5.964   3.608  0.00  0.00     0.077 C 
ATOM      2  C1' PXY d   1       3.716   6.000   3.935  0.00  0.00     0.077 C 
ATOM      3  C1  PXY d   1       2.203   5.996   3.837  0.00  0.00    -0.082 A 
ATOM      4  C2  PXY d   1       1.476   5.986   4.943  0.00  0.00     0.003 A 
ATOM      5  C3  PXY d   1       0.107   5.950   4.873  0.00  0.00     0.003 A 
ATOM      6  C4  PXY d   1      -0.525   5.978   3.659  0.00  0.00    -0.082 A 
ATOM      7  C5  PXY d   1       0.209   6.000   2.526  0.00  0.00     0.003 A 
ATOM      8  C6  PXY d   1       1.598   5.994   2.619  0.00  0.00     0.003 A 
ENDROOT
TORSDOF 0
ENDMDL
