MODEL 1
REMARK minimizedAffinity 1.20901656
REMARK minimizedRMSD -1
REMARK  0 active torsions:
REMARK  status: ('A' for Active; 'I' for Inactive)
ROOT
ATOM      1  C4' PXY d   1       4.133   2.558   2.462  0.00  0.00     0.077 C 
ATOM      2  C1' PXY d   1       2.479  -1.739  -1.033  0.00  0.00     0.077 C 
ATOM      3  C1  PXY d   1       2.910  -0.604  -0.126  0.00  0.00    -0.082 A 
ATOM      4  C2  PXY d   1       3.808  -0.826   0.820  0.00  0.00     0.003 A 
ATOM      5  C3  PXY d   1       4.185   0.181   1.670  0.00  0.00     0.003 A 
ATOM      6  C4  PXY d   1       3.676   1.443   1.516  0.00  0.00    -0.082 A 
ATOM      7  C5  PXY d   1       2.767   1.681   0.547  0.00  0.00     0.003 A 
ATOM      8  C6  PXY d   1       2.367   0.635  -0.279  0.00  0.00     0.003 A 
ENDROOT
TORSDOF 0
ENDMDL
