MODEL 1
REMARK minimizedAffinity 1.23812973
REMARK minimizedRMSD -1
REMARK  0 active torsions:
REMARK  status: ('A' for Active; 'I' for Inactive)
ROOT
ATOM      1  C4' PXY d   1       5.163   2.278  -1.160  0.00  0.00     0.077 C 
ATOM      2  C1' PXY d   1       1.361  -1.827   0.289  0.00  0.00     0.077 C 
ATOM      3  C1  PXY d   1       2.348  -0.743  -0.094  0.00  0.00    -0.082 A 
ATOM      4  C2  PXY d   1       3.565  -1.076  -0.492  0.00  0.00     0.003 A 
ATOM      5  C3  PXY d   1       4.480  -0.107  -0.811  0.00  0.00     0.003 A 
ATOM      6  C4  PXY d   1       4.130   1.216  -0.773  0.00  0.00    -0.082 A 
ATOM      7  C5  PXY d   1       2.887   1.564  -0.378  0.00  0.00     0.003 A 
ATOM      8  C6  PXY d   1       1.986   0.567  -0.019  0.00  0.00     0.003 A 
ENDROOT
TORSDOF 0
ENDMDL
