MODEL 1
REMARK minimizedAffinity -4.73378277
REMARK minimizedRMSD -1
REMARK  0 active torsions:
REMARK  status: ('A' for Active; 'I' for Inactive)
ROOT
ATOM      1  C4' PXY d   1       4.728   2.998   5.261  0.00  0.00     0.077 C 
ATOM      2  C1' PXY d   1      -0.600   5.161   4.666  0.00  0.00     0.077 C 
ATOM      3  C1  PXY d   1       0.795   4.591   4.835  0.00  0.00    -0.082 A 
ATOM      4  C2  PXY d   1       1.761   4.973   4.015  0.00  0.00     0.003 A 
ATOM      5  C3  PXY d   1       3.020   4.444   4.133  0.00  0.00     0.003 A 
ATOM      6  C4  PXY d   1       3.307   3.554   5.134  0.00  0.00    -0.082 A 
ATOM      7  C5  PXY d   1       2.329   3.168   5.981  0.00  0.00     0.003 A 
ATOM      8  C6  PXY d   1       1.047   3.685   5.818  0.00  0.00     0.003 A 
ENDROOT
TORSDOF 0
ENDMDL
