MODEL 1
REMARK minimizedAffinity 2.87072039
REMARK minimizedRMSD -1
REMARK  0 active torsions:
REMARK  status: ('A' for Active; 'I' for Inactive)
ROOT
ATOM      1  C4' PXY d   1       0.452  -4.537  -0.202  0.00  0.00     0.077 C 
ATOM      2  C1' PXY d   1       3.615   0.300  -0.095  0.00  0.00     0.077 C 
ATOM      3  C1  PXY d   1       2.787  -0.969  -0.110  0.00  0.00    -0.082 A 
ATOM      4  C2  PXY d   1       2.727  -1.699  -1.212  0.00  0.00     0.003 A 
ATOM      5  C3  PXY d   1       1.958  -2.833  -1.253  0.00  0.00     0.003 A 
ATOM      6  C4  PXY d   1       1.284  -3.253  -0.138  0.00  0.00    -0.082 A 
ATOM      7  C5  PXY d   1       1.348  -2.520   0.994  0.00  0.00     0.003 A 
ATOM      8  C6  PXY d   1       2.102  -1.350   1.002  0.00  0.00     0.003 A 
ENDROOT
TORSDOF 0
ENDMDL
