MODEL 1
REMARK minimizedAffinity 5.00496912
REMARK minimizedRMSD -1
REMARK  0 active torsions:
REMARK  status: ('A' for Active; 'I' for Inactive)
ROOT
ATOM      1  C4' PXY d   1       4.499   5.999   4.086  0.00  0.00     0.077 C 
ATOM      2  C1' PXY d   1       3.048   0.741   6.000  0.00  0.00     0.077 C 
ATOM      3  C1  PXY d   1       3.416   2.125   5.501  0.00  0.00    -0.082 A 
ATOM      4  C2  PXY d   1       4.363   2.260   4.587  0.00  0.00     0.003 A 
ATOM      5  C3  PXY d   1       4.731   3.505   4.148  0.00  0.00     0.003 A 
ATOM      6  C4  PXY d   1       4.087   4.621   4.611  0.00  0.00    -0.082 A 
ATOM      7  C5  PXY d   1       3.113   4.491   5.536  0.00  0.00     0.003 A 
ATOM      8  C6  PXY d   1       2.782   3.221   5.999  0.00  0.00     0.003 A 
ENDROOT
TORSDOF 0
ENDMDL
