MODEL 1
REMARK minimizedAffinity 7.59878635
REMARK minimizedRMSD -1
REMARK  0 active torsions:
REMARK  status: ('A' for Active; 'I' for Inactive)
ROOT
ATOM      1  C4' PXY d   1      -1.867  -0.871   1.335  0.00  0.00     0.077 C 
ATOM      2  C1' PXY d   1       3.303  -2.134  -0.921  0.00  0.00     0.077 C 
ATOM      3  C1  PXY d   1       1.952  -1.801  -0.318  0.00  0.00    -0.082 A 
ATOM      4  C2  PXY d   1       0.851  -2.280  -0.873  0.00  0.00     0.003 A 
ATOM      5  C3  PXY d   1      -0.380  -1.963  -0.360  0.00  0.00     0.003 A 
ATOM      6  C4  PXY d   1      -0.482  -1.190   0.766  0.00  0.00    -0.082 A 
ATOM      7  C5  PXY d   1       0.637  -0.705   1.345  0.00  0.00     0.003 A 
ATOM      8  C6  PXY d   1       1.875  -1.006   0.784  0.00  0.00     0.003 A 
ENDROOT
TORSDOF 0
ENDMDL
