MODEL 1
REMARK minimizedAffinity -3.84464455
REMARK minimizedRMSD -1
REMARK  0 active torsions:
REMARK  status: ('A' for Active; 'I' for Inactive)
ROOT
ATOM      1  C   UNL d   1      -0.127  -3.409  -1.055  0.00  0.00    -0.002 A 
ATOM      2  C1  UNL d   1       0.435  -2.903  -2.219  0.00  0.00     0.010 A 
ATOM      3  C2  UNL d   1       0.621  -1.529  -2.379  0.00  0.00     0.041 A 
ATOM      4  C3  UNL d   1       0.230  -0.662  -1.340  0.00  0.00    -0.075 A 
ATOM      5  S   UNL d   1       0.362   1.057  -1.314  0.00  0.00     0.015 SA
ATOM      6  C4  UNL d   1      -0.324   1.161   0.243  0.00  0.00     0.022 A 
ATOM      7  C5  UNL d   1      -0.652  -0.076   0.746  0.00  0.00     0.026 A 
ATOM      8  C6  UNL d   1      -0.337  -1.147  -0.158  0.00  0.00    -0.082 A 
ATOM      9  C7  UNL d   1      -0.513  -2.546  -0.026  0.00  0.00     0.045 A 
ENDROOT
TORSDOF 0
ENDMDL
