MODEL 1
REMARK minimizedAffinity -1.89529264
REMARK minimizedRMSD -1
REMARK  0 active torsions:
REMARK  status: ('A' for Active; 'I' for Inactive)
ROOT
ATOM      1  C   UNL d   1       0.088  -3.414   0.605  0.00  0.00    -0.002 A 
ATOM      2  C1  UNL d   1       1.357  -3.162   0.103  0.00  0.00     0.010 A 
ATOM      3  C2  UNL d   1       1.737  -1.866  -0.249  0.00  0.00     0.041 A 
ATOM      4  C3  UNL d   1       0.812  -0.816  -0.084  0.00  0.00    -0.075 A 
ATOM      5  S   UNL d   1       1.057   0.852  -0.447  0.00  0.00     0.015 SA
ATOM      6  C4  UNL d   1      -0.517   1.269   0.057  0.00  0.00     0.022 A 
ATOM      7  C5  UNL d   1      -1.226   0.175   0.493  0.00  0.00     0.026 A 
ATOM      8  C6  UNL d   1      -0.472  -1.044   0.420  0.00  0.00    -0.082 A 
ATOM      9  C7  UNL d   1      -0.827  -2.370   0.766  0.00  0.00     0.045 A 
ENDROOT
TORSDOF 0
ENDMDL
