MODEL 1
REMARK minimizedAffinity -1.19757581
REMARK minimizedRMSD -1
REMARK  0 active torsions:
REMARK  status: ('A' for Active; 'I' for Inactive)
ROOT
ATOM      1  C   UNL d   1      -1.028  -1.882   1.743  0.00  0.00    -0.002 A 
ATOM      2  C1  UNL d   1      -0.615  -2.706   0.706  0.00  0.00     0.010 A 
ATOM      3  C2  UNL d   1      -0.093  -2.162  -0.469  0.00  0.00     0.041 A 
ATOM      4  C3  UNL d   1       0.011  -0.762  -0.584  0.00  0.00    -0.075 A 
ATOM      5  S   UNL d   1       0.621   0.128  -1.929  0.00  0.00     0.015 SA
ATOM      6  C4  UNL d   1       0.348   1.624  -1.159  0.00  0.00     0.022 A 
ATOM      7  C5  UNL d   1      -0.194   1.467   0.095  0.00  0.00     0.026 A 
ATOM      8  C6  UNL d   1      -0.397   0.089   0.447  0.00  0.00    -0.082 A 
ATOM      9  C7  UNL d   1      -0.924  -0.493   1.625  0.00  0.00     0.045 A 
ENDROOT
TORSDOF 0
ENDMDL
