MODEL 1
REMARK minimizedAffinity -2.19081187
REMARK minimizedRMSD -1
REMARK  0 active torsions:
REMARK  status: ('A' for Active; 'I' for Inactive)
ROOT
ATOM      1  C   UNL d   1      -1.270  -2.780   0.714  0.00  0.00    -0.002 A 
ATOM      2  C1  UNL d   1      -0.907  -3.185  -0.563  0.00  0.00     0.010 A 
ATOM      3  C2  UNL d   1      -0.364  -2.273  -1.470  0.00  0.00     0.041 A 
ATOM      4  C3  UNL d   1      -0.190  -0.934  -1.068  0.00  0.00    -0.075 A 
ATOM      5  S   UNL d   1       0.457   0.358  -2.010  0.00  0.00     0.015 SA
ATOM      6  C4  UNL d   1       0.267   1.478  -0.739  0.00  0.00     0.022 A 
ATOM      7  C5  UNL d   1      -0.276   0.898   0.383  0.00  0.00     0.026 A 
ATOM      8  C6  UNL d   1      -0.547  -0.502   0.212  0.00  0.00    -0.082 A 
ATOM      9  C7  UNL d   1      -1.095  -1.451   1.109  0.00  0.00     0.045 A 
ENDROOT
TORSDOF 0
ENDMDL
