MODEL 1
REMARK minimizedAffinity -3.92704606
REMARK minimizedRMSD -1
REMARK  0 active torsions:
REMARK  status: ('A' for Active; 'I' for Inactive)
ROOT
ATOM      1  C   UNL d   1      -0.275  -3.793  -0.380  0.00  0.00    -0.002 A 
ATOM      2  C1  UNL d   1       0.307  -3.260  -1.521  0.00  0.00     0.010 A 
ATOM      3  C2  UNL d   1       0.536  -1.887  -1.626  0.00  0.00     0.041 A 
ATOM      4  C3  UNL d   1       0.169  -1.050  -0.554  0.00  0.00    -0.075 A 
ATOM      5  S   UNL d   1       0.355   0.661  -0.459  0.00  0.00     0.015 SA
ATOM      6  C4  UNL d   1      -0.332   0.725   1.099  0.00  0.00     0.022 A 
ATOM      7  C5  UNL d   1      -0.701  -0.520   1.551  0.00  0.00     0.026 A 
ATOM      8  C6  UNL d   1      -0.417  -1.564   0.606  0.00  0.00    -0.082 A 
ATOM      9  C7  UNL d   1      -0.638  -2.960   0.682  0.00  0.00     0.045 A 
ENDROOT
TORSDOF 0
ENDMDL
