MODEL 1
REMARK minimizedAffinity -5.2295413
REMARK minimizedRMSD -1
REMARK  0 active torsions:
REMARK  status: ('A' for Active; 'I' for Inactive)
ROOT
ATOM      1  C   UNL d   1       0.019  -3.714  -0.139  0.00  0.00    -0.002 A 
ATOM      2  C1  UNL d   1       0.074  -3.640  -1.524  0.00  0.00     0.010 A 
ATOM      3  C2  UNL d   1       0.084  -2.402  -2.169  0.00  0.00     0.041 A 
ATOM      4  C3  UNL d   1       0.040  -1.228  -1.392  0.00  0.00    -0.075 A 
ATOM      5  S   UNL d   1       0.043   0.398  -1.965  0.00  0.00     0.015 SA
ATOM      6  C4  UNL d   1      -0.026   1.034  -0.385  0.00  0.00     0.022 A 
ATOM      7  C5  UNL d   1      -0.052   0.044   0.568  0.00  0.00     0.026 A 
ATOM      8  C6  UNL d   1      -0.014  -1.276   0.004  0.00  0.00    -0.082 A 
ATOM      9  C7  UNL d   1      -0.024  -2.547   0.628  0.00  0.00     0.045 A 
ENDROOT
TORSDOF 0
ENDMDL
