MODEL 1
REMARK minimizedAffinity -5.59418106
REMARK minimizedRMSD -1
REMARK  0 active torsions:
REMARK  status: ('A' for Active; 'I' for Inactive)
ROOT
ATOM      1  C   UNL d   1       0.010  -3.907  -0.179  0.00  0.00    -0.002 A 
ATOM      2  C1  UNL d   1       0.534  -3.465  -1.385  0.00  0.00     0.010 A 
ATOM      3  C2  UNL d   1       0.499  -2.111  -1.721  0.00  0.00     0.041 A 
ATOM      4  C3  UNL d   1      -0.076  -1.198  -0.814  0.00  0.00    -0.075 A 
ATOM      5  S   UNL d   1      -0.228   0.508  -1.012  0.00  0.00     0.015 SA
ATOM      6  C4  UNL d   1      -0.991   0.690   0.500  0.00  0.00     0.022 A 
ATOM      7  C5  UNL d   1      -1.135  -0.511   1.154  0.00  0.00     0.026 A 
ATOM      8  C6  UNL d   1      -0.609  -1.619   0.407  0.00  0.00    -0.082 A 
ATOM      9  C7  UNL d   1      -0.559  -2.999   0.718  0.00  0.00     0.045 A 
ENDROOT
TORSDOF 0
ENDMDL
