MODEL 1
REMARK minimizedAffinity -3.19530654
REMARK minimizedRMSD -1
REMARK  0 active torsions:
REMARK  status: ('A' for Active; 'I' for Inactive)
ROOT
ATOM      1  C   UNL d   1      -0.162  -3.626  -1.216  0.00  0.00    -0.002 A 
ATOM      2  C1  UNL d   1       0.221  -2.743  -2.216  0.00  0.00     0.010 A 
ATOM      3  C2  UNL d   1       0.292  -1.372  -1.963  0.00  0.00     0.041 A 
ATOM      4  C3  UNL d   1      -0.030  -0.898  -0.676  0.00  0.00    -0.075 A 
ATOM      5  S   UNL d   1      -0.013   0.740  -0.137  0.00  0.00     0.015 SA
ATOM      6  C4  UNL d   1      -0.513   0.306   1.433  0.00  0.00     0.022 A 
ATOM      7  C5  UNL d   1      -0.694  -1.051   1.561  0.00  0.00     0.026 A 
ATOM      8  C6  UNL d   1      -0.418  -1.767   0.347  0.00  0.00    -0.082 A 
ATOM      9  C7  UNL d   1      -0.481  -3.152   0.060  0.00  0.00     0.045 A 
ENDROOT
TORSDOF 0
ENDMDL
