MODEL 1
REMARK minimizedAffinity 1.09561336
REMARK minimizedRMSD -1
REMARK  0 active torsions:
REMARK  status: ('A' for Active; 'I' for Inactive)
ROOT
ATOM      1  C   UNL d   1       0.013  -2.449   1.282  0.00  0.00    -0.002 A 
ATOM      2  C1  UNL d   1       0.052  -2.886  -0.034  0.00  0.00     0.010 A 
ATOM      3  C2  UNL d   1       0.054  -1.969  -1.087  0.00  0.00     0.041 A 
ATOM      4  C3  UNL d   1       0.019  -0.592  -0.792  0.00  0.00    -0.075 A 
ATOM      5  S   UNL d   1       0.016   0.713  -1.919  0.00  0.00     0.015 SA
ATOM      6  C4  UNL d   1      -0.035   1.881  -0.680  0.00  0.00     0.022 A 
ATOM      7  C5  UNL d   1      -0.050   1.308   0.570  0.00  0.00     0.026 A 
ATOM      8  C6  UNL d   1      -0.019  -0.127   0.525  0.00  0.00    -0.082 A 
ATOM      9  C7  UNL d   1      -0.021  -1.082   1.571  0.00  0.00     0.045 A 
ENDROOT
TORSDOF 0
ENDMDL
