MODEL 1
REMARK minimizedAffinity -4.87321281
REMARK minimizedRMSD -1
REMARK  1 active torsions:
REMARK  status: ('A' for Active; 'I' for Inactive)
REMARK    1  A    between atoms: C1_2  and  C2_3 
ROOT
ATOM      1  C2  UNL d   1      -0.256   0.197   0.303  0.00  0.00    -0.077 A 
ATOM      2  C3  UNL d   1       0.848   0.234   1.167  0.00  0.00     0.002 A 
ATOM      3  C4  UNL d   1       0.692  -0.053   2.524  0.00  0.00     0.002 A 
ATOM      4  C5  UNL d   1      -0.564  -0.382   3.029  0.00  0.00    -0.004 A 
ATOM      5  C6  UNL d   1      -1.668  -0.418   2.179  0.00  0.00     0.002 A 
ATOM      6  C7  UNL d   1      -1.515  -0.131   0.822  0.00  0.00     0.002 A 
ENDROOT
BRANCH   1   7
ATOM      7  C1  UNL d   1      -0.082   0.458  -1.170  0.00  0.00     0.055 C 
ATOM      8  C   UNL d   1       0.710  -0.656  -1.840  0.00  0.00     0.019 C 
ENDBRANCH   1   7
TORSDOF 1
ENDMDL
