MODEL 1
REMARK minimizedAffinity -6.0251894
REMARK minimizedRMSD -1
REMARK  1 active torsions:
REMARK  status: ('A' for Active; 'I' for Inactive)
REMARK    1  A    between atoms: C1_2  and  C2_3 
ROOT
ATOM      1  C2  UNL d   1      -0.664  -0.304   0.743  0.00  0.00    -0.077 A 
ATOM      2  C3  UNL d   1      -0.251  -0.456   2.074  0.00  0.00     0.002 A 
ATOM      3  C4  UNL d   1      -1.096  -0.085   3.122  0.00  0.00     0.002 A 
ATOM      4  C5  UNL d   1      -2.360   0.435   2.850  0.00  0.00    -0.004 A 
ATOM      5  C6  UNL d   1      -2.778   0.592   1.529  0.00  0.00     0.002 A 
ATOM      6  C7  UNL d   1      -1.935   0.224   0.481  0.00  0.00     0.002 A 
ENDROOT
BRANCH   1   7
ATOM      7  C1  UNL d   1       0.227  -0.748  -0.388  0.00  0.00     0.055 C 
ATOM      8  C   UNL d   1       0.368   0.340  -1.442  0.00  0.00     0.019 C 
ENDBRANCH   1   7
TORSDOF 1
ENDMDL
