MODEL 1
REMARK minimizedAffinity -4.25898886
REMARK minimizedRMSD -1
REMARK  1 active torsions:
REMARK  status: ('A' for Active; 'I' for Inactive)
REMARK    1  A    between atoms: C1_2  and  C2_3 
ROOT
ATOM      1  C2  UNL d   1       0.214   0.255  -0.406  0.00  0.00    -0.077 A 
ATOM      2  C3  UNL d   1      -0.882  -0.257   0.303  0.00  0.00     0.002 A 
ATOM      3  C4  UNL d   1      -0.791  -0.482   1.678  0.00  0.00     0.002 A 
ATOM      4  C5  UNL d   1       0.392  -0.194   2.356  0.00  0.00    -0.004 A 
ATOM      5  C6  UNL d   1       1.488   0.313   1.659  0.00  0.00     0.002 A 
ATOM      6  C7  UNL d   1       1.399   0.538   0.285  0.00  0.00     0.002 A 
ENDROOT
BRANCH   1   7
ATOM      7  C1  UNL d   1       0.101   0.545  -1.880  0.00  0.00     0.055 C 
ATOM      8  C   UNL d   1       0.934  -0.429  -2.701  0.00  0.00     0.019 C 
ENDBRANCH   1   7
TORSDOF 1
ENDMDL
