MODEL 1
REMARK minimizedAffinity -3.81827283
REMARK minimizedRMSD -1
REMARK  1 active torsions:
REMARK  status: ('A' for Active; 'I' for Inactive)
REMARK    1  A    between atoms: C1_2  and  C2_3 
ROOT
ATOM      1  C2  UNL d   1      -0.592  -0.022   1.485  0.00  0.00    -0.077 A 
ATOM      2  C3  UNL d   1       0.615   0.218   0.813  0.00  0.00     0.002 A 
ATOM      3  C4  UNL d   1       0.622   0.464  -0.561  0.00  0.00     0.002 A 
ATOM      4  C5  UNL d   1      -0.575   0.475  -1.275  0.00  0.00    -0.004 A 
ATOM      5  C6  UNL d   1      -1.781   0.235  -0.616  0.00  0.00     0.002 A 
ATOM      6  C7  UNL d   1      -1.789  -0.012   0.758  0.00  0.00     0.002 A 
ENDROOT
BRANCH   1   7
ATOM      7  C1  UNL d   1      -0.606  -0.239   2.975  0.00  0.00     0.055 C 
ATOM      8  C   UNL d   1      -2.006  -0.068   3.546  0.00  0.00     0.019 C 
ENDBRANCH   1   7
TORSDOF 1
ENDMDL
