MODEL 1
REMARK minimizedAffinity -5.3585186
REMARK minimizedRMSD -1
REMARK  1 active torsions:
REMARK  status: ('A' for Active; 'I' for Inactive)
REMARK    1  A    between atoms: C1_2  and  C2_3 
ROOT
ATOM      1  C2  UNL d   1      -0.540   0.251   0.725  0.00  0.00    -0.077 A 
ATOM      2  C3  UNL d   1      -1.926   0.370   0.896  0.00  0.00     0.002 A 
ATOM      3  C4  UNL d   1      -2.516   0.064   2.124  0.00  0.00     0.002 A 
ATOM      4  C5  UNL d   1      -1.726  -0.360   3.191  0.00  0.00    -0.004 A 
ATOM      5  C6  UNL d   1      -0.347  -0.483   3.031  0.00  0.00     0.002 A 
ATOM      6  C7  UNL d   1       0.244  -0.179   1.804  0.00  0.00     0.002 A 
ENDROOT
BRANCH   1   7
ATOM      7  C1  UNL d   1       0.104   0.628  -0.583  0.00  0.00     0.055 C 
ATOM      8  C   UNL d   1      -0.884   1.331  -1.503  0.00  0.00     0.019 C 
ENDBRANCH   1   7
TORSDOF 1
ENDMDL
