MODEL 1
REMARK minimizedAffinity -6.1708231
REMARK minimizedRMSD -1
REMARK  1 active torsions:
REMARK  status: ('A' for Active; 'I' for Inactive)
REMARK    1  A    between atoms: C1_2  and  C2_3 
ROOT
ATOM      1  C2  UNL d   1      -0.712  -0.236   0.700  0.00  0.00    -0.077 A 
ATOM      2  C3  UNL d   1      -2.021   0.223   0.492  0.00  0.00     0.002 A 
ATOM      3  C4  UNL d   1      -2.930   0.268   1.551  0.00  0.00     0.002 A 
ATOM      4  C5  UNL d   1      -2.540  -0.141   2.825  0.00  0.00    -0.004 A 
ATOM      5  C6  UNL d   1      -1.241  -0.601   3.041  0.00  0.00     0.002 A 
ATOM      6  C7  UNL d   1      -0.332  -0.647   1.984  0.00  0.00     0.002 A 
ENDROOT
BRANCH   1   7
ATOM      7  C1  UNL d   1       0.284  -0.239  -0.429  0.00  0.00     0.055 C 
ATOM      8  C   UNL d   1       0.004   0.884  -1.418  0.00  0.00     0.019 C 
ENDBRANCH   1   7
TORSDOF 1
ENDMDL
