MODEL 1
REMARK minimizedAffinity -5.28661203
REMARK minimizedRMSD -1
REMARK  1 active torsions:
REMARK  status: ('A' for Active; 'I' for Inactive)
REMARK    1  A    between atoms: C1_2  and  C2_3 
ROOT
ATOM      1  C2  UNL d   1      -1.250   0.001   1.946  0.00  0.00    -0.077 A 
ATOM      2  C3  UNL d   1      -0.036  -0.100   2.641  0.00  0.00     0.002 A 
ATOM      3  C4  UNL d   1       1.178  -0.040   1.954  0.00  0.00     0.002 A 
ATOM      4  C5  UNL d   1       1.190   0.128   0.571  0.00  0.00    -0.004 A 
ATOM      5  C6  UNL d   1      -0.011   0.228  -0.129  0.00  0.00     0.002 A 
ATOM      6  C7  UNL d   1      -1.226   0.166   0.555  0.00  0.00     0.002 A 
ENDROOT
BRANCH   1   7
ATOM      7  C1  UNL d   1      -2.559  -0.015   2.691  0.00  0.00     0.055 C 
ATOM      8  C   UNL d   1      -3.732   0.229   1.753  0.00  0.00     0.019 C 
ENDBRANCH   1   7
TORSDOF 1
ENDMDL
