MODEL 1
REMARK minimizedAffinity -5.27220964
REMARK minimizedRMSD -1
REMARK  1 active torsions:
REMARK  status: ('A' for Active; 'I' for Inactive)
REMARK    1  A    between atoms: C1_2  and  C2_3 
ROOT
ATOM      1  C2  UNL d   1      -1.052   0.245   1.666  0.00  0.00    -0.077 A 
ATOM      2  C3  UNL d   1       0.030   0.354   2.551  0.00  0.00     0.002 A 
ATOM      3  C4  UNL d   1       1.333   0.472   2.062  0.00  0.00     0.002 A 
ATOM      4  C5  UNL d   1       1.565   0.485   0.688  0.00  0.00    -0.004 A 
ATOM      5  C6  UNL d   1       0.496   0.375  -0.200  0.00  0.00     0.002 A 
ATOM      6  C7  UNL d   1      -0.807   0.256   0.287  0.00  0.00     0.002 A 
ENDROOT
BRANCH   1   7
ATOM      7  C1  UNL d   1      -2.462   0.168   2.190  0.00  0.00     0.055 C 
ATOM      8  C   UNL d   1      -3.217   1.465   1.940  0.00  0.00     0.019 C 
ENDBRANCH   1   7
TORSDOF 1
ENDMDL
