MODEL 1
REMARK minimizedAffinity -5.23062897
REMARK minimizedRMSD -1
REMARK  1 active torsions:
REMARK  status: ('A' for Active; 'I' for Inactive)
REMARK    1  A    between atoms: C1_2  and  C2_3 
ROOT
ATOM      1  C2  UNL d   1      -2.502   1.514   2.785  0.00  0.00    -0.077 A 
ATOM      2  C3  UNL d   1      -1.340   1.282   3.534  0.00  0.00     0.002 A 
ATOM      3  C4  UNL d   1      -0.609   0.105   3.357  0.00  0.00     0.002 A 
ATOM      4  C5  UNL d   1      -1.031  -0.846   2.431  0.00  0.00    -0.004 A 
ATOM      5  C6  UNL d   1      -2.187  -0.626   1.683  0.00  0.00     0.002 A 
ATOM      6  C7  UNL d   1      -2.919   0.550   1.859  0.00  0.00     0.002 A 
ENDROOT
BRANCH   1   7
ATOM      7  C1  UNL d   1      -3.264   2.805   2.939  0.00  0.00     0.055 C 
ATOM      8  C   UNL d   1      -2.396   3.889   3.560  0.00  0.00     0.019 C 
ENDBRANCH   1   7
TORSDOF 1
ENDMDL
