MODEL 1
REMARK minimizedAffinity -5.4833498
REMARK minimizedRMSD -1
REMARK  1 active torsions:
REMARK  status: ('A' for Active; 'I' for Inactive)
REMARK    1  A    between atoms: C1_2  and  C2_3 
ROOT
ATOM      1  C2  UNL d   1      -0.170  -0.029   0.873  0.00  0.00    -0.077 A 
ATOM      2  C3  UNL d   1       0.496  -0.568   1.982  0.00  0.00     0.002 A 
ATOM      3  C4  UNL d   1      -0.220  -0.958   3.115  0.00  0.00     0.002 A 
ATOM      4  C5  UNL d   1      -1.606  -0.818   3.148  0.00  0.00    -0.004 A 
ATOM      5  C6  UNL d   1      -2.278  -0.282   2.050  0.00  0.00     0.002 A 
ATOM      6  C7  UNL d   1      -1.563   0.111   0.917  0.00  0.00     0.002 A 
ENDROOT
BRANCH   1   7
ATOM      7  C1  UNL d   1       0.596   0.348  -0.369  0.00  0.00     0.055 C 
ATOM      8  C   UNL d   1      -0.289   0.282  -1.605  0.00  0.00     0.019 C 
ENDBRANCH   1   7
TORSDOF 1
ENDMDL
