MODEL 1
REMARK minimizedAffinity -5.9352603
REMARK minimizedRMSD -1
REMARK  1 active torsions:
REMARK  status: ('A' for Active; 'I' for Inactive)
REMARK    1  A    between atoms: C1_2  and  C2_3 
ROOT
ATOM      1  C2  UNL d   1      -0.757   0.003   0.555  0.00  0.00    -0.077 A 
ATOM      2  C3  UNL d   1      -2.051  -0.012   1.094  0.00  0.00     0.002 A 
ATOM      3  C4  UNL d   1      -2.245  -0.236   2.458  0.00  0.00     0.002 A 
ATOM      4  C5  UNL d   1      -1.150  -0.443   3.295  0.00  0.00    -0.004 A 
ATOM      5  C6  UNL d   1       0.141  -0.432   2.768  0.00  0.00     0.002 A 
ATOM      6  C7  UNL d   1       0.336  -0.210   1.404  0.00  0.00     0.002 A 
ENDROOT
BRANCH   1   7
ATOM      7  C1  UNL d   1      -0.543   0.293  -0.908  0.00  0.00     0.055 C 
ATOM      8  C   UNL d   1       0.914   0.096  -1.304  0.00  0.00     0.019 C 
ENDBRANCH   1   7
TORSDOF 1
ENDMDL
