MODEL 1
REMARK minimizedAffinity -2.67171621
REMARK minimizedRMSD -1
REMARK  1 active torsions:
REMARK  status: ('A' for Active; 'I' for Inactive)
REMARK    1  A    between atoms: C1_2  and  C2_3 
ROOT
ATOM      1  C2  UNL d   1       0.484   0.301  -0.156  0.00  0.00    -0.077 A 
ATOM      2  C3  UNL d   1      -0.562   0.473   0.762  0.00  0.00     0.002 A 
ATOM      3  C4  UNL d   1      -0.305   0.469   2.134  0.00  0.00     0.002 A 
ATOM      4  C5  UNL d   1       0.996   0.297   2.601  0.00  0.00    -0.004 A 
ATOM      5  C6  UNL d   1       2.043   0.124   1.696  0.00  0.00     0.002 A 
ATOM      6  C7  UNL d   1       1.788   0.126   0.324  0.00  0.00     0.002 A 
ENDROOT
BRANCH   1   7
ATOM      7  C1  UNL d   1       0.217   0.355  -1.637  0.00  0.00     0.055 C 
ATOM      8  C   UNL d   1       0.713  -0.903  -2.336  0.00  0.00     0.019 C 
ENDBRANCH   1   7
TORSDOF 1
ENDMDL
