MODEL 1
REMARK minimizedAffinity 16.0008011
REMARK minimizedRMSD -1
REMARK  0 active torsions:
REMARK  status: ('A' for Active; 'I' for Inactive)
ROOT
ATOM      1  C4' PXY d   1      -5.066   3.817   6.000  0.00  0.00     0.077 C 
ATOM      2  C1' PXY d   1      -4.774  -0.768   2.492  0.00  0.00     0.077 C 
ATOM      3  C1  PXY d   1      -4.862   0.429   3.417  0.00  0.00    -0.082 A 
ATOM      4  C2  PXY d   1      -4.282   1.567   3.071  0.00  0.00     0.003 A 
ATOM      5  C3  PXY d   1      -4.324   2.650   3.910  0.00  0.00     0.003 A 
ATOM      6  C4  PXY d   1      -5.011   2.585   5.092  0.00  0.00    -0.082 A 
ATOM      7  C5  PXY d   1      -5.615   1.431   5.448  0.00  0.00     0.003 A 
ATOM      8  C6  PXY d   1      -5.526   0.330   4.601  0.00  0.00     0.003 A 
ENDROOT
TORSDOF 0
ENDMDL
