MODEL 1
REMARK minimizedAffinity 9.78404617
REMARK minimizedRMSD -1
REMARK  0 active torsions:
REMARK  status: ('A' for Active; 'I' for Inactive)
ROOT
ATOM      1  C4' PXY d   1       3.590   1.335  -2.403  0.00  0.00     0.077 C 
ATOM      2  C1' PXY d   1       1.353   1.124   2.922  0.00  0.00     0.077 C 
ATOM      3  C1  PXY d   1       1.949   1.171   1.529  0.00  0.00    -0.082 A 
ATOM      4  C2  PXY d   1       1.776   2.247   0.779  0.00  0.00     0.003 A 
ATOM      5  C3  PXY d   1       2.281   2.293  -0.495  0.00  0.00     0.003 A 
ATOM      6  C4  PXY d   1       3.015   1.248  -0.987  0.00  0.00    -0.082 A 
ATOM      7  C5  PXY d   1       3.205   0.150  -0.224  0.00  0.00     0.003 A 
ATOM      8  C6  PXY d   1       2.649   0.107   1.051  0.00  0.00     0.003 A 
ENDROOT
TORSDOF 0
ENDMDL
