MODEL 1
REMARK minimizedAffinity 9.15184784
REMARK minimizedRMSD -1
REMARK  0 active torsions:
REMARK  status: ('A' for Active; 'I' for Inactive)
ROOT
ATOM      1  C4' PXY d   1      -6.000  -0.734   6.000  0.00  0.00     0.077 C 
ATOM      2  C1' PXY d   1      -3.636   3.140   2.419  0.00  0.00     0.077 C 
ATOM      3  C1  PXY d   1      -4.253   2.131   3.368  0.00  0.00    -0.082 A 
ATOM      4  C2  PXY d   1      -4.327   0.859   3.013  0.00  0.00     0.003 A 
ATOM      5  C3  PXY d   1      -4.911  -0.061   3.846  0.00  0.00     0.003 A 
ATOM      6  C4  PXY d   1      -5.376   0.317   5.077  0.00  0.00    -0.082 A 
ATOM      7  C5  PXY d   1      -5.295   1.611   5.451  0.00  0.00     0.003 A 
ATOM      8  C6  PXY d   1      -4.736   2.537   4.574  0.00  0.00     0.003 A 
ENDROOT
TORSDOF 0
ENDMDL
