MODEL 1
REMARK minimizedAffinity 2.16722465
REMARK minimizedRMSD -1
REMARK  0 active torsions:
REMARK  status: ('A' for Active; 'I' for Inactive)
ROOT
ATOM      1  C4' PXY d   1       4.136   1.081  -3.174  0.00  0.00     0.077 C 
ATOM      2  C1' PXY d   1       5.426   5.957  -5.997  0.00  0.00     0.077 C 
ATOM      3  C1  PXY d   1       5.075   4.682  -5.257  0.00  0.00    -0.082 A 
ATOM      4  C2  PXY d   1       6.000   4.068  -4.536  0.00  0.00     0.003 A 
ATOM      5  C3  PXY d   1       5.708   2.896  -3.886  0.00  0.00     0.003 A 
ATOM      6  C4  PXY d   1       4.443   2.376  -3.931  0.00  0.00    -0.082 A 
ATOM      7  C5  PXY d   1       3.491   3.002  -4.655  0.00  0.00     0.003 A 
ATOM      8  C6  PXY d   1       3.818   4.168  -5.341  0.00  0.00     0.003 A 
ENDROOT
TORSDOF 0
ENDMDL
