MODEL 1
REMARK minimizedAffinity 14.3445845
REMARK minimizedRMSD -1
REMARK  0 active torsions:
REMARK  status: ('A' for Active; 'I' for Inactive)
ROOT
ATOM      1  C4' PXY d   1       3.961  -0.249   1.926  0.00  0.00     0.077 C 
ATOM      2  C1' PXY d   1      -0.160   3.798   1.698  0.00  0.00     0.077 C 
ATOM      3  C1  PXY d   1       0.917   2.734   1.770  0.00  0.00    -0.082 A 
ATOM      4  C2  PXY d   1       1.961   2.804   0.960  0.00  0.00     0.003 A 
ATOM      5  C3  PXY d   1       2.929   1.833   0.989  0.00  0.00     0.003 A 
ATOM      6  C4  PXY d   1       2.854   0.808   1.895  0.00  0.00    -0.082 A 
ATOM      7  C5  PXY d   1       1.798   0.736   2.732  0.00  0.00     0.003 A 
ATOM      8  C6  PXY d   1       0.805   1.709   2.658  0.00  0.00     0.003 A 
ENDROOT
TORSDOF 0
ENDMDL
