MODEL 1
REMARK minimizedAffinity 11.8606777
REMARK minimizedRMSD -1
REMARK  0 active torsions:
REMARK  status: ('A' for Active; 'I' for Inactive)
ROOT
ATOM      1  C4' PXY d   1       4.000   0.743  -5.240  0.00  0.00     0.077 C 
ATOM      2  C1' PXY d   1       1.794   5.999  -4.279  0.00  0.00     0.077 C 
ATOM      3  C1  PXY d   1       2.372   4.623  -4.544  0.00  0.00    -0.082 A 
ATOM      4  C2  PXY d   1       2.261   3.678  -3.624  0.00  0.00     0.003 A 
ATOM      5  C3  PXY d   1       2.805   2.438  -3.834  0.00  0.00     0.003 A 
ATOM      6  C4  PXY d   1       3.424   2.144  -5.019  0.00  0.00    -0.082 A 
ATOM      7  C5  PXY d   1       3.532   3.099  -5.968  0.00  0.00     0.003 A 
ATOM      8  C6  PXY d   1       3.009   4.365  -5.718  0.00  0.00     0.003 A 
ENDROOT
TORSDOF 0
ENDMDL
