MODEL 1
REMARK minimizedAffinity 6.91671324
REMARK minimizedRMSD -1
REMARK  0 active torsions:
REMARK  status: ('A' for Active; 'I' for Inactive)
ROOT
ATOM      1  C4' PXY d   1      -3.919  -5.992  -2.298  0.00  0.00     0.077 C 
ATOM      2  C1' PXY d   1      -1.935  -5.937   3.131  0.00  0.00     0.077 C 
ATOM      3  C1  PXY d   1      -2.466  -5.957   1.711  0.00  0.00    -0.082 A 
ATOM      4  C2  PXY d   1      -1.619  -5.953   0.695  0.00  0.00     0.003 A 
ATOM      5  C3  PXY d   1      -2.082  -5.939  -0.595  0.00  0.00     0.003 A 
ATOM      6  C4  PXY d   1      -3.427  -5.982  -0.848  0.00  0.00    -0.082 A 
ATOM      7  C5  PXY d   1      -4.298  -5.997   0.183  0.00  0.00     0.003 A 
ATOM      8  C6  PXY d   1      -3.808  -5.970   1.485  0.00  0.00     0.003 A 
ENDROOT
TORSDOF 0
ENDMDL
