MODEL 1
REMARK minimizedAffinity 11.7991886
REMARK minimizedRMSD -1
REMARK  0 active torsions:
REMARK  status: ('A' for Active; 'I' for Inactive)
ROOT
ATOM      1  C4' PXY d   1      -5.999  -2.541  -5.069  0.00  0.00     0.077 C 
ATOM      2  C1' PXY d   1      -3.141  -6.000  -1.425  0.00  0.00     0.077 C 
ATOM      3  C1  PXY d   1      -3.883  -5.083  -2.377  0.00  0.00    -0.082 A 
ATOM      4  C2  PXY d   1      -5.121  -5.378  -2.738  0.00  0.00     0.003 A 
ATOM      5  C3  PXY d   1      -5.795  -4.577  -3.624  0.00  0.00     0.003 A 
ATOM      6  C4  PXY d   1      -5.215  -3.433  -4.102  0.00  0.00    -0.082 A 
ATOM      7  C5  PXY d   1      -3.957  -3.119  -3.730  0.00  0.00     0.003 A 
ATOM      8  C6  PXY d   1      -3.274  -3.967  -2.863  0.00  0.00     0.003 A 
ENDROOT
TORSDOF 0
ENDMDL
