MODEL 1
REMARK minimizedAffinity 6.23994732
REMARK minimizedRMSD -1
REMARK  0 active torsions:
REMARK  status: ('A' for Active; 'I' for Inactive)
ROOT
ATOM      1  C4' PXY d   1       1.992   4.256   1.496  0.00  0.00     0.077 C 
ATOM      2  C1' PXY d   1       0.884  -0.327   4.840  0.00  0.00     0.077 C 
ATOM      3  C1  PXY d   1       1.163   0.874   3.958  0.00  0.00    -0.082 A 
ATOM      4  C2  PXY d   1       2.411   1.181   3.646  0.00  0.00     0.003 A 
ATOM      5  C3  PXY d   1       2.683   2.282   2.876  0.00  0.00     0.003 A 
ATOM      6  C4  PXY d   1       1.663   3.047   2.376  0.00  0.00    -0.082 A 
ATOM      7  C5  PXY d   1       0.386   2.733   2.680  0.00  0.00     0.003 A 
ATOM      8  C6  PXY d   1       0.133   1.635   3.497  0.00  0.00     0.003 A 
ENDROOT
TORSDOF 0
ENDMDL
