MODEL 1
REMARK minimizedAffinity 18.1757317
REMARK minimizedRMSD -1
REMARK  0 active torsions:
REMARK  status: ('A' for Active; 'I' for Inactive)
ROOT
ATOM      1  C4' PXY d   1       4.618   0.001  -4.805  0.00  0.00     0.077 C 
ATOM      2  C1' PXY d   1       1.512   4.812  -4.017  0.00  0.00     0.077 C 
ATOM      3  C1  PXY d   1       2.332   3.552  -4.212  0.00  0.00    -0.082 A 
ATOM      4  C2  PXY d   1       2.543   3.092  -5.435  0.00  0.00     0.003 A 
ATOM      5  C3  PXY d   1       3.256   1.937  -5.628  0.00  0.00     0.003 A 
ATOM      6  C4  PXY d   1       3.804   1.274  -4.561  0.00  0.00    -0.082 A 
ATOM      7  C5  PXY d   1       3.602   1.744  -3.312  0.00  0.00     0.003 A 
ATOM      8  C6  PXY d   1       2.841   2.895  -3.135  0.00  0.00     0.003 A 
ENDROOT
TORSDOF 0
ENDMDL
