MODEL 1
REMARK minimizedAffinity 13.2977676
REMARK minimizedRMSD -1
REMARK  0 active torsions:
REMARK  status: ('A' for Active; 'I' for Inactive)
ROOT
ATOM      1  C4' PXY d   1      -1.537  -1.357  -2.682  0.00  0.00     0.077 C 
ATOM      2  C1' PXY d   1      -1.530  -4.002   2.458  0.00  0.00     0.077 C 
ATOM      3  C1  PXY d   1      -1.519  -3.306   1.111  0.00  0.00    -0.082 A 
ATOM      4  C2  PXY d   1      -2.641  -2.794   0.630  0.00  0.00     0.003 A 
ATOM      5  C3  PXY d   1      -2.655  -2.190  -0.600  0.00  0.00     0.003 A 
ATOM      6  C4  PXY d   1      -1.499  -2.060  -1.322  0.00  0.00    -0.082 A 
ATOM      7  C5  PXY d   1      -0.349  -2.570  -0.834  0.00  0.00     0.003 A 
ATOM      8  C6  PXY d   1      -0.364  -3.217   0.399  0.00  0.00     0.003 A 
ENDROOT
TORSDOF 0
ENDMDL
