MODEL 1
REMARK minimizedAffinity 23.4509106
REMARK minimizedRMSD -1
REMARK  0 active torsions:
REMARK  status: ('A' for Active; 'I' for Inactive)
ROOT
ATOM      1  C4' PXY d   1      -3.777  -6.000  -0.036  0.00  0.00     0.077 C 
ATOM      2  C1' PXY d   1      -5.121  -3.101  -4.853  0.00  0.00     0.077 C 
ATOM      3  C1  PXY d   1      -4.781  -3.865  -3.589  0.00  0.00    -0.082 A 
ATOM      4  C2  PXY d   1      -3.704  -3.535  -2.895  0.00  0.00     0.003 A 
ATOM      5  C3  PXY d   1      -3.364  -4.235  -1.766  0.00  0.00     0.003 A 
ATOM      6  C4  PXY d   1      -4.164  -5.250  -1.314  0.00  0.00    -0.082 A 
ATOM      7  C5  PXY d   1      -5.271  -5.586  -2.010  0.00  0.00     0.003 A 
ATOM      8  C6  PXY d   1      -5.576  -4.889  -3.176  0.00  0.00     0.003 A 
ENDROOT
TORSDOF 0
ENDMDL
