MODEL 1
REMARK minimizedAffinity 23.1162148
REMARK minimizedRMSD -1
REMARK  0 active torsions:
REMARK  status: ('A' for Active; 'I' for Inactive)
ROOT
ATOM      1  C4' PXY d   1      -2.458  -2.618  -1.110  0.00  0.00     0.077 C 
ATOM      2  C1' PXY d   1      -1.867  -6.000   3.541  0.00  0.00     0.077 C 
ATOM      3  C1  PXY d   1      -2.017  -5.103   2.328  0.00  0.00    -0.082 A 
ATOM      4  C2  PXY d   1      -2.868  -5.435   1.370  0.00  0.00     0.003 A 
ATOM      5  C3  PXY d   1      -2.993  -4.652   0.252  0.00  0.00     0.003 A 
ATOM      6  C4  PXY d   1      -2.280  -3.489   0.137  0.00  0.00    -0.082 A 
ATOM      7  C5  PXY d   1      -1.418  -3.137   1.115  0.00  0.00     0.003 A 
ATOM      8  C6  PXY d   1      -1.275  -3.967   2.223  0.00  0.00     0.003 A 
ENDROOT
TORSDOF 0
ENDMDL
