MODEL 1
REMARK minimizedAffinity 13.1126471
REMARK minimizedRMSD -1
REMARK  0 active torsions:
REMARK  status: ('A' for Active; 'I' for Inactive)
ROOT
ATOM      1  C4' PXY d   1       2.338   3.476  -0.672  0.00  0.00     0.077 C 
ATOM      2  C1' PXY d   1       4.326  -0.012  -4.830  0.00  0.00     0.077 C 
ATOM      3  C1  PXY d   1       3.801   0.912  -3.749  0.00  0.00    -0.082 A 
ATOM      4  C2  PXY d   1       4.245   0.785  -2.509  0.00  0.00     0.003 A 
ATOM      5  C3  PXY d   1       3.758   1.591  -1.512  0.00  0.00     0.003 A 
ATOM      6  C4  PXY d   1       2.846   2.572  -1.798  0.00  0.00    -0.082 A 
ATOM      7  C5  PXY d   1       2.396   2.714  -3.062  0.00  0.00     0.003 A 
ATOM      8  C6  PXY d   1       2.873   1.859  -4.052  0.00  0.00     0.003 A 
ENDROOT
TORSDOF 0
ENDMDL
