MODEL 1
REMARK minimizedAffinity 5.58777332
REMARK minimizedRMSD -1
REMARK  0 active torsions:
REMARK  status: ('A' for Active; 'I' for Inactive)
ROOT
ATOM      1  C4' PXY d   1      -0.448  -2.803  -5.247  0.00  0.00     0.077 C 
ATOM      2  C1' PXY d   1      -0.930  -2.734   0.514  0.00  0.00     0.077 C 
ATOM      3  C1  PXY d   1      -0.791  -2.752  -0.996  0.00  0.00    -0.082 A 
ATOM      4  C2  PXY d   1      -1.796  -2.340  -1.750  0.00  0.00     0.003 A 
ATOM      5  C3  PXY d   1      -1.699  -2.379  -3.118  0.00  0.00     0.003 A 
ATOM      6  C4  PXY d   1      -0.541  -2.794  -3.718  0.00  0.00    -0.082 A 
ATOM      7  C5  PXY d   1       0.493  -3.206  -2.955  0.00  0.00     0.003 A 
ATOM      8  C6  PXY d   1       0.360  -3.197  -1.570  0.00  0.00     0.003 A 
ENDROOT
TORSDOF 0
ENDMDL
