MODEL 1
REMARK minimizedAffinity 7.01723623
REMARK minimizedRMSD -1
REMARK  0 active torsions:
REMARK  status: ('A' for Active; 'I' for Inactive)
ROOT
ATOM      1  C4' PXY d   1      -0.198  -1.200   2.917  0.00  0.00     0.077 C 
ATOM      2  C1' PXY d   1      -3.222  -3.136  -1.614  0.00  0.00     0.077 C 
ATOM      3  C1  PXY d   1      -2.427  -2.640  -0.422  0.00  0.00    -0.082 A 
ATOM      4  C2  PXY d   1      -2.619  -1.410   0.026  0.00  0.00     0.003 A 
ATOM      5  C3  PXY d   1      -1.886  -0.935   1.083  0.00  0.00     0.003 A 
ATOM      6  C4  PXY d   1      -0.985  -1.746   1.722  0.00  0.00    -0.082 A 
ATOM      7  C5  PXY d   1      -0.792  -3.005   1.277  0.00  0.00     0.003 A 
ATOM      8  C6  PXY d   1      -1.516  -3.455   0.177  0.00  0.00     0.003 A 
ENDROOT
TORSDOF 0
ENDMDL
