MODEL 1
REMARK minimizedAffinity 6.00367498
REMARK minimizedRMSD -1
REMARK  0 active torsions:
REMARK  status: ('A' for Active; 'I' for Inactive)
ROOT
ATOM      1  C4' PXY d   1       6.000   1.960   0.314  0.00  0.00     0.077 C 
ATOM      2  C1' PXY d   1       1.097   0.193   2.815  0.00  0.00     0.077 C 
ATOM      3  C1  PXY d   1       2.390   0.648   2.166  0.00  0.00    -0.082 A 
ATOM      4  C2  PXY d   1       2.458   1.849   1.615  0.00  0.00     0.003 A 
ATOM      5  C3  PXY d   1       3.609   2.264   0.996  0.00  0.00     0.003 A 
ATOM      6  C4  PXY d   1       4.719   1.462   0.988  0.00  0.00    -0.082 A 
ATOM      7  C5  PXY d   1       4.661   0.240   1.558  0.00  0.00     0.003 A 
ATOM      8  C6  PXY d   1       3.470  -0.179   2.145  0.00  0.00     0.003 A 
ENDROOT
TORSDOF 0
ENDMDL
