MODEL 1
REMARK minimizedAffinity 17.9956112
REMARK minimizedRMSD -1
REMARK  0 active torsions:
REMARK  status: ('A' for Active; 'I' for Inactive)
ROOT
ATOM      1  C4' PXY d   1      -5.205   5.943  -5.594  0.00  0.00     0.077 C 
ATOM      2  C1' PXY d   1      -1.755   5.994  -0.956  0.00  0.00     0.077 C 
ATOM      3  C1  PXY d   1      -2.650   5.986  -2.180  0.00  0.00    -0.082 A 
ATOM      4  C2  PXY d   1      -3.964   5.995  -2.029  0.00  0.00     0.003 A 
ATOM      5  C3  PXY d   1      -4.789   5.956  -3.124  0.00  0.00     0.003 A 
ATOM      6  C4  PXY d   1      -4.262   5.960  -4.388  0.00  0.00    -0.082 A 
ATOM      7  C5  PXY d   1      -2.922   5.961  -4.550  0.00  0.00     0.003 A 
ATOM      8  C6  PXY d   1      -2.103   5.959  -3.425  0.00  0.00     0.003 A 
ENDROOT
TORSDOF 0
ENDMDL
