MODEL 1
REMARK minimizedAffinity 12.9386225
REMARK minimizedRMSD -1
REMARK  0 active torsions:
REMARK  status: ('A' for Active; 'I' for Inactive)
ROOT
ATOM      1  C4' PXY d   1       2.960   1.753   0.075  0.00  0.00     0.077 C 
ATOM      2  C1' PXY d   1       0.543   0.872   5.251  0.00  0.00     0.077 C 
ATOM      3  C1  PXY d   1       1.165   1.108   3.889  0.00  0.00    -0.082 A 
ATOM      4  C2  PXY d   1       2.233   0.413   3.529  0.00  0.00     0.003 A 
ATOM      5  C3  PXY d   1       2.827   0.637   2.314  0.00  0.00     0.003 A 
ATOM      6  C4  PXY d   1       2.293   1.542   1.436  0.00  0.00    -0.082 A 
ATOM      7  C5  PXY d   1       1.198   2.246   1.792  0.00  0.00     0.003 A 
ATOM      8  C6  PXY d   1       0.633   2.035   3.047  0.00  0.00     0.003 A 
ENDROOT
TORSDOF 0
ENDMDL
