MODEL 1
REMARK minimizedAffinity 4.25421476
REMARK minimizedRMSD -1
REMARK  0 active torsions:
REMARK  status: ('A' for Active; 'I' for Inactive)
ROOT
ATOM      1  C4' PXY d   1       4.068   5.928  -5.946  0.00  0.00     0.077 C 
ATOM      2  C1' PXY d   1       4.229   0.150  -5.999  0.00  0.00     0.077 C 
ATOM      3  C1  PXY d   1       4.175   1.665  -5.990  0.00  0.00    -0.082 A 
ATOM      4  C2  PXY d   1       5.301   2.360  -6.000  0.00  0.00     0.003 A 
ATOM      5  C3  PXY d   1       5.270   3.730  -5.960  0.00  0.00     0.003 A 
ATOM      6  C4  PXY d   1       4.074   4.397  -5.964  0.00  0.00    -0.082 A 
ATOM      7  C5  PXY d   1       2.921   3.695  -5.965  0.00  0.00     0.003 A 
ATOM      8  C6  PXY d   1       2.974   2.304  -5.964  0.00  0.00     0.003 A 
ENDROOT
TORSDOF 0
ENDMDL
