MODEL 1
REMARK minimizedAffinity 9.98922539
REMARK minimizedRMSD -1
REMARK  0 active torsions:
REMARK  status: ('A' for Active; 'I' for Inactive)
ROOT
ATOM      1  C   UNL d   1      -0.219   2.260  -1.871  0.00  0.00     0.078 C 
ATOM      2  C1  UNL d   1      -1.623   1.734  -1.917  0.00  0.00    -0.077 A 
ATOM      3  C2  UNL d   1      -2.125   0.930  -0.886  0.00  0.00    -0.001 A 
ATOM      4  C3  UNL d   1      -3.430   0.438  -0.947  0.00  0.00     0.003 A 
ATOM      5  C4  UNL d   1      -4.243   0.744  -2.036  0.00  0.00    -0.005 A 
ATOM      6  C5  UNL d   1      -3.751   1.541  -3.068  0.00  0.00     0.003 A 
ATOM      7  C6  UNL d   1      -2.446   2.034  -3.009  0.00  0.00    -0.001 A 
ENDROOT
TORSDOF 0
ENDMDL
