MODEL 1
REMARK minimizedAffinity 4.65368319
REMARK minimizedRMSD -1
REMARK  0 active torsions:
REMARK  status: ('A' for Active; 'I' for Inactive)
ROOT
ATOM      1  C   UNL d   1      -0.643   2.410  -0.612  0.00  0.00     0.078 C 
ATOM      2  C1  UNL d   1      -0.047   2.644   0.744  0.00  0.00    -0.077 A 
ATOM      3  C2  UNL d   1       0.737   3.775   1.002  0.00  0.00    -0.001 A 
ATOM      4  C3  UNL d   1       1.294   3.974   2.267  0.00  0.00     0.003 A 
ATOM      5  C4  UNL d   1       1.074   3.046   3.282  0.00  0.00    -0.005 A 
ATOM      6  C5  UNL d   1       0.298   1.916   3.034  0.00  0.00     0.003 A 
ATOM      7  C6  UNL d   1      -0.260   1.715   1.771  0.00  0.00    -0.001 A 
ENDROOT
TORSDOF 0
ENDMDL
