MODEL 1
REMARK minimizedAffinity 4.57063389
REMARK minimizedRMSD -1
REMARK  0 active torsions:
REMARK  status: ('A' for Active; 'I' for Inactive)
ROOT
ATOM      1  C   UNL d   1      -0.358   3.292  -0.901  0.00  0.00     0.078 C 
ATOM      2  C1  UNL d   1       0.065   3.011   0.510  0.00  0.00    -0.077 A 
ATOM      3  C2  UNL d   1      -0.677   2.151   1.328  0.00  0.00    -0.001 A 
ATOM      4  C3  UNL d   1      -0.276   1.907   2.643  0.00  0.00     0.003 A 
ATOM      5  C4  UNL d   1       0.867   2.520   3.151  0.00  0.00    -0.005 A 
ATOM      6  C5  UNL d   1       1.611   3.380   2.345  0.00  0.00     0.003 A 
ATOM      7  C6  UNL d   1       1.212   3.625   1.030  0.00  0.00    -0.001 A 
ENDROOT
TORSDOF 0
ENDMDL
