MODEL 1
REMARK minimizedAffinity 1.8778553
REMARK minimizedRMSD -1
REMARK  0 active torsions:
REMARK  status: ('A' for Active; 'I' for Inactive)
ROOT
ATOM      1  C   UNL d   1      -1.781  -4.886  -4.665  0.00  0.00     0.078 C 
ATOM      2  C1  UNL d   1      -3.227  -5.277  -4.734  0.00  0.00    -0.077 A 
ATOM      3  C2  UNL d   1      -3.918  -5.272  -5.952  0.00  0.00    -0.001 A 
ATOM      4  C3  UNL d   1      -5.267  -5.629  -6.000  0.00  0.00     0.003 A 
ATOM      5  C4  UNL d   1      -5.936  -5.993  -4.833  0.00  0.00    -0.005 A 
ATOM      6  C5  UNL d   1      -5.257  -6.000  -3.616  0.00  0.00     0.003 A 
ATOM      7  C6  UNL d   1      -3.908  -5.643  -3.567  0.00  0.00    -0.001 A 
ENDROOT
TORSDOF 0
ENDMDL
