MODEL 1
REMARK minimizedAffinity 0.298835337
REMARK minimizedRMSD -1
REMARK  0 active torsions:
REMARK  status: ('A' for Active; 'I' for Inactive)
ROOT
ATOM      1  C   UNL d   1      -0.477   3.306  -0.961  0.00  0.00     0.078 C 
ATOM      2  C1  UNL d   1      -0.038   3.377   0.471  0.00  0.00    -0.077 A 
ATOM      3  C2  UNL d   1       1.138   4.045   0.833  0.00  0.00    -0.001 A 
ATOM      4  C3  UNL d   1       1.540   4.095   2.169  0.00  0.00     0.003 A 
ATOM      5  C4  UNL d   1       0.772   3.477   3.154  0.00  0.00    -0.005 A 
ATOM      6  C5  UNL d   1      -0.399   2.808   2.803  0.00  0.00     0.003 A 
ATOM      7  C6  UNL d   1      -0.802   2.757   1.468  0.00  0.00    -0.001 A 
ENDROOT
TORSDOF 0
ENDMDL
