MODEL 1
REMARK minimizedAffinity 2.54994941
REMARK minimizedRMSD -1
REMARK  0 active torsions:
REMARK  status: ('A' for Active; 'I' for Inactive)
ROOT
ATOM      1  C   UNL d   1       1.143  -1.470  -1.729  0.00  0.00     0.078 C 
ATOM      2  C1  UNL d   1      -0.191  -0.809  -1.546  0.00  0.00    -0.077 A 
ATOM      3  C2  UNL d   1      -0.285   0.549  -1.219  0.00  0.00    -0.001 A 
ATOM      4  C3  UNL d   1      -1.533   1.149  -1.043  0.00  0.00     0.003 A 
ATOM      5  C4  UNL d   1      -2.697   0.397  -1.190  0.00  0.00    -0.005 A 
ATOM      6  C5  UNL d   1      -2.614  -0.956  -1.513  0.00  0.00     0.003 A 
ATOM      7  C6  UNL d   1      -1.367  -1.557  -1.690  0.00  0.00    -0.001 A 
ENDROOT
TORSDOF 0
ENDMDL
