MODEL 1
REMARK minimizedAffinity -2.11583161
REMARK minimizedRMSD -1
REMARK  0 active torsions:
REMARK  status: ('A' for Active; 'I' for Inactive)
ROOT
ATOM      1  C   UNL d   1      -5.965   0.358   4.820  0.00  0.00     0.078 C 
ATOM      2  C1  UNL d   1      -5.970  -1.141   4.797  0.00  0.00    -0.077 A 
ATOM      3  C2  UNL d   1      -5.985  -1.844   3.586  0.00  0.00    -0.001 A 
ATOM      4  C3  UNL d   1      -5.999  -3.240   3.580  0.00  0.00     0.003 A 
ATOM      5  C4  UNL d   1      -5.999  -3.945   4.782  0.00  0.00    -0.005 A 
ATOM      6  C5  UNL d   1      -5.986  -3.254   5.992  0.00  0.00     0.003 A 
ATOM      7  C6  UNL d   1      -5.972  -1.858   6.000  0.00  0.00    -0.001 A 
ENDROOT
TORSDOF 0
ENDMDL
