MODEL 1
REMARK minimizedAffinity 7.02256727
REMARK minimizedRMSD -1
REMARK  0 active torsions:
REMARK  status: ('A' for Active; 'I' for Inactive)
ROOT
ATOM      1  C   UNL d   1      -0.014   2.384   0.081  0.00  0.00     0.078 C 
ATOM      2  C1  UNL d   1      -0.375   3.646  -0.643  0.00  0.00    -0.077 A 
ATOM      3  C2  UNL d   1       0.361   4.822  -0.454  0.00  0.00    -0.001 A 
ATOM      4  C3  UNL d   1       0.008   5.992  -1.128  0.00  0.00     0.003 A 
ATOM      5  C4  UNL d   1      -1.083   5.999  -1.994  0.00  0.00    -0.005 A 
ATOM      6  C5  UNL d   1      -1.823   4.834  -2.187  0.00  0.00     0.003 A 
ATOM      7  C6  UNL d   1      -1.471   3.663  -1.515  0.00  0.00    -0.001 A 
ENDROOT
TORSDOF 0
ENDMDL
