MODEL 1
REMARK minimizedAffinity -1.5079118
REMARK minimizedRMSD -1
REMARK  0 active torsions:
REMARK  status: ('A' for Active; 'I' for Inactive)
ROOT
ATOM      1  C   UNL d   1      -3.300  -6.000  -3.851  0.00  0.00     0.172 C 
ATOM      2  N   UNL d   1      -1.873  -5.997  -4.073  0.00  0.00    -0.070 N 
ATOM      3  C1  UNL d   1      -1.256  -5.992  -5.296  0.00  0.00    -0.004 A 
ATOM      4  C2  UNL d   1       0.105  -5.990  -5.081  0.00  0.00    -0.047 A 
ATOM      5  C3  UNL d   1       0.313  -5.996  -3.682  0.00  0.00    -0.047 A 
ATOM      6  C4  UNL d   1      -0.928  -6.000  -3.082  0.00  0.00    -0.004 A 
ENDROOT
TORSDOF 0
ENDMDL
