MODEL 1
REMARK minimizedAffinity -0.479344368
REMARK minimizedRMSD -1
REMARK  0 active torsions:
REMARK  status: ('A' for Active; 'I' for Inactive)
ROOT
ATOM      1  C   UNL d   1      -0.278  -5.992  -2.379  0.00  0.00     0.172 C 
ATOM      2  N   UNL d   1      -0.132  -5.942  -3.814  0.00  0.00    -0.070 N 
ATOM      3  C1  UNL d   1      -1.156  -6.000  -4.723  0.00  0.00    -0.004 A 
ATOM      4  C2  UNL d   1      -0.605  -5.922  -5.984  0.00  0.00    -0.047 A 
ATOM      5  C3  UNL d   1       0.797  -5.814  -5.828  0.00  0.00    -0.047 A 
ATOM      6  C4  UNL d   1       1.062  -5.830  -4.475  0.00  0.00    -0.004 A 
ENDROOT
TORSDOF 0
ENDMDL
