MODEL 1
REMARK minimizedAffinity -1.80964696
REMARK minimizedRMSD -1
REMARK  0 active torsions:
REMARK  status: ('A' for Active; 'I' for Inactive)
ROOT
ATOM      1  C   UNL d   1       1.648  -5.988  -5.922  0.00  0.00     0.172 C 
ATOM      2  N   UNL d   1       0.337  -5.992  -5.317  0.00  0.00    -0.070 N 
ATOM      3  C1  UNL d   1      -0.854  -5.996  -5.992  0.00  0.00    -0.004 A 
ATOM      4  C2  UNL d   1      -1.868  -6.000  -5.059  0.00  0.00    -0.047 A 
ATOM      5  C3  UNL d   1      -1.266  -5.996  -3.779  0.00  0.00    -0.047 A 
ATOM      6  C4  UNL d   1       0.100  -5.991  -3.968  0.00  0.00    -0.004 A 
ENDROOT
TORSDOF 0
ENDMDL
