MODEL 1
REMARK minimizedAffinity 1.18164206
REMARK minimizedRMSD -1
REMARK  0 active torsions:
REMARK  status: ('A' for Active; 'I' for Inactive)
ROOT
ATOM      1  C   UNL d   1      -0.731  -6.000  -2.502  0.00  0.00     0.172 C 
ATOM      2  N   UNL d   1      -0.215  -5.634  -3.800  0.00  0.00    -0.070 N 
ATOM      3  C1  UNL d   1      -0.756  -5.995  -5.005  0.00  0.00    -0.004 A 
ATOM      4  C2  UNL d   1       0.026  -5.448  -6.000  0.00  0.00    -0.047 A 
ATOM      5  C3  UNL d   1       1.074  -4.734  -5.371  0.00  0.00    -0.047 A 
ATOM      6  C4  UNL d   1       0.900  -4.866  -4.009  0.00  0.00    -0.004 A 
ENDROOT
TORSDOF 0
ENDMDL
