MODEL 1
REMARK minimizedAffinity -0.0757467076
REMARK minimizedRMSD -1
REMARK  0 active torsions:
REMARK  status: ('A' for Active; 'I' for Inactive)
ROOT
ATOM      1  C   UNL d   1       2.058  -5.996  -5.258  0.00  0.00     0.172 C 
ATOM      2  N   UNL d   1       0.704  -5.997  -4.755  0.00  0.00    -0.070 N 
ATOM      3  C1  UNL d   1      -0.432  -5.997  -5.520  0.00  0.00    -0.004 A 
ATOM      4  C2  UNL d   1      -1.515  -5.998  -4.668  0.00  0.00    -0.047 A 
ATOM      5  C3  UNL d   1      -1.012  -5.999  -3.345  0.00  0.00    -0.047 A 
ATOM      6  C4  UNL d   1       0.364  -5.998  -3.428  0.00  0.00    -0.004 A 
ENDROOT
TORSDOF 0
ENDMDL
