MODEL 1
REMARK minimizedAffinity 0.217374101
REMARK minimizedRMSD -1
REMARK  0 active torsions:
REMARK  status: ('A' for Active; 'I' for Inactive)
ROOT
ATOM      1  C   UNL d   1      -2.634  -6.000  -3.001  0.00  0.00     0.172 C 
ATOM      2  N   UNL d   1      -1.584  -6.000  -3.993  0.00  0.00    -0.070 N 
ATOM      3  C1  UNL d   1      -1.767  -6.000  -5.350  0.00  0.00    -0.004 A 
ATOM      4  C2  UNL d   1      -0.523  -5.999  -5.944  0.00  0.00    -0.047 A 
ATOM      5  C3  UNL d   1       0.441  -5.999  -4.908  0.00  0.00    -0.047 A 
ATOM      6  C4  UNL d   1      -0.243  -6.000  -3.710  0.00  0.00    -0.004 A 
ENDROOT
TORSDOF 0
ENDMDL
