MODEL 1
REMARK minimizedAffinity -0.889764488
REMARK minimizedRMSD -1
REMARK  0 active torsions:
REMARK  status: ('A' for Active; 'I' for Inactive)
ROOT
ATOM      1  C   UNL d   1      -1.532  -1.451   0.490  0.00  0.00     0.172 C 
ATOM      2  N   UNL d   1      -0.129  -1.117   0.420  0.00  0.00    -0.070 N 
ATOM      3  C1  UNL d   1       0.909  -1.993   0.591  0.00  0.00    -0.004 A 
ATOM      4  C2  UNL d   1       2.084  -1.288   0.448  0.00  0.00    -0.047 A 
ATOM      5  C3  UNL d   1       1.740   0.059   0.183  0.00  0.00    -0.047 A 
ATOM      6  C4  UNL d   1       0.364   0.137   0.171  0.00  0.00    -0.004 A 
ENDROOT
TORSDOF 0
ENDMDL
