MODEL 1
REMARK minimizedAffinity -1.26698482
REMARK minimizedRMSD -1
REMARK  0 active torsions:
REMARK  status: ('A' for Active; 'I' for Inactive)
ROOT
ATOM      1  C   UNL d   1      -4.512  -5.997   0.860  0.00  0.00     0.172 C 
ATOM      2  N   UNL d   1      -4.482  -5.997  -0.584  0.00  0.00    -0.070 N 
ATOM      3  C1  UNL d   1      -3.353  -5.993  -1.358  0.00  0.00    -0.004 A 
ATOM      4  C2  UNL d   1      -3.747  -5.995  -2.679  0.00  0.00    -0.047 A 
ATOM      5  C3  UNL d   1      -5.162  -5.998  -2.699  0.00  0.00    -0.047 A 
ATOM      6  C4  UNL d   1      -5.591  -5.999  -1.388  0.00  0.00    -0.004 A 
ENDROOT
TORSDOF 0
ENDMDL
