MODEL 1
REMARK minimizedAffinity 0.524142265
REMARK minimizedRMSD -1
REMARK  0 active torsions:
REMARK  status: ('A' for Active; 'I' for Inactive)
ROOT
ATOM      1  C   UNL d   1       1.795  -5.969  -5.980  0.00  0.00     0.172 C 
ATOM      2  N   UNL d   1       0.535  -5.970  -5.275  0.00  0.00    -0.070 N 
ATOM      3  C1  UNL d   1       0.383  -5.951  -3.914  0.00  0.00    -0.004 A 
ATOM      4  C2  UNL d   1      -0.968  -5.959  -3.641  0.00  0.00    -0.047 A 
ATOM      5  C3  UNL d   1      -1.651  -5.984  -4.880  0.00  0.00    -0.047 A 
ATOM      6  C4  UNL d   1      -0.696  -5.991  -5.875  0.00  0.00    -0.004 A 
ENDROOT
TORSDOF 0
ENDMDL
