MODEL 1
REMARK minimizedAffinity 1.97281051
REMARK minimizedRMSD -1
REMARK  0 active torsions:
REMARK  status: ('A' for Active; 'I' for Inactive)
ROOT
ATOM      1  C   UNL d   1       1.816   0.451  -0.300  0.00  0.00     0.172 C 
ATOM      2  N   UNL d   1       1.124  -0.672   0.287  0.00  0.00    -0.070 N 
ATOM      3  C1  UNL d   1      -0.227  -0.757   0.496  0.00  0.00    -0.004 A 
ATOM      4  C2  UNL d   1      -0.488  -1.982   1.072  0.00  0.00    -0.047 A 
ATOM      5  C3  UNL d   1       0.748  -2.655   1.216  0.00  0.00    -0.047 A 
ATOM      6  C4  UNL d   1       1.729  -1.822   0.722  0.00  0.00    -0.004 A 
ENDROOT
TORSDOF 0
ENDMDL
