MODEL 1
REMARK minimizedAffinity -1.26151192
REMARK minimizedRMSD -1
REMARK  0 active torsions:
REMARK  status: ('A' for Active; 'I' for Inactive)
ROOT
ATOM      1  C   UNL d   1      -2.792  -5.902  -3.712  0.00  0.00     0.172 C 
ATOM      2  N   UNL d   1      -1.512  -5.896  -4.380  0.00  0.00    -0.070 N 
ATOM      3  C1  UNL d   1      -0.292  -5.998  -3.768  0.00  0.00    -0.004 A 
ATOM      4  C2  UNL d   1       0.677  -5.953  -4.747  0.00  0.00    -0.047 A 
ATOM      5  C3  UNL d   1       0.016  -5.818  -5.991  0.00  0.00    -0.047 A 
ATOM      6  C4  UNL d   1      -1.339  -5.785  -5.735  0.00  0.00    -0.004 A 
ENDROOT
TORSDOF 0
ENDMDL
