MODEL 1
REMARK minimizedAffinity -1.71838784
REMARK minimizedRMSD -1
REMARK  0 active torsions:
REMARK  status: ('A' for Active; 'I' for Inactive)
ROOT
ATOM      1  C   UNL d   1       1.134   0.641   0.374  0.00  0.00     0.172 C 
ATOM      2  N   UNL d   1       1.078  -0.763   0.708  0.00  0.00    -0.070 N 
ATOM      3  C1  UNL d   1       0.012  -1.594   0.488  0.00  0.00    -0.004 A 
ATOM      4  C2  UNL d   1       0.354  -2.849   0.945  0.00  0.00    -0.047 A 
ATOM      5  C3  UNL d   1       1.670  -2.768   1.459  0.00  0.00    -0.047 A 
ATOM      6  C4  UNL d   1       2.094  -1.466   1.299  0.00  0.00    -0.004 A 
ENDROOT
TORSDOF 0
ENDMDL
