MODEL 1
REMARK minimizedAffinity -1.06092083
REMARK minimizedRMSD -1
REMARK  0 active torsions:
REMARK  status: ('A' for Active; 'I' for Inactive)
ROOT
ATOM      1  C   UNL d   1      -2.143  -6.000  -4.001  0.00  0.00     0.172 C 
ATOM      2  N   UNL d   1      -0.798  -5.897  -4.515  0.00  0.00    -0.070 N 
ATOM      3  C1  UNL d   1      -0.436  -5.997  -5.831  0.00  0.00    -0.004 A 
ATOM      4  C2  UNL d   1       0.932  -5.843  -5.906  0.00  0.00    -0.047 A 
ATOM      5  C3  UNL d   1       1.408  -5.644  -4.589  0.00  0.00    -0.047 A 
ATOM      6  C4  UNL d   1       0.317  -5.682  -3.747  0.00  0.00    -0.004 A 
ENDROOT
TORSDOF 0
ENDMDL
