MODEL 1
REMARK minimizedAffinity -2.77256894
REMARK minimizedRMSD -1
REMARK  0 active torsions:
REMARK  status: ('A' for Active; 'I' for Inactive)
ROOT
ATOM      1  C   UNL d   1      -3.048  -5.997  -3.755  0.00  0.00     0.172 C 
ATOM      2  N   UNL d   1      -1.730  -5.704  -4.268  0.00  0.00    -0.070 N 
ATOM      3  C1  UNL d   1      -1.447  -5.253  -5.530  0.00  0.00    -0.004 A 
ATOM      4  C2  UNL d   1      -0.081  -5.097  -5.625  0.00  0.00    -0.047 A 
ATOM      5  C3  UNL d   1       0.476  -5.469  -4.379  0.00  0.00    -0.047 A 
ATOM      6  C4  UNL d   1      -0.567  -5.840  -3.557  0.00  0.00    -0.004 A 
ENDROOT
TORSDOF 0
ENDMDL
