MODEL 1
REMARK minimizedAffinity -1.43894148
REMARK minimizedRMSD -1
REMARK  0 active torsions:
REMARK  status: ('A' for Active; 'I' for Inactive)
ROOT
ATOM      1  C   UNL d   1       0.333  -5.900  -6.000  0.00  0.00     0.172 C 
ATOM      2  N   UNL d   1       0.365  -5.844  -4.557  0.00  0.00    -0.070 N 
ATOM      3  C1  UNL d   1      -0.714  -6.000  -3.728  0.00  0.00    -0.004 A 
ATOM      4  C2  UNL d   1      -0.269  -5.880  -2.429  0.00  0.00    -0.047 A 
ATOM      5  C3  UNL d   1       1.126  -5.643  -2.480  0.00  0.00    -0.047 A 
ATOM      6  C4  UNL d   1       1.492  -5.626  -3.809  0.00  0.00    -0.004 A 
ENDROOT
TORSDOF 0
ENDMDL
