MODEL 1
REMARK minimizedAffinity -1.73093688
REMARK minimizedRMSD -1
REMARK  0 active torsions:
REMARK  status: ('A' for Active; 'I' for Inactive)
ROOT
ATOM      1  C   UNL d   1       0.497  -6.000  -5.421  0.00  0.00     0.172 C 
ATOM      2  N   UNL d   1       0.495  -5.772  -3.995  0.00  0.00    -0.070 N 
ATOM      3  C1  UNL d   1      -0.561  -5.997  -3.152  0.00  0.00    -0.004 A 
ATOM      4  C2  UNL d   1      -0.162  -5.656  -1.877  0.00  0.00    -0.047 A 
ATOM      5  C3  UNL d   1       1.178  -5.211  -1.957  0.00  0.00    -0.047 A 
ATOM      6  C4  UNL d   1       1.560  -5.292  -3.280  0.00  0.00    -0.004 A 
ENDROOT
TORSDOF 0
ENDMDL
