MODEL 1
REMARK minimizedAffinity 1.30207598
REMARK minimizedRMSD -1
REMARK  0 active torsions:
REMARK  status: ('A' for Active; 'I' for Inactive)
ROOT
ATOM      1  C   UNL d   1      -2.048  -5.991  -2.629  0.00  0.00     0.172 C 
ATOM      2  N   UNL d   1      -0.868  -5.993  -3.461  0.00  0.00    -0.070 N 
ATOM      3  C1  UNL d   1       0.426  -5.998  -3.012  0.00  0.00    -0.004 A 
ATOM      4  C2  UNL d   1       1.255  -5.998  -4.112  0.00  0.00    -0.047 A 
ATOM      5  C3  UNL d   1       0.432  -5.991  -5.263  0.00  0.00    -0.047 A 
ATOM      6  C4  UNL d   1      -0.878  -5.988  -4.831  0.00  0.00    -0.004 A 
ENDROOT
TORSDOF 0
ENDMDL
