MODEL 1
REMARK minimizedAffinity -1.44892168
REMARK minimizedRMSD -1
REMARK  0 active torsions:
REMARK  status: ('A' for Active; 'I' for Inactive)
ROOT
ATOM      1  C1  BNZ d   1       4.794   4.014  -6.000  0.00  0.00     0.000 A 
ATOM      2  C2  BNZ d   1       5.033   2.666  -6.000  0.00  0.00     0.000 A 
ATOM      3  C3  BNZ d   1       4.127   1.795  -5.462  0.00  0.00     0.000 A 
ATOM      4  C4  BNZ d   1       3.004   2.275  -4.891  0.00  0.00     0.000 A 
ATOM      5  C5  BNZ d   1       2.753   3.633  -4.874  0.00  0.00     0.000 A 
ATOM      6  C6  BNZ d   1       3.649   4.504  -5.451  0.00  0.00     0.000 A 
ENDROOT
TORSDOF 0
ENDMDL
