MODEL 1
REMARK minimizedAffinity -1.91474187
REMARK minimizedRMSD -1
REMARK  0 active torsions:
REMARK  status: ('A' for Active; 'I' for Inactive)
ROOT
ATOM      1  C1  BNZ d   1       4.453   4.966  -5.998  0.00  0.00     0.000 A 
ATOM      2  C2  BNZ d   1       5.285   3.878  -6.000  0.00  0.00     0.000 A 
ATOM      3  C3  BNZ d   1       4.823   2.643  -5.641  0.00  0.00     0.000 A 
ATOM      4  C4  BNZ d   1       3.542   2.504  -5.243  0.00  0.00     0.000 A 
ATOM      5  C5  BNZ d   1       2.693   3.593  -5.227  0.00  0.00     0.000 A 
ATOM      6  C6  BNZ d   1       3.151   4.827  -5.627  0.00  0.00     0.000 A 
ENDROOT
TORSDOF 0
ENDMDL
