MODEL 1
REMARK minimizedAffinity -3.00053978
REMARK minimizedRMSD -1
REMARK  0 active torsions:
REMARK  status: ('A' for Active; 'I' for Inactive)
ROOT
ATOM      1  C1  BNZ d   1       4.320   2.981  -5.639  0.00  0.00     0.000 A 
ATOM      2  C2  BNZ d   1       2.991   2.947  -5.307  0.00  0.00     0.000 A 
ATOM      3  C3  BNZ d   1       2.231   4.082  -5.344  0.00  0.00     0.000 A 
ATOM      4  C4  BNZ d   1       2.809   5.256  -5.672  0.00  0.00     0.000 A 
ATOM      5  C5  BNZ d   1       4.149   5.309  -6.000  0.00  0.00     0.000 A 
ATOM      6  C6  BNZ d   1       4.902   4.157  -6.000  0.00  0.00     0.000 A 
ENDROOT
TORSDOF 0
ENDMDL
