MODEL 1
REMARK minimizedAffinity -3.91810608
REMARK minimizedRMSD -1
REMARK  0 active torsions:
REMARK  status: ('A' for Active; 'I' for Inactive)
ROOT
ATOM      1  C1  BNZ d   1       4.093   2.951  -4.964  0.00  0.00     0.000 A 
ATOM      2  C2  BNZ d   1       2.767   3.000  -4.627  0.00  0.00     0.000 A 
ATOM      3  C3  BNZ d   1       2.011   4.101  -4.919  0.00  0.00     0.000 A 
ATOM      4  C4  BNZ d   1       2.590   5.166  -5.510  0.00  0.00     0.000 A 
ATOM      5  C5  BNZ d   1       3.929   5.135  -5.847  0.00  0.00     0.000 A 
ATOM      6  C6  BNZ d   1       4.678   4.011  -5.588  0.00  0.00     0.000 A 
ENDROOT
TORSDOF 0
ENDMDL
