MODEL 1
REMARK minimizedAffinity -2.92541504
REMARK minimizedRMSD -1
REMARK  0 active torsions:
REMARK  status: ('A' for Active; 'I' for Inactive)
ROOT
ATOM      1  C1  BNZ d   1       2.750   3.026  -5.229  0.00  0.00     0.000 A 
ATOM      2  C2  BNZ d   1       2.011   4.143  -5.514  0.00  0.00     0.000 A 
ATOM      3  C3  BNZ d   1       2.617   5.300  -5.917  0.00  0.00     0.000 A 
ATOM      4  C4  BNZ d   1       3.963   5.350  -5.998  0.00  0.00     0.000 A 
ATOM      5  C5  BNZ d   1       4.722   4.235  -5.705  0.00  0.00     0.000 A 
ATOM      6  C6  BNZ d   1       4.106   3.061  -5.337  0.00  0.00     0.000 A 
ENDROOT
TORSDOF 0
ENDMDL
