MODEL 1
REMARK minimizedAffinity 0.721533895
REMARK minimizedRMSD -1
REMARK  0 active torsions:
REMARK  status: ('A' for Active; 'I' for Inactive)
ROOT
ATOM      1  C1  BNZ d   1       2.163   5.089  -4.514  0.00  0.00     0.000 A 
ATOM      2  C2  BNZ d   1       3.431   4.574  -4.517  0.00  0.00     0.000 A 
ATOM      3  C3  BNZ d   1       3.741   3.480  -5.276  0.00  0.00     0.000 A 
ATOM      4  C4  BNZ d   1       2.773   2.880  -6.000  0.00  0.00     0.000 A 
ATOM      5  C5  BNZ d   1       1.487   3.382  -6.000  0.00  0.00     0.000 A 
ATOM      6  C6  BNZ d   1       1.189   4.507  -5.265  0.00  0.00     0.000 A 
ENDROOT
TORSDOF 0
ENDMDL
