MODEL 1
REMARK minimizedAffinity -2.13896012
REMARK minimizedRMSD -1
REMARK  0 active torsions:
REMARK  status: ('A' for Active; 'I' for Inactive)
ROOT
ATOM      1  C1  BNZ d   1       3.153   4.873  -5.656  0.00  0.00     0.000 A 
ATOM      2  C2  BNZ d   1       4.402   4.428  -6.000  0.00  0.00     0.000 A 
ATOM      3  C3  BNZ d   1       4.695   3.093  -5.995  0.00  0.00     0.000 A 
ATOM      4  C4  BNZ d   1       3.753   2.209  -5.608  0.00  0.00     0.000 A 
ATOM      5  C5  BNZ d   1       2.492   2.643  -5.250  0.00  0.00     0.000 A 
ATOM      6  C6  BNZ d   1       2.189   3.984  -5.293  0.00  0.00     0.000 A 
ENDROOT
TORSDOF 0
ENDMDL
