MODEL 1
REMARK minimizedAffinity -3.08319664
REMARK minimizedRMSD -1
REMARK  0 active torsions:
REMARK  status: ('A' for Active; 'I' for Inactive)
ROOT
ATOM      1  C1  BNZ d   1       4.590   5.145  -5.877  0.00  0.00     0.000 A 
ATOM      2  C2  BNZ d   1       3.301   4.899  -5.485  0.00  0.00     0.000 A 
ATOM      3  C3  BNZ d   1       2.896   3.632  -5.169  0.00  0.00     0.000 A 
ATOM      4  C4  BNZ d   1       3.767   2.609  -5.283  0.00  0.00     0.000 A 
ATOM      5  C5  BNZ d   1       5.067   2.840  -5.686  0.00  0.00     0.000 A 
ATOM      6  C6  BNZ d   1       5.482   4.121  -5.966  0.00  0.00     0.000 A 
ENDROOT
TORSDOF 0
ENDMDL
