MODEL 1
REMARK minimizedAffinity -3.22060037
REMARK minimizedRMSD -1
REMARK  0 active torsions:
REMARK  status: ('A' for Active; 'I' for Inactive)
ROOT
ATOM      1  C1  BNZ d   1       3.202   2.716  -5.156  0.00  0.00     0.000 A 
ATOM      2  C2  BNZ d   1       4.505   2.994  -5.471  0.00  0.00     0.000 A 
ATOM      3  C3  BNZ d   1       4.877   4.246  -5.874  0.00  0.00     0.000 A 
ATOM      4  C4  BNZ d   1       3.939   5.207  -6.000  0.00  0.00     0.000 A 
ATOM      5  C5  BNZ d   1       2.619   4.941  -5.696  0.00  0.00     0.000 A 
ATOM      6  C6  BNZ d   1       2.255   3.689  -5.253  0.00  0.00     0.000 A 
ENDROOT
TORSDOF 0
ENDMDL
