MODEL 1
REMARK minimizedAffinity -2.49367666
REMARK minimizedRMSD -1
REMARK  0 active torsions:
REMARK  status: ('A' for Active; 'I' for Inactive)
ROOT
ATOM      1  C1  BNZ d   1       2.821   5.244  -5.744  0.00  0.00     0.000 A 
ATOM      2  C2  BNZ d   1       4.167   5.250  -6.000  0.00  0.00     0.000 A 
ATOM      3  C3  BNZ d   1       4.928   4.139  -5.770  0.00  0.00     0.000 A 
ATOM      4  C4  BNZ d   1       4.352   3.037  -5.248  0.00  0.00     0.000 A 
ATOM      5  C5  BNZ d   1       2.999   3.018  -4.976  0.00  0.00     0.000 A 
ATOM      6  C6  BNZ d   1       2.228   4.125  -5.245  0.00  0.00     0.000 A 
ENDROOT
TORSDOF 0
ENDMDL
