MODEL 1
REMARK minimizedAffinity -0.010184302
REMARK minimizedRMSD -1
REMARK  0 active torsions:
REMARK  status: ('A' for Active; 'I' for Inactive)
ROOT
ATOM      1  C1  BNZ d   1       2.767   3.645  -5.690  0.00  0.00     0.000 A 
ATOM      2  C2  BNZ d   1       3.389   4.812  -5.336  0.00  0.00     0.000 A 
ATOM      3  C3  BNZ d   1       2.691   5.986  -5.277  0.00  0.00     0.000 A 
ATOM      4  C4  BNZ d   1       1.385   5.999  -5.610  0.00  0.00     0.000 A 
ATOM      5  C5  BNZ d   1       0.746   4.832  -5.978  0.00  0.00     0.000 A 
ATOM      6  C6  BNZ d   1       1.441   3.645  -5.999  0.00  0.00     0.000 A 
ENDROOT
TORSDOF 0
ENDMDL
