MODEL 1
REMARK minimizedAffinity -3.37603712
REMARK minimizedRMSD -1
REMARK  0 active torsions:
REMARK  status: ('A' for Active; 'I' for Inactive)
ROOT
ATOM      1  C1  BNZ d   1       2.656   4.160  -5.199  0.00  0.00     0.000 A 
ATOM      2  C2  BNZ d   1       3.684   4.509  -4.364  0.00  0.00     0.000 A 
ATOM      3  C3  BNZ d   1       4.835   3.773  -4.326  0.00  0.00     0.000 A 
ATOM      4  C4  BNZ d   1       4.941   2.667  -5.092  0.00  0.00     0.000 A 
ATOM      5  C5  BNZ d   1       3.909   2.297  -5.931  0.00  0.00     0.000 A 
ATOM      6  C6  BNZ d   1       2.767   3.063  -5.995  0.00  0.00     0.000 A 
ENDROOT
TORSDOF 0
ENDMDL
