MODEL 1
REMARK minimizedAffinity -3.17041397
REMARK minimizedRMSD -1
REMARK  0 active torsions:
REMARK  status: ('A' for Active; 'I' for Inactive)
ROOT
ATOM      1  C1  BNZ d   1       2.044   4.122  -4.833  0.00  0.00     0.000 A 
ATOM      2  C2  BNZ d   1       2.246   5.476  -4.879  0.00  0.00     0.000 A 
ATOM      3  C3  BNZ d   1       3.357   5.997  -5.481  0.00  0.00     0.000 A 
ATOM      4  C4  BNZ d   1       4.283   5.165  -6.000  0.00  0.00     0.000 A 
ATOM      5  C5  BNZ d   1       4.098   3.798  -5.954  0.00  0.00     0.000 A 
ATOM      6  C6  BNZ d   1       2.959   3.277  -5.382  0.00  0.00     0.000 A 
ENDROOT
TORSDOF 0
ENDMDL
