MODEL 1
REMARK minimizedAffinity -3.23775983
REMARK minimizedRMSD -1
REMARK  0 active torsions:
REMARK  status: ('A' for Active; 'I' for Inactive)
ROOT
ATOM      1  C1  BNZ d   1       2.125   4.131  -5.675  0.00  0.00     0.000 A 
ATOM      2  C2  BNZ d   1       2.738   5.188  -5.056  0.00  0.00     0.000 A 
ATOM      3  C3  BNZ d   1       4.073   5.150  -4.766  0.00  0.00     0.000 A 
ATOM      4  C4  BNZ d   1       4.784   4.042  -5.058  0.00  0.00     0.000 A 
ATOM      5  C5  BNZ d   1       4.178   2.965  -5.673  0.00  0.00     0.000 A 
ATOM      6  C6  BNZ d   1       2.842   3.022  -5.999  0.00  0.00     0.000 A 
ENDROOT
TORSDOF 0
ENDMDL
