MODEL 1
REMARK minimizedAffinity 4.03904819
REMARK minimizedRMSD -1
REMARK  0 active torsions:
REMARK  status: ('A' for Active; 'I' for Inactive)
ROOT
ATOM      1  C   UNL d   1       0.541   3.381   0.751  0.00  0.00     0.077 C 
ATOM      2  C1  UNL d   1       0.316   1.933   0.428  0.00  0.00    -0.074 A 
ATOM      3  C2  UNL d   1      -0.212   1.058   1.382  0.00  0.00    -0.005 A 
ATOM      4  C3  UNL d   1      -0.425  -0.283   1.064  0.00  0.00     0.006 A 
ATOM      5  C4  UNL d   1      -0.112  -0.762  -0.209  0.00  0.00    -0.005 A 
ATOM      6  C5  UNL d   1       0.416   0.099  -1.176  0.00  0.00    -0.074 A 
ATOM      7  C6  UNL d   1       0.748  -0.397  -2.552  0.00  0.00     0.077 C 
ATOM      8  C7  UNL d   1       0.620   1.447  -0.851  0.00  0.00    -0.001 A 
ENDROOT
TORSDOF 0
ENDMDL
