MODEL 1
REMARK minimizedAffinity -2.59794927
REMARK minimizedRMSD -1
REMARK  0 active torsions:
REMARK  status: ('A' for Active; 'I' for Inactive)
ROOT
ATOM      1  C   UNL d   1       0.758   1.072  -1.928  0.00  0.00     0.077 C 
ATOM      2  C1  UNL d   1       0.014   0.435  -0.793  0.00  0.00    -0.074 A 
ATOM      3  C2  UNL d   1      -0.773   1.203   0.072  0.00  0.00    -0.005 A 
ATOM      4  C3  UNL d   1      -1.467   0.595   1.118  0.00  0.00     0.006 A 
ATOM      5  C4  UNL d   1      -1.381  -0.785   1.310  0.00  0.00    -0.005 A 
ATOM      6  C5  UNL d   1      -0.600  -1.569   0.455  0.00  0.00    -0.074 A 
ATOM      7  C6  UNL d   1      -0.505  -3.054   0.641  0.00  0.00     0.077 C 
ATOM      8  C7  UNL d   1       0.089  -0.952  -0.598  0.00  0.00    -0.001 A 
ENDROOT
TORSDOF 0
ENDMDL
