MODEL 1
REMARK minimizedAffinity 0.383473694
REMARK minimizedRMSD -1
REMARK  0 active torsions:
REMARK  status: ('A' for Active; 'I' for Inactive)
ROOT
ATOM      1  C   UNL d   1      -1.370   0.031   1.046  0.00  0.00     0.077 C 
ATOM      2  C1  UNL d   1      -0.222   0.426   0.164  0.00  0.00    -0.074 A 
ATOM      3  C2  UNL d   1       0.826   1.211   0.656  0.00  0.00    -0.005 A 
ATOM      4  C3  UNL d   1       1.891   1.562  -0.173  0.00  0.00     0.006 A 
ATOM      5  C4  UNL d   1       1.919   1.132  -1.500  0.00  0.00    -0.005 A 
ATOM      6  C5  UNL d   1       0.881   0.346  -2.010  0.00  0.00    -0.074 A 
ATOM      7  C6  UNL d   1       0.900  -0.132  -3.431  0.00  0.00     0.077 C 
ATOM      8  C7  UNL d   1      -0.183  -0.008  -1.168  0.00  0.00    -0.001 A 
ENDROOT
TORSDOF 0
ENDMDL
