MODEL 1
REMARK minimizedAffinity -1.48336434
REMARK minimizedRMSD -1
REMARK  0 active torsions:
REMARK  status: ('A' for Active; 'I' for Inactive)
ROOT
ATOM      1  C   UNL d   1       0.981  -0.983  -3.159  0.00  0.00     0.077 C 
ATOM      2  C1  UNL d   1       0.522  -0.809  -1.742  0.00  0.00    -0.074 A 
ATOM      3  C2  UNL d   1       0.761   0.382  -1.050  0.00  0.00    -0.005 A 
ATOM      4  C3  UNL d   1       0.320   0.532   0.265  0.00  0.00     0.006 A 
ATOM      5  C4  UNL d   1      -0.364  -0.505   0.899  0.00  0.00    -0.005 A 
ATOM      6  C5  UNL d   1      -0.613  -1.703   0.223  0.00  0.00    -0.074 A 
ATOM      7  C6  UNL d   1      -1.356  -2.825   0.887  0.00  0.00     0.077 C 
ATOM      8  C7  UNL d   1      -0.173  -1.844  -1.100  0.00  0.00    -0.001 A 
ENDROOT
TORSDOF 0
ENDMDL
