MODEL 1
REMARK minimizedAffinity 4.5480957
REMARK minimizedRMSD -1
REMARK  0 active torsions:
REMARK  status: ('A' for Active; 'I' for Inactive)
ROOT
ATOM      1  C   UNL d   1      -1.823  -2.771  -0.280  0.00  0.00     0.077 C 
ATOM      2  C1  UNL d   1      -1.612  -1.643   0.687  0.00  0.00    -0.074 A 
ATOM      3  C2  UNL d   1      -1.939  -1.785   2.039  0.00  0.00    -0.005 A 
ATOM      4  C3  UNL d   1      -1.728  -0.731   2.928  0.00  0.00     0.006 A 
ATOM      5  C4  UNL d   1      -1.189   0.474   2.474  0.00  0.00    -0.005 A 
ATOM      6  C5  UNL d   1      -0.855   0.633   1.125  0.00  0.00    -0.074 A 
ATOM      7  C6  UNL d   1      -0.265   1.918   0.623  0.00  0.00     0.077 C 
ATOM      8  C7  UNL d   1      -1.063  -0.433   0.240  0.00  0.00    -0.001 A 
ENDROOT
TORSDOF 0
ENDMDL
