MODEL 1
REMARK minimizedAffinity 4.95386314
REMARK minimizedRMSD -1
REMARK  0 active torsions:
REMARK  status: ('A' for Active; 'I' for Inactive)
ROOT
ATOM      1  C   UNL d   1       1.396   3.734   2.188  0.00  0.00     0.077 C 
ATOM      2  C1  UNL d   1       2.357   3.117   1.216  0.00  0.00    -0.074 A 
ATOM      3  C2  UNL d   1       3.696   3.519   1.175  0.00  0.00    -0.005 A 
ATOM      4  C3  UNL d   1       4.581   2.929   0.272  0.00  0.00     0.006 A 
ATOM      5  C4  UNL d   1       4.136   1.933  -0.597  0.00  0.00    -0.005 A 
ATOM      6  C5  UNL d   1       2.801   1.517  -0.571  0.00  0.00    -0.074 A 
ATOM      7  C6  UNL d   1       2.309   0.440  -1.492  0.00  0.00     0.077 C 
ATOM      8  C7  UNL d   1       1.920   2.110   0.344  0.00  0.00    -0.001 A 
ENDROOT
TORSDOF 0
ENDMDL
