MODEL 1
REMARK minimizedAffinity 2.7696507
REMARK minimizedRMSD -1
REMARK  0 active torsions:
REMARK  status: ('A' for Active; 'I' for Inactive)
ROOT
ATOM      1  C   UNL d   1       1.808   3.368   1.164  0.00  0.00     0.077 C 
ATOM      2  C1  UNL d   1       1.210   2.226   0.397  0.00  0.00    -0.074 A 
ATOM      3  C2  UNL d   1       1.839   1.718  -0.744  0.00  0.00    -0.005 A 
ATOM      4  C3  UNL d   1       1.276   0.649  -1.441  0.00  0.00     0.006 A 
ATOM      5  C4  UNL d   1       0.080   0.078  -1.005  0.00  0.00    -0.005 A 
ATOM      6  C5  UNL d   1      -0.563   0.572   0.134  0.00  0.00    -0.074 A 
ATOM      7  C6  UNL d   1      -1.845  -0.037   0.622  0.00  0.00     0.077 C 
ATOM      8  C7  UNL d   1       0.012   1.642   0.833  0.00  0.00    -0.001 A 
ENDROOT
TORSDOF 0
ENDMDL
