MODEL 1
REMARK minimizedAffinity 1.02896082
REMARK minimizedRMSD -1
REMARK  0 active torsions:
REMARK  status: ('A' for Active; 'I' for Inactive)
ROOT
ATOM      1  C   UNL d   1      -0.419  -4.257   0.637  0.00  0.00     0.077 C 
ATOM      2  C1  UNL d   1      -0.575  -2.771   0.510  0.00  0.00    -0.074 A 
ATOM      3  C2  UNL d   1      -1.211  -2.027   1.508  0.00  0.00    -0.005 A 
ATOM      4  C3  UNL d   1      -1.340  -0.644   1.380  0.00  0.00     0.006 A 
ATOM      5  C4  UNL d   1      -0.836   0.008   0.254  0.00  0.00    -0.005 A 
ATOM      6  C5  UNL d   1      -0.196  -0.720  -0.754  0.00  0.00    -0.074 A 
ATOM      7  C6  UNL d   1       0.361  -0.034  -1.967  0.00  0.00     0.077 C 
ATOM      8  C7  UNL d   1      -0.064  -2.108  -0.615  0.00  0.00    -0.001 A 
ENDROOT
TORSDOF 0
ENDMDL
