MODEL 1
REMARK minimizedAffinity -5.71081495
REMARK minimizedRMSD -1
REMARK  0 active torsions:
REMARK  status: ('A' for Active; 'I' for Inactive)
ROOT
ATOM      1  C   UNL d   1      -2.109   0.391   1.870  0.00  0.00     0.077 C 
ATOM      2  C1  UNL d   1      -1.229  -0.483   1.026  0.00  0.00    -0.074 A 
ATOM      3  C2  UNL d   1      -1.221  -1.871   1.195  0.00  0.00    -0.005 A 
ATOM      4  C3  UNL d   1      -0.405  -2.672   0.396  0.00  0.00     0.006 A 
ATOM      5  C4  UNL d   1       0.411  -2.094  -0.577  0.00  0.00    -0.005 A 
ATOM      6  C5  UNL d   1       0.416  -0.708  -0.761  0.00  0.00    -0.074 A 
ATOM      7  C6  UNL d   1       1.279  -0.071  -1.809  0.00  0.00     0.077 C 
ATOM      8  C7  UNL d   1      -0.413   0.090   0.041  0.00  0.00    -0.001 A 
ENDROOT
TORSDOF 0
ENDMDL
