MODEL 1
REMARK minimizedAffinity 0.216948524
REMARK minimizedRMSD -1
REMARK  0 active torsions:
REMARK  status: ('A' for Active; 'I' for Inactive)
ROOT
ATOM      1  C   UNL d   1       1.035   0.226  -1.934  0.00  0.00     0.077 C 
ATOM      2  C1  UNL d   1       0.418  -0.413  -0.726  0.00  0.00    -0.074 A 
ATOM      3  C2  UNL d   1       0.086   0.349   0.399  0.00  0.00    -0.005 A 
ATOM      4  C3  UNL d   1      -0.496  -0.257   1.513  0.00  0.00     0.006 A 
ATOM      5  C4  UNL d   1      -0.752  -1.629   1.512  0.00  0.00    -0.005 A 
ATOM      6  C5  UNL d   1      -0.429  -2.406   0.396  0.00  0.00    -0.074 A 
ATOM      7  C6  UNL d   1      -0.707  -3.880   0.375  0.00  0.00     0.077 C 
ATOM      8  C7  UNL d   1       0.150  -1.789  -0.722  0.00  0.00    -0.001 A 
ENDROOT
TORSDOF 0
ENDMDL
