MODEL 1
REMARK minimizedAffinity -2.27841115
REMARK minimizedRMSD -1
REMARK  0 active torsions:
REMARK  status: ('A' for Active; 'I' for Inactive)
ROOT
ATOM      1  C   UNL d   1       1.123  -3.026   0.638  0.00  0.00     0.077 C 
ATOM      2  C1  UNL d   1       0.188  -1.870   0.437  0.00  0.00    -0.074 A 
ATOM      3  C2  UNL d   1      -1.189  -2.018   0.632  0.00  0.00    -0.005 A 
ATOM      4  C3  UNL d   1      -2.045  -0.931   0.451  0.00  0.00     0.006 A 
ATOM      5  C4  UNL d   1      -1.534   0.311   0.073  0.00  0.00    -0.005 A 
ATOM      6  C5  UNL d   1      -0.159   0.477  -0.125  0.00  0.00    -0.074 A 
ATOM      7  C6  UNL d   1       0.408   1.808  -0.521  0.00  0.00     0.077 C 
ATOM      8  C7  UNL d   1       0.695  -0.617   0.066  0.00  0.00    -0.001 A 
ENDROOT
TORSDOF 0
ENDMDL
