MODEL 1
REMARK minimizedAffinity -6.16457891
REMARK minimizedRMSD -1
REMARK  0 active torsions:
REMARK  status: ('A' for Active; 'I' for Inactive)
ROOT
ATOM      1  C   UNL d   1       0.408   1.146  -1.252  0.00  0.00     0.077 C 
ATOM      2  C1  UNL d   1      -0.014  -0.026  -0.416  0.00  0.00    -0.074 A 
ATOM      3  C2  UNL d   1      -0.720   0.159   0.777  0.00  0.00    -0.005 A 
ATOM      4  C3  UNL d   1      -1.114  -0.941   1.539  0.00  0.00     0.006 A 
ATOM      5  C4  UNL d   1      -0.806  -2.234   1.117  0.00  0.00    -0.005 A 
ATOM      6  C5  UNL d   1      -0.101  -2.439  -0.073  0.00  0.00    -0.074 A 
ATOM      7  C6  UNL d   1       0.230  -3.823  -0.547  0.00  0.00     0.077 C 
ATOM      8  C7  UNL d   1       0.285  -1.329  -0.837  0.00  0.00    -0.001 A 
ENDROOT
TORSDOF 0
ENDMDL
