MODEL 1
REMARK minimizedAffinity -0.667794049
REMARK minimizedRMSD -1
REMARK  0 active torsions:
REMARK  status: ('A' for Active; 'I' for Inactive)
ROOT
ATOM      1  C   UNL d   1      -1.339  -3.079   0.666  0.00  0.00     0.077 C 
ATOM      2  C1  UNL d   1      -0.851  -1.711   0.291  0.00  0.00    -0.074 A 
ATOM      3  C2  UNL d   1      -0.904  -0.653   1.204  0.00  0.00    -0.005 A 
ATOM      4  C3  UNL d   1      -0.438   0.611   0.843  0.00  0.00     0.006 A 
ATOM      5  C4  UNL d   1       0.084   0.830  -0.432  0.00  0.00    -0.005 A 
ATOM      6  C5  UNL d   1       0.146  -0.216  -1.358  0.00  0.00    -0.074 A 
ATOM      7  C6  UNL d   1       0.714  -0.000  -2.729  0.00  0.00     0.077 C 
ATOM      8  C7  UNL d   1      -0.317  -1.485  -0.986  0.00  0.00    -0.001 A 
ENDROOT
TORSDOF 0
ENDMDL
