MODEL 1
REMARK minimizedAffinity -5.05895662
REMARK minimizedRMSD -1
REMARK  0 active torsions:
REMARK  status: ('A' for Active; 'I' for Inactive)
ROOT
ATOM      1  C   UNL d   1       0.026   0.788  -1.048  0.00  0.00     0.077 C 
ATOM      2  C1  UNL d   1      -0.232  -0.606  -0.558  0.00  0.00    -0.074 A 
ATOM      3  C2  UNL d   1      -0.707  -0.837   0.737  0.00  0.00    -0.005 A 
ATOM      4  C3  UNL d   1      -0.951  -2.138   1.175  0.00  0.00     0.006 A 
ATOM      5  C4  UNL d   1      -0.723  -3.221   0.324  0.00  0.00    -0.005 A 
ATOM      6  C5  UNL d   1      -0.248  -3.009  -0.974  0.00  0.00    -0.074 A 
ATOM      7  C6  UNL d   1      -0.007  -4.161  -1.905  0.00  0.00     0.077 C 
ATOM      8  C7  UNL d   1      -0.012  -1.698  -1.410  0.00  0.00    -0.001 A 
ENDROOT
TORSDOF 0
ENDMDL
