MODEL 1
REMARK minimizedAffinity -6.04454279
REMARK minimizedRMSD -1
REMARK  0 active torsions:
REMARK  status: ('A' for Active; 'I' for Inactive)
ROOT
ATOM      1  C   UNL d   1       0.371   1.618  -0.651  0.00  0.00     0.077 C 
ATOM      2  C1  UNL d   1       0.331   0.123  -0.535  0.00  0.00    -0.074 A 
ATOM      3  C2  UNL d   1      -0.334  -0.498   0.527  0.00  0.00    -0.005 A 
ATOM      4  C3  UNL d   1      -0.371  -1.890   0.616  0.00  0.00     0.006 A 
ATOM      5  C4  UNL d   1       0.255  -2.673  -0.354  0.00  0.00    -0.005 A 
ATOM      6  C5  UNL d   1       0.925  -2.069  -1.423  0.00  0.00    -0.074 A 
ATOM      7  C6  UNL d   1       1.595  -2.896  -2.480  0.00  0.00     0.077 C 
ATOM      8  C7  UNL d   1       0.952  -0.671  -1.510  0.00  0.00    -0.001 A 
ENDROOT
TORSDOF 0
ENDMDL
