MODEL 1
REMARK minimizedAffinity -5.15732431
REMARK minimizedRMSD -1
REMARK  0 active torsions:
REMARK  status: ('A' for Active; 'I' for Inactive)
ROOT
ATOM      1  C   UNL d   1       0.128   3.383  -0.455  0.00  0.00     0.077 C 
ATOM      2  C1  UNL d   1       0.014   1.888  -0.508  0.00  0.00    -0.074 A 
ATOM      3  C2  UNL d   1       0.102   1.204  -1.725  0.00  0.00    -0.005 A 
ATOM      4  C3  UNL d   1       0.004  -0.187  -1.758  0.00  0.00     0.006 A 
ATOM      5  C4  UNL d   1      -0.183  -0.906  -0.577  0.00  0.00    -0.005 A 
ATOM      6  C5  UNL d   1      -0.272  -0.239   0.649  0.00  0.00    -0.074 A 
ATOM      7  C6  UNL d   1      -0.462  -0.998   1.928  0.00  0.00     0.077 C 
ATOM      8  C7  UNL d   1      -0.166   1.158   0.675  0.00  0.00    -0.001 A 
ENDROOT
TORSDOF 0
ENDMDL
