MODEL 1
REMARK minimizedAffinity -1.8875556
REMARK minimizedRMSD -1
REMARK  0 active torsions:
REMARK  status: ('A' for Active; 'I' for Inactive)
ROOT
ATOM      1  C   UNL d   1      -2.006   2.076   1.840  0.00  0.00    -0.002 A 
ATOM      2  C1  UNL d   1      -2.227   2.209   0.476  0.00  0.00     0.010 A 
ATOM      3  C2  UNL d   1      -1.525   1.420  -0.438  0.00  0.00     0.041 A 
ATOM      4  C3  UNL d   1      -0.591   0.484   0.047  0.00  0.00    -0.075 A 
ATOM      5  S   UNL d   1       0.383  -0.591  -0.885  0.00  0.00     0.015 SA
ATOM      6  C4  UNL d   1       1.115  -1.253   0.504  0.00  0.00     0.022 A 
ATOM      7  C5  UNL d   1       0.639  -0.680   1.660  0.00  0.00     0.026 A 
ATOM      8  C6  UNL d   1      -0.352   0.330   1.416  0.00  0.00    -0.082 A 
ATOM      9  C7  UNL d   1      -1.078   1.146   2.317  0.00  0.00     0.045 A 
ENDROOT
TORSDOF 0
ENDMDL
