MODEL 1
REMARK minimizedAffinity -0.0506596193
REMARK minimizedRMSD -1
REMARK  0 active torsions:
REMARK  status: ('A' for Active; 'I' for Inactive)
ROOT
ATOM      1  C   UNL d   1      -0.529  -0.723   2.751  0.00  0.00    -0.002 A 
ATOM      2  C1  UNL d   1       0.766  -1.015   2.345  0.00  0.00     0.010 A 
ATOM      3  C2  UNL d   1       1.281  -0.469   1.168  0.00  0.00     0.041 A 
ATOM      4  C3  UNL d   1       0.465   0.384   0.398  0.00  0.00    -0.075 A 
ATOM      5  S   UNL d   1       0.884   1.168  -1.079  0.00  0.00     0.015 SA
ATOM      6  C4  UNL d   1      -0.646   1.909  -1.206  0.00  0.00     0.022 A 
ATOM      7  C5  UNL d   1      -1.469   1.577  -0.155  0.00  0.00     0.026 A 
ATOM      8  C6  UNL d   1      -0.841   0.693   0.787  0.00  0.00    -0.082 A 
ATOM      9  C7  UNL d   1      -1.335   0.123   1.985  0.00  0.00     0.045 A 
ENDROOT
TORSDOF 0
ENDMDL
