MODEL 1
REMARK minimizedAffinity -3.7976191
REMARK minimizedRMSD -1
REMARK  0 active torsions:
REMARK  status: ('A' for Active; 'I' for Inactive)
ROOT
ATOM      1  C   UNL d   1      -0.625   0.872   0.773  0.00  0.00    -0.002 A 
ATOM      2  C1  UNL d   1      -1.791   0.135   0.617  0.00  0.00     0.010 A 
ATOM      3  C2  UNL d   1      -1.794  -1.035  -0.145  0.00  0.00     0.041 A 
ATOM      4  C3  UNL d   1      -0.595  -1.457  -0.751  0.00  0.00    -0.075 A 
ATOM      5  S   UNL d   1      -0.361  -2.859  -1.727  0.00  0.00     0.015 SA
ATOM      6  C4  UNL d   1       1.292  -2.513  -1.959  0.00  0.00     0.022 A 
ATOM      7  C5  UNL d   1       1.673  -1.360  -1.314  0.00  0.00     0.026 A 
ATOM      8  C6  UNL d   1       0.592  -0.733  -0.607  0.00  0.00    -0.082 A 
ATOM      9  C7  UNL d   1       0.563   0.450   0.171  0.00  0.00     0.045 A 
ENDROOT
TORSDOF 0
ENDMDL
