MODEL 1
REMARK minimizedAffinity -5.92520809
REMARK minimizedRMSD -1
REMARK  0 active torsions:
REMARK  status: ('A' for Active; 'I' for Inactive)
ROOT
ATOM      1  C   UNL d   1      -1.813   3.030   1.152  0.00  0.00    -0.002 A 
ATOM      2  C1  UNL d   1      -1.610   1.840   1.838  0.00  0.00     0.010 A 
ATOM      3  C2  UNL d   1      -0.745   0.868   1.332  0.00  0.00     0.041 A 
ATOM      4  C3  UNL d   1      -0.079   1.114   0.115  0.00  0.00    -0.075 A 
ATOM      5  S   UNL d   1       1.028   0.069  -0.694  0.00  0.00     0.015 SA
ATOM      6  C4  UNL d   1       1.258   1.177  -1.968  0.00  0.00     0.022 A 
ATOM      7  C5  UNL d   1       0.516   2.322  -1.797  0.00  0.00     0.026 A 
ATOM      8  C6  UNL d   1      -0.266   2.305  -0.593  0.00  0.00    -0.082 A 
ATOM      9  C7  UNL d   1      -1.150   3.270  -0.055  0.00  0.00     0.045 A 
ENDROOT
TORSDOF 0
ENDMDL
