MODEL 1
REMARK minimizedAffinity 1.15402889
REMARK minimizedRMSD -1
REMARK  0 active torsions:
REMARK  status: ('A' for Active; 'I' for Inactive)
ROOT
ATOM      1  C   UNL d   1      -0.614   0.268   1.932  0.00  0.00    -0.002 A 
ATOM      2  C1  UNL d   1      -1.848  -0.292   1.634  0.00  0.00     0.010 A 
ATOM      3  C2  UNL d   1      -1.992  -1.156   0.547  0.00  0.00     0.041 A 
ATOM      4  C3  UNL d   1      -0.863  -1.454  -0.241  0.00  0.00    -0.075 A 
ATOM      5  S   UNL d   1      -0.801  -2.487  -1.620  0.00  0.00     0.015 SA
ATOM      6  C4  UNL d   1       0.866  -2.211  -1.845  0.00  0.00     0.022 A 
ATOM      7  C5  UNL d   1       1.379  -1.354  -0.900  0.00  0.00     0.026 A 
ATOM      8  C6  UNL d   1       0.391  -0.904   0.040  0.00  0.00    -0.082 A 
ATOM      9  C7  UNL d   1       0.504  -0.030   1.148  0.00  0.00     0.045 A 
ENDROOT
TORSDOF 0
ENDMDL
