MODEL 1
REMARK minimizedAffinity -3.01986575
REMARK minimizedRMSD -1
REMARK  0 active torsions:
REMARK  status: ('A' for Active; 'I' for Inactive)
ROOT
ATOM      1  C   UNL d   1      -2.308   1.968   1.672  0.00  0.00    -0.002 A 
ATOM      2  C1  UNL d   1      -2.468   2.252   0.324  0.00  0.00     0.010 A 
ATOM      3  C2  UNL d   1      -1.642   1.655  -0.631  0.00  0.00     0.041 A 
ATOM      4  C3  UNL d   1      -0.645   0.757  -0.203  0.00  0.00    -0.075 A 
ATOM      5  S   UNL d   1       0.482  -0.094  -1.193  0.00  0.00     0.015 SA
ATOM      6  C4  UNL d   1       1.201  -0.855   0.151  0.00  0.00     0.022 A 
ATOM      7  C5  UNL d   1       0.609  -0.481   1.334  0.00  0.00     0.026 A 
ATOM      8  C6  UNL d   1      -0.465   0.454   1.149  0.00  0.00    -0.082 A 
ATOM      9  C7  UNL d   1      -1.317   1.076   2.093  0.00  0.00     0.045 A 
ENDROOT
TORSDOF 0
ENDMDL
