MODEL 1
REMARK minimizedAffinity -3.51447773
REMARK minimizedRMSD -1
REMARK  0 active torsions:
REMARK  status: ('A' for Active; 'I' for Inactive)
ROOT
ATOM      1  C   UNL d   1      -2.043   2.074   1.766  0.00  0.00    -0.002 A 
ATOM      2  C1  UNL d   1      -1.664   2.979   0.785  0.00  0.00     0.010 A 
ATOM      3  C2  UNL d   1      -0.639   2.669  -0.111  0.00  0.00     0.041 A 
ATOM      4  C3  UNL d   1       0.005   1.420  -0.004  0.00  0.00    -0.075 A 
ATOM      5  S   UNL d   1       1.286   0.823  -0.991  0.00  0.00     0.015 SA
ATOM      6  C4  UNL d   1       1.360  -0.648  -0.134  0.00  0.00     0.022 A 
ATOM      7  C5  UNL d   1       0.438  -0.700   0.883  0.00  0.00     0.026 A 
ATOM      8  C6  UNL d   1      -0.359   0.491   0.975  0.00  0.00    -0.082 A 
ATOM      9  C7  UNL d   1      -1.402   0.836   1.869  0.00  0.00     0.045 A 
ENDROOT
TORSDOF 0
ENDMDL
