MODEL 1
REMARK minimizedAffinity -5.61827946
REMARK minimizedRMSD -1
REMARK  0 active torsions:
REMARK  status: ('A' for Active; 'I' for Inactive)
ROOT
ATOM      1  C   UNL d   1      -1.887   3.021   1.126  0.00  0.00    -0.002 A 
ATOM      2  C1  UNL d   1      -1.126   3.439   0.044  0.00  0.00     0.010 A 
ATOM      3  C2  UNL d   1      -0.284   2.544  -0.620  0.00  0.00     0.041 A 
ATOM      4  C3  UNL d   1      -0.221   1.209  -0.175  0.00  0.00    -0.075 A 
ATOM      5  S   UNL d   1       0.738  -0.062  -0.835  0.00  0.00     0.015 SA
ATOM      6  C4  UNL d   1       0.159  -1.190   0.304  0.00  0.00     0.022 A 
ATOM      7  C5  UNL d   1      -0.744  -0.628   1.174  0.00  0.00     0.026 A 
ATOM      8  C6  UNL d   1      -0.979   0.765   0.912  0.00  0.00    -0.082 A 
ATOM      9  C7  UNL d   1      -1.822   1.696   1.565  0.00  0.00     0.045 A 
ENDROOT
TORSDOF 0
ENDMDL
