MODEL 1
REMARK minimizedAffinity -5.43855953
REMARK minimizedRMSD -1
REMARK  0 active torsions:
REMARK  status: ('A' for Active; 'I' for Inactive)
ROOT
ATOM      1  C   UNL d   1      -1.897   3.158   1.292  0.00  0.00    -0.002 A 
ATOM      2  C1  UNL d   1      -1.067   3.704   0.324  0.00  0.00     0.010 A 
ATOM      3  C2  UNL d   1      -0.159   2.901  -0.369  0.00  0.00     0.041 A 
ATOM      4  C3  UNL d   1      -0.100   1.525  -0.071  0.00  0.00    -0.075 A 
ATOM      5  S   UNL d   1       0.932   0.348  -0.792  0.00  0.00     0.015 SA
ATOM      6  C4  UNL d   1       0.295  -0.908   0.167  0.00  0.00     0.022 A 
ATOM      7  C5  UNL d   1      -0.683  -0.458   1.023  0.00  0.00     0.026 A 
ATOM      8  C6  UNL d   1      -0.927   0.952   0.899  0.00  0.00    -0.082 A 
ATOM      9  C7  UNL d   1      -1.836   1.793   1.585  0.00  0.00     0.045 A 
ENDROOT
TORSDOF 0
ENDMDL
