MODEL 1
REMARK minimizedAffinity -0.796157598
REMARK minimizedRMSD -1
REMARK  0 active torsions:
REMARK  status: ('A' for Active; 'I' for Inactive)
ROOT
ATOM      1  C   UNL d   1      -2.042   0.467   2.313  0.00  0.00    -0.002 A 
ATOM      2  C1  UNL d   1      -2.181   1.772   1.860  0.00  0.00     0.010 A 
ATOM      3  C2  UNL d   1      -1.407   2.242   0.798  0.00  0.00     0.041 A 
ATOM      4  C3  UNL d   1      -0.482   1.369   0.191  0.00  0.00    -0.075 A 
ATOM      5  S   UNL d   1       0.573   1.725  -1.126  0.00  0.00     0.015 SA
ATOM      6  C4  UNL d   1       1.232   0.154  -1.120  0.00  0.00     0.022 A 
ATOM      7  C5  UNL d   1       0.673  -0.636  -0.143  0.00  0.00     0.026 A 
ATOM      8  C6  UNL d   1      -0.324   0.051   0.628  0.00  0.00    -0.082 A 
ATOM      9  C7  UNL d   1      -1.124  -0.395   1.708  0.00  0.00     0.045 A 
ENDROOT
TORSDOF 0
ENDMDL
