MODEL 1
REMARK minimizedAffinity -0.294227779
REMARK minimizedRMSD -1
REMARK  0 active torsions:
REMARK  status: ('A' for Active; 'I' for Inactive)
ROOT
ATOM      1  C   UNL d   1       1.032  -1.050  -0.846  0.00  0.00    -0.002 A 
ATOM      2  C1  UNL d   1       1.871  -0.804   0.231  0.00  0.00     0.010 A 
ATOM      3  C2  UNL d   1       1.416  -0.078   1.334  0.00  0.00     0.041 A 
ATOM      4  C3  UNL d   1       0.091   0.400   1.336  0.00  0.00    -0.075 A 
ATOM      5  S   UNL d   1      -0.684   1.310   2.578  0.00  0.00     0.015 SA
ATOM      6  C4  UNL d   1      -2.147   1.393   1.707  0.00  0.00     0.022 A 
ATOM      7  C5  UNL d   1      -2.064   0.748   0.497  0.00  0.00     0.026 A 
ATOM      8  C6  UNL d   1      -0.773   0.164   0.263  0.00  0.00    -0.082 A 
ATOM      9  C7  UNL d   1      -0.282  -0.575  -0.841  0.00  0.00     0.045 A 
ENDROOT
TORSDOF 0
ENDMDL
