MODEL 1
REMARK minimizedAffinity -0.478197813
REMARK minimizedRMSD -1
REMARK  0 active torsions:
REMARK  status: ('A' for Active; 'I' for Inactive)
ROOT
ATOM      1  C   UNL d   1      -2.517   2.211   1.139  0.00  0.00    -0.002 A 
ATOM      2  C1  UNL d   1      -1.585   2.102   2.162  0.00  0.00     0.010 A 
ATOM      3  C2  UNL d   1      -0.512   1.216   2.054  0.00  0.00     0.041 A 
ATOM      4  C3  UNL d   1      -0.388   0.434   0.888  0.00  0.00    -0.075 A 
ATOM      5  S   UNL d   1       0.845  -0.718   0.535  0.00  0.00     0.015 SA
ATOM      6  C4  UNL d   1       0.165  -1.092  -0.982  0.00  0.00     0.022 A 
ATOM      7  C5  UNL d   1      -0.976  -0.366  -1.229  0.00  0.00     0.026 A 
ATOM      8  C6  UNL d   1      -1.313   0.526  -0.156  0.00  0.00    -0.082 A 
ATOM      9  C7  UNL d   1      -2.391   1.434  -0.016  0.00  0.00     0.045 A 
ENDROOT
TORSDOF 0
ENDMDL
