MODEL 1
REMARK minimizedAffinity 8.14570045
REMARK minimizedRMSD -1
REMARK  0 active torsions:
REMARK  status: ('A' for Active; 'I' for Inactive)
ROOT
ATOM      1  C1  BNZ d   1      -3.546  -0.067   5.549  0.00  0.00     0.000 A 
ATOM      2  C2  BNZ d   1      -3.574   1.131   4.886  0.00  0.00     0.000 A 
ATOM      3  C3  BNZ d   1      -3.697   1.176   3.526  0.00  0.00     0.000 A 
ATOM      4  C4  BNZ d   1      -3.751   0.024   2.827  0.00  0.00     0.000 A 
ATOM      5  C5  BNZ d   1      -3.715  -1.192   3.479  0.00  0.00     0.000 A 
ATOM      6  C6  BNZ d   1      -3.631  -1.233   4.852  0.00  0.00     0.000 A 
ENDROOT
TORSDOF 0
ENDMDL
