MODEL 1
REMARK minimizedAffinity 6.99630547
REMARK minimizedRMSD -1
REMARK  0 active torsions:
REMARK  status: ('A' for Active; 'I' for Inactive)
ROOT
ATOM      1  C1  BNZ d   1      -4.954   2.567   4.293  0.00  0.00     0.000 A 
ATOM      2  C2  BNZ d   1      -4.548   1.916   3.159  0.00  0.00     0.000 A 
ATOM      3  C3  BNZ d   1      -3.375   1.214   3.137  0.00  0.00     0.000 A 
ATOM      4  C4  BNZ d   1      -2.591   1.198   4.235  0.00  0.00     0.000 A 
ATOM      5  C5  BNZ d   1      -2.982   1.858   5.383  0.00  0.00     0.000 A 
ATOM      6  C6  BNZ d   1      -4.182   2.531   5.414  0.00  0.00     0.000 A 
ENDROOT
TORSDOF 0
ENDMDL
