MODEL 1
REMARK minimizedAffinity 6.4972167
REMARK minimizedRMSD -1
REMARK  0 active torsions:
REMARK  status: ('A' for Active; 'I' for Inactive)
ROOT
ATOM      1  C1  BNZ d   1       2.008  -0.480  -1.165  0.00  0.00     0.000 A 
ATOM      2  C2  BNZ d   1       1.921  -1.844  -1.259  0.00  0.00     0.000 A 
ATOM      3  C3  BNZ d   1       2.819  -2.649  -0.616  0.00  0.00     0.000 A 
ATOM      4  C4  BNZ d   1       3.824  -2.090   0.088  0.00  0.00     0.000 A 
ATOM      5  C5  BNZ d   1       3.931  -0.717   0.186  0.00  0.00     0.000 A 
ATOM      6  C6  BNZ d   1       3.003   0.090  -0.432  0.00  0.00     0.000 A 
ENDROOT
TORSDOF 0
ENDMDL
