MODEL 1
REMARK minimizedAffinity 3.96032882
REMARK minimizedRMSD -1
REMARK  0 active torsions:
REMARK  status: ('A' for Active; 'I' for Inactive)
ROOT
ATOM      1  C1  BNZ d   1       2.570   0.713  -0.835  0.00  0.00     0.000 A 
ATOM      2  C2  BNZ d   1       3.170   1.925  -1.051  0.00  0.00     0.000 A 
ATOM      3  C3  BNZ d   1       4.299   2.278  -0.366  0.00  0.00     0.000 A 
ATOM      4  C4  BNZ d   1       4.802   1.438   0.561  0.00  0.00     0.000 A 
ATOM      5  C5  BNZ d   1       4.203   0.217   0.797  0.00  0.00     0.000 A 
ATOM      6  C6  BNZ d   1       3.089  -0.152   0.078  0.00  0.00     0.000 A 
ENDROOT
TORSDOF 0
ENDMDL
