MODEL 1
REMARK minimizedAffinity 9.23705387
REMARK minimizedRMSD -1
REMARK  0 active torsions:
REMARK  status: ('A' for Active; 'I' for Inactive)
ROOT
ATOM      1  C1  BNZ d   1       3.551  -0.631  -0.242  0.00  0.00     0.000 A 
ATOM      2  C2  BNZ d   1       4.497   0.243   0.223  0.00  0.00     0.000 A 
ATOM      3  C3  BNZ d   1       4.454   1.566  -0.117  0.00  0.00     0.000 A 
ATOM      4  C4  BNZ d   1       3.490   2.005  -0.952  0.00  0.00     0.000 A 
ATOM      5  C5  BNZ d   1       2.535   1.134  -1.436  0.00  0.00     0.000 A 
ATOM      6  C6  BNZ d   1       2.558  -0.189  -1.061  0.00  0.00     0.000 A 
ENDROOT
TORSDOF 0
ENDMDL
