MODEL 1
REMARK minimizedAffinity 17.7091751
REMARK minimizedRMSD -1
REMARK  0 active torsions:
REMARK  status: ('A' for Active; 'I' for Inactive)
ROOT
ATOM      1  C1  BNZ d   1      -4.973   3.588  -5.969  0.00  0.00     0.000 A 
ATOM      2  C2  BNZ d   1      -3.609   3.644  -5.857  0.00  0.00     0.000 A 
ATOM      3  C3  BNZ d   1      -2.963   4.845  -5.762  0.00  0.00     0.000 A 
ATOM      4  C4  BNZ d   1      -3.677   5.988  -5.819  0.00  0.00     0.000 A 
ATOM      5  C5  BNZ d   1      -5.051   5.948  -5.941  0.00  0.00     0.000 A 
ATOM      6  C6  BNZ d   1      -5.701   4.737  -5.998  0.00  0.00     0.000 A 
ENDROOT
TORSDOF 0
ENDMDL
