MODEL 1
REMARK minimizedAffinity 14.4204254
REMARK minimizedRMSD -1
REMARK  0 active torsions:
REMARK  status: ('A' for Active; 'I' for Inactive)
ROOT
ATOM      1  C1  BNZ d   1      -1.959   0.233   3.362  0.00  0.00     0.000 A 
ATOM      2  C2  BNZ d   1      -0.593   0.265   3.449  0.00  0.00     0.000 A 
ATOM      3  C3  BNZ d   1       0.136   1.141   2.693  0.00  0.00     0.000 A 
ATOM      4  C4  BNZ d   1      -0.498   1.953   1.823  0.00  0.00     0.000 A 
ATOM      5  C5  BNZ d   1      -1.874   1.926   1.717  0.00  0.00     0.000 A 
ATOM      6  C6  BNZ d   1      -2.607   1.071   2.508  0.00  0.00     0.000 A 
ENDROOT
TORSDOF 0
ENDMDL
