MODEL 1
REMARK minimizedAffinity 7.27131033
REMARK minimizedRMSD -1
REMARK  0 active torsions:
REMARK  status: ('A' for Active; 'I' for Inactive)
ROOT
ATOM      1  C1  BNZ d   1       1.821  -1.436  -2.367  0.00  0.00     0.000 A 
ATOM      2  C2  BNZ d   1       2.857  -1.094  -1.539  0.00  0.00     0.000 A 
ATOM      3  C3  BNZ d   1       3.251  -1.927  -0.530  0.00  0.00     0.000 A 
ATOM      4  C4  BNZ d   1       2.584  -3.081  -0.324  0.00  0.00     0.000 A 
ATOM      5  C5  BNZ d   1       1.531  -3.435  -1.144  0.00  0.00     0.000 A 
ATOM      6  C6  BNZ d   1       1.162  -2.612  -2.183  0.00  0.00     0.000 A 
ENDROOT
TORSDOF 0
ENDMDL
