MODEL 1
REMARK minimizedAffinity 3.49420953
REMARK minimizedRMSD -1
REMARK  0 active torsions:
REMARK  status: ('A' for Active; 'I' for Inactive)
ROOT
ATOM      1  C1  BNZ d   1       3.613  -2.018   0.245  0.00  0.00     0.000 A 
ATOM      2  C2  BNZ d   1       4.361  -0.996   0.766  0.00  0.00     0.000 A 
ATOM      3  C3  BNZ d   1       4.123   0.301   0.404  0.00  0.00     0.000 A 
ATOM      4  C4  BNZ d   1       3.167   0.570  -0.508  0.00  0.00     0.000 A 
ATOM      5  C5  BNZ d   1       2.410  -0.451  -1.049  0.00  0.00     0.000 A 
ATOM      6  C6  BNZ d   1       2.626  -1.751  -0.653  0.00  0.00     0.000 A 
ENDROOT
TORSDOF 0
ENDMDL
