MODEL 1
REMARK minimizedAffinity 7.81476212
REMARK minimizedRMSD -1
REMARK  0 active torsions:
REMARK  status: ('A' for Active; 'I' for Inactive)
ROOT
ATOM      1  C1  BNZ d   1       0.936   1.505   5.999  0.00  0.00     0.000 A 
ATOM      2  C2  BNZ d   1       1.127   0.839   4.817  0.00  0.00     0.000 A 
ATOM      3  C3  BNZ d   1       0.785   1.416   3.626  0.00  0.00     0.000 A 
ATOM      4  C4  BNZ d   1       0.215   2.639   3.621  0.00  0.00     0.000 A 
ATOM      5  C5  BNZ d   1       0.007   3.318   4.805  0.00  0.00     0.000 A 
ATOM      6  C6  BNZ d   1       0.389   2.751   5.999  0.00  0.00     0.000 A 
ENDROOT
TORSDOF 0
ENDMDL
