MODEL 1
REMARK minimizedAffinity 10.8873768
REMARK minimizedRMSD -1
REMARK  0 active torsions:
REMARK  status: ('A' for Active; 'I' for Inactive)
ROOT
ATOM      1  C1  BNZ d   1      -1.469   0.575   2.235  0.00  0.00     0.000 A 
ATOM      2  C2  BNZ d   1      -2.208  -0.502   1.823  0.00  0.00     0.000 A 
ATOM      3  C3  BNZ d   1      -3.505  -0.657   2.226  0.00  0.00     0.000 A 
ATOM      4  C4  BNZ d   1      -4.048   0.243   3.072  0.00  0.00     0.000 A 
ATOM      5  C5  BNZ d   1      -3.312   1.328   3.504  0.00  0.00     0.000 A 
ATOM      6  C6  BNZ d   1      -2.020   1.502   3.065  0.00  0.00     0.000 A 
ENDROOT
TORSDOF 0
ENDMDL
