MODEL 1
REMARK minimizedAffinity 2.23743987
REMARK minimizedRMSD -1
REMARK  0 active torsions:
REMARK  status: ('A' for Active; 'I' for Inactive)
ROOT
ATOM      1  C1  BNZ d   1       2.605  -1.557  -1.112  0.00  0.00     0.000 A 
ATOM      2  C2  BNZ d   1       3.123  -2.810  -0.925  0.00  0.00     0.000 A 
ATOM      3  C3  BNZ d   1       4.142  -3.022  -0.039  0.00  0.00     0.000 A 
ATOM      4  C4  BNZ d   1       4.668  -1.974   0.628  0.00  0.00     0.000 A 
ATOM      5  C5  BNZ d   1       4.163  -0.703   0.444  0.00  0.00     0.000 A 
ATOM      6  C6  BNZ d   1       3.111  -0.500  -0.420  0.00  0.00     0.000 A 
ENDROOT
TORSDOF 0
ENDMDL
