MODEL 1
REMARK minimizedAffinity 10.0797663
REMARK minimizedRMSD -1
REMARK  0 active torsions:
REMARK  status: ('A' for Active; 'I' for Inactive)
ROOT
ATOM      1  C1  BNZ d   1      -4.955  -1.306   2.407  0.00  0.00     0.000 A 
ATOM      2  C2  BNZ d   1      -4.518  -0.058   2.051  0.00  0.00     0.000 A 
ATOM      3  C3  BNZ d   1      -3.692   0.655   2.874  0.00  0.00     0.000 A 
ATOM      4  C4  BNZ d   1      -3.336   0.137   4.068  0.00  0.00     0.000 A 
ATOM      5  C5  BNZ d   1      -3.776  -1.117   4.444  0.00  0.00     0.000 A 
ATOM      6  C6  BNZ d   1      -4.576  -1.848   3.596  0.00  0.00     0.000 A 
ENDROOT
TORSDOF 0
ENDMDL
