MODEL 1
REMARK minimizedAffinity 7.2168088
REMARK minimizedRMSD -1
REMARK  0 active torsions:
REMARK  status: ('A' for Active; 'I' for Inactive)
ROOT
ATOM      1  C1  BNZ d   1      -3.616   2.219   5.610  0.00  0.00     0.000 A 
ATOM      2  C2  BNZ d   1      -3.180   1.164   4.853  0.00  0.00     0.000 A 
ATOM      3  C3  BNZ d   1      -3.770   0.871   3.655  0.00  0.00     0.000 A 
ATOM      4  C4  BNZ d   1      -4.820   1.606   3.236  0.00  0.00     0.000 A 
ATOM      5  C5  BNZ d   1      -5.277   2.667   3.992  0.00  0.00     0.000 A 
ATOM      6  C6  BNZ d   1      -4.655   2.984   5.178  0.00  0.00     0.000 A 
ENDROOT
TORSDOF 0
ENDMDL
