MODEL 1
REMARK minimizedAffinity 2.79053807
REMARK minimizedRMSD -1
REMARK  0 active torsions:
REMARK  status: ('A' for Active; 'I' for Inactive)
ROOT
ATOM      1  C1  BNZ d   1      -1.076  -4.155  -4.816  0.00  0.00     0.000 A 
ATOM      2  C2  BNZ d   1      -1.708  -3.835  -5.987  0.00  0.00     0.000 A 
ATOM      3  C3  BNZ d   1      -3.033  -3.496  -5.998  0.00  0.00     0.000 A 
ATOM      4  C4  BNZ d   1      -3.731  -3.515  -4.845  0.00  0.00     0.000 A 
ATOM      5  C5  BNZ d   1      -3.110  -3.845  -3.657  0.00  0.00     0.000 A 
ATOM      6  C6  BNZ d   1      -1.768  -4.148  -3.644  0.00  0.00     0.000 A 
ENDROOT
TORSDOF 0
ENDMDL
