MODEL 1
REMARK minimizedAffinity 5.22345161
REMARK minimizedRMSD -1
REMARK  0 active torsions:
REMARK  status: ('A' for Active; 'I' for Inactive)
ROOT
ATOM      1  C1  BNZ d   1      -1.692   0.646   2.548  0.00  0.00     0.000 A 
ATOM      2  C2  BNZ d   1      -0.746  -0.325   2.743  0.00  0.00     0.000 A 
ATOM      3  C3  BNZ d   1       0.413  -0.048   3.414  0.00  0.00     0.000 A 
ATOM      4  C4  BNZ d   1       0.642   1.206   3.852  0.00  0.00     0.000 A 
ATOM      5  C5  BNZ d   1      -0.298   2.198   3.655  0.00  0.00     0.000 A 
ATOM      6  C6  BNZ d   1      -1.481   1.907   3.014  0.00  0.00     0.000 A 
ENDROOT
TORSDOF 0
ENDMDL
