MODEL 1
REMARK minimizedAffinity -4.60297346
REMARK minimizedRMSD -1
REMARK  0 active torsions:
REMARK  status: ('A' for Active; 'I' for Inactive)
ROOT
ATOM      1  C   UNL d   1       0.734  -0.629   1.266  0.00  0.00     0.078 C 
ATOM      2  C1  UNL d   1       1.782  -0.544   0.198  0.00  0.00    -0.077 A 
ATOM      3  C2  UNL d   1       2.741  -1.553   0.046  0.00  0.00    -0.001 A 
ATOM      4  C3  UNL d   1       3.717  -1.456  -0.946  0.00  0.00     0.003 A 
ATOM      5  C4  UNL d   1       3.745  -0.350  -1.794  0.00  0.00    -0.005 A 
ATOM      6  C5  UNL d   1       2.797   0.660  -1.649  0.00  0.00     0.003 A 
ATOM      7  C6  UNL d   1       1.820   0.564  -0.657  0.00  0.00    -0.001 A 
ENDROOT
TORSDOF 0
ENDMDL
