MODEL 1
REMARK minimizedAffinity -3.77083135
REMARK minimizedRMSD -1
REMARK  0 active torsions:
REMARK  status: ('A' for Active; 'I' for Inactive)
ROOT
ATOM      1  C   UNL d   1       3.815  -0.770  -1.525  0.00  0.00     0.078 C 
ATOM      2  C1  UNL d   1       2.651  -0.614  -0.593  0.00  0.00    -0.077 A 
ATOM      3  C2  UNL d   1       2.436   0.585   0.098  0.00  0.00    -0.001 A 
ATOM      4  C3  UNL d   1       1.354   0.712   0.970  0.00  0.00     0.003 A 
ATOM      5  C4  UNL d   1       0.478  -0.355   1.160  0.00  0.00    -0.005 A 
ATOM      6  C5  UNL d   1       0.685  -1.552   0.478  0.00  0.00     0.003 A 
ATOM      7  C6  UNL d   1       1.767  -1.682  -0.394  0.00  0.00    -0.001 A 
ENDROOT
TORSDOF 0
ENDMDL
