MODEL 1
REMARK minimizedAffinity -4.12247753
REMARK minimizedRMSD -1
REMARK  0 active torsions:
REMARK  status: ('A' for Active; 'I' for Inactive)
ROOT
ATOM      1  C   UNL d   1       0.379  -0.010   3.221  0.00  0.00     0.078 C 
ATOM      2  C1  UNL d   1       0.919  -0.241   1.841  0.00  0.00    -0.077 A 
ATOM      3  C2  UNL d   1       1.318  -1.518   1.428  0.00  0.00    -0.001 A 
ATOM      4  C3  UNL d   1       1.827  -1.717   0.144  0.00  0.00     0.003 A 
ATOM      5  C4  UNL d   1       1.944  -0.644  -0.737  0.00  0.00    -0.005 A 
ATOM      6  C5  UNL d   1       1.552   0.631  -0.333  0.00  0.00     0.003 A 
ATOM      7  C6  UNL d   1       1.042   0.832   0.950  0.00  0.00    -0.001 A 
ENDROOT
TORSDOF 0
ENDMDL
