MODEL 1
REMARK minimizedAffinity -4.63798285
REMARK minimizedRMSD -1
REMARK  0 active torsions:
REMARK  status: ('A' for Active; 'I' for Inactive)
ROOT
ATOM      1  C   UNL d   1       3.982  -0.732  -1.960  0.00  0.00     0.078 C 
ATOM      2  C1  UNL d   1       2.878  -0.599  -0.954  0.00  0.00    -0.077 A 
ATOM      3  C2  UNL d   1       2.314   0.649  -0.663  0.00  0.00    -0.001 A 
ATOM      4  C3  UNL d   1       1.293   0.759   0.283  0.00  0.00     0.003 A 
ATOM      5  C4  UNL d   1       0.828  -0.375   0.945  0.00  0.00    -0.005 A 
ATOM      6  C5  UNL d   1       1.384  -1.621   0.664  0.00  0.00     0.003 A 
ATOM      7  C6  UNL d   1       2.405  -1.733  -0.281  0.00  0.00    -0.001 A 
ENDROOT
TORSDOF 0
ENDMDL
