MODEL 1
REMARK minimizedAffinity -5.81170273
REMARK minimizedRMSD -1
REMARK  0 active torsions:
REMARK  status: ('A' for Active; 'I' for Inactive)
ROOT
ATOM      1  C   UNL d   1       0.048  -0.722   1.874  0.00  0.00     0.078 C 
ATOM      2  C1  UNL d   1       1.085  -0.570   0.803  0.00  0.00    -0.077 A 
ATOM      3  C2  UNL d   1       1.271   0.654   0.148  0.00  0.00    -0.001 A 
ATOM      4  C3  UNL d   1       2.235   0.779  -0.854  0.00  0.00     0.003 A 
ATOM      5  C4  UNL d   1       3.018  -0.316  -1.212  0.00  0.00    -0.005 A 
ATOM      6  C5  UNL d   1       2.839  -1.539  -0.568  0.00  0.00     0.003 A 
ATOM      7  C6  UNL d   1       1.876  -1.665   0.435  0.00  0.00    -0.001 A 
ENDROOT
TORSDOF 0
ENDMDL
