MODEL 1
REMARK minimizedAffinity -0.0586190894
REMARK minimizedRMSD -1
REMARK  0 active torsions:
REMARK  status: ('A' for Active; 'I' for Inactive)
ROOT
ATOM      1  C   UNL d   1       2.043   1.854   0.120  0.00  0.00     0.078 C 
ATOM      2  C1  UNL d   1       2.089   0.393  -0.212  0.00  0.00    -0.077 A 
ATOM      3  C2  UNL d   1       3.149  -0.146  -0.952  0.00  0.00    -0.001 A 
ATOM      4  C3  UNL d   1       3.174  -1.506  -1.262  0.00  0.00     0.003 A 
ATOM      5  C4  UNL d   1       2.142  -2.340  -0.837  0.00  0.00    -0.005 A 
ATOM      6  C5  UNL d   1       1.082  -1.813  -0.101  0.00  0.00     0.003 A 
ATOM      7  C6  UNL d   1       1.055  -0.453   0.210  0.00  0.00    -0.001 A 
ENDROOT
TORSDOF 0
ENDMDL
