MODEL 1
REMARK minimizedAffinity -4.03299236
REMARK minimizedRMSD -1
REMARK  0 active torsions:
REMARK  status: ('A' for Active; 'I' for Inactive)
ROOT
ATOM      1  C   UNL d   1       1.417  -3.363   0.334  0.00  0.00     0.078 C 
ATOM      2  C1  UNL d   1       1.850  -1.944   0.118  0.00  0.00    -0.077 A 
ATOM      3  C2  UNL d   1       1.079  -0.874   0.590  0.00  0.00    -0.001 A 
ATOM      4  C3  UNL d   1       1.490   0.442   0.373  0.00  0.00     0.003 A 
ATOM      5  C4  UNL d   1       2.672   0.701  -0.318  0.00  0.00    -0.005 A 
ATOM      6  C5  UNL d   1       3.445  -0.356  -0.793  0.00  0.00     0.003 A 
ATOM      7  C6  UNL d   1       3.036  -1.673  -0.577  0.00  0.00    -0.001 A 
ENDROOT
TORSDOF 0
ENDMDL
