MODEL 1
REMARK minimizedAffinity -4.288517
REMARK minimizedRMSD -1
REMARK  0 active torsions:
REMARK  status: ('A' for Active; 'I' for Inactive)
ROOT
ATOM      1  C   UNL d   1       4.269  -0.427  -1.734  0.00  0.00     0.078 C 
ATOM      2  C1  UNL d   1       2.978  -0.583  -0.988  0.00  0.00    -0.077 A 
ATOM      3  C2  UNL d   1       2.159   0.523  -0.726  0.00  0.00    -0.001 A 
ATOM      4  C3  UNL d   1       0.964   0.365  -0.022  0.00  0.00     0.003 A 
ATOM      5  C4  UNL d   1       0.578  -0.897   0.427  0.00  0.00    -0.005 A 
ATOM      6  C5  UNL d   1       1.387  -2.002   0.172  0.00  0.00     0.003 A 
ATOM      7  C6  UNL d   1       2.582  -1.846  -0.532  0.00  0.00    -0.001 A 
ENDROOT
TORSDOF 0
ENDMDL
