MODEL 1
REMARK minimizedAffinity -4.56701469
REMARK minimizedRMSD -1
REMARK  0 active torsions:
REMARK  status: ('A' for Active; 'I' for Inactive)
ROOT
ATOM      1  C   UNL d   1       4.182  -0.984  -1.808  0.00  0.00     0.078 C 
ATOM      2  C1  UNL d   1       2.989  -0.677  -0.952  0.00  0.00    -0.077 A 
ATOM      3  C2  UNL d   1       2.367  -1.679  -0.196  0.00  0.00    -0.001 A 
ATOM      4  C3  UNL d   1       1.252  -1.381   0.588  0.00  0.00     0.003 A 
ATOM      5  C4  UNL d   1       0.747  -0.083   0.623  0.00  0.00    -0.005 A 
ATOM      6  C5  UNL d   1       1.358   0.920  -0.128  0.00  0.00     0.003 A 
ATOM      7  C6  UNL d   1       2.474   0.624  -0.913  0.00  0.00    -0.001 A 
ENDROOT
TORSDOF 0
ENDMDL
