MODEL 1
REMARK minimizedAffinity -4.90124989
REMARK minimizedRMSD -1
REMARK  0 active torsions:
REMARK  status: ('A' for Active; 'I' for Inactive)
ROOT
ATOM      1  C   UNL d   1       4.342  -0.174  -2.275  0.00  0.00     0.078 C 
ATOM      2  C1  UNL d   1       3.268  -0.523  -1.288  0.00  0.00    -0.077 A 
ATOM      3  C2  UNL d   1       2.277   0.404  -0.942  0.00  0.00    -0.001 A 
ATOM      4  C3  UNL d   1       1.290   0.069  -0.015  0.00  0.00     0.003 A 
ATOM      5  C4  UNL d   1       1.283  -1.193   0.575  0.00  0.00    -0.005 A 
ATOM      6  C5  UNL d   1       2.266  -2.122   0.239  0.00  0.00     0.003 A 
ATOM      7  C6  UNL d   1       3.255  -1.788  -0.688  0.00  0.00    -0.001 A 
ENDROOT
TORSDOF 0
ENDMDL
