MODEL 1
REMARK minimizedAffinity -6.48062563
REMARK minimizedRMSD -1
REMARK  0 active torsions:
REMARK  status: ('A' for Active; 'I' for Inactive)
ROOT
ATOM      1  C   UNL d   1       4.403  -0.061  -2.175  0.00  0.00     0.078 C 
ATOM      2  C1  UNL d   1       3.187  -0.013  -1.298  0.00  0.00    -0.077 A 
ATOM      3  C2  UNL d   1       2.725  -1.161  -0.643  0.00  0.00    -0.001 A 
ATOM      4  C3  UNL d   1       1.586  -1.104   0.162  0.00  0.00     0.003 A 
ATOM      5  C4  UNL d   1       0.899   0.098   0.318  0.00  0.00    -0.005 A 
ATOM      6  C5  UNL d   1       1.350   1.245  -0.332  0.00  0.00     0.003 A 
ATOM      7  C6  UNL d   1       2.489   1.190  -1.138  0.00  0.00    -0.001 A 
ENDROOT
TORSDOF 0
ENDMDL
