MODEL 1
REMARK minimizedAffinity -5.36053705
REMARK minimizedRMSD -1
REMARK  0 active torsions:
REMARK  status: ('A' for Active; 'I' for Inactive)
ROOT
ATOM      1  C   UNL d   1       4.497  -0.438  -2.473  0.00  0.00     0.078 C 
ATOM      2  C1  UNL d   1       3.337  -0.412  -1.524  0.00  0.00    -0.077 A 
ATOM      3  C2  UNL d   1       2.941  -1.566  -0.837  0.00  0.00    -0.001 A 
ATOM      4  C3  UNL d   1       1.853  -1.529   0.036  0.00  0.00     0.003 A 
ATOM      5  C4  UNL d   1       1.151  -0.342   0.230  0.00  0.00    -0.005 A 
ATOM      6  C5  UNL d   1       1.535   0.811  -0.451  0.00  0.00     0.003 A 
ATOM      7  C6  UNL d   1       2.623   0.777  -1.325  0.00  0.00    -0.001 A 
ENDROOT
TORSDOF 0
ENDMDL
