MODEL 1
REMARK minimizedAffinity -3.99545693
REMARK minimizedRMSD -1
REMARK  0 active torsions:
REMARK  status: ('A' for Active; 'I' for Inactive)
ROOT
ATOM      1  C   UNL d   1       5.705  -0.027  -2.968  0.00  0.00     0.078 C 
ATOM      2  C1  UNL d   1       4.483  -0.097  -2.102  0.00  0.00    -0.077 A 
ATOM      3  C2  UNL d   1       3.770   1.060  -1.766  0.00  0.00    -0.001 A 
ATOM      4  C3  UNL d   1       2.639   0.981  -0.951  0.00  0.00     0.003 A 
ATOM      5  C4  UNL d   1       2.213  -0.253  -0.464  0.00  0.00    -0.005 A 
ATOM      6  C5  UNL d   1       2.918  -1.410  -0.790  0.00  0.00     0.003 A 
ATOM      7  C6  UNL d   1       4.049  -1.333  -1.605  0.00  0.00    -0.001 A 
ENDROOT
TORSDOF 0
ENDMDL
