MODEL 1
REMARK minimizedAffinity 14.1583138
REMARK minimizedRMSD -1
REMARK  0 active torsions:
REMARK  status: ('A' for Active; 'I' for Inactive)
ROOT
ATOM      1  C   UNL d   1       5.896  -1.976  -1.653  0.00  0.00     0.020 A 
ATOM      2  C1  UNL d   1       4.871  -1.131  -1.229  0.00  0.00     0.020 A 
ATOM      3  C2  UNL d   1       3.948  -1.575  -0.280  0.00  0.00     0.034 A 
ATOM      4  C3  UNL d   1       4.048  -2.868   0.248  0.00  0.00     0.017 A 
ATOM      5  C4  UNL d   1       5.077  -3.715  -0.179  0.00  0.00     0.017 A 
ATOM      6  C5  UNL d   1       5.999  -3.265  -1.129  0.00  0.00     0.034 A 
ATOM      7 Cl   UNL d   1       5.265  -5.323   0.428  0.00  0.00    -0.070 Cl
ATOM      8 Cl1  UNL d   1       2.872  -3.350   1.418  0.00  0.00    -0.070 Cl
ENDROOT
TORSDOF 0
ENDMDL
