MODEL 1
REMARK minimizedAffinity 10.8042212
REMARK minimizedRMSD -1
REMARK  0 active torsions:
REMARK  status: ('A' for Active; 'I' for Inactive)
ROOT
ATOM      1  C   UNL d   1       1.277  -0.919  -1.091  0.00  0.00     0.020 A 
ATOM      2  C1  UNL d   1       0.143  -1.429  -1.721  0.00  0.00     0.020 A 
ATOM      3  C2  UNL d   1      -1.078  -0.761  -1.609  0.00  0.00     0.034 A 
ATOM      4  C3  UNL d   1      -1.168   0.420  -0.864  0.00  0.00     0.017 A 
ATOM      5  C4  UNL d   1      -0.029   0.932  -0.232  0.00  0.00     0.017 A 
ATOM      6  C5  UNL d   1       1.191   0.259  -0.348  0.00  0.00     0.034 A 
ATOM      7 Cl   UNL d   1      -0.062   2.385   0.703  0.00  0.00    -0.070 Cl
ATOM      8 Cl1  UNL d   1      -2.710   1.194  -0.768  0.00  0.00    -0.070 Cl
ENDROOT
TORSDOF 0
ENDMDL
