MODEL 1
REMARK minimizedAffinity 14.9307947
REMARK minimizedRMSD -1
REMARK  0 active torsions:
REMARK  status: ('A' for Active; 'I' for Inactive)
ROOT
ATOM      1  C   UNL d   1       5.402  -2.441  -0.715  0.00  0.00     0.020 A 
ATOM      2  C1  UNL d   1       5.995  -1.712  -1.746  0.00  0.00     0.020 A 
ATOM      3  C2  UNL d   1       5.999  -2.220  -3.046  0.00  0.00     0.034 A 
ATOM      4  C3  UNL d   1       5.410  -3.460  -3.320  0.00  0.00     0.017 A 
ATOM      5  C4  UNL d   1       4.816  -4.190  -2.285  0.00  0.00     0.017 A 
ATOM      6  C5  UNL d   1       4.814  -3.677  -0.984  0.00  0.00     0.034 A 
ATOM      7 Cl   UNL d   1       4.069  -5.727  -2.545  0.00  0.00    -0.070 Cl
ATOM      8 Cl1  UNL d   1       5.452  -4.027  -4.952  0.00  0.00    -0.070 Cl
ENDROOT
TORSDOF 0
ENDMDL
