MODEL 1
REMARK minimizedAffinity 13.1577024
REMARK minimizedRMSD -1
REMARK  0 active torsions:
REMARK  status: ('A' for Active; 'I' for Inactive)
ROOT
ATOM      1  C   UNL d   1       0.201   5.568  -0.445  0.00  0.00     0.020 A 
ATOM      2  C1  UNL d   1      -0.564   4.410  -0.307  0.00  0.00     0.020 A 
ATOM      3  C2  UNL d   1      -0.131   3.385   0.536  0.00  0.00     0.034 A 
ATOM      4  C3  UNL d   1       1.069   3.514   1.244  0.00  0.00     0.017 A 
ATOM      5  C4  UNL d   1       1.836   4.677   1.104  0.00  0.00     0.017 A 
ATOM      6  C5  UNL d   1       1.398   5.701   0.259  0.00  0.00     0.034 A 
ATOM      7 Cl   UNL d   1       3.328   4.910   1.945  0.00  0.00    -0.070 Cl
ATOM      8 Cl1  UNL d   1       1.543   2.206   2.268  0.00  0.00    -0.070 Cl
ENDROOT
TORSDOF 0
ENDMDL
