MODEL 1
REMARK minimizedAffinity 16.8311157
REMARK minimizedRMSD -1
REMARK  0 active torsions:
REMARK  status: ('A' for Active; 'I' for Inactive)
ROOT
ATOM      1  C   UNL d   1       6.000  -2.808  -1.907  0.00  0.00     0.020 A 
ATOM      2  C1  UNL d   1       5.897  -4.097  -1.385  0.00  0.00     0.020 A 
ATOM      3  C2  UNL d   1       4.979  -4.367  -0.368  0.00  0.00     0.034 A 
ATOM      4  C3  UNL d   1       4.161  -3.346   0.131  0.00  0.00     0.017 A 
ATOM      5  C4  UNL d   1       4.266  -2.053  -0.393  0.00  0.00     0.017 A 
ATOM      6  C5  UNL d   1       5.186  -1.789  -1.412  0.00  0.00     0.034 A 
ATOM      7 Cl   UNL d   1       3.290  -0.742   0.171  0.00  0.00    -0.070 Cl
ATOM      8 Cl1  UNL d   1       3.049  -3.751   1.390  0.00  0.00    -0.070 Cl
ENDROOT
TORSDOF 0
ENDMDL
