MODEL 1
REMARK minimizedAffinity 6.99690342
REMARK minimizedRMSD -1
REMARK  0 active torsions:
REMARK  status: ('A' for Active; 'I' for Inactive)
ROOT
ATOM      1  C   UNL d   1      -0.986   4.899  -0.610  0.00  0.00     0.020 A 
ATOM      2  C1  UNL d   1      -0.131   5.999  -0.681  0.00  0.00     0.020 A 
ATOM      3  C2  UNL d   1       1.145   5.928  -0.118  0.00  0.00     0.034 A 
ATOM      4  C3  UNL d   1       1.571   4.755   0.516  0.00  0.00     0.017 A 
ATOM      5  C4  UNL d   1       0.713   3.652   0.586  0.00  0.00     0.017 A 
ATOM      6  C5  UNL d   1      -0.564   3.728   0.022  0.00  0.00     0.034 A 
ATOM      7 Cl   UNL d   1       1.167   2.171   1.353  0.00  0.00    -0.070 Cl
ATOM      8 Cl1  UNL d   1       3.162   4.738   1.189  0.00  0.00    -0.070 Cl
ENDROOT
TORSDOF 0
ENDMDL
