MODEL 1
REMARK minimizedAffinity 5.20430422
REMARK minimizedRMSD -1
REMARK  0 active torsions:
REMARK  status: ('A' for Active; 'I' for Inactive)
ROOT
ATOM      1  C   UNL d   1       6.000  -4.371  -0.858  0.00  0.00     0.020 A 
ATOM      2  C1  UNL d   1       5.245  -5.538  -0.748  0.00  0.00     0.020 A 
ATOM      3  C2  UNL d   1       4.487  -5.983  -1.833  0.00  0.00     0.034 A 
ATOM      4  C3  UNL d   1       4.481  -5.261  -3.032  0.00  0.00     0.017 A 
ATOM      5  C4  UNL d   1       5.239  -4.090  -3.141  0.00  0.00     0.017 A 
ATOM      6  C5  UNL d   1       5.996  -3.648  -2.052  0.00  0.00     0.034 A 
ATOM      7 Cl   UNL d   1       5.282  -3.145  -4.588  0.00  0.00    -0.070 Cl
ATOM      8 Cl1  UNL d   1       3.520  -5.871  -4.332  0.00  0.00    -0.070 Cl
ENDROOT
TORSDOF 0
ENDMDL
