MODEL 1
REMARK minimizedAffinity -2.1357851
REMARK minimizedRMSD -1
REMARK  0 active torsions:
REMARK  status: ('A' for Active; 'I' for Inactive)
ROOT
ATOM      1  N1  IND d   1       5.916   3.542   5.125  0.00  0.00    -0.196 N 
ATOM      2  C2  IND d   1       5.938   4.075   3.866  0.00  0.00     0.054 A 
ATOM      3  C3  IND d   1       6.000   3.092   2.940  0.00  0.00    -0.031 A 
ATOM      4  C4  IND d   1       5.970   0.538   3.261  0.00  0.00     0.051 A 
ATOM      5  C5  IND d   1       5.993  -0.426   4.230  0.00  0.00    -0.031 A 
ATOM      6  C6  IND d   1       5.989  -0.111   5.573  0.00  0.00     0.015 A 
ATOM      7  C7  IND d   1       5.949   1.187   6.000  0.00  0.00    -0.016 A 
ATOM      8  C8  IND d   1       5.933   2.168   5.019  0.00  0.00    -0.047 A 
ATOM      9  C9  IND d   1       5.981   1.855   3.655  0.00  0.00    -0.096 A 
ATOM     10  HN1 IND d   1       5.895   3.989   5.859  0.00  0.00     0.298 HD
ENDROOT
TORSDOF 0
ENDMDL
