MODEL 1
REMARK minimizedAffinity -2.41725945
REMARK minimizedRMSD -1
REMARK  0 active torsions:
REMARK  status: ('A' for Active; 'I' for Inactive)
ROOT
ATOM      1  N1  IND d   1       5.768  -1.118   4.206  0.00  0.00    -0.196 N 
ATOM      2  C2  IND d   1       5.314  -1.275   5.487  0.00  0.00     0.054 A 
ATOM      3  C3  IND d   1       4.933  -0.083   5.999  0.00  0.00    -0.031 A 
ATOM      4  C4  IND d   1       4.870   2.234   4.881  0.00  0.00     0.051 A 
ATOM      5  C5  IND d   1       5.219   2.885   3.731  0.00  0.00    -0.031 A 
ATOM      6  C6  IND d   1       5.778   2.221   2.658  0.00  0.00     0.015 A 
ATOM      7  C7  IND d   1       5.999   0.873   2.691  0.00  0.00    -0.016 A 
ATOM      8  C8  IND d   1       5.652   0.210   3.860  0.00  0.00    -0.047 A 
ATOM      9  C9  IND d   1       5.124   0.886   4.967  0.00  0.00    -0.096 A 
ATOM     10  HN1 IND d   1       6.074  -1.744   3.703  0.00  0.00     0.298 HD
ENDROOT
TORSDOF 0
ENDMDL
