MODEL 1
REMARK minimizedAffinity -3.43358016
REMARK minimizedRMSD -1
REMARK  0 active torsions:
REMARK  status: ('A' for Active; 'I' for Inactive)
ROOT
ATOM      1  N1  IND d   1       5.907  -0.498   5.999  0.00  0.00    -0.196 N 
ATOM      2  C2  IND d   1       5.991  -1.481   5.052  0.00  0.00     0.054 A 
ATOM      3  C3  IND d   1       6.000  -0.940   3.813  0.00  0.00    -0.031 A 
ATOM      4  C4  IND d   1       5.987   1.536   3.108  0.00  0.00     0.051 A 
ATOM      5  C5  IND d   1       5.879   2.800   3.617  0.00  0.00    -0.031 A 
ATOM      6  C6  IND d   1       5.775   3.034   4.973  0.00  0.00     0.015 A 
ATOM      7  C7  IND d   1       5.787   2.009   5.876  0.00  0.00    -0.016 A 
ATOM      8  C8  IND d   1       5.890   0.723   5.363  0.00  0.00    -0.047 A 
ATOM      9  C9  IND d   1       5.953   0.477   3.985  0.00  0.00    -0.096 A 
ATOM     10  HN1 IND d   1       5.871  -0.623   6.849  0.00  0.00     0.298 HD
ENDROOT
TORSDOF 0
ENDMDL
