MODEL 1
REMARK minimizedAffinity -2.08580923
REMARK minimizedRMSD -1
REMARK  0 active torsions:
REMARK  status: ('A' for Active; 'I' for Inactive)
ROOT
ATOM      1  N1  IND d   1       5.963   1.092   6.000  0.00  0.00    -0.196 N 
ATOM      2  C2  IND d   1       5.925  -0.256   5.775  0.00  0.00     0.054 A 
ATOM      3  C3  IND d   1       5.888  -0.511   4.448  0.00  0.00    -0.031 A 
ATOM      4  C4  IND d   1       5.985   1.128   2.465  0.00  0.00     0.051 A 
ATOM      5  C5  IND d   1       5.988   2.462   2.169  0.00  0.00    -0.031 A 
ATOM      6  C6  IND d   1       5.986   3.427   3.155  0.00  0.00     0.015 A 
ATOM      7  C7  IND d   1       5.992   3.092   4.480  0.00  0.00    -0.016 A 
ATOM      8  C8  IND d   1       5.981   1.738   4.784  0.00  0.00    -0.047 A 
ATOM      9  C9  IND d   1       5.940   0.755   3.787  0.00  0.00    -0.096 A 
ATOM     10  HN1 IND d   1       5.973   1.471   6.771  0.00  0.00     0.298 HD
ENDROOT
TORSDOF 0
ENDMDL
