MODEL 1
REMARK minimizedAffinity -4.32932854
REMARK minimizedRMSD -1
REMARK  0 active torsions:
REMARK  status: ('A' for Active; 'I' for Inactive)
ROOT
ATOM      1  N1  IND d   1       6.000   2.220   5.750  0.00  0.00    -0.196 N 
ATOM      2  C2  IND d   1       5.975   3.197   4.794  0.00  0.00     0.054 A 
ATOM      3  C3  IND d   1       5.767   2.656   3.573  0.00  0.00    -0.031 A 
ATOM      4  C4  IND d   1       5.341   0.202   2.923  0.00  0.00     0.051 A 
ATOM      5  C5  IND d   1       5.305  -1.060   3.445  0.00  0.00    -0.031 A 
ATOM      6  C6  IND d   1       5.501  -1.298   4.790  0.00  0.00     0.015 A 
ATOM      7  C7  IND d   1       5.729  -0.277   5.669  0.00  0.00    -0.016 A 
ATOM      8  C8  IND d   1       5.772   1.006   5.140  0.00  0.00    -0.047 A 
ATOM      9  C9  IND d   1       5.617   1.249   3.770  0.00  0.00    -0.096 A 
ATOM     10  HN1 IND d   1       6.135   2.343   6.590  0.00  0.00     0.298 HD
ENDROOT
TORSDOF 0
ENDMDL
