MODEL 1
REMARK minimizedAffinity -2.46003532
REMARK minimizedRMSD -1
REMARK  0 active torsions:
REMARK  status: ('A' for Active; 'I' for Inactive)
ROOT
ATOM      1  N1  IND d   1       5.938  -0.486   5.995  0.00  0.00    -0.196 N 
ATOM      2  C2  IND d   1       5.900  -1.517   5.099  0.00  0.00     0.054 A 
ATOM      3  C3  IND d   1       5.875  -1.040   3.834  0.00  0.00    -0.031 A 
ATOM      4  C4  IND d   1       5.992   1.393   3.001  0.00  0.00     0.051 A 
ATOM      5  C5  IND d   1       6.000   2.685   3.447  0.00  0.00    -0.031 A 
ATOM      6  C6  IND d   1       5.990   2.992   4.792  0.00  0.00     0.015 A 
ATOM      7  C7  IND d   1       5.983   2.014   5.746  0.00  0.00    -0.016 A 
ATOM      8  C8  IND d   1       5.968   0.701   5.297  0.00  0.00    -0.047 A 
ATOM      9  C9  IND d   1       5.935   0.384   3.933  0.00  0.00    -0.096 A 
ATOM     10  HN1 IND d   1       5.941  -0.565   6.851  0.00  0.00     0.298 HD
ENDROOT
TORSDOF 0
ENDMDL
