MODEL 1
REMARK minimizedAffinity 11.3319759
REMARK minimizedRMSD -1
REMARK  0 active torsions:
REMARK  status: ('A' for Active; 'I' for Inactive)
ROOT
ATOM      1  N1  IND d   1       5.328   0.506   2.670  0.00  0.00    -0.196 N 
ATOM      2  C2  IND d   1       4.765  -0.238   3.669  0.00  0.00     0.054 A 
ATOM      3  C3  IND d   1       4.550   0.528   4.762  0.00  0.00    -0.031 A 
ATOM      4  C4  IND d   1       4.950   3.049   5.096  0.00  0.00     0.051 A 
ATOM      5  C5  IND d   1       5.482   4.147   4.479  0.00  0.00    -0.031 A 
ATOM      6  C6  IND d   1       5.998   4.086   3.201  0.00  0.00     0.015 A 
ATOM      7  C7  IND d   1       5.991   2.922   2.484  0.00  0.00    -0.016 A 
ATOM      8  C8  IND d   1       5.457   1.805   3.110  0.00  0.00    -0.047 A 
ATOM      9  C9  IND d   1       4.971   1.851   4.423  0.00  0.00    -0.096 A 
ATOM     10  HN1 IND d   1       5.561   0.212   1.896  0.00  0.00     0.298 HD
ENDROOT
TORSDOF 0
ENDMDL
