MODEL 1
REMARK minimizedAffinity 1.46679044
REMARK minimizedRMSD -1
REMARK  0 active torsions:
REMARK  status: ('A' for Active; 'I' for Inactive)
ROOT
ATOM      1  N1  IND d   1       5.994  -0.740   5.985  0.00  0.00    -0.196 N 
ATOM      2  C2  IND d   1       5.975  -1.983   5.417  0.00  0.00     0.054 A 
ATOM      3  C3  IND d   1       5.936  -1.883   4.069  0.00  0.00    -0.031 A 
ATOM      4  C4  IND d   1       5.999   0.217   2.582  0.00  0.00     0.051 A 
ATOM      5  C5  IND d   1       5.981   1.582   2.644  0.00  0.00    -0.031 A 
ATOM      6  C6  IND d   1       5.969   2.257   3.848  0.00  0.00     0.015 A 
ATOM      7  C7  IND d   1       5.986   1.588   5.039  0.00  0.00    -0.016 A 
ATOM      8  C8  IND d   1       5.997   0.202   4.980  0.00  0.00    -0.047 A 
ATOM      9  C9  IND d   1       5.966  -0.489   3.761  0.00  0.00    -0.096 A 
ATOM     10  HN1 IND d   1       6.003  -0.574   6.829  0.00  0.00     0.298 HD
ENDROOT
TORSDOF 0
ENDMDL
