MODEL 1
REMARK minimizedAffinity -2.5916853
REMARK minimizedRMSD -1
REMARK  0 active torsions:
REMARK  status: ('A' for Active; 'I' for Inactive)
ROOT
ATOM      1  N1  IND d   1       4.854  -0.770   3.982  0.00  0.00    -0.196 N 
ATOM      2  C2  IND d   1       5.270  -1.488   5.068  0.00  0.00     0.054 A 
ATOM      3  C3  IND d   1       5.803  -0.665   6.000  0.00  0.00    -0.031 A 
ATOM      4  C4  IND d   1       6.000   1.902   5.994  0.00  0.00     0.051 A 
ATOM      5  C5  IND d   1       5.791   2.996   5.203  0.00  0.00    -0.031 A 
ATOM      6  C6  IND d   1       5.246   2.890   3.939  0.00  0.00     0.015 A 
ATOM      7  C7  IND d   1       4.877   1.680   3.423  0.00  0.00    -0.016 A 
ATOM      8  C8  IND d   1       5.094   0.565   4.221  0.00  0.00    -0.047 A 
ATOM      9  C9  IND d   1       5.686   0.663   5.486  0.00  0.00    -0.096 A 
ATOM     10  HN1 IND d   1       4.502  -1.098   3.269  0.00  0.00     0.298 HD
ENDROOT
TORSDOF 0
ENDMDL
