MODEL 1
REMARK minimizedAffinity -2.95143175
REMARK minimizedRMSD -1
REMARK  0 active torsions:
REMARK  status: ('A' for Active; 'I' for Inactive)
ROOT
ATOM      1  N1  IND d   1       5.070   0.002   5.997  0.00  0.00    -0.196 N 
ATOM      2  C2  IND d   1       5.250  -1.196   5.364  0.00  0.00     0.054 A 
ATOM      3  C3  IND d   1       5.588  -0.997   4.070  0.00  0.00    -0.031 A 
ATOM      4  C4  IND d   1       6.000   1.208   2.807  0.00  0.00     0.051 A 
ATOM      5  C5  IND d   1       5.923   2.564   2.954  0.00  0.00    -0.031 A 
ATOM      6  C6  IND d   1       5.553   3.148   4.148  0.00  0.00     0.015 A 
ATOM      7  C7  IND d   1       5.255   2.394   5.248  0.00  0.00    -0.016 A 
ATOM      8  C8  IND d   1       5.326   1.016   5.100  0.00  0.00    -0.047 A 
ATOM      9  C9  IND d   1       5.660   0.417   3.878  0.00  0.00    -0.096 A 
ATOM     10  HN1 IND d   1       4.836   0.105   6.818  0.00  0.00     0.298 HD
ENDROOT
TORSDOF 0
ENDMDL
