MODEL 1
REMARK minimizedAffinity 0.921047211
REMARK minimizedRMSD -1
REMARK  0 active torsions:
REMARK  status: ('A' for Active; 'I' for Inactive)
ROOT
ATOM      1  N1  IND d   1       5.939   1.128   2.638  0.00  0.00    -0.196 N 
ATOM      2  C2  IND d   1       5.797   2.347   3.239  0.00  0.00     0.054 A 
ATOM      3  C3  IND d   1       5.653   2.199   4.575  0.00  0.00    -0.031 A 
ATOM      4  C4  IND d   1       5.721   0.057   6.000  0.00  0.00     0.051 A 
ATOM      5  C5  IND d   1       5.792  -1.304   5.896  0.00  0.00    -0.031 A 
ATOM      6  C6  IND d   1       5.921  -1.937   4.676  0.00  0.00     0.015 A 
ATOM      7  C7  IND d   1       5.996  -1.228   3.511  0.00  0.00    -0.016 A 
ATOM      8  C8  IND d   1       5.917   0.154   3.612  0.00  0.00    -0.047 A 
ATOM      9  C9  IND d   1       5.743   0.799   4.843  0.00  0.00    -0.096 A 
ATOM     10  HN1 IND d   1       6.028   0.992   1.793  0.00  0.00     0.298 HD
ENDROOT
TORSDOF 0
ENDMDL
