MODEL 1
REMARK minimizedAffinity -1.72648299
REMARK minimizedRMSD -1
REMARK  0 active torsions:
REMARK  status: ('A' for Active; 'I' for Inactive)
ROOT
ATOM      1  N1  IND d   1       5.963  -0.013   5.592  0.00  0.00    -0.196 N 
ATOM      2  C2  IND d   1       5.931  -1.179   4.878  0.00  0.00     0.054 A 
ATOM      3  C3  IND d   1       5.901  -0.918   3.552  0.00  0.00    -0.031 A 
ATOM      4  C4  IND d   1       6.000   1.345   2.328  0.00  0.00     0.051 A 
ATOM      5  C5  IND d   1       6.000   2.693   2.554  0.00  0.00    -0.031 A 
ATOM      6  C6  IND d   1       5.990   3.218   3.830  0.00  0.00     0.015 A 
ATOM      7  C7  IND d   1       5.991   2.411   4.933  0.00  0.00    -0.016 A 
ATOM      8  C8  IND d   1       5.984   1.042   4.707  0.00  0.00    -0.047 A 
ATOM      9  C9  IND d   1       5.951   0.503   3.414  0.00  0.00    -0.096 A 
ATOM     10  HN1 IND d   1       5.969   0.050   6.449  0.00  0.00     0.298 HD
ENDROOT
TORSDOF 0
ENDMDL
