MODEL 1
REMARK minimizedAffinity -3.83384943
REMARK minimizedRMSD -1
REMARK  0 active torsions:
REMARK  status: ('A' for Active; 'I' for Inactive)
ROOT
ATOM      1  N1  IND d   1       5.999  -1.167   3.717  0.00  0.00    -0.196 N 
ATOM      2  C2  IND d   1       5.906  -1.866   4.888  0.00  0.00     0.054 A 
ATOM      3  C3  IND d   1       5.799  -1.017   5.935  0.00  0.00    -0.031 A 
ATOM      4  C4  IND d   1       5.654   1.553   5.948  0.00  0.00     0.051 A 
ATOM      5  C5  IND d   1       5.733   2.641   5.124  0.00  0.00    -0.031 A 
ATOM      6  C6  IND d   1       5.904   2.512   3.761  0.00  0.00     0.015 A 
ATOM      7  C7  IND d   1       5.993   1.285   3.167  0.00  0.00    -0.016 A 
ATOM      8  C8  IND d   1       5.921   0.179   4.001  0.00  0.00    -0.047 A 
ATOM      9  C9  IND d   1       5.790   0.304   5.390  0.00  0.00    -0.096 A 
ATOM     10  HN1 IND d   1       6.090  -1.510   2.934  0.00  0.00     0.298 HD
ENDROOT
TORSDOF 0
ENDMDL
