MODEL 1
REMARK minimizedAffinity 1.84541237
REMARK minimizedRMSD -1
REMARK  0 active torsions:
REMARK  status: ('A' for Active; 'I' for Inactive)
ROOT
ATOM      1  N1  IND d   1       5.925   1.110   5.985  0.00  0.00    -0.196 N 
ATOM      2  C2  IND d   1       5.902   0.139   5.023  0.00  0.00     0.054 A 
ATOM      3  C3  IND d   1       5.887   0.698   3.791  0.00  0.00    -0.031 A 
ATOM      4  C4  IND d   1       5.999   3.180   3.120  0.00  0.00     0.051 A 
ATOM      5  C5  IND d   1       5.995   4.441   3.649  0.00  0.00    -0.031 A 
ATOM      6  C6  IND d   1       5.971   4.660   5.011  0.00  0.00     0.015 A 
ATOM      7  C7  IND d   1       5.960   3.621   5.899  0.00  0.00    -0.016 A 
ATOM      8  C8  IND d   1       5.956   2.341   5.366  0.00  0.00    -0.047 A 
ATOM      9  C9  IND d   1       5.938   2.112   3.984  0.00  0.00    -0.096 A 
ATOM     10  HN1 IND d   1       5.921   0.975   6.834  0.00  0.00     0.298 HD
ENDROOT
TORSDOF 0
ENDMDL
