MODEL 1
REMARK minimizedAffinity -4.05613327
REMARK minimizedRMSD -1
REMARK  0 active torsions:
REMARK  status: ('A' for Active; 'I' for Inactive)
ROOT
ATOM      1  N1  IND d   1       5.776   2.518   2.735  0.00  0.00    -0.196 N 
ATOM      2  C2  IND d   1       6.000   3.635   3.490  0.00  0.00     0.054 A 
ATOM      3  C3  IND d   1       5.882   3.344   4.805  0.00  0.00    -0.031 A 
ATOM      4  C4  IND d   1       5.428   1.082   5.946  0.00  0.00     0.051 A 
ATOM      5  C5  IND d   1       5.119  -0.221   5.671  0.00  0.00    -0.031 A 
ATOM      6  C6  IND d   1       5.015  -0.687   4.376  0.00  0.00     0.015 A 
ATOM      7  C7  IND d   1       5.227   0.133   3.304  0.00  0.00    -0.016 A 
ATOM      8  C8  IND d   1       5.533   1.458   3.580  0.00  0.00    -0.047 A 
ATOM      9  C9  IND d   1       5.598   1.947   4.891  0.00  0.00    -0.096 A 
ATOM     10  HN1 IND d   1       5.785   2.483   1.875  0.00  0.00     0.298 HD
ENDROOT
TORSDOF 0
ENDMDL
