MODEL 1
REMARK minimizedAffinity 10.9499722
REMARK minimizedRMSD -1
REMARK  1 active torsions:
REMARK  status: ('A' for Active; 'I' for Inactive)
REMARK    1  A    between atoms: C1_2  and  C2_3 
ROOT
ATOM      1  C2  UNL d   1       1.291  -5.354  -1.320  0.00  0.00    -0.077 A 
ATOM      2  C3  UNL d   1      -0.086  -5.610  -1.259  0.00  0.00     0.002 A 
ATOM      3  C4  UNL d   1      -0.691  -5.933  -0.043  0.00  0.00     0.002 A 
ATOM      4  C5  UNL d   1       0.072  -5.998   1.121  0.00  0.00    -0.004 A 
ATOM      5  C6  UNL d   1       1.443  -5.747   1.070  0.00  0.00     0.002 A 
ATOM      6  C7  UNL d   1       2.049  -5.425  -0.145  0.00  0.00     0.002 A 
ENDROOT
BRANCH   1   7
ATOM      7  C1  UNL d   1       1.936  -4.957  -2.622  0.00  0.00     0.055 C 
ATOM      8  C   UNL d   1       3.218  -5.741  -2.866  0.00  0.00     0.019 C 
ENDBRANCH   1   7
TORSDOF 1
ENDMDL
