MODEL 1
REMARK minimizedAffinity 14.1396103
REMARK minimizedRMSD -1
REMARK  1 active torsions:
REMARK  status: ('A' for Active; 'I' for Inactive)
REMARK    1  A    between atoms: C1_2  and  C2_3 
ROOT
ATOM      1  C2  UNL d   1       3.649  -1.534   1.371  0.00  0.00    -0.077 A 
ATOM      2  C3  UNL d   1       2.787  -0.619   0.751  0.00  0.00     0.002 A 
ATOM      3  C4  UNL d   1       1.414  -0.660   1.001  0.00  0.00     0.002 A 
ATOM      4  C5  UNL d   1       0.892  -1.611   1.875  0.00  0.00    -0.004 A 
ATOM      5  C6  UNL d   1       1.740  -2.527   2.496  0.00  0.00     0.002 A 
ATOM      6  C7  UNL d   1       3.112  -2.488   2.246  0.00  0.00     0.002 A 
ENDROOT
BRANCH   1   7
ATOM      7  C1  UNL d   1       5.136  -1.461   1.140  0.00  0.00     0.055 C 
ATOM      8  C   UNL d   1       5.864  -2.588   1.858  0.00  0.00     0.019 C 
ENDBRANCH   1   7
TORSDOF 1
ENDMDL
