MODEL 1
REMARK minimizedAffinity 5.81570148
REMARK minimizedRMSD -1
REMARK  1 active torsions:
REMARK  status: ('A' for Active; 'I' for Inactive)
REMARK    1  A    between atoms: C1_2  and  C2_3 
ROOT
ATOM      1  C2  UNL d   1       1.347  -1.485   3.662  0.00  0.00    -0.077 A 
ATOM      2  C3  UNL d   1       1.880  -2.419   2.763  0.00  0.00     0.002 A 
ATOM      3  C4  UNL d   1       2.165  -2.050   1.447  0.00  0.00     0.002 A 
ATOM      4  C5  UNL d   1       1.926  -0.746   1.020  0.00  0.00    -0.004 A 
ATOM      5  C6  UNL d   1       1.395   0.191   1.906  0.00  0.00     0.002 A 
ATOM      6  C7  UNL d   1       1.108  -0.177   3.222  0.00  0.00     0.002 A 
ENDROOT
BRANCH   1   7
ATOM      7  C1  UNL d   1       1.085  -1.868   5.095  0.00  0.00     0.055 C 
ATOM      8  C   UNL d   1       1.062  -0.644   6.000  0.00  0.00     0.019 C 
ENDBRANCH   1   7
TORSDOF 1
ENDMDL
