MODEL 1
REMARK minimizedAffinity 9.99420929
REMARK minimizedRMSD -1
REMARK  1 active torsions:
REMARK  status: ('A' for Active; 'I' for Inactive)
REMARK    1  A    between atoms: C1_2  and  C2_3 
ROOT
ATOM      1  C2  UNL d   1      -3.780   3.373   0.064  0.00  0.00    -0.077 A 
ATOM      2  C3  UNL d   1      -3.794   3.096   1.438  0.00  0.00     0.002 A 
ATOM      3  C4  UNL d   1      -4.899   3.443   2.217  0.00  0.00     0.002 A 
ATOM      4  C5  UNL d   1      -5.999   4.065   1.631  0.00  0.00    -0.004 A 
ATOM      5  C6  UNL d   1      -5.994   4.347   0.265  0.00  0.00     0.002 A 
ATOM      6  C7  UNL d   1      -4.889   4.002  -0.515  0.00  0.00     0.002 A 
ENDROOT
BRANCH   1   7
ATOM      7  C1  UNL d   1      -2.609   2.955  -0.787  0.00  0.00     0.055 C 
ATOM      8  C   UNL d   1      -2.975   1.793  -1.700  0.00  0.00     0.019 C 
ENDBRANCH   1   7
TORSDOF 1
ENDMDL
