MODEL 1
REMARK minimizedAffinity 12.0694237
REMARK minimizedRMSD -1
REMARK  1 active torsions:
REMARK  status: ('A' for Active; 'I' for Inactive)
REMARK    1  A    between atoms: C1_2  and  C2_3 
ROOT
ATOM      1  C2  UNL d   1      -4.773  -3.290  -4.079  0.00  0.00    -0.077 A 
ATOM      2  C3  UNL d   1      -5.747  -3.115  -5.072  0.00  0.00     0.002 A 
ATOM      3  C4  UNL d   1      -6.000  -4.127  -6.000  0.00  0.00     0.002 A 
ATOM      4  C5  UNL d   1      -5.286  -5.322  -5.941  0.00  0.00    -0.004 A 
ATOM      5  C6  UNL d   1      -4.314  -5.506  -4.958  0.00  0.00     0.002 A 
ATOM      6  C7  UNL d   1      -4.060  -4.495  -4.031  0.00  0.00     0.002 A 
ENDROOT
BRANCH   1   7
ATOM      7  C1  UNL d   1      -4.534  -2.219  -3.047  0.00  0.00     0.055 C 
ATOM      8  C   UNL d   1      -3.707  -1.076  -3.617  0.00  0.00     0.019 C 
ENDBRANCH   1   7
TORSDOF 1
ENDMDL
