MODEL 1
REMARK minimizedAffinity 11.485918
REMARK minimizedRMSD -1
REMARK  1 active torsions:
REMARK  status: ('A' for Active; 'I' for Inactive)
REMARK    1  A    between atoms: C1_2  and  C2_3 
ROOT
ATOM      1  C2  UNL d   1      -4.804  -3.798  -5.389  0.00  0.00    -0.077 A 
ATOM      2  C3  UNL d   1      -5.791  -2.975  -5.949  0.00  0.00     0.002 A 
ATOM      3  C4  UNL d   1      -5.962  -1.667  -5.492  0.00  0.00     0.002 A 
ATOM      4  C5  UNL d   1      -5.148  -1.169  -4.477  0.00  0.00    -0.004 A 
ATOM      5  C6  UNL d   1      -4.165  -1.981  -3.912  0.00  0.00     0.002 A 
ATOM      6  C7  UNL d   1      -3.993  -3.289  -4.367  0.00  0.00     0.002 A 
ENDROOT
BRANCH   1   7
ATOM      7  C1  UNL d   1      -4.586  -5.193  -5.914  0.00  0.00     0.055 C 
ATOM      8  C   UNL d   1      -5.876  -5.999  -5.899  0.00  0.00     0.019 C 
ENDBRANCH   1   7
TORSDOF 1
ENDMDL
