MODEL 1
REMARK minimizedAffinity 2.75942039
REMARK minimizedRMSD -1
REMARK  1 active torsions:
REMARK  status: ('A' for Active; 'I' for Inactive)
REMARK    1  A    between atoms: C1_2  and  C2_3 
ROOT
ATOM      1  C2  UNL d   1       2.590  -0.116   1.809  0.00  0.00    -0.077 A 
ATOM      2  C3  UNL d   1       3.264  -1.339   1.691  0.00  0.00     0.002 A 
ATOM      3  C4  UNL d   1       2.891  -2.430   2.478  0.00  0.00     0.002 A 
ATOM      4  C5  UNL d   1       1.841  -2.310   3.386  0.00  0.00    -0.004 A 
ATOM      5  C6  UNL d   1       1.166  -1.096   3.512  0.00  0.00     0.002 A 
ATOM      6  C7  UNL d   1       1.538  -0.005   2.727  0.00  0.00     0.002 A 
ENDROOT
BRANCH   1   7
ATOM      7  C1  UNL d   1       2.959   1.048   0.926  0.00  0.00     0.055 C 
ATOM      8  C   UNL d   1       3.527   0.574  -0.404  0.00  0.00     0.019 C 
ENDBRANCH   1   7
TORSDOF 1
ENDMDL
