MODEL 1
REMARK minimizedAffinity 19.9176998
REMARK minimizedRMSD -1
REMARK  0 active torsions:
REMARK  status: ('A' for Active; 'I' for Inactive)
ROOT
ATOM      1  C   UNL d   1      -0.968   1.493   0.429  0.00  0.00    -0.002 A 
ATOM      2  C1  UNL d   1      -0.479   1.445   1.726  0.00  0.00     0.010 A 
ATOM      3  C2  UNL d   1       0.826   1.018   1.979  0.00  0.00     0.041 A 
ATOM      4  C3  UNL d   1       1.641   0.638   0.894  0.00  0.00    -0.075 A 
ATOM      5  S   UNL d   1       3.272   0.084   0.963  0.00  0.00     0.015 SA
ATOM      6  C4  UNL d   1       3.359  -0.102  -0.729  0.00  0.00     0.022 A 
ATOM      7  C5  UNL d   1       2.181   0.246  -1.347  0.00  0.00     0.026 A 
ATOM      8  C6  UNL d   1       1.171   0.679  -0.422  0.00  0.00    -0.082 A 
ATOM      9  C7  UNL d   1      -0.157   1.116  -0.645  0.00  0.00     0.045 A 
ENDROOT
TORSDOF 0
ENDMDL
