MODEL 1
REMARK minimizedAffinity 18.3368587
REMARK minimizedRMSD -1
REMARK  0 active torsions:
REMARK  status: ('A' for Active; 'I' for Inactive)
ROOT
ATOM      1  C   UNL d   1       4.138  -0.504  -1.274  0.00  0.00    -0.002 A 
ATOM      2  C1  UNL d   1       4.844  -0.066  -0.163  0.00  0.00     0.010 A 
ATOM      3  C2  UNL d   1       4.172   0.416   0.962  0.00  0.00     0.041 A 
ATOM      4  C3  UNL d   1       2.763   0.448   0.952  0.00  0.00    -0.075 A 
ATOM      5  S   UNL d   1       1.727   0.996   2.216  0.00  0.00     0.015 SA
ATOM      6  C4  UNL d   1       0.322   0.660   1.311  0.00  0.00     0.022 A 
ATOM      7  C5  UNL d   1       0.618   0.142   0.072  0.00  0.00     0.026 A 
ATOM      8  C6  UNL d   1       2.030   0.011  -0.155  0.00  0.00    -0.082 A 
ATOM      9  C7  UNL d   1       2.741  -0.471  -1.280  0.00  0.00     0.045 A 
ENDROOT
TORSDOF 0
ENDMDL
