MODEL 1
REMARK minimizedAffinity 16.381813
REMARK minimizedRMSD -1
REMARK  0 active torsions:
REMARK  status: ('A' for Active; 'I' for Inactive)
ROOT
ATOM      1  C   UNL d   1       5.129   1.139  -0.508  0.00  0.00    -0.002 A 
ATOM      2  C1  UNL d   1       5.235   1.485   0.832  0.00  0.00     0.010 A 
ATOM      3  C2  UNL d   1       5.502   2.804   1.205  0.00  0.00     0.041 A 
ATOM      4  C3  UNL d   1       5.660   3.778   0.200  0.00  0.00    -0.075 A 
ATOM      5  S   UNL d   1       5.991   5.456   0.421  0.00  0.00     0.015 SA
ATOM      6  C4  UNL d   1       5.999   5.752  -1.258  0.00  0.00     0.022 A 
ATOM      7  C5  UNL d   1       5.757   4.610  -1.984  0.00  0.00     0.026 A 
ATOM      8  C6  UNL d   1       5.557   3.454  -1.156  0.00  0.00    -0.082 A 
ATOM      9  C7  UNL d   1       5.287   2.108  -1.502  0.00  0.00     0.045 A 
ENDROOT
TORSDOF 0
ENDMDL
