MODEL 1
REMARK minimizedAffinity 16.3464985
REMARK minimizedRMSD -1
REMARK  0 active torsions:
REMARK  status: ('A' for Active; 'I' for Inactive)
ROOT
ATOM      1  C   UNL d   1       2.448   2.227   6.000  0.00  0.00    -0.002 A 
ATOM      2  C1  UNL d   1       3.195   2.815   4.988  0.00  0.00     0.010 A 
ATOM      3  C2  UNL d   1       2.972   2.475   3.652  0.00  0.00     0.041 A 
ATOM      4  C3  UNL d   1       1.976   1.528   3.347  0.00  0.00    -0.075 A 
ATOM      5  S   UNL d   1       1.527   0.958   1.783  0.00  0.00     0.015 SA
ATOM      6  C4  UNL d   1       0.333  -0.078   2.420  0.00  0.00     0.022 A 
ATOM      7  C5  UNL d   1       0.265  -0.004   3.791  0.00  0.00     0.026 A 
ATOM      8  C6  UNL d   1       1.210   0.923   4.348  0.00  0.00    -0.082 A 
ATOM      9  C7  UNL d   1       1.461   1.287   5.693  0.00  0.00     0.045 A 
ENDROOT
TORSDOF 0
ENDMDL
