MODEL 1
REMARK minimizedAffinity 16.4231567
REMARK minimizedRMSD -1
REMARK  0 active torsions:
REMARK  status: ('A' for Active; 'I' for Inactive)
ROOT
ATOM      1  C   UNL d   1       3.121  -0.959   0.490  0.00  0.00    -0.002 A 
ATOM      2  C1  UNL d   1       3.531  -0.376  -0.700  0.00  0.00     0.010 A 
ATOM      3  C2  UNL d   1       3.155  -0.926  -1.927  0.00  0.00     0.041 A 
ATOM      4  C3  UNL d   1       2.351  -2.083  -1.938  0.00  0.00    -0.075 A 
ATOM      5  S   UNL d   1       1.768  -2.931  -3.321  0.00  0.00     0.015 SA
ATOM      6  C4  UNL d   1       0.960  -4.087  -2.365  0.00  0.00     0.022 A 
ATOM      7  C5  UNL d   1       1.121  -3.847  -1.021  0.00  0.00     0.026 A 
ATOM      8  C6  UNL d   1       1.925  -2.688  -0.752  0.00  0.00    -0.082 A 
ATOM      9  C7  UNL d   1       2.323  -2.107   0.475  0.00  0.00     0.045 A 
ENDROOT
TORSDOF 0
ENDMDL
