MODEL 1
REMARK minimizedAffinity 5.9320507
REMARK minimizedRMSD -1
REMARK  0 active torsions:
REMARK  status: ('A' for Active; 'I' for Inactive)
ROOT
ATOM      1  C   UNL d   1      -1.363  -5.999  -0.136  0.00  0.00    -0.002 A 
ATOM      2  C1  UNL d   1      -1.620  -6.000  -1.500  0.00  0.00     0.010 A 
ATOM      3  C2  UNL d   1      -0.900  -5.166  -2.359  0.00  0.00     0.041 A 
ATOM      4  C3  UNL d   1       0.093  -4.326  -1.819  0.00  0.00    -0.075 A 
ATOM      5  S   UNL d   1       1.100  -3.222  -2.678  0.00  0.00     0.015 SA
ATOM      6  C4  UNL d   1       1.896  -2.724  -1.256  0.00  0.00     0.022 A 
ATOM      7  C5  UNL d   1       1.417  -3.374  -0.143  0.00  0.00     0.026 A 
ATOM      8  C6  UNL d   1       0.371  -4.308  -0.449  0.00  0.00    -0.082 A 
ATOM      9  C7  UNL d   1      -0.377  -5.164   0.396  0.00  0.00     0.045 A 
ENDROOT
TORSDOF 0
ENDMDL
