MODEL 1
REMARK minimizedAffinity -4.20188332
REMARK minimizedRMSD -1
REMARK  0 active torsions:
REMARK  status: ('A' for Active; 'I' for Inactive)
ROOT
ATOM      1  C1  DEN d   1       0.181   0.566   1.609  0.00  0.00     0.130 A 
ATOM      2  C2  DEN d   1       1.319   0.906   0.759  0.00  0.00    -0.031 A 
ATOM      3  C3  DEN d   1       0.977   0.536  -0.629  0.00  0.00     0.027 A 
ATOM      4  C4  DEN d   1      -1.193  -0.518  -1.541  0.00  0.00     0.027 A 
ATOM      5  C5  DEN d   1      -2.438  -0.998  -1.198  0.00  0.00    -0.003 A 
ATOM      6  C6  DEN d   1      -2.881  -1.020   0.098  0.00  0.00     0.001 A 
ATOM      7  C7  DEN d   1      -2.089  -0.513   1.095  0.00  0.00     0.017 A 
ATOM      8  C8  DEN d   1      -0.829  -0.035   0.758  0.00  0.00    -0.094 A 
ATOM      9  C9  DEN d   1      -0.405  -0.010  -0.560  0.00  0.00    -0.072 A 
ENDROOT
TORSDOF 0
ENDMDL
