MODEL 1
REMARK minimizedAffinity -4.69895697
REMARK minimizedRMSD -1
REMARK  0 active torsions:
REMARK  status: ('A' for Active; 'I' for Inactive)
ROOT
ATOM      1  C1  DEN d   1       0.816   1.498   0.297  0.00  0.00     0.130 A 
ATOM      2  C2  DEN d   1       2.072   0.846   0.658  0.00  0.00    -0.031 A 
ATOM      3  C3  DEN d   1       1.751  -0.477   1.231  0.00  0.00     0.027 A 
ATOM      4  C4  DEN d   1      -0.555  -1.576   1.586  0.00  0.00     0.027 A 
ATOM      5  C5  DEN d   1      -1.914  -1.403   1.444  0.00  0.00    -0.003 A 
ATOM      6  C6  DEN d   1      -2.456  -0.248   0.946  0.00  0.00     0.001 A 
ATOM      7  C7  DEN d   1      -1.631   0.763   0.528  0.00  0.00     0.017 A 
ATOM      8  C8  DEN d   1      -0.260   0.600   0.675  0.00  0.00    -0.094 A 
ATOM      9  C9  DEN d   1       0.268  -0.580   1.170  0.00  0.00    -0.072 A 
ENDROOT
TORSDOF 0
ENDMDL
