MODEL 1
REMARK minimizedAffinity -6.06630659
REMARK minimizedRMSD -1
REMARK  0 active torsions:
REMARK  status: ('A' for Active; 'I' for Inactive)
ROOT
ATOM      1  C1  DEN d   1      -2.573  -0.986   0.482  0.00  0.00     0.130 A 
ATOM      2  C2  DEN d   1      -3.512  -1.091  -0.632  0.00  0.00    -0.031 A 
ATOM      3  C3  DEN d   1      -2.857  -0.539  -1.835  0.00  0.00     0.027 A 
ATOM      4  C4  DEN d   1      -0.490   0.457  -2.081  0.00  0.00     0.027 A 
ATOM      5  C5  DEN d   1       0.671   0.769  -1.410  0.00  0.00    -0.003 A 
ATOM      6  C6  DEN d   1       0.820   0.552  -0.066  0.00  0.00     0.001 A 
ATOM      7  C7  DEN d   1      -0.195  -0.036   0.642  0.00  0.00     0.017 A 
ATOM      8  C8  DEN d   1      -1.372  -0.347  -0.025  0.00  0.00    -0.094 A 
ATOM      9  C9  DEN d   1      -1.498  -0.130  -1.387  0.00  0.00    -0.072 A 
ENDROOT
TORSDOF 0
ENDMDL
