MODEL 1
REMARK minimizedAffinity -4.01719952
REMARK minimizedRMSD -1
REMARK  0 active torsions:
REMARK  status: ('A' for Active; 'I' for Inactive)
ROOT
ATOM      1  C1  DEN d   1      -0.078   0.891   0.347  0.00  0.00     0.130 A 
ATOM      2  C2  DEN d   1       0.525  -0.439   0.305  0.00  0.00    -0.031 A 
ATOM      3  C3  DEN d   1       1.981  -0.274   0.124  0.00  0.00     0.027 A 
ATOM      4  C4  DEN d   1       3.354   1.899  -0.088  0.00  0.00     0.027 A 
ATOM      5  C5  DEN d   1       3.282   3.274  -0.122  0.00  0.00    -0.003 A 
ATOM      6  C6  DEN d   1       2.090   3.945  -0.037  0.00  0.00     0.001 A 
ATOM      7  C7  DEN d   1       0.926   3.242   0.131  0.00  0.00     0.017 A 
ATOM      8  C8  DEN d   1       0.991   1.855   0.160  0.00  0.00    -0.094 A 
ATOM      9  C9  DEN d   1       2.206   1.196   0.085  0.00  0.00    -0.072 A 
ENDROOT
TORSDOF 0
ENDMDL
