MODEL 1
REMARK minimizedAffinity -2.30729485
REMARK minimizedRMSD -1
REMARK  0 active torsions:
REMARK  status: ('A' for Active; 'I' for Inactive)
ROOT
ATOM      1  C1  DEN d   1       1.008   0.200  -0.911  0.00  0.00     0.130 A 
ATOM      2  C2  DEN d   1       0.911   0.170   0.546  0.00  0.00    -0.031 A 
ATOM      3  C3  DEN d   1      -0.354  -0.502   0.905  0.00  0.00     0.027 A 
ATOM      4  C4  DEN d   1      -2.159  -1.498  -0.644  0.00  0.00     0.027 A 
ATOM      5  C5  DEN d   1      -2.524  -1.701  -1.957  0.00  0.00    -0.003 A 
ATOM      6  C6  DEN d   1      -1.761  -1.258  -3.004  0.00  0.00     0.001 A 
ATOM      7  C7  DEN d   1      -0.569  -0.629  -2.757  0.00  0.00     0.017 A 
ATOM      8  C8  DEN d   1      -0.198  -0.414  -1.436  0.00  0.00    -0.094 A 
ATOM      9  C9  DEN d   1      -0.978  -0.880  -0.391  0.00  0.00    -0.072 A 
ENDROOT
TORSDOF 0
ENDMDL
