MODEL 1
REMARK minimizedAffinity -2.55734444
REMARK minimizedRMSD -1
REMARK  0 active torsions:
REMARK  status: ('A' for Active; 'I' for Inactive)
ROOT
ATOM      1  C1  DEN d   1       1.420   2.622   0.327  0.00  0.00     0.130 A 
ATOM      2  C2  DEN d   1       2.862   2.485   0.145  0.00  0.00    -0.031 A 
ATOM      3  C3  DEN d   1       3.193   1.046   0.191  0.00  0.00     0.027 A 
ATOM      4  C4  DEN d   1       1.620  -0.971   0.519  0.00  0.00     0.027 A 
ATOM      5  C5  DEN d   1       0.313  -1.354   0.726  0.00  0.00    -0.003 A 
ATOM      6  C6  DEN d   1      -0.703  -0.444   0.847  0.00  0.00     0.001 A 
ATOM      7  C7  DEN d   1      -0.436   0.894   0.717  0.00  0.00     0.017 A 
ATOM      8  C8  DEN d   1       0.880   1.287   0.516  0.00  0.00    -0.094 A 
ATOM      9  C9  DEN d   1       1.892   0.351   0.384  0.00  0.00    -0.072 A 
ENDROOT
TORSDOF 0
ENDMDL
