MODEL 1
REMARK minimizedAffinity -5.49046993
REMARK minimizedRMSD -1
REMARK  0 active torsions:
REMARK  status: ('A' for Active; 'I' for Inactive)
ROOT
ATOM      1  C1  DEN d   1       1.513   0.442  -0.270  0.00  0.00     0.130 A 
ATOM      2  C2  DEN d   1       2.331  -0.134   0.794  0.00  0.00    -0.031 A 
ATOM      3  C3  DEN d   1       1.447  -0.929   1.670  0.00  0.00     0.027 A 
ATOM      4  C4  DEN d   1      -1.095  -1.326   1.480  0.00  0.00     0.027 A 
ATOM      5  C5  DEN d   1      -2.225  -1.034   0.748  0.00  0.00    -0.003 A 
ATOM      6  C6  DEN d   1      -2.194  -0.210  -0.345  0.00  0.00     0.001 A 
ATOM      7  C7  DEN d   1      -1.001   0.317  -0.765  0.00  0.00     0.017 A 
ATOM      8  C8  DEN d   1       0.141   0.033  -0.028  0.00  0.00    -0.094 A 
ATOM      9  C9  DEN d   1       0.092  -0.813   1.067  0.00  0.00    -0.072 A 
ENDROOT
TORSDOF 0
ENDMDL
