MODEL 1
REMARK minimizedAffinity -3.29194427
REMARK minimizedRMSD -1
REMARK  0 active torsions:
REMARK  status: ('A' for Active; 'I' for Inactive)
ROOT
ATOM      1  C1  DEN d   1      -0.339   0.656   1.057  0.00  0.00     0.130 A 
ATOM      2  C2  DEN d   1       0.924   0.951   0.385  0.00  0.00    -0.031 A 
ATOM      3  C3  DEN d   1       0.777   0.591  -1.040  0.00  0.00     0.027 A 
ATOM      4  C4  DEN d   1      -1.274  -0.383  -2.264  0.00  0.00     0.027 A 
ATOM      5  C5  DEN d   1      -2.573  -0.815  -2.110  0.00  0.00    -0.003 A 
ATOM      6  C6  DEN d   1      -3.201  -0.819  -0.893  0.00  0.00     0.001 A 
ATOM      7  C7  DEN d   1      -2.547  -0.340   0.210  0.00  0.00     0.017 A 
ATOM      8  C8  DEN d   1      -1.234   0.091   0.064  0.00  0.00    -0.094 A 
ATOM      9  C9  DEN d   1      -0.620   0.098  -1.176  0.00  0.00    -0.072 A 
ENDROOT
TORSDOF 0
ENDMDL
