MODEL 1
REMARK minimizedAffinity -2.23456693
REMARK minimizedRMSD -1
REMARK  0 active torsions:
REMARK  status: ('A' for Active; 'I' for Inactive)
ROOT
ATOM      1  C1  DEN d   1       0.389   0.579  -1.470  0.00  0.00     0.130 A 
ATOM      2  C2  DEN d   1      -0.628  -0.273  -0.859  0.00  0.00    -0.031 A 
ATOM      3  C3  DEN d   1      -0.526  -0.128   0.607  0.00  0.00     0.027 A 
ATOM      4  C4  DEN d   1       1.097   1.329   1.983  0.00  0.00     0.027 A 
ATOM      5  C5  DEN d   1       2.148   2.216   1.909  0.00  0.00    -0.003 A 
ATOM      6  C6  DEN d   1       2.704   2.591   0.714  0.00  0.00     0.001 A 
ATOM      7  C7  DEN d   1       2.181   2.111  -0.458  0.00  0.00     0.017 A 
ATOM      8  C8  DEN d   1       1.127   1.210  -0.390  0.00  0.00    -0.094 A 
ATOM      9  C9  DEN d   1       0.571   0.853   0.827  0.00  0.00    -0.072 A 
ENDROOT
TORSDOF 0
ENDMDL
