MODEL 1
REMARK minimizedAffinity 4.65352869
REMARK minimizedRMSD -1
REMARK  0 active torsions:
REMARK  status: ('A' for Active; 'I' for Inactive)
ROOT
ATOM      1  C1  DEN d   1      -1.032   5.640   0.502  0.00  0.00     0.130 A 
ATOM      2  C2  DEN d   1       0.079   5.992  -0.378  0.00  0.00    -0.031 A 
ATOM      3  C3  DEN d   1       0.602   4.746  -0.972  0.00  0.00     0.027 A 
ATOM      4  C4  DEN d   1      -0.199   2.319  -0.621  0.00  0.00     0.027 A 
ATOM      5  C5  DEN d   1      -1.103   1.521   0.044  0.00  0.00    -0.003 A 
ATOM      6  C6  DEN d   1      -2.017   2.031   0.927  0.00  0.00     0.001 A 
ATOM      7  C7  DEN d   1      -2.077   3.384   1.135  0.00  0.00     0.017 A 
ATOM      8  C8  DEN d   1      -1.164   4.195   0.473  0.00  0.00    -0.094 A 
ATOM      9  C9  DEN d   1      -0.256   3.661  -0.425  0.00  0.00    -0.072 A 
ENDROOT
TORSDOF 0
ENDMDL
