MODEL 1
REMARK minimizedAffinity 2.90258336
REMARK minimizedRMSD -1
REMARK  0 active torsions:
REMARK  status: ('A' for Active; 'I' for Inactive)
ROOT
ATOM      1  C1  DEN d   1       1.850  -0.525   1.093  0.00  0.00     0.130 A 
ATOM      2  C2  DEN d   1       1.580  -0.869  -0.300  0.00  0.00    -0.031 A 
ATOM      3  C3  DEN d   1       0.400  -0.097  -0.740  0.00  0.00     0.027 A 
ATOM      4  C4  DEN d   1      -1.024   1.591   0.591  0.00  0.00     0.027 A 
ATOM      5  C5  DEN d   1      -1.189   2.202   1.815  0.00  0.00    -0.003 A 
ATOM      6  C6  DEN d   1      -0.380   1.923   2.885  0.00  0.00     0.001 A 
ATOM      7  C7  DEN d   1       0.660   1.044   2.739  0.00  0.00     0.017 A 
ATOM      8  C8  DEN d   1       0.828   0.418   1.510  0.00  0.00    -0.094 A 
ATOM      9  C9  DEN d   1       0.007   0.722   0.437  0.00  0.00    -0.072 A 
ENDROOT
TORSDOF 0
ENDMDL
