MODEL 1
REMARK minimizedAffinity 2.31532383
REMARK minimizedRMSD -1
REMARK  0 active torsions:
REMARK  status: ('A' for Active; 'I' for Inactive)
ROOT
ATOM      1  C1  DEN d   1       1.799  -2.625  -0.719  0.00  0.00     0.130 A 
ATOM      2  C2  DEN d   1       2.918  -2.044   0.017  0.00  0.00    -0.031 A 
ATOM      3  C3  DEN d   1       2.762  -0.576   0.001  0.00  0.00     0.027 A 
ATOM      4  C4  DEN d   1       0.903   0.846  -1.082  0.00  0.00     0.027 A 
ATOM      5  C5  DEN d   1      -0.256   0.801  -1.825  0.00  0.00    -0.003 A 
ATOM      6  C6  DEN d   1      -0.789  -0.378  -2.277  0.00  0.00     0.001 A 
ATOM      7  C7  DEN d   1      -0.186  -1.564  -1.951  0.00  0.00     0.017 A 
ATOM      8  C8  DEN d   1       0.987  -1.526  -1.208  0.00  0.00    -0.094 A 
ATOM      9  C9  DEN d   1       1.503  -0.325  -0.751  0.00  0.00    -0.072 A 
ENDROOT
TORSDOF 0
ENDMDL
