MODEL 1
REMARK minimizedAffinity 7.68911409
REMARK minimizedRMSD -1
REMARK  0 active torsions:
REMARK  status: ('A' for Active; 'I' for Inactive)
ROOT
ATOM      1  C1  DEN d   1       2.877  -5.258  -0.894  0.00  0.00     0.130 A 
ATOM      2  C2  DEN d   1       1.455  -4.935  -0.983  0.00  0.00    -0.031 A 
ATOM      3  C3  DEN d   1       1.264  -3.570  -0.452  0.00  0.00     0.027 A 
ATOM      4  C4  DEN d   1       3.021  -1.933   0.488  0.00  0.00     0.027 A 
ATOM      5  C5  DEN d   1       4.357  -1.765   0.777  0.00  0.00    -0.003 A 
ATOM      6  C6  DEN d   1       5.281  -2.753   0.562  0.00  0.00     0.001 A 
ATOM      7  C7  DEN d   1       4.887  -3.940   0.002  0.00  0.00     0.017 A 
ATOM      8  C8  DEN d   1       3.541  -4.119  -0.285  0.00  0.00    -0.094 A 
ATOM      9  C9  DEN d   1       2.624  -3.104  -0.072  0.00  0.00    -0.072 A 
ENDROOT
TORSDOF 0
ENDMDL
