MODEL 1
REMARK minimizedAffinity 6.12732601
REMARK minimizedRMSD -1
REMARK  0 active torsions:
REMARK  status: ('A' for Active; 'I' for Inactive)
ROOT
ATOM      1  C1  DEN d   1       3.051  -4.781   0.602  0.00  0.00     0.130 A 
ATOM      2  C2  DEN d   1       1.755  -4.655  -0.059  0.00  0.00    -0.031 A 
ATOM      3  C3  DEN d   1       1.652  -3.286  -0.602  0.00  0.00     0.027 A 
ATOM      4  C4  DEN d   1       3.365  -1.361  -0.490  0.00  0.00     0.027 A 
ATOM      5  C5  DEN d   1       4.606  -0.989  -0.022  0.00  0.00    -0.003 A 
ATOM      6  C6  DEN d   1       5.395  -1.837   0.710  0.00  0.00     0.001 A 
ATOM      7  C7  DEN d   1       4.971  -3.116   0.957  0.00  0.00     0.017 A 
ATOM      8  C8  DEN d   1       3.717  -3.496   0.495  0.00  0.00    -0.094 A 
ATOM      9  C9  DEN d   1       2.940  -2.628  -0.253  0.00  0.00    -0.072 A 
ENDROOT
TORSDOF 0
ENDMDL
