MODEL 1
REMARK minimizedAffinity 6.56253147
REMARK minimizedRMSD -1
REMARK  0 active torsions:
REMARK  status: ('A' for Active; 'I' for Inactive)
ROOT
ATOM      1  C1  DEN d   1       1.137   3.519   2.638  0.00  0.00     0.130 A 
ATOM      2  C2  DEN d   1       0.528   3.014   3.866  0.00  0.00    -0.031 A 
ATOM      3  C3  DEN d   1      -0.806   2.479   3.528  0.00  0.00     0.027 A 
ATOM      4  C4  DEN d   1      -1.980   2.378   1.233  0.00  0.00     0.027 A 
ATOM      5  C5  DEN d   1      -1.863   2.694  -0.102  0.00  0.00    -0.003 A 
ATOM      6  C6  DEN d   1      -0.761   3.333  -0.608  0.00  0.00     0.001 A 
ATOM      7  C7  DEN d   1       0.287   3.635   0.220  0.00  0.00     0.017 A 
ATOM      8  C8  DEN d   1       0.174   3.326   1.569  0.00  0.00    -0.094 A 
ATOM      9  C9  DEN d   1      -0.943   2.670   2.059  0.00  0.00    -0.072 A 
ENDROOT
TORSDOF 0
ENDMDL
