MODEL 1
REMARK minimizedAffinity 9.14025402
REMARK minimizedRMSD -1
REMARK  0 active torsions:
REMARK  status: ('A' for Active; 'I' for Inactive)
ROOT
ATOM      1  C1  DEN d   1      -0.602   1.713   2.399  0.00  0.00     0.130 A 
ATOM      2  C2  DEN d   1      -1.389   2.350   1.347  0.00  0.00    -0.031 A 
ATOM      3  C3  DEN d   1      -0.783   1.999   0.047  0.00  0.00     0.027 A 
ATOM      4  C4  DEN d   1       1.284   0.534  -0.436  0.00  0.00     0.027 A 
ATOM      5  C5  DEN d   1       2.288  -0.215   0.138  0.00  0.00    -0.003 A 
ATOM      6  C6  DEN d   1       2.418  -0.344   1.495  0.00  0.00     0.001 A 
ATOM      7  C7  DEN d   1       1.502   0.248   2.324  0.00  0.00     0.017 A 
ATOM      8  C8  DEN d   1       0.491   1.010   1.754  0.00  0.00    -0.094 A 
ATOM      9  C9  DEN d   1       0.370   1.119   0.379  0.00  0.00    -0.072 A 
ENDROOT
TORSDOF 0
ENDMDL
