MODEL 1
REMARK minimizedAffinity 14.1524734
REMARK minimizedRMSD -1
REMARK  0 active torsions:
REMARK  status: ('A' for Active; 'I' for Inactive)
ROOT
ATOM      1  C1  DEN d   1       0.814   1.547   0.220  0.00  0.00     0.130 A 
ATOM      2  C2  DEN d   1      -0.085   2.238   1.141  0.00  0.00    -0.031 A 
ATOM      3  C3  DEN d   1      -1.472   1.893   0.769  0.00  0.00     0.027 A 
ATOM      4  C4  DEN d   1      -2.310   0.362  -1.130  0.00  0.00     0.027 A 
ATOM      5  C5  DEN d   1      -1.920  -0.437  -2.182  0.00  0.00    -0.003 A 
ATOM      6  C6  DEN d   1      -0.605  -0.603  -2.525  0.00  0.00     0.001 A 
ATOM      7  C7  DEN d   1       0.372   0.004  -1.781  0.00  0.00     0.017 A 
ATOM      8  C8  DEN d   1      -0.013   0.817  -0.724  0.00  0.00    -0.094 A 
ATOM      9  C9  DEN d   1      -1.347   0.962  -0.385  0.00  0.00    -0.072 A 
ENDROOT
TORSDOF 0
ENDMDL
