MODEL 1
REMARK minimizedAffinity 12.8587551
REMARK minimizedRMSD -1
REMARK  0 active torsions:
REMARK  status: ('A' for Active; 'I' for Inactive)
ROOT
ATOM      1  C1  DEN d   1      -0.536   3.357   0.755  0.00  0.00     0.130 A 
ATOM      2  C2  DEN d   1      -1.915   3.775   0.514  0.00  0.00    -0.031 A 
ATOM      3  C3  DEN d   1      -2.801   2.910   1.319  0.00  0.00     0.027 A 
ATOM      4  C4  DEN d   1      -2.175   0.977   2.908  0.00  0.00     0.027 A 
ATOM      5  C5  DEN d   1      -1.131   0.245   3.428  0.00  0.00    -0.003 A 
ATOM      6  C6  DEN d   1       0.172   0.474   3.070  0.00  0.00     0.001 A 
ATOM      7  C7  DEN d   1       0.468   1.491   2.201  0.00  0.00     0.017 A 
ATOM      8  C8  DEN d   1      -0.581   2.229   1.667  0.00  0.00    -0.094 A 
ATOM      9  C9  DEN d   1      -1.889   1.990   2.051  0.00  0.00    -0.072 A 
ENDROOT
TORSDOF 0
ENDMDL
