MODEL 1
REMARK minimizedAffinity 3.63287139
REMARK minimizedRMSD -1
REMARK  0 active torsions:
REMARK  status: ('A' for Active; 'I' for Inactive)
ROOT
ATOM      1  C1  DEN d   1      -3.871   1.164   2.045  0.00  0.00     0.130 A 
ATOM      2  C2  DEN d   1      -3.057   0.095   2.617  0.00  0.00    -0.031 A 
ATOM      3  C3  DEN d   1      -1.647   0.535   2.600  0.00  0.00     0.027 A 
ATOM      4  C4  DEN d   1      -0.653   2.759   1.753  0.00  0.00     0.027 A 
ATOM      5  C5  DEN d   1      -0.949   3.972   1.171  0.00  0.00    -0.003 A 
ATOM      6  C6  DEN d   1      -2.225   4.317   0.811  0.00  0.00     0.001 A 
ATOM      7  C7  DEN d   1      -3.259   3.457   1.072  0.00  0.00     0.017 A 
ATOM      8  C8  DEN d   1      -2.967   2.230   1.652  0.00  0.00    -0.094 A 
ATOM      9  C9  DEN d   1      -1.673   1.905   2.019  0.00  0.00    -0.072 A 
ENDROOT
TORSDOF 0
ENDMDL
