MODEL 1
REMARK minimizedAffinity 3.67389178
REMARK minimizedRMSD -1
REMARK  0 active torsions:
REMARK  status: ('A' for Active; 'I' for Inactive)
ROOT
ATOM      1  C1  DEN d   1      -2.313   0.664   2.901  0.00  0.00     0.130 A 
ATOM      2  C2  DEN d   1      -1.007   0.061   3.155  0.00  0.00    -0.031 A 
ATOM      3  C3  DEN d   1      -0.025   0.706   2.260  0.00  0.00     0.027 A 
ATOM      4  C4  DEN d   1      -0.395   2.573   0.520  0.00  0.00     0.027 A 
ATOM      5  C5  DEN d   1      -1.335   3.395  -0.062  0.00  0.00    -0.003 A 
ATOM      6  C6  DEN d   1      -2.661   3.341   0.276  0.00  0.00     0.001 A 
ATOM      7  C7  DEN d   1      -3.078   2.478   1.255  0.00  0.00     0.017 A 
ATOM      8  C8  DEN d   1      -2.138   1.640   1.841  0.00  0.00    -0.094 A 
ATOM      9  C9  DEN d   1      -0.799   1.718   1.494  0.00  0.00    -0.072 A 
ENDROOT
TORSDOF 0
ENDMDL
