MODEL 1
REMARK minimizedAffinity 8.65250015
REMARK minimizedRMSD -1
REMARK  0 active torsions:
REMARK  status: ('A' for Active; 'I' for Inactive)
ROOT
ATOM      1  C1  DEN d   1      -0.860   3.474   1.284  0.00  0.00     0.130 A 
ATOM      2  C2  DEN d   1      -1.093   2.378   2.221  0.00  0.00    -0.031 A 
ATOM      3  C3  DEN d   1      -0.765   1.113   1.534  0.00  0.00     0.027 A 
ATOM      4  C4  DEN d   1       0.082   0.746  -0.875  0.00  0.00     0.027 A 
ATOM      5  C5  DEN d   1       0.421   1.373  -2.053  0.00  0.00    -0.003 A 
ATOM      6  C6  DEN d   1       0.325   2.730  -2.212  0.00  0.00     0.001 A 
ATOM      7  C7  DEN d   1      -0.078   3.510  -1.160  0.00  0.00     0.017 A 
ATOM      8  C8  DEN d   1      -0.428   2.884   0.029  0.00  0.00    -0.094 A 
ATOM      9  C9  DEN d   1      -0.313   1.512   0.174  0.00  0.00    -0.072 A 
ENDROOT
TORSDOF 0
ENDMDL
