MODEL 1
REMARK minimizedAffinity 8.99508953
REMARK minimizedRMSD -1
REMARK  0 active torsions:
REMARK  status: ('A' for Active; 'I' for Inactive)
ROOT
ATOM      1  C1  DEN d   1       0.138  -0.011  -0.734  0.00  0.00     0.130 A 
ATOM      2  C2  DEN d   1       0.689  -0.263  -2.063  0.00  0.00    -0.031 A 
ATOM      3  C3  DEN d   1       0.850   1.038  -2.744  0.00  0.00     0.027 A 
ATOM      4  C4  DEN d   1       0.308   3.404  -1.872  0.00  0.00     0.027 A 
ATOM      5  C5  DEN d   1      -0.189   4.121  -0.806  0.00  0.00    -0.003 A 
ATOM      6  C6  DEN d   1      -0.640   3.514   0.336  0.00  0.00     0.001 A 
ATOM      7  C7  DEN d   1      -0.561   2.151   0.457  0.00  0.00     0.017 A 
ATOM      8  C8  DEN d   1      -0.067   1.421  -0.616  0.00  0.00    -0.094 A 
ATOM      9  C9  DEN d   1       0.395   2.054  -1.758  0.00  0.00    -0.072 A 
ENDROOT
TORSDOF 0
ENDMDL
