MODEL 1
REMARK minimizedAffinity 12.7196112
REMARK minimizedRMSD -1
REMARK  0 active torsions:
REMARK  status: ('A' for Active; 'I' for Inactive)
ROOT
ATOM      1  C1  DEN d   1      -0.610   2.575   2.034  0.00  0.00     0.130 A 
ATOM      2  C2  DEN d   1      -0.478   3.930   2.564  0.00  0.00    -0.031 A 
ATOM      3  C3  DEN d   1      -0.220   4.840   1.431  0.00  0.00     0.027 A 
ATOM      4  C4  DEN d   1      -0.019   4.289  -1.081  0.00  0.00     0.027 A 
ATOM      5  C5  DEN d   1      -0.046   3.275  -2.013  0.00  0.00    -0.003 A 
ATOM      6  C6  DEN d   1      -0.227   1.964  -1.661  0.00  0.00     0.001 A 
ATOM      7  C7  DEN d   1      -0.435   1.636  -0.347  0.00  0.00     0.017 A 
ATOM      8  C8  DEN d   1      -0.401   2.652   0.600  0.00  0.00    -0.094 A 
ATOM      9  C9  DEN d   1      -0.228   3.973   0.222  0.00  0.00    -0.072 A 
ENDROOT
TORSDOF 0
ENDMDL
