MODEL 1
REMARK minimizedAffinity 13.0512514
REMARK minimizedRMSD -1
REMARK  0 active torsions:
REMARK  status: ('A' for Active; 'I' for Inactive)
ROOT
ATOM      1  C1  DEN d   1       3.236  -0.654   1.489  0.00  0.00     0.130 A 
ATOM      2  C2  DEN d   1       1.795  -0.888   1.485  0.00  0.00    -0.031 A 
ATOM      3  C3  DEN d   1       1.567  -2.328   1.245  0.00  0.00     0.027 A 
ATOM      4  C4  DEN d   1       3.297  -4.207   0.886  0.00  0.00     0.027 A 
ATOM      5  C5  DEN d   1       4.641  -4.492   0.793  0.00  0.00    -0.003 A 
ATOM      6  C6  DEN d   1       5.602  -3.521   0.890  0.00  0.00     0.001 A 
ATOM      7  C7  DEN d   1       5.234  -2.223   1.132  0.00  0.00     0.017 A 
ATOM      8  C8  DEN d   1       3.880  -1.927   1.220  0.00  0.00    -0.094 A 
ATOM      9  C9  DEN d   1       2.925  -2.925   1.131  0.00  0.00    -0.072 A 
ENDROOT
TORSDOF 0
ENDMDL
