MODEL 1
REMARK minimizedAffinity 5.03207922
REMARK minimizedRMSD -1
REMARK  0 active torsions:
REMARK  status: ('A' for Active; 'I' for Inactive)
ROOT
ATOM      1  C1  DEN d   1       0.799   1.841  -0.910  0.00  0.00     0.130 A 
ATOM      2  C2  DEN d   1       0.133   3.119  -0.676  0.00  0.00    -0.031 A 
ATOM      3  C3  DEN d   1      -1.190   3.071  -1.332  0.00  0.00     0.027 A 
ATOM      4  C4  DEN d   1      -2.265   1.150  -2.676  0.00  0.00     0.027 A 
ATOM      5  C5  DEN d   1      -2.078  -0.128  -3.153  0.00  0.00    -0.003 A 
ATOM      6  C6  DEN d   1      -0.915  -0.821  -2.947  0.00  0.00     0.001 A 
ATOM      7  C7  DEN d   1       0.090  -0.257  -2.206  0.00  0.00     0.017 A 
ATOM      8  C8  DEN d   1      -0.089   1.035  -1.728  0.00  0.00    -0.094 A 
ATOM      9  C9  DEN d   1      -1.277   1.714  -1.936  0.00  0.00    -0.072 A 
ENDROOT
TORSDOF 0
ENDMDL
