MODEL 1
REMARK minimizedAffinity 2.55279398
REMARK minimizedRMSD -1
REMARK  0 active torsions:
REMARK  status: ('A' for Active; 'I' for Inactive)
ROOT
ATOM      1  C1  DEN d   1       0.043   3.508  -1.764  0.00  0.00     0.130 A 
ATOM      2  C2  DEN d   1       0.201   2.065  -1.610  0.00  0.00    -0.031 A 
ATOM      3  C3  DEN d   1      -0.730   1.613  -0.556  0.00  0.00     0.027 A 
ATOM      4  C4  DEN d   1      -2.395   3.001   0.841  0.00  0.00     0.027 A 
ATOM      5  C5  DEN d   1      -2.879   4.269   1.077  0.00  0.00    -0.003 A 
ATOM      6  C6  DEN d   1      -2.403   5.368   0.411  0.00  0.00     0.001 A 
ATOM      7  C7  DEN d   1      -1.445   5.214  -0.555  0.00  0.00     0.017 A 
ATOM      8  C8  DEN d   1      -0.946   3.939  -0.793  0.00  0.00    -0.094 A 
ATOM      9  C9  DEN d   1      -1.449   2.840  -0.118  0.00  0.00    -0.072 A 
ENDROOT
TORSDOF 0
ENDMDL
