MODEL 1
REMARK minimizedAffinity 1.99718201
REMARK minimizedRMSD -1
REMARK  1 active torsions:
REMARK  status: ('A' for Active; 'I' for Inactive)
REMARK    1  A    between atoms: C1_2  and  C2_3 
ROOT
ATOM      1  C2  UNL d   1      -5.256  -3.009   2.254  0.00  0.00    -0.077 A 
ATOM      2  C3  UNL d   1      -5.239  -4.236   1.576  0.00  0.00     0.002 A 
ATOM      3  C4  UNL d   1      -5.596  -5.413   2.236  0.00  0.00     0.002 A 
ATOM      4  C5  UNL d   1      -5.976  -5.375   3.575  0.00  0.00    -0.004 A 
ATOM      5  C6  UNL d   1      -5.995  -4.160   4.260  0.00  0.00     0.002 A 
ATOM      6  C7  UNL d   1      -5.637  -2.983   3.602  0.00  0.00     0.002 A 
ENDROOT
BRANCH   1   7
ATOM      7  C1  UNL d   1      -4.919  -1.732   1.531  0.00  0.00     0.055 C 
ATOM      8  C   UNL d   1      -3.420  -1.471   1.538  0.00  0.00     0.019 C 
ENDBRANCH   1   7
TORSDOF 1
ENDMDL
