MODEL 1
REMARK minimizedAffinity 6.52971077
REMARK minimizedRMSD -1
REMARK  1 active torsions:
REMARK  status: ('A' for Active; 'I' for Inactive)
REMARK    1  A    between atoms: C1_2  and  C2_3 
ROOT
ATOM      1  C2  UNL d   1      -3.261   5.062  -3.683  0.00  0.00    -0.077 A 
ATOM      2  C3  UNL d   1      -3.770   5.806  -4.757  0.00  0.00     0.002 A 
ATOM      3  C4  UNL d   1      -3.005   5.997  -5.909  0.00  0.00     0.002 A 
ATOM      4  C5  UNL d   1      -1.730   5.445  -6.000  0.00  0.00    -0.004 A 
ATOM      5  C6  UNL d   1      -1.213   4.705  -4.936  0.00  0.00     0.002 A 
ATOM      6  C7  UNL d   1      -1.976   4.514  -3.783  0.00  0.00     0.002 A 
ENDROOT
BRANCH   1   7
ATOM      7  C1  UNL d   1      -4.103   4.814  -2.459  0.00  0.00     0.055 C 
ATOM      8  C   UNL d   1      -5.017   5.995  -2.166  0.00  0.00     0.019 C 
ENDBRANCH   1   7
TORSDOF 1
ENDMDL
