MODEL 1
REMARK minimizedAffinity 0.464262486
REMARK minimizedRMSD -1
REMARK  1 active torsions:
REMARK  status: ('A' for Active; 'I' for Inactive)
REMARK    1  A    between atoms: C1_2  and  C2_3 
ROOT
ATOM      1  C2  UNL d   1      -4.115  -0.428   4.688  0.00  0.00    -0.077 A 
ATOM      2  C3  UNL d   1      -4.493  -1.282   3.643  0.00  0.00     0.002 A 
ATOM      3  C4  UNL d   1      -3.757  -1.315   2.456  0.00  0.00     0.002 A 
ATOM      4  C5  UNL d   1      -2.637  -0.499   2.306  0.00  0.00    -0.004 A 
ATOM      5  C6  UNL d   1      -2.255   0.355   3.339  0.00  0.00     0.002 A 
ATOM      6  C7  UNL d   1      -2.989   0.390   4.525  0.00  0.00     0.002 A 
ENDROOT
BRANCH   1   7
ATOM      7  C1  UNL d   1      -4.878  -0.428   5.987  0.00  0.00     0.055 C 
ATOM      8  C   UNL d   1      -5.950  -1.508   6.000  0.00  0.00     0.019 C 
ENDBRANCH   1   7
TORSDOF 1
ENDMDL
