MODEL 1
REMARK minimizedAffinity 0.0786370039
REMARK minimizedRMSD -1
REMARK  1 active torsions:
REMARK  status: ('A' for Active; 'I' for Inactive)
REMARK    1  A    between atoms: C1_2  and  C2_3 
ROOT
ATOM      1  C2  UNL d   1      -3.018  -1.276   3.020  0.00  0.00    -0.077 A 
ATOM      2  C3  UNL d   1      -2.795  -0.116   3.774  0.00  0.00     0.002 A 
ATOM      3  C4  UNL d   1      -3.537   0.127   4.931  0.00  0.00     0.002 A 
ATOM      4  C5  UNL d   1      -4.504  -0.786   5.346  0.00  0.00    -0.004 A 
ATOM      5  C6  UNL d   1      -4.735  -1.942   4.602  0.00  0.00     0.002 A 
ATOM      6  C7  UNL d   1      -3.995  -2.187   3.444  0.00  0.00     0.002 A 
ENDROOT
BRANCH   1   7
ATOM      7  C1  UNL d   1      -2.185  -1.565   1.798  0.00  0.00     0.055 C 
ATOM      8  C   UNL d   1      -0.755  -1.922   2.176  0.00  0.00     0.019 C 
ENDBRANCH   1   7
TORSDOF 1
ENDMDL
