MODEL 1
REMARK minimizedAffinity 5.88489866
REMARK minimizedRMSD -1
REMARK  1 active torsions:
REMARK  status: ('A' for Active; 'I' for Inactive)
REMARK    1  A    between atoms: C1_2  and  C2_3 
ROOT
ATOM      1  C2  UNL d   1       3.196   3.356  -3.073  0.00  0.00    -0.077 A 
ATOM      2  C3  UNL d   1       2.222   4.363  -3.130  0.00  0.00     0.002 A 
ATOM      3  C4  UNL d   1       1.088   4.295  -2.318  0.00  0.00     0.002 A 
ATOM      4  C5  UNL d   1       0.919   3.224  -1.443  0.00  0.00    -0.004 A 
ATOM      5  C6  UNL d   1       1.881   2.217  -1.380  0.00  0.00     0.002 A 
ATOM      6  C7  UNL d   1       3.015   2.283  -2.191  0.00  0.00     0.002 A 
ENDROOT
BRANCH   1   7
ATOM      7  C1  UNL d   1       4.444   3.454  -3.911  0.00  0.00     0.055 C 
ATOM      8  C   UNL d   1       5.488   4.341  -3.249  0.00  0.00     0.019 C 
ENDBRANCH   1   7
TORSDOF 1
ENDMDL
