MODEL 1
REMARK minimizedAffinity 8.44416618
REMARK minimizedRMSD -1
REMARK  1 active torsions:
REMARK  status: ('A' for Active; 'I' for Inactive)
REMARK    1  A    between atoms: C1_2  and  C2_3 
ROOT
ATOM      1  C2  UNL d   1       3.107   1.866  -1.472  0.00  0.00    -0.077 A 
ATOM      2  C3  UNL d   1       4.050   2.638  -2.164  0.00  0.00     0.002 A 
ATOM      3  C4  UNL d   1       3.664   3.401  -3.269  0.00  0.00     0.002 A 
ATOM      4  C5  UNL d   1       2.336   3.402  -3.687  0.00  0.00    -0.004 A 
ATOM      5  C6  UNL d   1       1.390   2.635  -3.006  0.00  0.00     0.002 A 
ATOM      6  C7  UNL d   1       1.774   1.872  -1.903  0.00  0.00     0.002 A 
ENDROOT
BRANCH   1   7
ATOM      7  C1  UNL d   1       3.510   1.082  -0.251  0.00  0.00     0.055 C 
ATOM      8  C   UNL d   1       2.686   1.484   0.963  0.00  0.00     0.019 C 
ENDBRANCH   1   7
TORSDOF 1
ENDMDL
