MODEL 1
REMARK minimizedAffinity 7.32959604
REMARK minimizedRMSD -1
REMARK  1 active torsions:
REMARK  status: ('A' for Active; 'I' for Inactive)
REMARK    1  A    between atoms: C1_2  and  C2_3 
ROOT
ATOM      1  C2  UNL d   1      -5.249  -3.608   3.688  0.00  0.00    -0.077 A 
ATOM      2  C3  UNL d   1      -5.298  -4.806   2.962  0.00  0.00     0.002 A 
ATOM      3  C4  UNL d   1      -5.670  -5.997   3.590  0.00  0.00     0.002 A 
ATOM      4  C5  UNL d   1      -5.999  -6.000   4.944  0.00  0.00    -0.004 A 
ATOM      5  C6  UNL d   1      -5.952  -4.813   5.674  0.00  0.00     0.002 A 
ATOM      6  C7  UNL d   1      -5.580  -3.622   5.049  0.00  0.00     0.002 A 
ENDROOT
BRANCH   1   7
ATOM      7  C1  UNL d   1      -4.896  -2.314   3.001  0.00  0.00     0.055 C 
ATOM      8  C   UNL d   1      -3.506  -1.839   3.397  0.00  0.00     0.019 C 
ENDBRANCH   1   7
TORSDOF 1
ENDMDL
