MODEL 1
REMARK minimizedAffinity 10.2051802
REMARK minimizedRMSD -1
REMARK  1 active torsions:
REMARK  status: ('A' for Active; 'I' for Inactive)
REMARK    1  A    between atoms: C1_2  and  C2_3 
ROOT
ATOM      1  C2  UNL d   1      -2.545  -1.922   2.181  0.00  0.00    -0.077 A 
ATOM      2  C3  UNL d   1      -2.392  -1.405   3.475  0.00  0.00     0.002 A 
ATOM      3  C4  UNL d   1      -2.132  -0.047   3.667  0.00  0.00     0.002 A 
ATOM      4  C5  UNL d   1      -2.028   0.806   2.571  0.00  0.00    -0.004 A 
ATOM      5  C6  UNL d   1      -2.177   0.301   1.279  0.00  0.00     0.002 A 
ATOM      6  C7  UNL d   1      -2.435  -1.056   1.085  0.00  0.00     0.002 A 
ENDROOT
BRANCH   1   7
ATOM      7  C1  UNL d   1      -2.874  -3.377   1.974  0.00  0.00     0.055 C 
ATOM      8  C   UNL d   1      -4.168  -3.758   2.679  0.00  0.00     0.019 C 
ENDBRANCH   1   7
TORSDOF 1
ENDMDL
