MODEL 1
REMARK minimizedAffinity 9.10174274
REMARK minimizedRMSD -1
REMARK  1 active torsions:
REMARK  status: ('A' for Active; 'I' for Inactive)
REMARK    1  A    between atoms: C1_2  and  C2_3 
ROOT
ATOM      1  C2  UNL d   1      -2.605  -1.621   1.825  0.00  0.00    -0.077 A 
ATOM      2  C3  UNL d   1      -1.680  -1.182   2.782  0.00  0.00     0.002 A 
ATOM      3  C4  UNL d   1      -1.671   0.151   3.196  0.00  0.00     0.002 A 
ATOM      4  C5  UNL d   1      -2.587   1.055   2.662  0.00  0.00    -0.004 A 
ATOM      5  C6  UNL d   1      -3.509   0.629   1.707  0.00  0.00     0.002 A 
ATOM      6  C7  UNL d   1      -3.519  -0.704   1.291  0.00  0.00     0.002 A 
ENDROOT
BRANCH   1   7
ATOM      7  C1  UNL d   1      -2.649  -3.070   1.413  0.00  0.00     0.055 C 
ATOM      8  C   UNL d   1      -3.785  -3.808   2.106  0.00  0.00     0.019 C 
ENDBRANCH   1   7
TORSDOF 1
ENDMDL
