MODEL 1
REMARK minimizedAffinity 12.308321
REMARK minimizedRMSD -1
REMARK  1 active torsions:
REMARK  status: ('A' for Active; 'I' for Inactive)
REMARK    1  A    between atoms: C1_2  and  C2_3 
ROOT
ATOM      1  C2  UNL d   1      -1.528  -5.212  -4.839  0.00  0.00    -0.077 A 
ATOM      2  C3  UNL d   1      -2.342  -4.899  -3.742  0.00  0.00     0.002 A 
ATOM      3  C4  UNL d   1      -1.844  -4.129  -2.689  0.00  0.00     0.002 A 
ATOM      4  C5  UNL d   1      -0.531  -3.663  -2.725  0.00  0.00    -0.004 A 
ATOM      5  C6  UNL d   1       0.288  -3.971  -3.811  0.00  0.00     0.002 A 
ATOM      6  C7  UNL d   1      -0.209  -4.741  -4.864  0.00  0.00     0.002 A 
ENDROOT
BRANCH   1   7
ATOM      7  C1  UNL d   1      -2.078  -6.000  -5.999  0.00  0.00     0.055 C 
ATOM      8  C   UNL d   1      -3.600  -5.998  -5.996  0.00  0.00     0.019 C 
ENDBRANCH   1   7
TORSDOF 1
ENDMDL
