MODEL 1
REMARK minimizedAffinity -0.157869607
REMARK minimizedRMSD -1
REMARK  3 active torsions:
REMARK  status: ('A' for Active; 'I' for Inactive)
REMARK    1  A    between atoms: C3'_2  and  C2'_3 
REMARK    2  A    between atoms: C2'_3  and  C1'_4 
REMARK    3  A    between atoms: C1'_4  and  C1_5 
ROOT
ATOM      1  C1  N4B d   1       5.049   0.787   3.953  0.00  0.00    -0.075 A 
ATOM      2  C2  N4B d   1       5.999   0.862   4.994  0.00  0.00     0.002 A 
ATOM      3  C3  N4B d   1       5.992  -0.073   6.000  0.00  0.00     0.002 A 
ATOM      4  C4  N4B d   1       5.035  -1.077   5.995  0.00  0.00    -0.004 A 
ATOM      5  C5  N4B d   1       4.136  -1.158   4.972  0.00  0.00     0.002 A 
ATOM      6  C6  N4B d   1       4.135  -0.227   3.953  0.00  0.00     0.002 A 
ENDROOT
BRANCH   1   7
ATOM      7  C1' N4B d   1       4.963   1.836   2.878  0.00  0.00     0.057 C 
BRANCH   7   8
ATOM      8  C2' N4B d   1       4.618   3.179   3.515  0.00  0.00     0.009 C 
BRANCH   8   9
ATOM      9  C3' N4B d   1       5.848   4.049   3.709  0.00  0.00     0.004 C 
ATOM     10  C4' N4B d   1       5.552   5.312   4.463  0.00  0.00     0.003 C 
ENDBRANCH   8   9
ENDBRANCH   7   8
ENDBRANCH   1   7
TORSDOF 3
ENDMDL
