MODEL 1
REMARK minimizedAffinity 2.68161964
REMARK minimizedRMSD -1
REMARK  3 active torsions:
REMARK  status: ('A' for Active; 'I' for Inactive)
REMARK    1  A    between atoms: C3'_2  and  C2'_3 
REMARK    2  A    between atoms: C2'_3  and  C1'_4 
REMARK    3  A    between atoms: C1'_4  and  C1_5 
ROOT
ATOM      1  C1  N4B d   1       5.193   2.173   3.993  0.00  0.00    -0.075 A 
ATOM      2  C2  N4B d   1       4.801   2.036   2.643  0.00  0.00     0.002 A 
ATOM      3  C3  N4B d   1       4.135   0.907   2.233  0.00  0.00     0.002 A 
ATOM      4  C4  N4B d   1       3.868  -0.102   3.146  0.00  0.00    -0.004 A 
ATOM      5  C5  N4B d   1       4.228   0.050   4.454  0.00  0.00     0.002 A 
ATOM      6  C6  N4B d   1       4.894   1.181   4.881  0.00  0.00     0.002 A 
ENDROOT
BRANCH   1   7
ATOM      7  C1' N4B d   1       5.999   3.350   4.470  0.00  0.00     0.057 C 
BRANCH   7   8
ATOM      8  C2' N4B d   1       5.989   4.433   3.395  0.00  0.00     0.009 C 
BRANCH   8   9
ATOM      9  C3' N4B d   1       5.949   5.828   3.994  0.00  0.00     0.004 C 
ATOM     10  C4' N4B d   1       5.999   5.818   5.492  0.00  0.00     0.003 C 
ENDBRANCH   8   9
ENDBRANCH   7   8
ENDBRANCH   1   7
TORSDOF 3
ENDMDL
