MODEL 1
REMARK minimizedAffinity 5.84590006
REMARK minimizedRMSD -1
REMARK  3 active torsions:
REMARK  status: ('A' for Active; 'I' for Inactive)
REMARK    1  A    between atoms: C3'_2  and  C2'_3 
REMARK    2  A    between atoms: C2'_3  and  C1'_4 
REMARK    3  A    between atoms: C1'_4  and  C1_5 
ROOT
ATOM      1  C1  N4B d   1       3.492  -0.498   4.870  0.00  0.00    -0.075 A 
ATOM      2  C2  N4B d   1       4.486  -0.644   5.862  0.00  0.00     0.002 A 
ATOM      3  C3  N4B d   1       5.726  -0.083   5.679  0.00  0.00     0.002 A 
ATOM      4  C4  N4B d   1       6.000   0.610   4.509  0.00  0.00    -0.004 A 
ATOM      5  C5  N4B d   1       5.026   0.767   3.567  0.00  0.00     0.002 A 
ATOM      6  C6  N4B d   1       3.774   0.212   3.739  0.00  0.00     0.002 A 
ENDROOT
BRANCH   1   7
ATOM      7  C1' N4B d   1       2.149  -1.167   4.987  0.00  0.00     0.057 C 
BRANCH   7   8
ATOM      8  C2' N4B d   1       1.915  -2.039   3.757  0.00  0.00     0.009 C 
BRANCH   8   9
ATOM      9  C3' N4B d   1       0.447  -2.098   3.373  0.00  0.00     0.004 C 
ATOM     10  C4' N4B d   1       0.182  -3.031   2.230  0.00  0.00     0.003 C 
ENDBRANCH   8   9
ENDBRANCH   7   8
ENDBRANCH   1   7
TORSDOF 3
ENDMDL
