MODEL 1
REMARK minimizedAffinity -3.78599072
REMARK minimizedRMSD -1
REMARK  3 active torsions:
REMARK  status: ('A' for Active; 'I' for Inactive)
REMARK    1  A    between atoms: C3'_2  and  C2'_3 
REMARK    2  A    between atoms: C2'_3  and  C1'_4 
REMARK    3  A    between atoms: C1'_4  and  C1_5 
ROOT
ATOM      1  C1  N4B d   1       1.981  -2.083   1.210  0.00  0.00    -0.075 A 
ATOM      2  C2  N4B d   1       1.720  -3.467   1.322  0.00  0.00     0.002 A 
ATOM      3  C3  N4B d   1       0.569  -3.993   0.788  0.00  0.00     0.002 A 
ATOM      4  C4  N4B d   1      -0.339  -3.157   0.157  0.00  0.00    -0.004 A 
ATOM      5  C5  N4B d   1      -0.068  -1.826   0.031  0.00  0.00     0.002 A 
ATOM      6  C6  N4B d   1       1.087  -1.284   0.560  0.00  0.00     0.002 A 
ENDROOT
BRANCH   1   7
ATOM      7  C1' N4B d   1       3.183  -1.448   1.853  0.00  0.00     0.057 C 
BRANCH   7   8
ATOM      8  C2' N4B d   1       2.721  -0.348   2.804  0.00  0.00     0.009 C 
BRANCH   8   9
ATOM      9  C3' N4B d   1       3.846   0.608   3.158  0.00  0.00     0.004 C 
ATOM     10  C4' N4B d   1       4.508   0.270   4.461  0.00  0.00     0.003 C 
ENDBRANCH   8   9
ENDBRANCH   7   8
ENDBRANCH   1   7
TORSDOF 3
ENDMDL
