MODEL 1
REMARK minimizedAffinity -4.61228466
REMARK minimizedRMSD -1
REMARK  3 active torsions:
REMARK  status: ('A' for Active; 'I' for Inactive)
REMARK    1  A    between atoms: C3'_2  and  C2'_3 
REMARK    2  A    between atoms: C2'_3  and  C1'_4 
REMARK    3  A    between atoms: C1'_4  and  C1_5 
ROOT
ATOM      1  C1  N4B d   1      -2.886   0.056   1.071  0.00  0.00    -0.075 A 
ATOM      2  C2  N4B d   1      -2.221   0.748   2.107  0.00  0.00     0.002 A 
ATOM      3  C3  N4B d   1      -2.419   2.097   2.269  0.00  0.00     0.002 A 
ATOM      4  C4  N4B d   1      -3.260   2.776   1.399  0.00  0.00    -0.004 A 
ATOM      5  C5  N4B d   1      -3.918   2.096   0.417  0.00  0.00     0.002 A 
ATOM      6  C6  N4B d   1      -3.731   0.739   0.245  0.00  0.00     0.002 A 
ENDROOT
BRANCH   1   7
ATOM      7  C1' N4B d   1      -2.635  -1.403   0.801  0.00  0.00     0.057 C 
BRANCH   7   8
ATOM      8  C2' N4B d   1      -1.191  -1.586   0.343  0.00  0.00     0.009 C 
BRANCH   8   9
ATOM      9  C3' N4B d   1      -0.838  -3.050   0.145  0.00  0.00     0.004 C 
ATOM     10  C4' N4B d   1       0.519  -3.398   0.680  0.00  0.00     0.003 C 
ENDBRANCH   8   9
ENDBRANCH   7   8
ENDBRANCH   1   7
TORSDOF 3
ENDMDL
