MODEL 1
REMARK minimizedAffinity 8.46793365
REMARK minimizedRMSD -1
REMARK  3 active torsions:
REMARK  status: ('A' for Active; 'I' for Inactive)
REMARK    1  A    between atoms: C3'_2  and  C2'_3 
REMARK    2  A    between atoms: C2'_3  and  C1'_4 
REMARK    3  A    between atoms: C1'_4  and  C1_5 
ROOT
ATOM      1  C1  N4B d   1      -3.129   1.855   1.084  0.00  0.00    -0.075 A 
ATOM      2  C2  N4B d   1      -3.365   2.364  -0.212  0.00  0.00     0.002 A 
ATOM      3  C3  N4B d   1      -3.576   3.708  -0.394  0.00  0.00     0.002 A 
ATOM      4  C4  N4B d   1      -3.575   4.557   0.703  0.00  0.00    -0.004 A 
ATOM      5  C5  N4B d   1      -3.322   4.062   1.948  0.00  0.00     0.002 A 
ATOM      6  C6  N4B d   1      -3.104   2.713   2.145  0.00  0.00     0.002 A 
ENDROOT
BRANCH   1   7
ATOM      7  C1' N4B d   1      -2.978   0.381   1.344  0.00  0.00     0.057 C 
BRANCH   7   8
ATOM      8  C2' N4B d   1      -3.808   0.000   2.566  0.00  0.00     0.009 C 
BRANCH   8   9
ATOM      9  C3' N4B d   1      -2.996  -0.787   3.581  0.00  0.00     0.004 C 
ATOM     10  C4' N4B d   1      -2.297   0.093   4.574  0.00  0.00     0.003 C 
ENDBRANCH   8   9
ENDBRANCH   7   8
ENDBRANCH   1   7
TORSDOF 3
ENDMDL
