MODEL 1
REMARK minimizedAffinity 4.20219564
REMARK minimizedRMSD -1
REMARK  3 active torsions:
REMARK  status: ('A' for Active; 'I' for Inactive)
REMARK    1  A    between atoms: C3'_2  and  C2'_3 
REMARK    2  A    between atoms: C2'_3  and  C1'_4 
REMARK    3  A    between atoms: C1'_4  and  C1_5 
ROOT
ATOM      1  C1  N4B d   1      -3.797   0.117   2.469  0.00  0.00    -0.075 A 
ATOM      2  C2  N4B d   1      -5.030  -0.241   1.881  0.00  0.00     0.002 A 
ATOM      3  C3  N4B d   1      -5.998  -0.854   2.637  0.00  0.00     0.002 A 
ATOM      4  C4  N4B d   1      -5.751  -1.136   3.972  0.00  0.00    -0.004 A 
ATOM      5  C5  N4B d   1      -4.567  -0.764   4.539  0.00  0.00     0.002 A 
ATOM      6  C6  N4B d   1      -3.586  -0.143   3.792  0.00  0.00     0.002 A 
ENDROOT
BRANCH   1   7
ATOM      7  C1' N4B d   1      -2.675   0.711   1.662  0.00  0.00     0.057 C 
BRANCH   7   8
ATOM      8  C2' N4B d   1      -2.496  -0.098   0.381  0.00  0.00     0.009 C 
BRANCH   8   9
ATOM      9  C3' N4B d   1      -2.588   0.774  -0.859  0.00  0.00     0.004 C 
ATOM     10  C4' N4B d   1      -1.395   1.666  -1.032  0.00  0.00     0.003 C 
ENDBRANCH   8   9
ENDBRANCH   7   8
ENDBRANCH   1   7
TORSDOF 3
ENDMDL
