MODEL 1
REMARK minimizedAffinity -3.1064198
REMARK minimizedRMSD -1
REMARK  3 active torsions:
REMARK  status: ('A' for Active; 'I' for Inactive)
REMARK    1  A    between atoms: C3'_2  and  C2'_3 
REMARK    2  A    between atoms: C2'_3  and  C1'_4 
REMARK    3  A    between atoms: C1'_4  and  C1_5 
ROOT
ATOM      1  C1  N4B d   1       3.669  -0.224   2.821  0.00  0.00    -0.075 A 
ATOM      2  C2  N4B d   1       4.257   1.040   3.047  0.00  0.00     0.002 A 
ATOM      3  C3  N4B d   1       5.417   1.137   3.776  0.00  0.00     0.002 A 
ATOM      4  C4  N4B d   1       5.993  -0.008   4.304  0.00  0.00    -0.004 A 
ATOM      5  C5  N4B d   1       5.433  -1.228   4.060  0.00  0.00     0.002 A 
ATOM      6  C6  N4B d   1       4.270  -1.341   3.325  0.00  0.00     0.002 A 
ENDROOT
BRANCH   1   7
ATOM      7  C1' N4B d   1       2.355  -0.372   2.103  0.00  0.00     0.057 C 
BRANCH   7   8
ATOM      8  C2' N4B d   1       2.607  -0.945   0.711  0.00  0.00     0.009 C 
BRANCH   8   9
ATOM      9  C3' N4B d   1       1.953  -2.303   0.529  0.00  0.00     0.004 C 
ATOM     10  C4' N4B d   1       2.895  -3.441   0.787  0.00  0.00     0.003 C 
ENDBRANCH   8   9
ENDBRANCH   7   8
ENDBRANCH   1   7
TORSDOF 3
ENDMDL
