MODEL 1
REMARK minimizedAffinity 11.9822292
REMARK minimizedRMSD -1
REMARK  0 active torsions:
REMARK  status: ('A' for Active; 'I' for Inactive)
ROOT
ATOM      1  C   UNL d   1      -1.609   2.830   1.642  0.00  0.00    -0.002 A 
ATOM      2  C1  UNL d   1      -0.913   3.769   2.390  0.00  0.00     0.010 A 
ATOM      3  C2  UNL d   1       0.074   3.368   3.293  0.00  0.00     0.041 A 
ATOM      4  C3  UNL d   1       0.354   1.994   3.431  0.00  0.00    -0.075 A 
ATOM      5  S   UNL d   1       1.520   1.270   4.474  0.00  0.00     0.015 SA
ATOM      6  C4  UNL d   1       1.123  -0.302   3.950  0.00  0.00     0.022 A 
ATOM      7  C5  UNL d   1       0.126  -0.294   3.003  0.00  0.00     0.026 A 
ATOM      8  C6  UNL d   1      -0.333   1.030   2.688  0.00  0.00    -0.082 A 
ATOM      9  C7  UNL d   1      -1.328   1.468   1.781  0.00  0.00     0.045 A 
ENDROOT
TORSDOF 0
ENDMDL
