MODEL 1
REMARK minimizedAffinity 5.36525154
REMARK minimizedRMSD -1
REMARK  0 active torsions:
REMARK  status: ('A' for Active; 'I' for Inactive)
ROOT
ATOM      1  C   UNL d   1      -0.035   2.253   3.296  0.00  0.00    -0.002 A 
ATOM      2  C1  UNL d   1      -0.397   0.972   2.904  0.00  0.00     0.010 A 
ATOM      3  C2  UNL d   1      -1.606   0.746   2.242  0.00  0.00     0.041 A 
ATOM      4  C3  UNL d   1      -2.451   1.841   1.976  0.00  0.00    -0.075 A 
ATOM      5  S   UNL d   1      -3.979   1.805   1.178  0.00  0.00     0.015 SA
ATOM      6  C4  UNL d   1      -4.186   3.489   1.337  0.00  0.00     0.022 A 
ATOM      7  C5  UNL d   1      -3.126   4.080   1.981  0.00  0.00     0.026 A 
ATOM      8  C6  UNL d   1      -2.108   3.141   2.360  0.00  0.00    -0.082 A 
ATOM      9  C7  UNL d   1      -0.876   3.336   3.030  0.00  0.00     0.045 A 
ENDROOT
TORSDOF 0
ENDMDL
