MODEL 1
REMARK minimizedAffinity 4.89136648
REMARK minimizedRMSD -1
REMARK  0 active torsions:
REMARK  status: ('A' for Active; 'I' for Inactive)
ROOT
ATOM      1  C   UNL d   1       4.011   1.258  -0.569  0.00  0.00    -0.002 A 
ATOM      2  C1  UNL d   1       4.395   1.987   0.547  0.00  0.00     0.010 A 
ATOM      3  C2  UNL d   1       3.463   2.319   1.533  0.00  0.00     0.041 A 
ATOM      4  C3  UNL d   1       2.127   1.901   1.377  0.00  0.00    -0.075 A 
ATOM      5  S   UNL d   1       0.814   2.191   2.456  0.00  0.00     0.015 SA
ATOM      6  C4  UNL d   1      -0.287   1.354   1.461  0.00  0.00     0.022 A 
ATOM      7  C5  UNL d   1       0.315   0.858   0.329  0.00  0.00     0.026 A 
ATOM      8  C6  UNL d   1       1.717   1.165   0.262  0.00  0.00    -0.082 A 
ATOM      9  C7  UNL d   1       2.684   0.845  -0.721  0.00  0.00     0.045 A 
ENDROOT
TORSDOF 0
ENDMDL
