MODEL 1
REMARK minimizedAffinity 6.10894537
REMARK minimizedRMSD -1
REMARK  0 active torsions:
REMARK  status: ('A' for Active; 'I' for Inactive)
ROOT
ATOM      1  C   UNL d   1       4.687   0.140  -2.172  0.00  0.00    -0.002 A 
ATOM      2  C1  UNL d   1       4.856   0.636  -0.887  0.00  0.00     0.010 A 
ATOM      3  C2  UNL d   1       4.146   0.092   0.184  0.00  0.00     0.041 A 
ATOM      4  C3  UNL d   1       3.255  -0.972  -0.060  0.00  0.00    -0.075 A 
ATOM      5  S   UNL d   1       2.279  -1.797   1.098  0.00  0.00     0.015 SA
ATOM      6  C4  UNL d   1       1.615  -2.828  -0.085  0.00  0.00     0.022 A 
ATOM      7  C5  UNL d   1       2.114  -2.563  -1.338  0.00  0.00     0.026 A 
ATOM      8  C6  UNL d   1       3.068  -1.490  -1.344  0.00  0.00    -0.082 A 
ATOM      9  C7  UNL d   1       3.802  -0.915  -2.410  0.00  0.00     0.045 A 
ENDROOT
TORSDOF 0
ENDMDL
