MODEL 1
REMARK minimizedAffinity 9.10399723
REMARK minimizedRMSD -1
REMARK  0 active torsions:
REMARK  status: ('A' for Active; 'I' for Inactive)
ROOT
ATOM      1  C   UNL d   1       3.800  -0.440  -0.002  0.00  0.00    -0.002 A 
ATOM      2  C1  UNL d   1       3.113   0.567  -0.664  0.00  0.00     0.010 A 
ATOM      3  C2  UNL d   1       1.881   0.309  -1.267  0.00  0.00     0.041 A 
ATOM      4  C3  UNL d   1       1.343  -0.991  -1.190  0.00  0.00    -0.075 A 
ATOM      5  S   UNL d   1      -0.151  -1.539  -1.851  0.00  0.00     0.015 SA
ATOM      6  C4  UNL d   1       0.087  -3.124  -1.270  0.00  0.00     0.022 A 
ATOM      7  C5  UNL d   1       1.272  -3.249  -0.585  0.00  0.00     0.026 A 
ATOM      8  C6  UNL d   1       2.016  -2.022  -0.527  0.00  0.00    -0.082 A 
ATOM      9  C7  UNL d   1       3.264  -1.729   0.072  0.00  0.00     0.045 A 
ENDROOT
TORSDOF 0
ENDMDL
