MODEL 1
REMARK minimizedAffinity 11.0771809
REMARK minimizedRMSD -1
REMARK  0 active torsions:
REMARK  status: ('A' for Active; 'I' for Inactive)
ROOT
ATOM      1  C   UNL d   1       6.000   1.115  -0.199  0.00  0.00    -0.002 A 
ATOM      2  C1  UNL d   1       5.115   1.672  -1.111  0.00  0.00     0.010 A 
ATOM      3  C2  UNL d   1       3.914   1.029  -1.418  0.00  0.00     0.041 A 
ATOM      4  C3  UNL d   1       3.613  -0.193  -0.785  0.00  0.00    -0.075 A 
ATOM      5  S   UNL d   1       2.201  -1.157  -1.005  0.00  0.00     0.015 SA
ATOM      6  C4  UNL d   1       2.739  -2.331   0.108  0.00  0.00     0.022 A 
ATOM      7  C5  UNL d   1       3.964  -2.011   0.643  0.00  0.00     0.026 A 
ATOM      8  C6  UNL d   1       4.488  -0.773   0.138  0.00  0.00    -0.082 A 
ATOM      9  C7  UNL d   1       5.698  -0.098   0.427  0.00  0.00     0.045 A 
ENDROOT
TORSDOF 0
ENDMDL
