MODEL 1
REMARK minimizedAffinity 9.01378822
REMARK minimizedRMSD -1
REMARK  0 active torsions:
REMARK  status: ('A' for Active; 'I' for Inactive)
ROOT
ATOM      1  C   UNL d   1       3.653  -0.959  -2.692  0.00  0.00    -0.002 A 
ATOM      2  C1  UNL d   1       2.953  -1.116  -1.505  0.00  0.00     0.010 A 
ATOM      3  C2  UNL d   1       3.253  -0.327  -0.393  0.00  0.00     0.041 A 
ATOM      4  C3  UNL d   1       4.279   0.634  -0.497  0.00  0.00    -0.075 A 
ATOM      5  S   UNL d   1       4.820   1.713   0.734  0.00  0.00     0.015 SA
ATOM      6  C4  UNL d   1       5.993   2.409  -0.288  0.00  0.00     0.022 A 
ATOM      7  C5  UNL d   1       5.987   1.843  -1.541  0.00  0.00     0.026 A 
ATOM      8  C6  UNL d   1       4.998   0.811  -1.682  0.00  0.00    -0.082 A 
ATOM      9  C7  UNL d   1       4.670  -0.006  -2.791  0.00  0.00     0.045 A 
ENDROOT
TORSDOF 0
ENDMDL
