MODEL 1
REMARK minimizedAffinity 11.1417875
REMARK minimizedRMSD -1
REMARK  0 active torsions:
REMARK  status: ('A' for Active; 'I' for Inactive)
ROOT
ATOM      1  C   UNL d   1       4.386  -0.132  -2.819  0.00  0.00    -0.002 A 
ATOM      2  C1  UNL d   1       4.330   0.770  -1.766  0.00  0.00     0.010 A 
ATOM      3  C2  UNL d   1       3.534   0.509  -0.649  0.00  0.00     0.041 A 
ATOM      4  C3  UNL d   1       2.789  -0.686  -0.607  0.00  0.00    -0.075 A 
ATOM      5  S   UNL d   1       1.746  -1.217   0.659  0.00  0.00     0.015 SA
ATOM      6  C4  UNL d   1       1.351  -2.654  -0.168  0.00  0.00     0.022 A 
ATOM      7  C5  UNL d   1       1.990  -2.742  -1.382  0.00  0.00     0.026 A 
ATOM      8  C6  UNL d   1       2.830  -1.610  -1.655  0.00  0.00    -0.082 A 
ATOM      9  C7  UNL d   1       3.645  -1.316  -2.774  0.00  0.00     0.045 A 
ENDROOT
TORSDOF 0
ENDMDL
