MODEL 1
REMARK minimizedAffinity 6.34490013
REMARK minimizedRMSD -1
REMARK  0 active torsions:
REMARK  status: ('A' for Active; 'I' for Inactive)
ROOT
ATOM      1  C   UNL d   1       2.521  -0.002  -4.138  0.00  0.00     0.172 C 
ATOM      2  N   UNL d   1       1.160  -0.461  -4.288  0.00  0.00    -0.070 N 
ATOM      3  C1  UNL d   1       0.246  -0.593  -3.276  0.00  0.00    -0.004 A 
ATOM      4  C2  UNL d   1      -0.929  -1.056  -3.827  0.00  0.00    -0.047 A 
ATOM      5  C3  UNL d   1      -0.714  -1.209  -5.218  0.00  0.00    -0.047 A 
ATOM      6  C4  UNL d   1       0.588  -0.833  -5.475  0.00  0.00    -0.004 A 
ENDROOT
TORSDOF 0
ENDMDL
