MODEL 1
REMARK minimizedAffinity -0.0592357554
REMARK minimizedRMSD -1
REMARK  0 active torsions:
REMARK  status: ('A' for Active; 'I' for Inactive)
ROOT
ATOM      1  C   UNL d   1      -0.010  -3.332  -5.786  0.00  0.00     0.172 C 
ATOM      2  N   UNL d   1      -0.114  -2.259  -4.825  0.00  0.00    -0.070 N 
ATOM      3  C1  UNL d   1      -0.887  -2.272  -3.695  0.00  0.00    -0.004 A 
ATOM      4  C2  UNL d   1      -0.710  -1.068  -3.048  0.00  0.00    -0.047 A 
ATOM      5  C3  UNL d   1       0.201  -0.305  -3.817  0.00  0.00    -0.047 A 
ATOM      6  C4  UNL d   1       0.553  -1.066  -4.911  0.00  0.00    -0.004 A 
ENDROOT
TORSDOF 0
ENDMDL
