MODEL 1
REMARK minimizedAffinity 2.81597614
REMARK minimizedRMSD -1
REMARK  0 active torsions:
REMARK  status: ('A' for Active; 'I' for Inactive)
ROOT
ATOM      1  C   UNL d   1      -2.376  -0.222   2.241  0.00  0.00     0.172 C 
ATOM      2  N   UNL d   1      -0.990  -0.222   2.649  0.00  0.00    -0.070 N 
ATOM      3  C1  UNL d   1      -0.458   0.522   3.667  0.00  0.00    -0.004 A 
ATOM      4  C2  UNL d   1       0.889   0.239   3.737  0.00  0.00    -0.047 A 
ATOM      5  C3  UNL d   1       1.176  -0.707   2.724  0.00  0.00    -0.047 A 
ATOM      6  C4  UNL d   1      -0.005  -0.975   2.066  0.00  0.00    -0.004 A 
ENDROOT
TORSDOF 0
ENDMDL
