MODEL 1
REMARK minimizedAffinity 6.54008818
REMARK minimizedRMSD -1
REMARK  0 active torsions:
REMARK  status: ('A' for Active; 'I' for Inactive)
ROOT
ATOM      1  C   UNL d   1       5.965   3.256  -6.000  0.00  0.00     0.172 C 
ATOM      2  N   UNL d   1       5.414   1.954  -5.703  0.00  0.00    -0.070 N 
ATOM      3  C1  UNL d   1       6.000   0.753  -5.999  0.00  0.00    -0.004 A 
ATOM      4  C2  UNL d   1       5.162  -0.247  -5.554  0.00  0.00    -0.047 A 
ATOM      5  C3  UNL d   1       4.032   0.376  -4.971  0.00  0.00    -0.047 A 
ATOM      6  C4  UNL d   1       4.214   1.738  -5.077  0.00  0.00    -0.004 A 
ENDROOT
TORSDOF 0
ENDMDL
