MODEL 1
REMARK minimizedAffinity 2.76991773
REMARK minimizedRMSD -1
REMARK  0 active torsions:
REMARK  status: ('A' for Active; 'I' for Inactive)
ROOT
ATOM      1  C   UNL d   1       1.876  -2.837   5.311  0.00  0.00     0.172 C 
ATOM      2  N   UNL d   1       1.308  -1.882   4.389  0.00  0.00    -0.070 N 
ATOM      3  C1  UNL d   1       1.437  -0.521   4.469  0.00  0.00    -0.004 A 
ATOM      4  C2  UNL d   1       0.754   0.031   3.407  0.00  0.00    -0.047 A 
ATOM      5  C3  UNL d   1       0.194  -1.036   2.664  0.00  0.00    -0.047 A 
ATOM      6  C4  UNL d   1       0.553  -2.208   3.294  0.00  0.00    -0.004 A 
ENDROOT
TORSDOF 0
ENDMDL
