MODEL 1
REMARK minimizedAffinity 5.28311968
REMARK minimizedRMSD -1
REMARK  0 active torsions:
REMARK  status: ('A' for Active; 'I' for Inactive)
ROOT
ATOM      1  C   UNL d   1       1.112  -3.095   4.003  0.00  0.00     0.172 C 
ATOM      2  N   UNL d   1       1.032  -1.843   3.288  0.00  0.00    -0.070 N 
ATOM      3  C1  UNL d   1       2.096  -1.062   2.923  0.00  0.00    -0.004 A 
ATOM      4  C2  UNL d   1       1.603   0.042   2.261  0.00  0.00    -0.047 A 
ATOM      5  C3  UNL d   1       0.193  -0.079   2.228  0.00  0.00    -0.047 A 
ATOM      6  C4  UNL d   1      -0.133  -1.255   2.870  0.00  0.00    -0.004 A 
ENDROOT
TORSDOF 0
ENDMDL
