MODEL 1
REMARK minimizedAffinity 6.39372921
REMARK minimizedRMSD -1
REMARK  0 active torsions:
REMARK  status: ('A' for Active; 'I' for Inactive)
ROOT
ATOM      1  C   UNL d   1       3.268  -0.059  -5.741  0.00  0.00     0.172 C 
ATOM      2  N   UNL d   1       2.013  -0.528  -5.202  0.00  0.00    -0.070 N 
ATOM      3  C1  UNL d   1       1.757  -1.799  -4.762  0.00  0.00    -0.004 A 
ATOM      4  C2  UNL d   1       0.451  -1.841  -4.325  0.00  0.00    -0.047 A 
ATOM      5  C3  UNL d   1      -0.098  -0.550  -4.510  0.00  0.00    -0.047 A 
ATOM      6  C4  UNL d   1       0.890   0.243  -5.054  0.00  0.00    -0.004 A 
ENDROOT
TORSDOF 0
ENDMDL
