MODEL 1
REMARK minimizedAffinity 8.4068327
REMARK minimizedRMSD -1
REMARK  0 active torsions:
REMARK  status: ('A' for Active; 'I' for Inactive)
ROOT
ATOM      1  C   UNL d   1       1.471  -2.817   4.243  0.00  0.00     0.172 C 
ATOM      2  N   UNL d   1       1.074  -1.670   3.460  0.00  0.00    -0.070 N 
ATOM      3  C1  UNL d   1       0.727  -1.690   2.136  0.00  0.00    -0.004 A 
ATOM      4  C2  UNL d   1       0.413  -0.401   1.763  0.00  0.00    -0.047 A 
ATOM      5  C3  UNL d   1       0.578   0.422   2.903  0.00  0.00    -0.047 A 
ATOM      6  C4  UNL d   1       0.988  -0.390   3.939  0.00  0.00    -0.004 A 
ENDROOT
TORSDOF 0
ENDMDL
