MODEL 1
REMARK minimizedAffinity 1.92452931
REMARK minimizedRMSD -1
REMARK  0 active torsions:
REMARK  status: ('A' for Active; 'I' for Inactive)
ROOT
ATOM      1  C   UNL d   1       1.420  -2.292   4.081  0.00  0.00     0.172 C 
ATOM      2  N   UNL d   1       0.698  -1.202   3.468  0.00  0.00    -0.070 N 
ATOM      3  C1  UNL d   1      -0.252  -1.324   2.489  0.00  0.00    -0.004 A 
ATOM      4  C2  UNL d   1      -0.700  -0.059   2.176  0.00  0.00    -0.047 A 
ATOM      5  C3  UNL d   1       0.005   0.855   2.995  0.00  0.00    -0.047 A 
ATOM      6  C4  UNL d   1       0.864   0.120   3.785  0.00  0.00    -0.004 A 
ENDROOT
TORSDOF 0
ENDMDL
