MODEL 1
REMARK minimizedAffinity 6.04871368
REMARK minimizedRMSD -1
REMARK  0 active torsions:
REMARK  status: ('A' for Active; 'I' for Inactive)
ROOT
ATOM      1  C   UNL d   1       4.051   3.738   5.496  0.00  0.00     0.023 A 
ATOM      2  C1  UNL d   1       3.946   5.112   5.278  0.00  0.00     0.003 A 
ATOM      3  C2  UNL d   1       2.713   5.750   5.420  0.00  0.00     0.048 A 
ATOM      4  C3  UNL d   1       1.588   5.009   5.780  0.00  0.00     0.023 A 
ATOM      5  C4  UNL d   1       1.688   3.634   6.000  0.00  0.00     0.048 A 
ATOM      6  C5  UNL d   1       2.924   3.000   5.856  0.00  0.00     0.003 A 
ATOM      7  I   UNL d   1      -0.250   5.957   5.992  0.00  0.00    -0.146 I 
ENDROOT
TORSDOF 0
ENDMDL
