MODEL 1
REMARK minimizedAffinity 2.24942493
REMARK minimizedRMSD -1
REMARK  0 active torsions:
REMARK  status: ('A' for Active; 'I' for Inactive)
ROOT
ATOM      1  C   UNL d   1       4.151   1.890   4.519  0.00  0.00     0.023 A 
ATOM      2  C1  UNL d   1       3.302   1.748   5.617  0.00  0.00     0.003 A 
ATOM      3  C2  UNL d   1       2.471   2.803   6.000  0.00  0.00     0.048 A 
ATOM      4  C3  UNL d   1       2.493   3.997   5.280  0.00  0.00     0.023 A 
ATOM      5  C4  UNL d   1       3.341   4.143   4.181  0.00  0.00     0.048 A 
ATOM      6  C5  UNL d   1       4.170   3.086   3.802  0.00  0.00     0.003 A 
ATOM      7  I   UNL d   1       1.258   5.568   5.848  0.00  0.00    -0.146 I 
ENDROOT
TORSDOF 0
ENDMDL
