MODEL 1
REMARK minimizedAffinity -0.930697381
REMARK minimizedRMSD -1
REMARK  0 active torsions:
REMARK  status: ('A' for Active; 'I' for Inactive)
ROOT
ATOM      1  C   UNL d   1       5.617   2.236   5.999  0.00  0.00     0.023 A 
ATOM      2  C1  UNL d   1       5.807   3.617   6.000  0.00  0.00     0.003 A 
ATOM      3  C2  UNL d   1       4.706   4.475   6.000  0.00  0.00     0.048 A 
ATOM      4  C3  UNL d   1       3.416   3.945   6.000  0.00  0.00     0.023 A 
ATOM      5  C4  UNL d   1       3.221   2.563   6.000  0.00  0.00     0.048 A 
ATOM      6  C5  UNL d   1       4.325   1.709   5.999  0.00  0.00     0.003 A 
ATOM      7  I   UNL d   1       1.775   5.220   5.999  0.00  0.00    -0.146 I 
ENDROOT
TORSDOF 0
ENDMDL
