MODEL 1
REMARK minimizedAffinity 4.62391853
REMARK minimizedRMSD -1
REMARK  0 active torsions:
REMARK  status: ('A' for Active; 'I' for Inactive)
ROOT
ATOM      1  C   UNL d   1       4.632   3.041   5.999  0.00  0.00     0.023 A 
ATOM      2  C1  UNL d   1       3.457   2.289   5.999  0.00  0.00     0.003 A 
ATOM      3  C2  UNL d   1       2.216   2.931   6.000  0.00  0.00     0.048 A 
ATOM      4  C3  UNL d   1       2.158   4.324   5.999  0.00  0.00     0.023 A 
ATOM      5  C4  UNL d   1       3.331   5.080   5.998  0.00  0.00     0.048 A 
ATOM      6  C5  UNL d   1       4.569   4.435   5.999  0.00  0.00     0.003 A 
ATOM      7  I   UNL d   1       0.313   5.280   6.000  0.00  0.00    -0.146 I 
ENDROOT
TORSDOF 0
ENDMDL
