MODEL 1
REMARK minimizedAffinity -0.821091175
REMARK minimizedRMSD -1
REMARK  0 active torsions:
REMARK  status: ('A' for Active; 'I' for Inactive)
ROOT
ATOM      1  C   UNL d   1       3.756   1.936   5.251  0.00  0.00     0.023 A 
ATOM      2  C1  UNL d   1       2.494   1.674   5.784  0.00  0.00     0.003 A 
ATOM      3  C2  UNL d   1       1.594   2.720   6.000  0.00  0.00     0.048 A 
ATOM      4  C3  UNL d   1       1.963   4.026   5.679  0.00  0.00     0.023 A 
ATOM      5  C4  UNL d   1       3.224   4.293   5.144  0.00  0.00     0.048 A 
ATOM      6  C5  UNL d   1       4.120   3.244   4.931  0.00  0.00     0.003 A 
ATOM      7  I   UNL d   1       0.626   5.584   5.999  0.00  0.00    -0.146 I 
ENDROOT
TORSDOF 0
ENDMDL
