MODEL 1
REMARK minimizedAffinity 6.04882336
REMARK minimizedRMSD -1
REMARK  0 active torsions:
REMARK  status: ('A' for Active; 'I' for Inactive)
ROOT
ATOM      1  C   UNL d   1      -5.780   0.655   1.225  0.00  0.00     0.023 A 
ATOM      2  C1  UNL d   1      -5.999  -0.001   0.013  0.00  0.00     0.003 A 
ATOM      3  C2  UNL d   1      -4.937  -0.221  -0.865  0.00  0.00     0.048 A 
ATOM      4  C3  UNL d   1      -3.657   0.217  -0.526  0.00  0.00     0.023 A 
ATOM      5  C4  UNL d   1      -3.433   0.873   0.686  0.00  0.00     0.048 A 
ATOM      6  C5  UNL d   1      -4.499   1.091   1.561  0.00  0.00     0.003 A 
ATOM      7  I   UNL d   1      -2.073  -0.109  -1.832  0.00  0.00    -0.146 I 
ENDROOT
TORSDOF 0
ENDMDL
