MODEL 1
REMARK minimizedAffinity -2.68090391
REMARK minimizedRMSD -1
REMARK  0 active torsions:
REMARK  status: ('A' for Active; 'I' for Inactive)
ROOT
ATOM      1  N1  IND d   1      -0.076   0.564   2.180  0.00  0.00    -0.196 N 
ATOM      2  C2  IND d   1      -1.269   0.970   1.650  0.00  0.00     0.054 A 
ATOM      3  C3  IND d   1      -1.338   0.641   0.340  0.00  0.00    -0.031 A 
ATOM      4  C4  IND d   1       0.346  -0.656  -1.111  0.00  0.00     0.051 A 
ATOM      5  C5  IND d   1       1.598  -1.202  -1.080  0.00  0.00    -0.031 A 
ATOM      6  C6  IND d   1       2.371  -1.190   0.063  0.00  0.00     0.015 A 
ATOM      7  C7  IND d   1       1.913  -0.638   1.226  0.00  0.00    -0.016 A 
ATOM      8  C8  IND d   1       0.645  -0.076   1.196  0.00  0.00    -0.047 A 
ATOM      9  C9  IND d   1      -0.127  -0.048   0.028  0.00  0.00    -0.096 A 
ATOM     10  HN1 IND d   1       0.180   0.688   2.991  0.00  0.00     0.298 HD
ENDROOT
TORSDOF 0
ENDMDL
