MODEL 1
REMARK minimizedAffinity -2.40801835
REMARK minimizedRMSD -1
REMARK  0 active torsions:
REMARK  status: ('A' for Active; 'I' for Inactive)
ROOT
ATOM      1  N1  IND d   1       1.259  -0.326   0.628  0.00  0.00    -0.196 N 
ATOM      2  C2  IND d   1       1.199  -0.854  -0.631  0.00  0.00     0.054 A 
ATOM      3  C3  IND d   1      -0.048  -0.722  -1.138  0.00  0.00    -0.031 A 
ATOM      4  C4  IND d   1      -2.116   0.419  -0.114  0.00  0.00     0.051 A 
ATOM      5  C5  IND d   1      -2.561   1.015   1.032  0.00  0.00    -0.031 A 
ATOM      6  C6  IND d   1      -1.737   1.201   2.124  0.00  0.00     0.015 A 
ATOM      7  C7  IND d   1      -0.430   0.806   2.105  0.00  0.00    -0.016 A 
ATOM      8  C8  IND d   1       0.023   0.194   0.945  0.00  0.00    -0.047 A 
ATOM      9  C9  IND d   1      -0.819  -0.036  -0.150  0.00  0.00    -0.096 A 
ATOM     10  HN1 IND d   1       1.952  -0.319   1.137  0.00  0.00     0.298 HD
ENDROOT
TORSDOF 0
ENDMDL
