MODEL 1
REMARK minimizedAffinity -2.18834734
REMARK minimizedRMSD -1
REMARK  0 active torsions:
REMARK  status: ('A' for Active; 'I' for Inactive)
ROOT
ATOM      1  N1  IND d   1       0.749   0.626  -0.864  0.00  0.00    -0.196 N 
ATOM      2  C2  IND d   1       0.064  -0.289  -0.113  0.00  0.00     0.054 A 
ATOM      3  C3  IND d   1      -0.505  -1.221  -0.910  0.00  0.00    -0.031 A 
ATOM      4  C4  IND d   1      -0.359  -1.497  -3.466  0.00  0.00     0.051 A 
ATOM      5  C5  IND d   1       0.123  -0.885  -4.589  0.00  0.00    -0.031 A 
ATOM      6  C6  IND d   1       0.854   0.283  -4.527  0.00  0.00     0.015 A 
ATOM      7  C7  IND d   1       1.143   0.880  -3.333  0.00  0.00    -0.016 A 
ATOM      8  C8  IND d   1       0.650   0.266  -2.190  0.00  0.00    -0.047 A 
ATOM      9  C9  IND d   1      -0.129  -0.897  -2.250  0.00  0.00    -0.096 A 
ATOM     10  HN1 IND d   1       1.170   1.311  -0.559  0.00  0.00     0.298 HD
ENDROOT
TORSDOF 0
ENDMDL
