MODEL 1
REMARK minimizedAffinity -3.91160131
REMARK minimizedRMSD -1
REMARK  0 active torsions:
REMARK  status: ('A' for Active; 'I' for Inactive)
ROOT
ATOM      1  N1  IND d   1       0.858  -0.052  -0.819  0.00  0.00    -0.196 N 
ATOM      2  C2  IND d   1      -0.076  -0.910  -1.328  0.00  0.00     0.054 A 
ATOM      3  C3  IND d   1      -1.133  -1.004  -0.490  0.00  0.00    -0.031 A 
ATOM      4  C4  IND d   1      -1.586   0.238   1.719  0.00  0.00     0.051 A 
ATOM      5  C5  IND d   1      -1.006   1.098   2.609  0.00  0.00    -0.031 A 
ATOM      6  C6  IND d   1       0.248   1.632   2.396  0.00  0.00     0.015 A 
ATOM      7  C7  IND d   1       0.969   1.332   1.275  0.00  0.00    -0.016 A 
ATOM      8  C8  IND d   1       0.387   0.454   0.372  0.00  0.00    -0.047 A 
ATOM      9  C9  IND d   1      -0.868  -0.124   0.603  0.00  0.00    -0.096 A 
ATOM     10  HN1 IND d   1       1.614   0.140  -1.183  0.00  0.00     0.298 HD
ENDROOT
TORSDOF 0
ENDMDL
