MODEL 1
REMARK minimizedAffinity -4.39322233
REMARK minimizedRMSD -1
REMARK  0 active torsions:
REMARK  status: ('A' for Active; 'I' for Inactive)
ROOT
ATOM      1  N1  IND d   1      -0.576   0.142  -1.474  0.00  0.00    -0.196 N 
ATOM      2  C2  IND d   1       0.739  -0.157  -1.703  0.00  0.00     0.054 A 
ATOM      3  C3  IND d   1       1.471   0.057  -0.586  0.00  0.00    -0.031 A 
ATOM      4  C4  IND d   1       0.702   0.799   1.756  0.00  0.00     0.051 A 
ATOM      5  C5  IND d   1      -0.400   1.225   2.444  0.00  0.00    -0.031 A 
ATOM      6  C6  IND d   1      -1.642   1.310   1.849  0.00  0.00     0.015 A 
ATOM      7  C7  IND d   1      -1.832   0.961   0.542  0.00  0.00    -0.016 A 
ATOM      8  C8  IND d   1      -0.714   0.535  -0.161  0.00  0.00    -0.047 A 
ATOM      9  C9  IND d   1       0.557   0.487   0.425  0.00  0.00    -0.096 A 
ATOM     10  HN1 IND d   1      -1.209   0.092  -2.053  0.00  0.00     0.298 HD
ENDROOT
TORSDOF 0
ENDMDL
