MODEL 1
REMARK minimizedAffinity -3.95774746
REMARK minimizedRMSD -1
REMARK  0 active torsions:
REMARK  status: ('A' for Active; 'I' for Inactive)
ROOT
ATOM      1  N1  IND d   1       1.313   0.914  -0.920  0.00  0.00    -0.196 N 
ATOM      2  C2  IND d   1       1.015  -0.000  -1.891  0.00  0.00     0.054 A 
ATOM      3  C3  IND d   1      -0.119  -0.666  -1.578  0.00  0.00    -0.031 A 
ATOM      4  C4  IND d   1      -1.703  -0.348   0.426  0.00  0.00     0.051 A 
ATOM      5  C5  IND d   1      -1.831   0.343   1.599  0.00  0.00    -0.031 A 
ATOM      6  C6  IND d   1      -0.900   1.280   1.998  0.00  0.00     0.015 A 
ATOM      7  C7  IND d   1       0.192   1.571   1.231  0.00  0.00    -0.016 A 
ATOM      8  C8  IND d   1       0.329   0.867   0.043  0.00  0.00    -0.047 A 
ATOM      9  C9  IND d   1      -0.590  -0.116  -0.347  0.00  0.00    -0.096 A 
ATOM     10  HN1 IND d   1       1.999   1.432  -0.912  0.00  0.00     0.298 HD
ENDROOT
TORSDOF 0
ENDMDL
