MODEL 1
REMARK minimizedAffinity -2.96411347
REMARK minimizedRMSD -1
REMARK  0 active torsions:
REMARK  status: ('A' for Active; 'I' for Inactive)
ROOT
ATOM      1  N1  IND d   1       1.472   0.037   0.024  0.00  0.00    -0.196 N 
ATOM      2  C2  IND d   1       1.120  -0.611  -1.127  0.00  0.00     0.054 A 
ATOM      3  C3  IND d   1      -0.221  -0.771  -1.186  0.00  0.00    -0.031 A 
ATOM      4  C4  IND d   1      -2.038   0.044   0.446  0.00  0.00     0.051 A 
ATOM      5  C5  IND d   1      -2.203   0.651   1.659  0.00  0.00    -0.031 A 
ATOM      6  C6  IND d   1      -1.129   1.096   2.403  0.00  0.00     0.015 A 
ATOM      7  C7  IND d   1       0.154   0.960   1.954  0.00  0.00    -0.016 A 
ATOM      8  C8  IND d   1       0.325   0.337   0.726  0.00  0.00    -0.047 A 
ATOM      9  C9  IND d   1      -0.758  -0.155  -0.014  0.00  0.00    -0.096 A 
ATOM     10  HN1 IND d   1       2.274   0.225   0.268  0.00  0.00     0.298 HD
ENDROOT
TORSDOF 0
ENDMDL
