MODEL 1
REMARK minimizedAffinity -4.28462839
REMARK minimizedRMSD -1
REMARK  0 active torsions:
REMARK  status: ('A' for Active; 'I' for Inactive)
ROOT
ATOM      1  N1  IND d   1       0.333  -0.501  -0.852  0.00  0.00    -0.196 N 
ATOM      2  C2  IND d   1      -0.854  -1.080  -1.204  0.00  0.00     0.054 A 
ATOM      3  C3  IND d   1      -1.774  -0.895  -0.231  0.00  0.00    -0.031 A 
ATOM      4  C4  IND d   1      -1.580   0.415   1.976  0.00  0.00     0.051 A 
ATOM      5  C5  IND d   1      -0.681   1.089   2.754  0.00  0.00    -0.031 A 
ATOM      6  C6  IND d   1       0.629   1.273   2.360  0.00  0.00     0.015 A 
ATOM      7  C7  IND d   1       1.087   0.798   1.163  0.00  0.00    -0.016 A 
ATOM      8  C8  IND d   1       0.178   0.108   0.375  0.00  0.00    -0.047 A 
ATOM      9  C9  IND d   1      -1.142  -0.119   0.788  0.00  0.00    -0.096 A 
ATOM     10  HN1 IND d   1       1.056  -0.514  -1.318  0.00  0.00     0.298 HD
ENDROOT
TORSDOF 0
ENDMDL
