MODEL 1
REMARK minimizedAffinity -3.74330807
REMARK minimizedRMSD -1
REMARK  0 active torsions:
REMARK  status: ('A' for Active; 'I' for Inactive)
ROOT
ATOM      1  C2' OXE d   1      -0.123  -2.901  -0.957  0.00  0.00     0.078 C 
ATOM      2  C1' OXE d   1       2.454  -2.000  -0.301  0.00  0.00     0.078 C 
ATOM      3  C1  OXE d   1       1.327  -0.997  -0.265  0.00  0.00    -0.078 A 
ATOM      4  C2  OXE d   1       0.078  -1.436  -0.632  0.00  0.00    -0.078 A 
ATOM      5  C3  OXE d   1      -1.006  -0.566  -0.563  0.00  0.00     0.003 A 
ATOM      6  C4  OXE d   1      -0.810   0.789  -0.272  0.00  0.00    -0.002 A 
ATOM      7  C5  OXE d   1       0.461   1.266   0.067  0.00  0.00    -0.002 A 
ATOM      8  C6  OXE d   1       1.530   0.378   0.117  0.00  0.00     0.003 A 
ENDROOT
TORSDOF 0
ENDMDL
