MODEL 1
REMARK minimizedAffinity -5.43720579
REMARK minimizedRMSD -1
REMARK  0 active torsions:
REMARK  status: ('A' for Active; 'I' for Inactive)
ROOT
ATOM      1  C2' OXE d   1      -1.096   1.096  -0.022  0.00  0.00     0.078 C 
ATOM      2  C1' OXE d   1      -0.561  -1.621  -0.479  0.00  0.00     0.078 C 
ATOM      3  C1  OXE d   1       0.589  -0.739  -0.063  0.00  0.00    -0.078 A 
ATOM      4  C2  OXE d   1       0.327   0.599   0.113  0.00  0.00    -0.078 A 
ATOM      5  C3  OXE d   1       1.341   1.447   0.550  0.00  0.00     0.003 A 
ATOM      6  C4  OXE d   1       2.656   0.981   0.662  0.00  0.00    -0.002 A 
ATOM      7  C5  OXE d   1       2.952  -0.369   0.449  0.00  0.00    -0.002 A 
ATOM      8  C6  OXE d   1       1.924  -1.249   0.128  0.00  0.00     0.003 A 
ENDROOT
TORSDOF 0
ENDMDL
