MODEL 1
REMARK minimizedAffinity -2.34183741
REMARK minimizedRMSD -1
REMARK  0 active torsions:
REMARK  status: ('A' for Active; 'I' for Inactive)
ROOT
ATOM      1  C2' OXE d   1      -1.202  -0.024   1.331  0.00  0.00     0.078 C 
ATOM      2  C1' OXE d   1      -0.504  -0.707  -1.301  0.00  0.00     0.078 C 
ATOM      3  C1  OXE d   1       0.551  -0.852  -0.233  0.00  0.00    -0.078 A 
ATOM      4  C2  OXE d   1       0.215  -0.472   1.044  0.00  0.00    -0.078 A 
ATOM      5  C3  OXE d   1       1.133  -0.637   2.077  0.00  0.00     0.003 A 
ATOM      6  C4  OXE d   1       2.445  -1.042   1.801  0.00  0.00    -0.002 A 
ATOM      7  C5  OXE d   1       2.820  -1.397   0.501  0.00  0.00    -0.002 A 
ATOM      8  C6  OXE d   1       1.875  -1.348  -0.518  0.00  0.00     0.003 A 
ENDROOT
TORSDOF 0
ENDMDL
