MODEL 1
REMARK minimizedAffinity -4.01334953
REMARK minimizedRMSD -1
REMARK  0 active torsions:
REMARK  status: ('A' for Active; 'I' for Inactive)
ROOT
ATOM      1  C2' OXE d   1      -0.717  -2.229  -0.987  0.00  0.00     0.078 C 
ATOM      2  C1' OXE d   1      -1.285   0.390  -0.154  0.00  0.00     0.078 C 
ATOM      3  C1  OXE d   1       0.113  -0.131   0.068  0.00  0.00    -0.078 A 
ATOM      4  C2  OXE d   1       0.369  -1.430  -0.301  0.00  0.00    -0.078 A 
ATOM      5  C3  OXE d   1       1.656  -1.943  -0.168  0.00  0.00     0.003 A 
ATOM      6  C4  OXE d   1       2.652  -1.200   0.477  0.00  0.00    -0.002 A 
ATOM      7  C5  OXE d   1       2.401   0.111   0.896  0.00  0.00    -0.002 A 
ATOM      8  C6  OXE d   1       1.152   0.674   0.661  0.00  0.00     0.003 A 
ENDROOT
TORSDOF 0
ENDMDL
