MODEL 1
REMARK minimizedAffinity -5.75244856
REMARK minimizedRMSD -1
REMARK  0 active torsions:
REMARK  status: ('A' for Active; 'I' for Inactive)
ROOT
ATOM      1  C2' OXE d   1      -0.115  -2.025  -1.312  0.00  0.00     0.078 C 
ATOM      2  C1' OXE d   1      -0.836   0.504  -0.330  0.00  0.00     0.078 C 
ATOM      3  C1  OXE d   1       0.602   0.073  -0.177  0.00  0.00    -0.078 A 
ATOM      4  C2  OXE d   1       0.935  -1.185  -0.618  0.00  0.00    -0.078 A 
ATOM      5  C3  OXE d   1       2.259  -1.610  -0.551  0.00  0.00     0.003 A 
ATOM      6  C4  OXE d   1       3.222  -0.831   0.101  0.00  0.00    -0.002 A 
ATOM      7  C5  OXE d   1       2.894   0.437   0.593  0.00  0.00    -0.002 A 
ATOM      8  C6  OXE d   1       1.602   0.920   0.425  0.00  0.00     0.003 A 
ENDROOT
TORSDOF 0
ENDMDL
