MODEL 1
REMARK minimizedAffinity -2.15641427
REMARK minimizedRMSD -1
REMARK  0 active torsions:
REMARK  status: ('A' for Active; 'I' for Inactive)
ROOT
ATOM      1  C2' OXE d   1       2.552   2.133   0.920  0.00  0.00     0.078 C 
ATOM      2  C1' OXE d   1       2.464  -0.639   1.353  0.00  0.00     0.078 C 
ATOM      3  C1  OXE d   1       1.309  -0.005   0.620  0.00  0.00    -0.078 A 
ATOM      4  C2  OXE d   1       1.338   1.359   0.454  0.00  0.00    -0.078 A 
ATOM      5  C3  OXE d   1       0.323   1.988  -0.262  0.00  0.00     0.003 A 
ATOM      6  C4  OXE d   1      -0.801   1.266  -0.681  0.00  0.00    -0.002 A 
ATOM      7  C5  OXE d   1      -0.870  -0.118  -0.486  0.00  0.00    -0.002 A 
ATOM      8  C6  OXE d   1       0.194  -0.773   0.123  0.00  0.00     0.003 A 
ENDROOT
TORSDOF 0
ENDMDL
