MODEL 1
REMARK minimizedAffinity -3.59155083
REMARK minimizedRMSD -1
REMARK  0 active torsions:
REMARK  status: ('A' for Active; 'I' for Inactive)
ROOT
ATOM      1  C2' OXE d   1      -0.467  -1.925  -0.966  0.00  0.00     0.078 C 
ATOM      2  C1' OXE d   1      -0.886   0.743  -0.198  0.00  0.00     0.078 C 
ATOM      3  C1  OXE d   1       0.377   0.066   0.272  0.00  0.00    -0.078 A 
ATOM      4  C2  OXE d   1       0.551  -1.254  -0.069  0.00  0.00    -0.078 A 
ATOM      5  C3  OXE d   1       1.724  -1.910   0.292  0.00  0.00     0.003 A 
ATOM      6  C4  OXE d   1       2.656  -1.286   1.130  0.00  0.00    -0.002 A 
ATOM      7  C5  OXE d   1       2.479   0.045   1.522  0.00  0.00    -0.002 A 
ATOM      8  C6  OXE d   1       1.368   0.747   1.067  0.00  0.00     0.003 A 
ENDROOT
TORSDOF 0
ENDMDL
