MODEL 1
REMARK minimizedAffinity 2.84336543
REMARK minimizedRMSD -1
REMARK  0 active torsions:
REMARK  status: ('A' for Active; 'I' for Inactive)
ROOT
ATOM      1  C   UNL d   1      -1.094   0.312   0.306  0.00  0.00     0.172 C 
ATOM      2  N   UNL d   1      -0.955  -0.104   1.682  0.00  0.00    -0.070 N 
ATOM      3  C1  UNL d   1       0.212  -0.489   2.286  0.00  0.00    -0.004 A 
ATOM      4  C2  UNL d   1      -0.075  -0.808   3.595  0.00  0.00    -0.047 A 
ATOM      5  C3  UNL d   1      -1.463  -0.609   3.785  0.00  0.00    -0.047 A 
ATOM      6  C4  UNL d   1      -1.983  -0.173   2.584  0.00  0.00    -0.004 A 
ENDROOT
TORSDOF 0
ENDMDL
