MODEL 1
REMARK minimizedAffinity 3.42412138
REMARK minimizedRMSD -1
REMARK  0 active torsions:
REMARK  status: ('A' for Active; 'I' for Inactive)
ROOT
ATOM      1  C   UNL d   1       5.241   2.947   4.379  0.00  0.00     0.172 C 
ATOM      2  N   UNL d   1       4.436   3.236   3.216  0.00  0.00    -0.070 N 
ATOM      3  C1  UNL d   1       4.233   4.477   2.674  0.00  0.00    -0.004 A 
ATOM      4  C2  UNL d   1       3.410   4.330   1.579  0.00  0.00    -0.047 A 
ATOM      5  C3  UNL d   1       3.107   2.953   1.459  0.00  0.00    -0.047 A 
ATOM      6  C4  UNL d   1       3.755   2.299   2.485  0.00  0.00    -0.004 A 
ENDROOT
TORSDOF 0
ENDMDL
