MODEL 1
REMARK minimizedAffinity 5.06934643
REMARK minimizedRMSD -1
REMARK  0 active torsions:
REMARK  status: ('A' for Active; 'I' for Inactive)
ROOT
ATOM      1  C   UNL d   1      -2.655   0.710   1.158  0.00  0.00     0.172 C 
ATOM      2  N   UNL d   1      -2.496  -0.185   2.280  0.00  0.00    -0.070 N 
ATOM      3  C1  UNL d   1      -3.514  -0.750   3.001  0.00  0.00    -0.004 A 
ATOM      4  C2  UNL d   1      -2.950  -1.537   3.982  0.00  0.00    -0.047 A 
ATOM      5  C3  UNL d   1      -1.545  -1.441   3.846  0.00  0.00    -0.047 A 
ATOM      6  C4  UNL d   1      -1.292  -0.598   2.785  0.00  0.00    -0.004 A 
ENDROOT
TORSDOF 0
ENDMDL
