MODEL 1
REMARK minimizedAffinity 2.80561519
REMARK minimizedRMSD -1
REMARK  0 active torsions:
REMARK  status: ('A' for Active; 'I' for Inactive)
ROOT
ATOM      1  C   UNL d   1       0.992  -0.118   0.377  0.00  0.00     0.172 C 
ATOM      2  N   UNL d   1      -0.388   0.130   0.722  0.00  0.00    -0.070 N 
ATOM      3  C1  UNL d   1      -0.845   0.530   1.949  0.00  0.00    -0.004 A 
ATOM      4  C2  UNL d   1      -2.215   0.656   1.869  0.00  0.00    -0.047 A 
ATOM      5  C3  UNL d   1      -2.594   0.320   0.548  0.00  0.00    -0.047 A 
ATOM      6  C4  UNL d   1      -1.444  -0.002  -0.141  0.00  0.00    -0.004 A 
ENDROOT
TORSDOF 0
ENDMDL
