MODEL 1
REMARK minimizedAffinity 5.40576363
REMARK minimizedRMSD -1
REMARK  0 active torsions:
REMARK  status: ('A' for Active; 'I' for Inactive)
ROOT
ATOM      1  C   UNL d   1       4.873   2.879   3.863  0.00  0.00     0.172 C 
ATOM      2  N   UNL d   1       4.145   3.094   2.635  0.00  0.00    -0.070 N 
ATOM      3  C1  UNL d   1       3.915   2.153   1.667  0.00  0.00    -0.004 A 
ATOM      4  C2  UNL d   1       3.188   2.750   0.661  0.00  0.00    -0.047 A 
ATOM      5  C3  UNL d   1       2.973   4.098   1.036  0.00  0.00    -0.047 A 
ATOM      6  C4  UNL d   1       3.577   4.284   2.262  0.00  0.00    -0.004 A 
ENDROOT
TORSDOF 0
ENDMDL
