MODEL 1
REMARK minimizedAffinity 5.93773079
REMARK minimizedRMSD -1
REMARK  0 active torsions:
REMARK  status: ('A' for Active; 'I' for Inactive)
ROOT
ATOM      1  C   UNL d   1      -2.266   1.037   1.172  0.00  0.00     0.172 C 
ATOM      2  N   UNL d   1      -2.212  -0.035   2.138  0.00  0.00    -0.070 N 
ATOM      3  C1  UNL d   1      -3.232  -0.901   2.427  0.00  0.00    -0.004 A 
ATOM      4  C2  UNL d   1      -2.784  -1.772   3.398  0.00  0.00    -0.047 A 
ATOM      5  C3  UNL d   1      -1.449  -1.415   3.703  0.00  0.00    -0.047 A 
ATOM      6  C4  UNL d   1      -1.120  -0.337   2.909  0.00  0.00    -0.004 A 
ENDROOT
TORSDOF 0
ENDMDL
