MODEL 1
REMARK minimizedAffinity 3.20183492
REMARK minimizedRMSD -1
REMARK  0 active torsions:
REMARK  status: ('A' for Active; 'I' for Inactive)
ROOT
ATOM      1  C   UNL d   1      -1.993   0.599   1.168  0.00  0.00     0.172 C 
ATOM      2  N   UNL d   1      -2.176  -0.207   2.351  0.00  0.00    -0.070 N 
ATOM      3  C1  UNL d   1      -3.375  -0.668   2.826  0.00  0.00    -0.004 A 
ATOM      4  C2  UNL d   1      -3.125  -1.395   3.969  0.00  0.00    -0.047 A 
ATOM      5  C3  UNL d   1      -1.727  -1.370   4.190  0.00  0.00    -0.047 A 
ATOM      6  C4  UNL d   1      -1.164  -0.627   3.174  0.00  0.00    -0.004 A 
ENDROOT
TORSDOF 0
ENDMDL
