MODEL 1
REMARK minimizedAffinity 2.04760599
REMARK minimizedRMSD -1
REMARK  0 active torsions:
REMARK  status: ('A' for Active; 'I' for Inactive)
ROOT
ATOM      1  C   UNL d   1      -1.803   0.883   1.635  0.00  0.00     0.172 C 
ATOM      2  N   UNL d   1      -2.144  -0.120   2.616  0.00  0.00    -0.070 N 
ATOM      3  C1  UNL d   1      -3.377  -0.693   2.777  0.00  0.00    -0.004 A 
ATOM      4  C2  UNL d   1      -3.291  -1.598   3.812  0.00  0.00    -0.047 A 
ATOM      5  C3  UNL d   1      -1.959  -1.568   4.291  0.00  0.00    -0.047 A 
ATOM      6  C4  UNL d   1      -1.271  -0.644   3.533  0.00  0.00    -0.004 A 
ENDROOT
TORSDOF 0
ENDMDL
