MODEL 1
REMARK minimizedAffinity 11.1835442
REMARK minimizedRMSD -1
REMARK  0 active torsions:
REMARK  status: ('A' for Active; 'I' for Inactive)
ROOT
ATOM      1  C   UNL d   1      -3.769   2.806  -2.207  0.00  0.00     0.077 C 
ATOM      2  C1  UNL d   1      -3.690   1.417  -1.645  0.00  0.00    -0.074 A 
ATOM      3  C2  UNL d   1      -4.511   1.022  -0.585  0.00  0.00    -0.005 A 
ATOM      4  C3  UNL d   1      -4.433  -0.275  -0.080  0.00  0.00     0.006 A 
ATOM      5  C4  UNL d   1      -3.533  -1.190  -0.629  0.00  0.00    -0.005 A 
ATOM      6  C5  UNL d   1      -2.704  -0.813  -1.690  0.00  0.00    -0.074 A 
ATOM      7  C6  UNL d   1      -1.739  -1.787  -2.299  0.00  0.00     0.077 C 
ATOM      8  C7  UNL d   1      -2.794   0.491  -2.197  0.00  0.00    -0.001 A 
ENDROOT
TORSDOF 0
ENDMDL
