MODEL 1
REMARK minimizedAffinity 5.25001669
REMARK minimizedRMSD -1
REMARK  0 active torsions:
REMARK  status: ('A' for Active; 'I' for Inactive)
ROOT
ATOM      1  C   UNL d   1       2.304   2.643   3.750  0.00  0.00     0.077 C 
ATOM      2  C1  UNL d   1       1.091   2.279   2.946  0.00  0.00    -0.074 A 
ATOM      3  C2  UNL d   1       0.119   1.417   3.464  0.00  0.00    -0.005 A 
ATOM      4  C3  UNL d   1      -1.009   1.095   2.709  0.00  0.00     0.006 A 
ATOM      5  C4  UNL d   1      -1.175   1.630   1.431  0.00  0.00    -0.005 A 
ATOM      6  C5  UNL d   1      -0.213   2.494   0.897  0.00  0.00    -0.074 A 
ATOM      7  C6  UNL d   1      -0.381   3.086  -0.471  0.00  0.00     0.077 C 
ATOM      8  C7  UNL d   1       0.913   2.819   1.665  0.00  0.00    -0.001 A 
ENDROOT
TORSDOF 0
ENDMDL
