MODEL 1
REMARK minimizedAffinity 0.421661675
REMARK minimizedRMSD -1
REMARK  0 active torsions:
REMARK  status: ('A' for Active; 'I' for Inactive)
ROOT
ATOM      1  C   UNL d   1       0.380   1.996   3.046  0.00  0.00     0.077 C 
ATOM      2  C1  UNL d   1       0.229   2.458   1.627  0.00  0.00    -0.074 A 
ATOM      3  C2  UNL d   1       0.378   1.565   0.561  0.00  0.00    -0.005 A 
ATOM      4  C3  UNL d   1       0.225   2.007  -0.753  0.00  0.00     0.006 A 
ATOM      5  C4  UNL d   1      -0.077   3.344  -1.014  0.00  0.00    -0.005 A 
ATOM      6  C5  UNL d   1      -0.230   4.251   0.039  0.00  0.00    -0.074 A 
ATOM      7  C6  UNL d   1      -0.564   5.690  -0.223  0.00  0.00     0.077 C 
ATOM      8  C7  UNL d   1      -0.082   3.798   1.357  0.00  0.00    -0.001 A 
ENDROOT
TORSDOF 0
ENDMDL
