MODEL 1
REMARK minimizedAffinity 10.3909988
REMARK minimizedRMSD -1
REMARK  0 active torsions:
REMARK  status: ('A' for Active; 'I' for Inactive)
ROOT
ATOM      1  C   UNL d   1      -1.874   1.790   3.140  0.00  0.00     0.077 C 
ATOM      2  C1  UNL d   1      -0.741   2.477   2.438  0.00  0.00    -0.074 A 
ATOM      3  C2  UNL d   1       0.503   2.630   3.059  0.00  0.00    -0.005 A 
ATOM      4  C3  UNL d   1       1.550   3.263   2.391  0.00  0.00     0.006 A 
ATOM      5  C4  UNL d   1       1.365   3.749   1.096  0.00  0.00    -0.005 A 
ATOM      6  C5  UNL d   1       0.129   3.605   0.458  0.00  0.00    -0.074 A 
ATOM      7  C6  UNL d   1      -0.083   4.113  -0.937  0.00  0.00     0.077 C 
ATOM      8  C7  UNL d   1      -0.916   2.961   1.134  0.00  0.00    -0.001 A 
ENDROOT
TORSDOF 0
ENDMDL
