MODEL 1
REMARK minimizedAffinity 2.30241537
REMARK minimizedRMSD -1
REMARK  0 active torsions:
REMARK  status: ('A' for Active; 'I' for Inactive)
ROOT
ATOM      1  C   UNL d   1      -5.992  -0.449   5.856  0.00  0.00     0.077 C 
ATOM      2  C1  UNL d   1      -5.320  -1.751   5.535  0.00  0.00    -0.074 A 
ATOM      3  C2  UNL d   1      -4.077  -1.780   4.896  0.00  0.00    -0.005 A 
ATOM      4  C3  UNL d   1      -3.460  -2.999   4.612  0.00  0.00     0.006 A 
ATOM      5  C4  UNL d   1      -4.080  -4.198   4.964  0.00  0.00    -0.005 A 
ATOM      6  C5  UNL d   1      -5.323  -4.189   5.604  0.00  0.00    -0.074 A 
ATOM      7  C6  UNL d   1      -5.999  -5.469   5.998  0.00  0.00     0.077 C 
ATOM      8  C7  UNL d   1      -5.933  -2.960   5.892  0.00  0.00    -0.001 A 
ENDROOT
TORSDOF 0
ENDMDL
