MODEL 1
REMARK minimizedAffinity 7.44257355
REMARK minimizedRMSD -1
REMARK  0 active torsions:
REMARK  status: ('A' for Active; 'I' for Inactive)
ROOT
ATOM      1  C   UNL d   1       1.474   1.019  -1.831  0.00  0.00     0.077 C 
ATOM      2  C1  UNL d   1       0.683   1.653  -0.726  0.00  0.00    -0.074 A 
ATOM      3  C2  UNL d   1      -0.078   2.804  -0.956  0.00  0.00    -0.005 A 
ATOM      4  C3  UNL d   1      -0.816   3.377   0.079  0.00  0.00     0.006 A 
ATOM      5  C4  UNL d   1      -0.801   2.807   1.353  0.00  0.00    -0.005 A 
ATOM      6  C5  UNL d   1      -0.047   1.655   1.601  0.00  0.00    -0.074 A 
ATOM      7  C6  UNL d   1      -0.029   1.023   2.961  0.00  0.00     0.077 C 
ATOM      8  C7  UNL d   1       0.686   1.081   0.554  0.00  0.00    -0.001 A 
ENDROOT
TORSDOF 0
ENDMDL
