MODEL 1
REMARK minimizedAffinity -2.95595837
REMARK minimizedRMSD -1
REMARK  1 active torsions:
REMARK  status: ('A' for Active; 'I' for Inactive)
REMARK    1  A    between atoms: C1_2  and  C2_3 
ROOT
ATOM      1  C2  UNL d   1      -0.007  -0.218   0.120  0.00  0.00    -0.077 A 
ATOM      2  C3  UNL d   1      -0.399   0.980  -0.495  0.00  0.00     0.002 A 
ATOM      3  C4  UNL d   1      -1.293   1.841   0.143  0.00  0.00     0.002 A 
ATOM      4  C5  UNL d   1      -1.800   1.517   1.400  0.00  0.00    -0.004 A 
ATOM      5  C6  UNL d   1      -1.418   0.328   2.019  0.00  0.00     0.002 A 
ATOM      6  C7  UNL d   1      -0.525  -0.536   1.382  0.00  0.00     0.002 A 
ENDROOT
BRANCH   1   7
ATOM      7  C1  UNL d   1       0.996  -1.125  -0.544  0.00  0.00     0.055 C 
ATOM      8  C   UNL d   1       0.317  -2.096  -1.499  0.00  0.00     0.019 C 
ENDBRANCH   1   7
TORSDOF 1
ENDMDL
