MODEL 1
REMARK minimizedAffinity -5.69241571
REMARK minimizedRMSD -1
REMARK  1 active torsions:
REMARK  status: ('A' for Active; 'I' for Inactive)
REMARK    1  A    between atoms: C1_2  and  C2_3 
ROOT
ATOM      1  C2  UNL d   1       0.133   0.305   0.071  0.00  0.00    -0.077 A 
ATOM      2  C3  UNL d   1      -0.308   1.624  -0.112  0.00  0.00     0.002 A 
ATOM      3  C4  UNL d   1      -1.126   2.234   0.840  0.00  0.00     0.002 A 
ATOM      4  C5  UNL d   1      -1.507   1.535   1.984  0.00  0.00    -0.004 A 
ATOM      5  C6  UNL d   1      -1.075   0.223   2.175  0.00  0.00     0.002 A 
ATOM      6  C7  UNL d   1      -0.258  -0.389   1.223  0.00  0.00     0.002 A 
ENDROOT
BRANCH   1   7
ATOM      7  C1  UNL d   1       1.056  -0.337  -0.931  0.00  0.00     0.055 C 
ATOM      8  C   UNL d   1       1.047  -1.853  -0.798  0.00  0.00     0.019 C 
ENDBRANCH   1   7
TORSDOF 1
ENDMDL
