MODEL 1
REMARK minimizedAffinity -3.49666071
REMARK minimizedRMSD -1
REMARK  1 active torsions:
REMARK  status: ('A' for Active; 'I' for Inactive)
REMARK    1  A    between atoms: C1_2  and  C2_3 
ROOT
ATOM      1  C2  UNL d   1      -1.077   1.354   0.157  0.00  0.00    -0.077 A 
ATOM      2  C3  UNL d   1      -0.723   0.113   0.705  0.00  0.00     0.002 A 
ATOM      3  C4  UNL d   1       0.456  -0.523   0.312  0.00  0.00     0.002 A 
ATOM      4  C5  UNL d   1       1.292   0.075  -0.628  0.00  0.00    -0.004 A 
ATOM      5  C6  UNL d   1       0.948   1.309  -1.181  0.00  0.00     0.002 A 
ATOM      6  C7  UNL d   1      -0.230   1.945  -0.789  0.00  0.00     0.002 A 
ENDROOT
BRANCH   1   7
ATOM      7  C1  UNL d   1      -2.323   2.064   0.617  0.00  0.00     0.055 C 
ATOM      8  C   UNL d   1      -2.100   2.766   1.949  0.00  0.00     0.019 C 
ENDBRANCH   1   7
TORSDOF 1
ENDMDL
