MODEL 1
REMARK minimizedAffinity -5.54600382
REMARK minimizedRMSD -1
REMARK  1 active torsions:
REMARK  status: ('A' for Active; 'I' for Inactive)
REMARK    1  A    between atoms: C1_2  and  C2_3 
ROOT
ATOM      1  C2  UNL d   1      -0.079   0.049   0.276  0.00  0.00    -0.077 A 
ATOM      2  C3  UNL d   1      -0.429  -0.161   1.617  0.00  0.00     0.002 A 
ATOM      3  C4  UNL d   1      -1.233   0.761   2.290  0.00  0.00     0.002 A 
ATOM      4  C5  UNL d   1      -1.697   1.897   1.630  0.00  0.00    -0.004 A 
ATOM      5  C6  UNL d   1      -1.352   2.116   0.296  0.00  0.00     0.002 A 
ATOM      6  C7  UNL d   1      -0.548   1.196  -0.378  0.00  0.00     0.002 A 
ENDROOT
BRANCH   1   7
ATOM      7  C1  UNL d   1       0.747  -0.969  -0.466  0.00  0.00     0.055 C 
ATOM      8  C   UNL d   1       1.840  -0.302  -1.288  0.00  0.00     0.019 C 
ENDBRANCH   1   7
TORSDOF 1
ENDMDL
