MODEL 1
REMARK minimizedAffinity -4.36160231
REMARK minimizedRMSD -1
REMARK  1 active torsions:
REMARK  status: ('A' for Active; 'I' for Inactive)
REMARK    1  A    between atoms: C1_2  and  C2_3 
ROOT
ATOM      1  C2  UNL d   1       1.111  -4.672  -1.415  0.00  0.00    -0.077 A 
ATOM      2  C3  UNL d   1       0.770  -4.630  -2.774  0.00  0.00     0.002 A 
ATOM      3  C4  UNL d   1       0.609  -3.405  -3.425  0.00  0.00     0.002 A 
ATOM      4  C5  UNL d   1       0.791  -2.214  -2.726  0.00  0.00    -0.004 A 
ATOM      5  C6  UNL d   1       1.128  -2.245  -1.374  0.00  0.00     0.002 A 
ATOM      6  C7  UNL d   1       1.288  -3.468  -0.721  0.00  0.00     0.002 A 
ENDROOT
BRANCH   1   7
ATOM      7  C1  UNL d   1       1.333  -5.991  -0.724  0.00  0.00     0.055 C 
ATOM      8  C   UNL d   1       2.630  -5.988   0.072  0.00  0.00     0.019 C 
ENDBRANCH   1   7
TORSDOF 1
ENDMDL
