MODEL 1
REMARK minimizedAffinity -3.56004834
REMARK minimizedRMSD -1
REMARK  1 active torsions:
REMARK  status: ('A' for Active; 'I' for Inactive)
REMARK    1  A    between atoms: C1_2  and  C2_3 
ROOT
ATOM      1  C2  UNL d   1       0.395  -0.372  -0.096  0.00  0.00    -0.077 A 
ATOM      2  C3  UNL d   1      -0.410   0.545  -0.786  0.00  0.00     0.002 A 
ATOM      3  C4  UNL d   1      -1.199   1.460  -0.085  0.00  0.00     0.002 A 
ATOM      4  C5  UNL d   1      -1.188   1.468   1.308  0.00  0.00    -0.004 A 
ATOM      5  C6  UNL d   1      -0.393   0.558   2.003  0.00  0.00     0.002 A 
ATOM      6  C7  UNL d   1       0.395  -0.357   1.305  0.00  0.00     0.002 A 
ENDROOT
BRANCH   1   7
ATOM      7  C1  UNL d   1       1.284  -1.326  -0.849  0.00  0.00     0.055 C 
ATOM      8  C   UNL d   1       0.472  -2.241  -1.755  0.00  0.00     0.019 C 
ENDBRANCH   1   7
TORSDOF 1
ENDMDL
