MODEL 1
REMARK minimizedAffinity 8.7237196
REMARK minimizedRMSD -1
REMARK  2 active torsions:
REMARK  status: ('A' for Active; 'I' for Inactive)
REMARK    1  A    between atoms: C1_2  and  C2_3 
REMARK    2  A    between atoms: C2_3  and  C3_4 
ROOT
ATOM      1  C3  UNL d   1      -0.093   4.189  -3.970  0.00  0.00    -0.075 A 
ATOM      2  C4  UNL d   1      -0.227   4.036  -2.582  0.00  0.00     0.002 A 
ATOM      3  C5  UNL d   1      -1.302   3.325  -2.048  0.00  0.00     0.002 A 
ATOM      4  C6  UNL d   1      -2.260   2.768  -2.892  0.00  0.00    -0.004 A 
ATOM      5  C7  UNL d   1      -2.146   2.928  -4.271  0.00  0.00     0.002 A 
ATOM      6  C8  UNL d   1      -1.069   3.635  -4.808  0.00  0.00     0.002 A 
ENDROOT
BRANCH   1   7
ATOM      7  C2  UNL d   1       1.084   4.932  -4.555  0.00  0.00     0.056 C 
BRANCH   7   8
ATOM      8  C1  UNL d   1       2.029   4.052  -5.380  0.00  0.00     0.007 C 
ATOM      9  C   UNL d   1       3.381   3.832  -4.714  0.00  0.00     0.009 C 
ENDBRANCH   7   8
ENDBRANCH   1   7
TORSDOF 2
ENDMDL
