MODEL 1
REMARK minimizedAffinity 10.0376635
REMARK minimizedRMSD -1
REMARK  2 active torsions:
REMARK  status: ('A' for Active; 'I' for Inactive)
REMARK    1  A    between atoms: C1_2  and  C2_3 
REMARK    2  A    between atoms: C2_3  and  C3_4 
ROOT
ATOM      1  C3  UNL d   1       1.900   2.282  -0.908  0.00  0.00    -0.075 A 
ATOM      2  C4  UNL d   1       2.992   2.478  -1.766  0.00  0.00     0.002 A 
ATOM      3  C5  UNL d   1       3.855   1.424  -2.066  0.00  0.00     0.002 A 
ATOM      4  C6  UNL d   1       3.645   0.166  -1.505  0.00  0.00    -0.004 A 
ATOM      5  C7  UNL d   1       2.573  -0.035  -0.638  0.00  0.00     0.002 A 
ATOM      6  C8  UNL d   1       1.705   1.016  -0.340  0.00  0.00     0.002 A 
ENDROOT
BRANCH   1   7
ATOM      7  C2  UNL d   1       0.945   3.411  -0.602  0.00  0.00     0.056 C 
BRANCH   7   8
ATOM      8  C1  UNL d   1       0.356   4.084  -1.847  0.00  0.00     0.007 C 
ATOM      9  C   UNL d   1      -0.955   3.456  -2.304  0.00  0.00     0.009 C 
ENDBRANCH   7   8
ENDBRANCH   1   7
TORSDOF 2
ENDMDL
