MODEL 1
REMARK minimizedAffinity 8.88265133
REMARK minimizedRMSD -1
REMARK  2 active torsions:
REMARK  status: ('A' for Active; 'I' for Inactive)
REMARK    1  A    between atoms: C1_2  and  C2_3 
REMARK    2  A    between atoms: C2_3  and  C3_4 
ROOT
ATOM      1  C3  UNL d   1       4.235   2.360   0.250  0.00  0.00    -0.075 A 
ATOM      2  C4  UNL d   1       5.014   1.744   1.241  0.00  0.00     0.002 A 
ATOM      3  C5  UNL d   1       4.876   0.381   1.503  0.00  0.00     0.002 A 
ATOM      4  C6  UNL d   1       3.954  -0.380   0.788  0.00  0.00    -0.004 A 
ATOM      5  C7  UNL d   1       3.164   0.225  -0.187  0.00  0.00     0.002 A 
ATOM      6  C8  UNL d   1       3.302   1.588  -0.455  0.00  0.00     0.002 A 
ENDROOT
BRANCH   1   7
ATOM      7  C2  UNL d   1       4.400   3.829  -0.059  0.00  0.00     0.056 C 
BRANCH   7   8
ATOM      8  C1  UNL d   1       5.717   4.175  -0.762  0.00  0.00     0.007 C 
ATOM      9  C   UNL d   1       5.538   5.127  -1.937  0.00  0.00     0.009 C 
ENDBRANCH   7   8
ENDBRANCH   1   7
TORSDOF 2
ENDMDL
