MODEL 1
REMARK minimizedAffinity 5.34504557
REMARK minimizedRMSD -1
REMARK  2 active torsions:
REMARK  status: ('A' for Active; 'I' for Inactive)
REMARK    1  A    between atoms: C1_2  and  C2_3 
REMARK    2  A    between atoms: C2_3  and  C3_4 
ROOT
ATOM      1  C3  UNL d   1       0.631   3.084  -1.705  0.00  0.00    -0.075 A 
ATOM      2  C4  UNL d   1       1.446   4.179  -1.383  0.00  0.00     0.002 A 
ATOM      3  C5  UNL d   1       2.756   3.984  -0.947  0.00  0.00     0.002 A 
ATOM      4  C6  UNL d   1       3.265   2.693  -0.817  0.00  0.00    -0.004 A 
ATOM      5  C7  UNL d   1       2.460   1.597  -1.118  0.00  0.00     0.002 A 
ATOM      6  C8  UNL d   1       1.150   1.790  -1.559  0.00  0.00     0.002 A 
ENDROOT
BRANCH   1   7
ATOM      7  C2  UNL d   1      -0.778   3.290  -2.205  0.00  0.00     0.056 C 
BRANCH   7   8
ATOM      8  C1  UNL d   1      -1.006   2.811  -3.643  0.00  0.00     0.007 C 
ATOM      9  C   UNL d   1      -2.183   1.855  -3.778  0.00  0.00     0.009 C 
ENDBRANCH   7   8
ENDBRANCH   1   7
TORSDOF 2
ENDMDL
