MODEL 1
REMARK minimizedAffinity 2.74186373
REMARK minimizedRMSD -1
REMARK  2 active torsions:
REMARK  status: ('A' for Active; 'I' for Inactive)
REMARK    1  A    between atoms: C1_2  and  C2_3 
REMARK    2  A    between atoms: C2_3  and  C3_4 
ROOT
ATOM      1  C3  UNL d   1       1.191   1.242  -0.240  0.00  0.00    -0.075 A 
ATOM      2  C4  UNL d   1      -0.108   1.586   0.161  0.00  0.00     0.002 A 
ATOM      3  C5  UNL d   1      -0.931   0.645   0.780  0.00  0.00     0.002 A 
ATOM      4  C6  UNL d   1      -0.472  -0.652   0.996  0.00  0.00    -0.004 A 
ATOM      5  C7  UNL d   1       0.811  -1.010   0.586  0.00  0.00     0.002 A 
ATOM      6  C8  UNL d   1       1.639  -0.069  -0.029  0.00  0.00     0.002 A 
ENDROOT
BRANCH   1   7
ATOM      7  C2  UNL d   1       2.098   2.264  -0.883  0.00  0.00     0.056 C 
BRANCH   7   8
ATOM      8  C1  UNL d   1       3.591   1.976  -0.699  0.00  0.00     0.007 C 
ATOM      9  C   UNL d   1       4.292   1.584  -1.993  0.00  0.00     0.009 C 
ENDBRANCH   7   8
ENDBRANCH   1   7
TORSDOF 2
ENDMDL
