MODEL 1
REMARK minimizedAffinity -0.599171042
REMARK minimizedRMSD -1
REMARK  2 active torsions:
REMARK  status: ('A' for Active; 'I' for Inactive)
REMARK    1  A    between atoms: C1_2  and  C2_3 
REMARK    2  A    between atoms: C2_3  and  C3_4 
ROOT
ATOM      1  C3  UNL d   1       2.267   1.275  -0.615  0.00  0.00    -0.075 A 
ATOM      2  C4  UNL d   1       1.363   0.318  -0.133  0.00  0.00     0.002 A 
ATOM      3  C5  UNL d   1       0.028   0.656   0.094  0.00  0.00     0.002 A 
ATOM      4  C6  UNL d   1      -0.416   1.954  -0.146  0.00  0.00    -0.004 A 
ATOM      5  C7  UNL d   1       0.478   2.917  -0.609  0.00  0.00     0.002 A 
ATOM      6  C8  UNL d   1       1.813   2.581  -0.842  0.00  0.00     0.002 A 
ENDROOT
BRANCH   1   7
ATOM      7  C2  UNL d   1       3.706   0.909  -0.892  0.00  0.00     0.056 C 
BRANCH   7   8
ATOM      8  C1  UNL d   1       4.283   1.558  -2.154  0.00  0.00     0.007 C 
ATOM      9  C   UNL d   1       5.267   0.662  -2.894  0.00  0.00     0.009 C 
ENDBRANCH   7   8
ENDBRANCH   1   7
TORSDOF 2
ENDMDL
