MODEL 1
REMARK minimizedAffinity 0.75018698
REMARK minimizedRMSD -1
REMARK  2 active torsions:
REMARK  status: ('A' for Active; 'I' for Inactive)
REMARK    1  A    between atoms: C1_2  and  C2_3 
REMARK    2  A    between atoms: C2_3  and  C3_4 
ROOT
ATOM      1  C3  UNL d   1       1.054   2.285  -0.739  0.00  0.00    -0.075 A 
ATOM      2  C4  UNL d   1       2.159   1.433  -0.879  0.00  0.00     0.002 A 
ATOM      3  C5  UNL d   1       2.075   0.095  -0.492  0.00  0.00     0.002 A 
ATOM      4  C6  UNL d   1       0.892  -0.404   0.048  0.00  0.00    -0.004 A 
ATOM      5  C7  UNL d   1      -0.207   0.438   0.208  0.00  0.00     0.002 A 
ATOM      6  C8  UNL d   1      -0.127   1.776  -0.182  0.00  0.00     0.002 A 
ENDROOT
BRANCH   1   7
ATOM      7  C2  UNL d   1       1.129   3.727  -1.183  0.00  0.00     0.056 C 
BRANCH   7   8
ATOM      8  C1  UNL d   1       0.187   4.072  -2.342  0.00  0.00     0.007 C 
ATOM      9  C   UNL d   1       0.495   5.418  -2.984  0.00  0.00     0.009 C 
ENDBRANCH   7   8
ENDBRANCH   1   7
TORSDOF 2
ENDMDL
