MODEL 1
REMARK minimizedAffinity 0.941344678
REMARK minimizedRMSD -1
REMARK  2 active torsions:
REMARK  status: ('A' for Active; 'I' for Inactive)
REMARK    1  A    between atoms: C1_2  and  C2_3 
REMARK    2  A    between atoms: C2_3  and  C3_4 
ROOT
ATOM      1  C3  UNL d   1       0.296  -0.983  -0.149  0.00  0.00    -0.075 A 
ATOM      2  C4  UNL d   1       0.701  -0.956  -1.491  0.00  0.00     0.002 A 
ATOM      3  C5  UNL d   1       0.327   0.099  -2.324  0.00  0.00     0.002 A 
ATOM      4  C6  UNL d   1      -0.464   1.134  -1.829  0.00  0.00    -0.004 A 
ATOM      5  C7  UNL d   1      -0.886   1.110  -0.501  0.00  0.00     0.002 A 
ATOM      6  C8  UNL d   1      -0.509   0.057   0.335  0.00  0.00     0.002 A 
ENDROOT
BRANCH   1   7
ATOM      7  C2  UNL d   1       0.722  -2.107   0.765  0.00  0.00     0.056 C 
BRANCH   7   8
ATOM      8  C1  UNL d   1       0.698  -1.744   2.253  0.00  0.00     0.007 C 
ATOM      9  C   UNL d   1      -0.359  -2.508   3.040  0.00  0.00     0.009 C 
ENDBRANCH   7   8
ENDBRANCH   1   7
TORSDOF 2
ENDMDL
