MODEL 1
REMARK minimizedAffinity 1.20297384
REMARK minimizedRMSD -1
REMARK  2 active torsions:
REMARK  status: ('A' for Active; 'I' for Inactive)
REMARK    1  A    between atoms: C1_2  and  C2_3 
REMARK    2  A    between atoms: C2_3  and  C3_4 
ROOT
ATOM      1  C3  UNL d   1       1.159   0.330  -0.405  0.00  0.00    -0.075 A 
ATOM      2  C4  UNL d   1       0.806  -0.888  -1.003  0.00  0.00     0.002 A 
ATOM      3  C5  UNL d   1      -0.531  -1.281  -1.072  0.00  0.00     0.002 A 
ATOM      4  C6  UNL d   1      -1.528  -0.468  -0.538  0.00  0.00    -0.004 A 
ATOM      5  C7  UNL d   1      -1.187   0.736   0.073  0.00  0.00     0.002 A 
ATOM      6  C8  UNL d   1       0.150   1.134   0.141  0.00  0.00     0.002 A 
ENDROOT
BRANCH   1   7
ATOM      7  C2  UNL d   1       2.601   0.775  -0.353  0.00  0.00     0.056 C 
BRANCH   7   8
ATOM      8  C1  UNL d   1       2.853   2.151  -0.978  0.00  0.00     0.007 C 
ATOM      9  C   UNL d   1       4.089   2.190  -1.866  0.00  0.00     0.009 C 
ENDBRANCH   7   8
ENDBRANCH   1   7
TORSDOF 2
ENDMDL
