MODEL 1
REMARK minimizedAffinity 6.3206687
REMARK minimizedRMSD -1
REMARK  2 active torsions:
REMARK  status: ('A' for Active; 'I' for Inactive)
REMARK    1  A    between atoms: C1_2  and  C2_3 
REMARK    2  A    between atoms: C2_3  and  C3_4 
ROOT
ATOM      1  C3  UNL d   1      -1.198   3.077  -0.781  0.00  0.00    -0.075 A 
ATOM      2  C4  UNL d   1      -2.503   3.379  -1.195  0.00  0.00     0.002 A 
ATOM      3  C5  UNL d   1      -3.597   2.734  -0.617  0.00  0.00     0.002 A 
ATOM      4  C6  UNL d   1      -3.400   1.775   0.374  0.00  0.00    -0.004 A 
ATOM      5  C7  UNL d   1      -2.106   1.455   0.781  0.00  0.00     0.002 A 
ATOM      6  C8  UNL d   1      -1.010   2.102   0.207  0.00  0.00     0.002 A 
ENDROOT
BRANCH   1   7
ATOM      7  C2  UNL d   1      -0.012   3.793  -1.382  0.00  0.00     0.056 C 
BRANCH   7   8
ATOM      8  C1  UNL d   1      -0.265   4.347  -2.789  0.00  0.00     0.007 C 
ATOM      9  C   UNL d   1      -0.217   5.867  -2.852  0.00  0.00     0.009 C 
ENDBRANCH   7   8
ENDBRANCH   1   7
TORSDOF 2
ENDMDL
