MODEL 1
REMARK minimizedAffinity 5.08502579
REMARK minimizedRMSD -1
REMARK  2 active torsions:
REMARK  status: ('A' for Active; 'I' for Inactive)
REMARK    1  A    between atoms: C1_2  and  C2_3 
REMARK    2  A    between atoms: C2_3  and  C3_4 
ROOT
ATOM      1  C3  UNL d   1      -5.247  -5.417  -0.959  0.00  0.00    -0.075 A 
ATOM      2  C4  UNL d   1      -5.582  -5.994  -2.193  0.00  0.00     0.002 A 
ATOM      3  C5  UNL d   1      -5.071  -5.472  -3.381  0.00  0.00     0.002 A 
ATOM      4  C6  UNL d   1      -4.229  -4.362  -3.353  0.00  0.00    -0.004 A 
ATOM      5  C7  UNL d   1      -3.903  -3.770  -2.135  0.00  0.00     0.002 A 
ATOM      6  C8  UNL d   1      -4.409  -4.293  -0.944  0.00  0.00     0.002 A 
ENDROOT
BRANCH   1   7
ATOM      7  C2  UNL d   1      -5.772  -5.995   0.333  0.00  0.00     0.056 C 
BRANCH   7   8
ATOM      8  C1  UNL d   1      -4.792  -5.892   1.506  0.00  0.00     0.007 C 
ATOM      9  C   UNL d   1      -5.472  -5.983   2.866  0.00  0.00     0.009 C 
ENDBRANCH   7   8
ENDBRANCH   1   7
TORSDOF 2
ENDMDL
