MODEL 1
REMARK minimizedAffinity 6.49597216
REMARK minimizedRMSD -1
REMARK  2 active torsions:
REMARK  status: ('A' for Active; 'I' for Inactive)
REMARK    1  A    between atoms: C1_2  and  C2_3 
REMARK    2  A    between atoms: C2_3  and  C3_4 
ROOT
ATOM      1  C3  UNL d   1       2.270   2.756  -0.681  0.00  0.00    -0.075 A 
ATOM      2  C4  UNL d   1       2.394   1.622   0.135  0.00  0.00     0.002 A 
ATOM      3  C5  UNL d   1       3.525   0.810   0.053  0.00  0.00     0.002 A 
ATOM      4  C6  UNL d   1       4.540   1.114  -0.851  0.00  0.00    -0.004 A 
ATOM      5  C7  UNL d   1       4.421   2.228  -1.679  0.00  0.00     0.002 A 
ATOM      6  C8  UNL d   1       3.292   3.045  -1.596  0.00  0.00     0.002 A 
ENDROOT
BRANCH   1   7
ATOM      7  C2  UNL d   1       1.062   3.656  -0.577  0.00  0.00     0.056 C 
BRANCH   7   8
ATOM      8  C1  UNL d   1       0.165   3.642  -1.819  0.00  0.00     0.007 C 
ATOM      9  C   UNL d   1       0.228   4.937  -2.618  0.00  0.00     0.009 C 
ENDBRANCH   7   8
ENDBRANCH   1   7
TORSDOF 2
ENDMDL
