MODEL 1
REMARK minimizedAffinity -5.70843554
REMARK minimizedRMSD -1
REMARK  1 active torsions:
REMARK  status: ('A' for Active; 'I' for Inactive)
REMARK    1  A    between atoms: C1_2  and  C2_3 
ROOT
ATOM      1  C2  UNL d   1       1.240  -2.623  -0.661  0.00  0.00    -0.073 A 
ATOM      2  C3  UNL d   1       0.146  -3.223  -1.296  0.00  0.00    -0.002 A 
ATOM      3  C4  UNL d   1      -0.116  -4.581  -1.115  0.00  0.00     0.004 A 
ATOM      4  C5  UNL d   1       0.706  -5.352  -0.293  0.00  0.00    -0.004 A 
ATOM      5  C6  UNL d   1       1.797  -4.768   0.360  0.00  0.00    -0.075 A 
ATOM      6  C7  UNL d   1       2.693  -5.583   1.246  0.00  0.00     0.076 C 
ATOM      7  C8  UNL d   1       2.056  -3.404   0.171  0.00  0.00     0.001 A 
ENDROOT
BRANCH   1   8
ATOM      8  C1  UNL d   1       1.524  -1.155  -0.849  0.00  0.00     0.053 C 
ATOM      9  C   UNL d   1       0.570  -0.283  -0.048  0.00  0.00     0.018 C 
ENDBRANCH   1   8
TORSDOF 1
ENDMDL
