MODEL 1
REMARK minimizedAffinity -3.009619
REMARK minimizedRMSD -1
REMARK  1 active torsions:
REMARK  status: ('A' for Active; 'I' for Inactive)
REMARK    1  A    between atoms: C1_2  and  C2_3 
ROOT
ATOM      1  C2  UNL d   1       0.719  -4.289  -1.002  0.00  0.00    -0.073 A 
ATOM      2  C3  UNL d   1       0.194  -4.353  -2.298  0.00  0.00    -0.002 A 
ATOM      3  C4  UNL d   1      -0.189  -3.187  -2.962  0.00  0.00     0.004 A 
ATOM      4  C5  UNL d   1      -0.044  -1.946  -2.341  0.00  0.00    -0.004 A 
ATOM      5  C6  UNL d   1       0.490  -1.861  -1.051  0.00  0.00    -0.075 A 
ATOM      6  C7  UNL d   1       0.651  -0.534  -0.369  0.00  0.00     0.076 C 
ATOM      7  C8  UNL d   1       0.870  -3.037  -0.390  0.00  0.00     0.001 A 
ENDROOT
BRANCH   1   8
ATOM      8  C1  UNL d   1       1.140  -5.546  -0.284  0.00  0.00     0.053 C 
ATOM      9  C   UNL d   1       2.346  -5.313   0.612  0.00  0.00     0.018 C 
ENDBRANCH   1   8
TORSDOF 1
ENDMDL
