MODEL 1
REMARK minimizedAffinity -5.03565836
REMARK minimizedRMSD -1
REMARK  1 active torsions:
REMARK  status: ('A' for Active; 'I' for Inactive)
REMARK    1  A    between atoms: C1_2  and  C2_3 
ROOT
ATOM      1  C2  UNL d   1       0.062   0.527   0.306  0.00  0.00    -0.073 A 
ATOM      2  C3  UNL d   1      -0.720   0.467   1.465  0.00  0.00    -0.002 A 
ATOM      3  C4  UNL d   1      -1.486   1.565   1.856  0.00  0.00     0.004 A 
ATOM      4  C5  UNL d   1      -1.484   2.731   1.091  0.00  0.00    -0.004 A 
ATOM      5  C6  UNL d   1      -0.717   2.807  -0.077  0.00  0.00    -0.075 A 
ATOM      6  C7  UNL d   1      -0.702   4.055  -0.910  0.00  0.00     0.076 C 
ATOM      7  C8  UNL d   1       0.051   1.700  -0.462  0.00  0.00     0.001 A 
ENDROOT
BRANCH   1   8
ATOM      8  C1  UNL d   1       0.886  -0.659  -0.124  0.00  0.00     0.053 C 
ATOM      9  C   UNL d   1       0.436  -1.209  -1.468  0.00  0.00     0.018 C 
ENDBRANCH   1   8
TORSDOF 1
ENDMDL
