MODEL 1
REMARK minimizedAffinity -4.57902575
REMARK minimizedRMSD -1
REMARK  1 active torsions:
REMARK  status: ('A' for Active; 'I' for Inactive)
REMARK    1  A    between atoms: C1_2  and  C2_3 
ROOT
ATOM      1  C2  UNL d   1       1.146  -0.660  -0.717  0.00  0.00    -0.073 A 
ATOM      2  C3  UNL d   1       1.851   0.398  -1.301  0.00  0.00    -0.002 A 
ATOM      3  C4  UNL d   1       1.269   1.662  -1.402  0.00  0.00     0.004 A 
ATOM      4  C5  UNL d   1      -0.019   1.883  -0.914  0.00  0.00    -0.004 A 
ATOM      5  C6  UNL d   1      -0.735   0.841  -0.317  0.00  0.00    -0.075 A 
ATOM      6  C7  UNL d   1      -2.123   1.062   0.211  0.00  0.00     0.076 C 
ATOM      7  C8  UNL d   1      -0.145  -0.426  -0.221  0.00  0.00     0.001 A 
ENDROOT
BRANCH   1   8
ATOM      8  C1  UNL d   1       1.773  -2.025  -0.600  0.00  0.00     0.053 C 
ATOM      9  C   UNL d   1       1.167  -3.017  -1.581  0.00  0.00     0.018 C 
ENDBRANCH   1   8
TORSDOF 1
ENDMDL
