MODEL 1
REMARK minimizedAffinity -0.81367749
REMARK minimizedRMSD -1
REMARK  1 active torsions:
REMARK  status: ('A' for Active; 'I' for Inactive)
REMARK    1  A    between atoms: C1_2  and  C2_3 
ROOT
ATOM      1  C2  UNL d   1      -1.361   1.520  -0.608  0.00  0.00    -0.073 A 
ATOM      2  C3  UNL d   1      -2.009   2.370   0.296  0.00  0.00    -0.002 A 
ATOM      3  C4  UNL d   1      -1.742   2.281   1.662  0.00  0.00     0.004 A 
ATOM      4  C5  UNL d   1      -0.822   1.347   2.139  0.00  0.00    -0.004 A 
ATOM      5  C6  UNL d   1      -0.156   0.497   1.251  0.00  0.00    -0.075 A 
ATOM      6  C7  UNL d   1       0.835  -0.515   1.747  0.00  0.00     0.076 C 
ATOM      7  C8  UNL d   1      -0.431   0.591  -0.120  0.00  0.00     0.001 A 
ENDROOT
BRANCH   1   8
ATOM      8  C1  UNL d   1      -1.640   1.617  -2.085  0.00  0.00     0.053 C 
ATOM      9  C   UNL d   1      -0.451   1.172  -2.921  0.00  0.00     0.018 C 
ENDBRANCH   1   8
TORSDOF 1
ENDMDL
