MODEL 1
REMARK minimizedAffinity 7.53659248
REMARK minimizedRMSD -1
REMARK  1 active torsions:
REMARK  status: ('A' for Active; 'I' for Inactive)
REMARK    1  A    between atoms: C1_2  and  C2_3 
ROOT
ATOM      1  C2  UNL d   1      -1.807  -0.381   2.647  0.00  0.00    -0.073 A 
ATOM      2  C3  UNL d   1      -0.422  -0.494   2.815  0.00  0.00    -0.002 A 
ATOM      3  C4  UNL d   1       0.358   0.645   3.020  0.00  0.00     0.004 A 
ATOM      4  C5  UNL d   1      -0.238   1.905   3.066  0.00  0.00    -0.004 A 
ATOM      5  C6  UNL d   1      -1.621   2.037   2.912  0.00  0.00    -0.075 A 
ATOM      6  C7  UNL d   1      -2.278   3.386   2.958  0.00  0.00     0.076 C 
ATOM      7  C8  UNL d   1      -2.398   0.889   2.704  0.00  0.00     0.001 A 
ENDROOT
BRANCH   1   8
ATOM      8  C1  UNL d   1      -2.654  -1.609   2.431  0.00  0.00     0.053 C 
ATOM      9  C   UNL d   1      -2.803  -1.947   0.957  0.00  0.00     0.018 C 
ENDBRANCH   1   8
TORSDOF 1
ENDMDL
