MODEL 1
REMARK minimizedAffinity 2.03576946
REMARK minimizedRMSD -1
REMARK  1 active torsions:
REMARK  status: ('A' for Active; 'I' for Inactive)
REMARK    1  A    between atoms: C1_2  and  C2_3 
ROOT
ATOM      1  C2  UNL d   1      -0.499   1.207   1.455  0.00  0.00    -0.073 A 
ATOM      2  C3  UNL d   1      -0.377  -0.187   1.472  0.00  0.00    -0.002 A 
ATOM      3  C4  UNL d   1       0.172  -0.860   0.380  0.00  0.00     0.004 A 
ATOM      4  C5  UNL d   1       0.611  -0.148  -0.736  0.00  0.00    -0.004 A 
ATOM      5  C6  UNL d   1       0.509   1.247  -0.767  0.00  0.00    -0.075 A 
ATOM      6  C7  UNL d   1       0.974   2.028  -1.961  0.00  0.00     0.076 C 
ATOM      7  C8  UNL d   1      -0.046   1.915   0.332  0.00  0.00     0.001 A 
ENDROOT
BRANCH   1   8
ATOM      8  C1  UNL d   1      -1.085   1.939   2.634  0.00  0.00     0.053 C 
ATOM      9  C   UNL d   1      -0.209   3.099   3.078  0.00  0.00     0.018 C 
ENDBRANCH   1   8
TORSDOF 1
ENDMDL
