MODEL 1
REMARK minimizedAffinity -2.94383359
REMARK minimizedRMSD -1
REMARK  1 active torsions:
REMARK  status: ('A' for Active; 'I' for Inactive)
REMARK    1  A    between atoms: C1_2  and  C2_3 
ROOT
ATOM      1  C2  UNL d   1      -1.636   1.668   0.453  0.00  0.00    -0.073 A 
ATOM      2  C3  UNL d   1      -2.390   0.597  -0.042  0.00  0.00    -0.002 A 
ATOM      3  C4  UNL d   1      -2.232   0.175  -1.363  0.00  0.00     0.004 A 
ATOM      4  C5  UNL d   1      -1.316   0.813  -2.199  0.00  0.00    -0.004 A 
ATOM      5  C6  UNL d   1      -0.545   1.876  -1.719  0.00  0.00    -0.075 A 
ATOM      6  C7  UNL d   1       0.444   2.574  -2.607  0.00  0.00     0.076 C 
ATOM      7  C8  UNL d   1      -0.711   2.296  -0.393  0.00  0.00     0.001 A 
ENDROOT
BRANCH   1   8
ATOM      8  C1  UNL d   1      -1.798   2.123   1.880  0.00  0.00     0.053 C 
ATOM      9  C   UNL d   1      -0.767   1.490   2.801  0.00  0.00     0.018 C 
ENDBRANCH   1   8
TORSDOF 1
ENDMDL
