MODEL 1
REMARK minimizedAffinity 0.639662445
REMARK minimizedRMSD -1
REMARK  1 active torsions:
REMARK  status: ('A' for Active; 'I' for Inactive)
REMARK    1  A    between atoms: C1_2  and  C2_3 
ROOT
ATOM      1  C2  UNL d   1       0.072  -0.295   0.046  0.00  0.00    -0.073 A 
ATOM      2  C3  UNL d   1       0.710  -0.515   1.272  0.00  0.00    -0.002 A 
ATOM      3  C4  UNL d   1       0.316   0.192   2.409  0.00  0.00     0.004 A 
ATOM      4  C5  UNL d   1      -0.724   1.119   2.333  0.00  0.00    -0.004 A 
ATOM      5  C6  UNL d   1      -1.382   1.344   1.119  0.00  0.00    -0.075 A 
ATOM      6  C7  UNL d   1      -2.500   2.340   1.021  0.00  0.00     0.076 C 
ATOM      7  C8  UNL d   1      -0.978   0.632  -0.018  0.00  0.00     0.001 A 
ENDROOT
BRANCH   1   8
ATOM      8  C1  UNL d   1       0.491  -1.061  -1.183  0.00  0.00     0.053 C 
ATOM      9  C   UNL d   1       0.823  -2.510  -0.865  0.00  0.00     0.018 C 
ENDBRANCH   1   8
TORSDOF 1
ENDMDL
