MODEL 1
REMARK minimizedAffinity 1.73338461
REMARK minimizedRMSD -1
REMARK  0 active torsions:
REMARK  status: ('A' for Active; 'I' for Inactive)
ROOT
ATOM      1  C   UNL d   1      -2.903  -1.896  -4.708  0.00  0.00     0.078 C 
ATOM      2  C1  UNL d   1      -1.434  -1.598  -4.722  0.00  0.00    -0.077 A 
ATOM      3  C2  UNL d   1      -0.929  -0.488  -5.409  0.00  0.00    -0.001 A 
ATOM      4  C3  UNL d   1       0.442  -0.228  -5.422  0.00  0.00     0.003 A 
ATOM      5  C4  UNL d   1       1.321  -1.075  -4.749  0.00  0.00    -0.005 A 
ATOM      6  C5  UNL d   1       0.828  -2.184  -4.064  0.00  0.00     0.003 A 
ATOM      7  C6  UNL d   1      -0.543  -2.445  -4.050  0.00  0.00    -0.001 A 
ENDROOT
TORSDOF 0
ENDMDL
