MODEL 1
REMARK minimizedAffinity -2.07949376
REMARK minimizedRMSD -1
REMARK  0 active torsions:
REMARK  status: ('A' for Active; 'I' for Inactive)
ROOT
ATOM      1  C   UNL d   1       3.508   5.895  -4.870  0.00  0.00     0.078 C 
ATOM      2  C1  UNL d   1       2.010   5.921  -4.809  0.00  0.00    -0.077 A 
ATOM      3  C2  UNL d   1       1.241   5.918  -5.980  0.00  0.00    -0.001 A 
ATOM      4  C3  UNL d   1      -0.153   5.952  -5.908  0.00  0.00     0.003 A 
ATOM      5  C4  UNL d   1      -0.790   5.991  -4.669  0.00  0.00    -0.005 A 
ATOM      6  C5  UNL d   1      -0.033   5.996  -3.500  0.00  0.00     0.003 A 
ATOM      7  C6  UNL d   1       1.361   5.962  -3.569  0.00  0.00    -0.001 A 
ENDROOT
TORSDOF 0
ENDMDL
