MODEL 1
REMARK minimizedAffinity -0.0950140208
REMARK minimizedRMSD -1
REMARK  0 active torsions:
REMARK  status: ('A' for Active; 'I' for Inactive)
ROOT
ATOM      1  C   UNL d   1       3.771   5.986  -4.324  0.00  0.00     0.078 C 
ATOM      2  C1  UNL d   1       2.286   5.975  -4.531  0.00  0.00    -0.077 A 
ATOM      3  C2  UNL d   1       1.737   5.955  -5.819  0.00  0.00    -0.001 A 
ATOM      4  C3  UNL d   1       0.353   5.955  -5.997  0.00  0.00     0.003 A 
ATOM      5  C4  UNL d   1      -0.495   5.977  -4.891  0.00  0.00    -0.005 A 
ATOM      6  C5  UNL d   1       0.042   6.000  -3.606  0.00  0.00     0.003 A 
ATOM      7  C6  UNL d   1       1.426   6.000  -3.425  0.00  0.00    -0.001 A 
ENDROOT
TORSDOF 0
ENDMDL
