MODEL 1
REMARK minimizedAffinity -1.75680435
REMARK minimizedRMSD -1
REMARK  0 active torsions:
REMARK  status: ('A' for Active; 'I' for Inactive)
ROOT
ATOM      1  C   UNL d   1       1.197   3.379  -2.306  0.00  0.00     0.078 C 
ATOM      2  C1  UNL d   1       1.311   2.693  -0.977  0.00  0.00    -0.077 A 
ATOM      3  C2  UNL d   1       0.522   1.577  -0.671  0.00  0.00    -0.001 A 
ATOM      4  C3  UNL d   1       0.631   0.955   0.573  0.00  0.00     0.003 A 
ATOM      5  C4  UNL d   1       1.527   1.443   1.523  0.00  0.00    -0.005 A 
ATOM      6  C5  UNL d   1       2.314   2.554   1.229  0.00  0.00     0.003 A 
ATOM      7  C6  UNL d   1       2.206   3.178  -0.015  0.00  0.00    -0.001 A 
ENDROOT
TORSDOF 0
ENDMDL
