MODEL 1
REMARK minimizedAffinity -0.289894193
REMARK minimizedRMSD -1
REMARK  0 active torsions:
REMARK  status: ('A' for Active; 'I' for Inactive)
ROOT
ATOM      1  C   UNL d   1      -3.847   5.953  -2.913  0.00  0.00     0.078 C 
ATOM      2  C1  UNL d   1      -2.506   5.973  -3.586  0.00  0.00    -0.077 A 
ATOM      3  C2  UNL d   1      -2.400   5.964  -4.982  0.00  0.00    -0.001 A 
ATOM      4  C3  UNL d   1      -1.145   5.973  -5.594  0.00  0.00     0.003 A 
ATOM      5  C4  UNL d   1       0.012   5.990  -4.818  0.00  0.00    -0.005 A 
ATOM      6  C5  UNL d   1      -0.084   5.997  -3.428  0.00  0.00     0.003 A 
ATOM      7  C6  UNL d   1      -1.338   5.988  -2.814  0.00  0.00    -0.001 A 
ENDROOT
TORSDOF 0
ENDMDL
