MODEL 1
REMARK minimizedAffinity -2.76550961
REMARK minimizedRMSD -1
REMARK  0 active torsions:
REMARK  status: ('A' for Active; 'I' for Inactive)
ROOT
ATOM      1  C   UNL d   1       2.309   5.924  -5.019  0.00  0.00     0.078 C 
ATOM      2  C1  UNL d   1       3.590   5.243  -4.642  0.00  0.00    -0.077 A 
ATOM      3  C2  UNL d   1       3.646   3.855  -4.470  0.00  0.00    -0.001 A 
ATOM      4  C3  UNL d   1       4.843   3.235  -4.110  0.00  0.00     0.003 A 
ATOM      5  C4  UNL d   1       5.995   3.996  -3.918  0.00  0.00    -0.005 A 
ATOM      6  C5  UNL d   1       5.949   5.379  -4.086  0.00  0.00     0.003 A 
ATOM      7  C6  UNL d   1       4.752   6.000  -4.446  0.00  0.00    -0.001 A 
ENDROOT
TORSDOF 0
ENDMDL
