MODEL 1
REMARK minimizedAffinity -0.892550647
REMARK minimizedRMSD -1
REMARK  0 active torsions:
REMARK  status: ('A' for Active; 'I' for Inactive)
ROOT
ATOM      1  C   UNL d   1       0.184   5.973  -5.906  0.00  0.00     0.078 C 
ATOM      2  C1  UNL d   1      -0.492   5.985  -4.568  0.00  0.00    -0.077 A 
ATOM      3  C2  UNL d   1       0.253   5.972  -3.383  0.00  0.00    -0.001 A 
ATOM      4  C3  UNL d   1      -0.390   5.974  -2.144  0.00  0.00     0.003 A 
ATOM      5  C4  UNL d   1      -1.781   5.987  -2.078  0.00  0.00    -0.005 A 
ATOM      6  C5  UNL d   1      -2.532   5.997  -3.252  0.00  0.00     0.003 A 
ATOM      7  C6  UNL d   1      -1.891   5.996  -4.491  0.00  0.00    -0.001 A 
ENDROOT
TORSDOF 0
ENDMDL
