MODEL 1
REMARK minimizedAffinity -1.01686907
REMARK minimizedRMSD -1
REMARK  0 active torsions:
REMARK  status: ('A' for Active; 'I' for Inactive)
ROOT
ATOM      1  C   UNL d   1       1.309   5.999  -4.327  0.00  0.00     0.078 C 
ATOM      2  C1  UNL d   1      -0.036   5.992  -3.665  0.00  0.00    -0.077 A 
ATOM      3  C2  UNL d   1      -1.213   5.993  -4.423  0.00  0.00    -0.001 A 
ATOM      4  C3  UNL d   1      -2.459   5.996  -3.793  0.00  0.00     0.003 A 
ATOM      5  C4  UNL d   1      -2.539   5.998  -2.401  0.00  0.00    -0.005 A 
ATOM      6  C5  UNL d   1      -1.373   5.998  -1.639  0.00  0.00     0.003 A 
ATOM      7  C6  UNL d   1      -0.127   5.996  -2.267  0.00  0.00    -0.001 A 
ENDROOT
TORSDOF 0
ENDMDL
