MODEL 1
REMARK minimizedAffinity -2.65478849
REMARK minimizedRMSD -1
REMARK  0 active torsions:
REMARK  status: ('A' for Active; 'I' for Inactive)
ROOT
ATOM      1  C   UNL d   1       1.656   5.361  -4.905  0.00  0.00     0.078 C 
ATOM      2  C1  UNL d   1       3.155   5.394  -4.906  0.00  0.00    -0.077 A 
ATOM      3  C2  UNL d   1       3.888   4.885  -3.827  0.00  0.00    -0.001 A 
ATOM      4  C3  UNL d   1       5.283   4.931  -3.836  0.00  0.00     0.003 A 
ATOM      5  C4  UNL d   1       5.957   5.488  -4.921  0.00  0.00    -0.005 A 
ATOM      6  C5  UNL d   1       5.236   6.000  -5.998  0.00  0.00     0.003 A 
ATOM      7  C6  UNL d   1       3.841   5.954  -5.991  0.00  0.00    -0.001 A 
ENDROOT
TORSDOF 0
ENDMDL
