MODEL 1
REMARK minimizedAffinity 1.61354113
REMARK minimizedRMSD -1
REMARK  0 active torsions:
REMARK  status: ('A' for Active; 'I' for Inactive)
ROOT
ATOM      1  C   UNL d   1       1.071   5.273  -5.617  0.00  0.00     0.078 C 
ATOM      2  C1  UNL d   1       2.536   5.187  -5.309  0.00  0.00    -0.077 A 
ATOM      3  C2  UNL d   1       3.017   4.312  -4.327  0.00  0.00    -0.001 A 
ATOM      4  C3  UNL d   1       4.382   4.248  -4.045  0.00  0.00     0.003 A 
ATOM      5  C4  UNL d   1       5.278   5.059  -4.739  0.00  0.00    -0.005 A 
ATOM      6  C5  UNL d   1       4.809   5.935  -5.716  0.00  0.00     0.003 A 
ATOM      7  C6  UNL d   1       3.444   5.999  -6.000  0.00  0.00    -0.001 A 
ENDROOT
TORSDOF 0
ENDMDL
