MODEL 1
REMARK minimizedAffinity 3.23645377
REMARK minimizedRMSD -1
REMARK  0 active torsions:
REMARK  status: ('A' for Active; 'I' for Inactive)
ROOT
ATOM      1  C   UNL d   1      -4.458   5.969  -0.978  0.00  0.00     0.078 C 
ATOM      2  C1  UNL d   1      -3.255   5.973  -1.874  0.00  0.00    -0.077 A 
ATOM      3  C2  UNL d   1      -3.393   5.973  -3.267  0.00  0.00    -0.001 A 
ATOM      4  C3  UNL d   1      -2.264   5.967  -4.088  0.00  0.00     0.003 A 
ATOM      5  C4  UNL d   1      -0.989   5.961  -3.525  0.00  0.00    -0.005 A 
ATOM      6  C5  UNL d   1      -0.842   5.959  -2.140  0.00  0.00     0.003 A 
ATOM      7  C6  UNL d   1      -1.970   5.965  -1.317  0.00  0.00    -0.001 A 
ENDROOT
TORSDOF 0
ENDMDL
