MODEL 1
REMARK minimizedAffinity -0.0875404403
REMARK minimizedRMSD -1
REMARK  0 active torsions:
REMARK  status: ('A' for Active; 'I' for Inactive)
ROOT
ATOM      1  C   UNL d   1       0.006  -0.753   0.789  0.00  0.00     0.078 C 
ATOM      2  C1  UNL d   1       0.813   0.485   0.533  0.00  0.00    -0.077 A 
ATOM      3  C2  UNL d   1       0.701   1.183  -0.675  0.00  0.00    -0.001 A 
ATOM      4  C3  UNL d   1       1.466   2.328  -0.903  0.00  0.00     0.003 A 
ATOM      5  C4  UNL d   1       2.350   2.784   0.073  0.00  0.00    -0.005 A 
ATOM      6  C5  UNL d   1       2.470   2.095   1.278  0.00  0.00     0.003 A 
ATOM      7  C6  UNL d   1       1.706   0.950   1.507  0.00  0.00    -0.001 A 
ENDROOT
TORSDOF 0
ENDMDL
