MODEL 1
REMARK minimizedAffinity -1.86286235
REMARK minimizedRMSD -1
REMARK  0 active torsions:
REMARK  status: ('A' for Active; 'I' for Inactive)
ROOT
ATOM      1  C   UNL d   1      -0.946   5.989  -5.944  0.00  0.00     0.078 C 
ATOM      2  C1  UNL d   1      -1.635   5.880  -4.617  0.00  0.00    -0.077 A 
ATOM      3  C2  UNL d   1      -3.027   6.000  -4.515  0.00  0.00    -0.001 A 
ATOM      4  C3  UNL d   1      -3.654   5.906  -3.272  0.00  0.00     0.003 A 
ATOM      5  C4  UNL d   1      -2.898   5.694  -2.121  0.00  0.00    -0.005 A 
ATOM      6  C5  UNL d   1      -1.513   5.576  -2.212  0.00  0.00     0.003 A 
ATOM      7  C6  UNL d   1      -0.884   5.669  -3.454  0.00  0.00    -0.001 A 
ENDROOT
TORSDOF 0
ENDMDL
