MODEL 1
REMARK minimizedAffinity -1.13897216
REMARK minimizedRMSD -1
REMARK  0 active torsions:
REMARK  status: ('A' for Active; 'I' for Inactive)
ROOT
ATOM      1  C   UNL d   1       0.799   5.998  -4.894  0.00  0.00     0.078 C 
ATOM      2  C1  UNL d   1      -0.573   5.989  -4.290  0.00  0.00    -0.077 A 
ATOM      3  C2  UNL d   1      -1.717   5.997  -5.098  0.00  0.00    -0.001 A 
ATOM      4  C3  UNL d   1      -2.988   5.998  -4.521  0.00  0.00     0.003 A 
ATOM      5  C4  UNL d   1      -3.128   5.992  -3.135  0.00  0.00    -0.005 A 
ATOM      6  C5  UNL d   1      -1.995   5.986  -2.323  0.00  0.00     0.003 A 
ATOM      7  C6  UNL d   1      -0.723   5.984  -2.898  0.00  0.00    -0.001 A 
ENDROOT
TORSDOF 0
ENDMDL
