MODEL 1
REMARK minimizedAffinity -2.02413464
REMARK minimizedRMSD -1
REMARK  0 active torsions:
REMARK  status: ('A' for Active; 'I' for Inactive)
ROOT
ATOM      1  C   UNL d   1       2.606   5.958  -5.457  0.00  0.00     0.078 C 
ATOM      2  C1  UNL d   1       1.183   5.980  -4.985  0.00  0.00    -0.077 A 
ATOM      3  C2  UNL d   1       0.876   5.985  -3.619  0.00  0.00    -0.001 A 
ATOM      4  C3  UNL d   1      -0.454   5.995  -3.194  0.00  0.00     0.003 A 
ATOM      5  C4  UNL d   1      -1.487   5.999  -4.129  0.00  0.00    -0.005 A 
ATOM      6  C5  UNL d   1      -1.192   5.992  -5.490  0.00  0.00     0.003 A 
ATOM      7  C6  UNL d   1       0.137   5.982  -5.917  0.00  0.00    -0.001 A 
ENDROOT
TORSDOF 0
ENDMDL
