MODEL 1
REMARK minimizedAffinity 2.49574375
REMARK minimizedRMSD -1
REMARK  0 active torsions:
REMARK  status: ('A' for Active; 'I' for Inactive)
ROOT
ATOM      1  C   UNL d   1      -0.407  -0.943   0.833  0.00  0.00     0.078 C 
ATOM      2  C1  UNL d   1       0.171   0.437   0.735  0.00  0.00    -0.077 A 
ATOM      3  C2  UNL d   1       0.150   1.144  -0.473  0.00  0.00    -0.001 A 
ATOM      4  C3  UNL d   1       0.700   2.424  -0.552  0.00  0.00     0.003 A 
ATOM      5  C4  UNL d   1       1.276   3.009   0.574  0.00  0.00    -0.005 A 
ATOM      6  C5  UNL d   1       1.303   2.313   1.781  0.00  0.00     0.003 A 
ATOM      7  C6  UNL d   1       0.753   1.032   1.862  0.00  0.00    -0.001 A 
ENDROOT
TORSDOF 0
ENDMDL
