MODEL 1
REMARK minimizedAffinity 0.415931821
REMARK minimizedRMSD -1
REMARK  0 active torsions:
REMARK  status: ('A' for Active; 'I' for Inactive)
ROOT
ATOM      1  C1  DEN d   1      -4.724  -2.469  -1.471  0.00  0.00     0.130 A 
ATOM      2  C2  DEN d   1      -3.675  -2.799  -2.432  0.00  0.00    -0.031 A 
ATOM      3  C3  DEN d   1      -3.203  -4.168  -2.140  0.00  0.00     0.027 A 
ATOM      4  C4  DEN d   1      -3.995  -5.800  -0.307  0.00  0.00     0.027 A 
ATOM      5  C5  DEN d   1      -4.855  -5.963   0.756  0.00  0.00    -0.003 A 
ATOM      6  C6  DEN d   1      -5.702  -4.968   1.169  0.00  0.00     0.001 A 
ATOM      7  C7  DEN d   1      -5.738  -3.781   0.487  0.00  0.00     0.017 A 
ATOM      8  C8  DEN d   1      -4.868  -3.607  -0.581  0.00  0.00    -0.094 A 
ATOM      9  C9  DEN d   1      -4.028  -4.629  -0.991  0.00  0.00    -0.072 A 
ENDROOT
TORSDOF 0
ENDMDL
