MODEL 1
REMARK minimizedAffinity 12.2063656
REMARK minimizedRMSD -1
REMARK  0 active torsions:
REMARK  status: ('A' for Active; 'I' for Inactive)
ROOT
ATOM      1  C1  DEN d   1       0.716   0.734   1.648  0.00  0.00     0.130 A 
ATOM      2  C2  DEN d   1       1.569   1.298   0.606  0.00  0.00    -0.031 A 
ATOM      3  C3  DEN d   1       0.893   2.493   0.061  0.00  0.00     0.027 A 
ATOM      4  C4  DEN d   1      -1.376   3.520   0.730  0.00  0.00     0.027 A 
ATOM      5  C5  DEN d   1      -2.469   3.386   1.558  0.00  0.00    -0.003 A 
ATOM      6  C6  DEN d   1      -2.591   2.348   2.443  0.00  0.00     0.001 A 
ATOM      7  C7  DEN d   1      -1.582   1.427   2.553  0.00  0.00     0.017 A 
ATOM      8  C8  DEN d   1      -0.481   1.552   1.716  0.00  0.00    -0.094 A 
ATOM      9  C9  DEN d   1      -0.371   2.615   0.837  0.00  0.00    -0.072 A 
ENDROOT
TORSDOF 0
ENDMDL
