MODEL 1
REMARK minimizedAffinity -1.29062426
REMARK minimizedRMSD -1
REMARK  0 active torsions:
REMARK  status: ('A' for Active; 'I' for Inactive)
ROOT
ATOM      1  C1  DEN d   1       0.151  -0.371   1.246  0.00  0.00     0.130 A 
ATOM      2  C2  DEN d   1       1.339   0.447   1.018  0.00  0.00    -0.031 A 
ATOM      3  C3  DEN d   1       0.971   1.860   1.242  0.00  0.00     0.027 A 
ATOM      4  C4  DEN d   1      -1.310   2.854   1.920  0.00  0.00     0.027 A 
ATOM      5  C5  DEN d   1      -2.621   2.556   2.215  0.00  0.00    -0.003 A 
ATOM      6  C6  DEN d   1      -3.105   1.275   2.176  0.00  0.00     0.001 A 
ATOM      7  C7  DEN d   1      -2.261   0.239   1.876  0.00  0.00     0.017 A 
ATOM      8  C8  DEN d   1      -0.938   0.533   1.570  0.00  0.00    -0.094 A 
ATOM      9  C9  DEN d   1      -0.465   1.833   1.628  0.00  0.00    -0.072 A 
ENDROOT
TORSDOF 0
ENDMDL
