MODEL 1
REMARK minimizedAffinity -0.762020826
REMARK minimizedRMSD -1
REMARK  0 active torsions:
REMARK  status: ('A' for Active; 'I' for Inactive)
ROOT
ATOM      1  C1  DEN d   1      -2.417   2.501   2.321  0.00  0.00     0.130 A 
ATOM      2  C2  DEN d   1      -3.373   1.595   2.952  0.00  0.00    -0.031 A 
ATOM      3  C3  DEN d   1      -2.803   0.233   2.916  0.00  0.00     0.027 A 
ATOM      4  C4  DEN d   1      -0.544  -0.556   1.953  0.00  0.00     0.027 A 
ATOM      5  C5  DEN d   1       0.602  -0.152   1.305  0.00  0.00    -0.003 A 
ATOM      6  C6  DEN d   1       0.806   1.147   0.923  0.00  0.00     0.001 A 
ATOM      7  C7  DEN d   1      -0.132   2.099   1.227  0.00  0.00     0.017 A 
ATOM      8  C8  DEN d   1      -1.294   1.698   1.873  0.00  0.00    -0.094 A 
ATOM      9  C9  DEN d   1      -1.476   0.382   2.262  0.00  0.00    -0.072 A 
ENDROOT
TORSDOF 0
ENDMDL
