MODEL 1
REMARK minimizedAffinity 3.56903219
REMARK minimizedRMSD -1
REMARK  0 active torsions:
REMARK  status: ('A' for Active; 'I' for Inactive)
ROOT
ATOM      1  C1  DEN d   1       1.826   1.194  -0.747  0.00  0.00     0.130 A 
ATOM      2  C2  DEN d   1       2.954   0.267  -0.688  0.00  0.00    -0.031 A 
ATOM      3  C3  DEN d   1       2.597  -0.828   0.236  0.00  0.00     0.027 A 
ATOM      4  C4  DEN d   1       0.418  -1.180   1.570  0.00  0.00     0.027 A 
ATOM      5  C5  DEN d   1      -0.823  -0.652   1.854  0.00  0.00    -0.003 A 
ATOM      6  C6  DEN d   1      -1.250   0.535   1.321  0.00  0.00     0.001 A 
ATOM      7  C7  DEN d   1      -0.448   1.212   0.441  0.00  0.00     0.017 A 
ATOM      8  C8  DEN d   1       0.807   0.690   0.156  0.00  0.00    -0.094 A 
ATOM      9  C9  DEN d   1       1.216  -0.518   0.695  0.00  0.00    -0.072 A 
ENDROOT
TORSDOF 0
ENDMDL
