MODEL 1
REMARK minimizedAffinity 1.6713686
REMARK minimizedRMSD -1
REMARK  0 active torsions:
REMARK  status: ('A' for Active; 'I' for Inactive)
ROOT
ATOM      1  C1  DEN d   1       0.763   1.127   0.588  0.00  0.00     0.130 A 
ATOM      2  C2  DEN d   1       1.225  -0.239   0.813  0.00  0.00    -0.031 A 
ATOM      3  C3  DEN d   1       0.152  -0.975   1.511  0.00  0.00     0.027 A 
ATOM      4  C4  DEN d   1      -2.170  -0.137   2.257  0.00  0.00     0.027 A 
ATOM      5  C5  DEN d   1      -3.011   0.954   2.296  0.00  0.00    -0.003 A 
ATOM      6  C6  DEN d   1      -2.643   2.177   1.803  0.00  0.00     0.001 A 
ATOM      7  C7  DEN d   1      -1.418   2.329   1.208  0.00  0.00     0.017 A 
ATOM      8  C8  DEN d   1      -0.562   1.236   1.172  0.00  0.00    -0.094 A 
ATOM      9  C9  DEN d   1      -0.957   0.004   1.665  0.00  0.00    -0.072 A 
ENDROOT
TORSDOF 0
ENDMDL
