MODEL 1
REMARK minimizedAffinity 4.49649143
REMARK minimizedRMSD -1
REMARK  0 active torsions:
REMARK  status: ('A' for Active; 'I' for Inactive)
ROOT
ATOM      1  C1  DEN d   1       0.471  -0.926   1.160  0.00  0.00     0.130 A 
ATOM      2  C2  DEN d   1       1.610  -0.085   0.804  0.00  0.00    -0.031 A 
ATOM      3  C3  DEN d   1       1.173   1.324   0.861  0.00  0.00     0.027 A 
ATOM      4  C4  DEN d   1      -1.144   2.281   1.469  0.00  0.00     0.027 A 
ATOM      5  C5  DEN d   1      -2.433   1.956   1.832  0.00  0.00    -0.003 A 
ATOM      6  C6  DEN d   1      -2.849   0.657   1.962  0.00  0.00     0.001 A 
ATOM      7  C7  DEN d   1      -1.957  -0.364   1.772  0.00  0.00     0.017 A 
ATOM      8  C8  DEN d   1      -0.658  -0.045   1.398  0.00  0.00    -0.094 A 
ATOM      9  C9  DEN d   1      -0.253   1.274   1.284  0.00  0.00    -0.072 A 
ENDROOT
TORSDOF 0
ENDMDL
