MODEL 1
REMARK minimizedAffinity 4.03169155
REMARK minimizedRMSD -1
REMARK  0 active torsions:
REMARK  status: ('A' for Active; 'I' for Inactive)
ROOT
ATOM      1  C1  DEN d   1       2.573  -0.508   0.832  0.00  0.00     0.130 A 
ATOM      2  C2  DEN d   1       3.131  -0.320  -0.504  0.00  0.00    -0.031 A 
ATOM      3  C3  DEN d   1       2.503   0.878  -1.097  0.00  0.00     0.027 A 
ATOM      4  C4  DEN d   1       0.734   2.455  -0.079  0.00  0.00     0.027 A 
ATOM      5  C5  DEN d   1      -0.052   2.695   1.026  0.00  0.00    -0.003 A 
ATOM      6  C6  DEN d   1      -0.044   1.873   2.121  0.00  0.00     0.001 A 
ATOM      7  C7  DEN d   1       0.801   0.795   2.154  0.00  0.00     0.017 A 
ATOM      8  C8  DEN d   1       1.591   0.542   1.041  0.00  0.00    -0.094 A 
ATOM      9  C9  DEN d   1       1.578   1.392  -0.052  0.00  0.00    -0.072 A 
ENDROOT
TORSDOF 0
ENDMDL
