MODEL 1
REMARK minimizedAffinity 1.8571471
REMARK minimizedRMSD -1
REMARK  0 active torsions:
REMARK  status: ('A' for Active; 'I' for Inactive)
ROOT
ATOM      1  C1  DEN d   1      -0.292   2.796   1.169  0.00  0.00     0.130 A 
ATOM      2  C2  DEN d   1       0.867   1.935   0.948  0.00  0.00    -0.031 A 
ATOM      3  C3  DEN d   1       0.532   0.583   1.439  0.00  0.00     0.027 A 
ATOM      4  C4  DEN d   1      -1.658  -0.257   2.511  0.00  0.00     0.027 A 
ATOM      5  C5  DEN d   1      -2.922   0.110   2.917  0.00  0.00    -0.003 A 
ATOM      6  C6  DEN d   1      -3.382   1.394   2.801  0.00  0.00     0.001 A 
ATOM      7  C7  DEN d   1      -2.588   2.350   2.224  0.00  0.00     0.017 A 
ATOM      8  C8  DEN d   1      -1.309   1.990   1.819  0.00  0.00    -0.094 A 
ATOM      9  C9  DEN d   1      -0.867   0.683   1.933  0.00  0.00    -0.072 A 
ENDROOT
TORSDOF 0
ENDMDL
