MODEL 1
REMARK minimizedAffinity 2.91692352
REMARK minimizedRMSD -1
REMARK  0 active torsions:
REMARK  status: ('A' for Active; 'I' for Inactive)
ROOT
ATOM      1  C1  DEN d   1      -4.808  -0.810  -0.887  0.00  0.00     0.130 A 
ATOM      2  C2  DEN d   1      -4.686   0.200  -1.934  0.00  0.00    -0.031 A 
ATOM      3  C3  DEN d   1      -4.067  -0.438  -3.114  0.00  0.00     0.027 A 
ATOM      4  C4  DEN d   1      -3.296  -2.880  -3.420  0.00  0.00     0.027 A 
ATOM      5  C5  DEN d   1      -3.184  -4.107  -2.805  0.00  0.00    -0.003 A 
ATOM      6  C6  DEN d   1      -3.571  -4.311  -1.507  0.00  0.00     0.001 A 
ATOM      7  C7  DEN d   1      -4.131  -3.283  -0.796  0.00  0.00     0.017 A 
ATOM      8  C8  DEN d   1      -4.240  -2.041  -1.406  0.00  0.00    -0.094 A 
ATOM      9  C9  DEN d   1      -3.854  -1.858  -2.723  0.00  0.00    -0.072 A 
ENDROOT
TORSDOF 0
ENDMDL
