MODEL 1
REMARK minimizedAffinity -2.82341933
REMARK minimizedRMSD -1
REMARK  0 active torsions:
REMARK  status: ('A' for Active; 'I' for Inactive)
ROOT
ATOM      1  C1  DEN d   1      -1.800  -1.000   1.692  0.00  0.00     0.130 A 
ATOM      2  C2  DEN d   1      -3.031  -0.401   2.198  0.00  0.00    -0.031 A 
ATOM      3  C3  DEN d   1      -2.854   1.066   2.209  0.00  0.00     0.027 A 
ATOM      4  C4  DEN d   1      -0.806   2.458   1.488  0.00  0.00     0.027 A 
ATOM      5  C5  DEN d   1       0.481   2.392   1.001  0.00  0.00    -0.003 A 
ATOM      6  C6  DEN d   1       1.104   1.200   0.744  0.00  0.00     0.001 A 
ATOM      7  C7  DEN d   1       0.426   0.025   0.930  0.00  0.00     0.017 A 
ATOM      8  C8  DEN d   1      -0.869   0.082   1.429  0.00  0.00    -0.094 A 
ATOM      9  C9  DEN d   1      -1.486   1.298   1.671  0.00  0.00    -0.072 A 
ENDROOT
TORSDOF 0
ENDMDL
