MODEL 1
REMARK minimizedAffinity -2.11350107
REMARK minimizedRMSD -1
REMARK  0 active torsions:
REMARK  status: ('A' for Active; 'I' for Inactive)
ROOT
ATOM      1  C1  DEN d   1       1.491  -0.374   0.747  0.00  0.00     0.130 A 
ATOM      2  C2  DEN d   1       2.353   0.711   0.286  0.00  0.00    -0.031 A 
ATOM      3  C3  DEN d   1       1.620   1.981   0.455  0.00  0.00     0.027 A 
ATOM      4  C4  DEN d   1      -0.754   2.373   1.384  0.00  0.00     0.027 A 
ATOM      5  C5  DEN d   1      -1.877   1.757   1.891  0.00  0.00    -0.003 A 
ATOM      6  C6  DEN d   1      -1.968   0.396   2.020  0.00  0.00     0.001 A 
ATOM      7  C7  DEN d   1      -0.900  -0.391   1.678  0.00  0.00     0.017 A 
ATOM      8  C8  DEN d   1       0.233   0.222   1.160  0.00  0.00    -0.094 A 
ATOM      9  C9  DEN d   1       0.310   1.600   1.049  0.00  0.00    -0.072 A 
ENDROOT
TORSDOF 0
ENDMDL
