MODEL 1
REMARK minimizedAffinity 2.40043044
REMARK minimizedRMSD -1
REMARK  0 active torsions:
REMARK  status: ('A' for Active; 'I' for Inactive)
ROOT
ATOM      1  C1  DEN d   1      -1.900  -1.101   1.366  0.00  0.00     0.130 A 
ATOM      2  C2  DEN d   1      -3.053  -0.312   1.789  0.00  0.00    -0.031 A 
ATOM      3  C3  DEN d   1      -2.611   1.087   1.961  0.00  0.00     0.027 A 
ATOM      4  C4  DEN d   1      -0.267   2.102   1.609  0.00  0.00     0.027 A 
ATOM      5  C5  DEN d   1       1.037   1.823   1.262  0.00  0.00    -0.003 A 
ATOM      6  C6  DEN d   1       1.457   0.555   0.961  0.00  0.00     0.001 A 
ATOM      7  C7  DEN d   1       0.555  -0.476   0.957  0.00  0.00     0.017 A 
ATOM      8  C8  DEN d   1      -0.760  -0.204   1.313  0.00  0.00    -0.094 A 
ATOM      9  C9  DEN d   1      -1.168   1.087   1.602  0.00  0.00    -0.072 A 
ENDROOT
TORSDOF 0
ENDMDL
