MODEL 1
REMARK minimizedAffinity -2.495924
REMARK minimizedRMSD -1
REMARK  0 active torsions:
REMARK  status: ('A' for Active; 'I' for Inactive)
ROOT
ATOM      1  C1  DEN d   1       1.376  -0.368   0.964  0.00  0.00     0.130 A 
ATOM      2  C2  DEN d   1       2.373   0.695   0.871  0.00  0.00    -0.031 A 
ATOM      3  C3  DEN d   1       1.708   1.974   1.189  0.00  0.00     0.027 A 
ATOM      4  C4  DEN d   1      -0.755   2.410   1.818  0.00  0.00     0.027 A 
ATOM      5  C5  DEN d   1      -1.985   1.821   2.013  0.00  0.00    -0.003 A 
ATOM      6  C6  DEN d   1      -2.187   0.477   1.842  0.00  0.00     0.001 A 
ATOM      7  C7  DEN d   1      -1.132  -0.330   1.506  0.00  0.00     0.017 A 
ATOM      8  C8  DEN d   1       0.109   0.258   1.300  0.00  0.00    -0.094 A 
ATOM      9  C9  DEN d   1       0.296   1.616   1.491  0.00  0.00    -0.072 A 
ENDROOT
TORSDOF 0
ENDMDL
