MODEL 1
REMARK minimizedAffinity -1.24048316
REMARK minimizedRMSD -1
REMARK  0 active torsions:
REMARK  status: ('A' for Active; 'I' for Inactive)
ROOT
ATOM      1  C   UNL d   1      -0.076   1.321  -0.998  0.00  0.00    -0.002 A 
ATOM      2  C1  UNL d   1      -0.060   0.841   0.304  0.00  0.00     0.010 A 
ATOM      3  C2  UNL d   1      -0.131  -0.531   0.556  0.00  0.00     0.041 A 
ATOM      4  C3  UNL d   1      -0.217  -1.420  -0.534  0.00  0.00    -0.075 A 
ATOM      5  S   UNL d   1      -0.313  -3.140  -0.466  0.00  0.00     0.015 SA
ATOM      6  C4  UNL d   1      -0.376  -3.278  -2.164  0.00  0.00     0.022 A 
ATOM      7  C5  UNL d   1      -0.326  -2.051  -2.783  0.00  0.00     0.026 A 
ATOM      8  C6  UNL d   1      -0.233  -0.960  -1.853  0.00  0.00    -0.082 A 
ATOM      9  C7  UNL d   1      -0.161   0.436  -2.076  0.00  0.00     0.045 A 
ENDROOT
TORSDOF 0
ENDMDL
