MODEL 1
REMARK minimizedAffinity 10.7623959
REMARK minimizedRMSD -1
REMARK  0 active torsions:
REMARK  status: ('A' for Active; 'I' for Inactive)
ROOT
ATOM      1  C   UNL d   1       5.747  -0.539   3.187  0.00  0.00    -0.002 A 
ATOM      2  C1  UNL d   1       4.504  -0.802   3.745  0.00  0.00     0.010 A 
ATOM      3  C2  UNL d   1       3.372  -0.913   2.935  0.00  0.00     0.041 A 
ATOM      4  C3  UNL d   1       3.512  -0.757   1.542  0.00  0.00    -0.075 A 
ATOM      5  S   UNL d   1       2.265  -0.853   0.355  0.00  0.00     0.015 SA
ATOM      6  C4  UNL d   1       3.354  -0.548  -0.920  0.00  0.00     0.022 A 
ATOM      7  C5  UNL d   1       4.641  -0.375  -0.469  0.00  0.00     0.026 A 
ATOM      8  C6  UNL d   1       4.753  -0.493   0.957  0.00  0.00    -0.082 A 
ATOM      9  C7  UNL d   1       5.882  -0.384   1.805  0.00  0.00     0.045 A 
ENDROOT
TORSDOF 0
ENDMDL
