MODEL 1
REMARK minimizedAffinity -2.08578968
REMARK minimizedRMSD -1
REMARK  0 active torsions:
REMARK  status: ('A' for Active; 'I' for Inactive)
ROOT
ATOM      1  C   UNL d   1      -1.816  -3.451  -2.710  0.00  0.00    -0.002 A 
ATOM      2  C1  UNL d   1      -1.177  -3.846  -1.543  0.00  0.00     0.010 A 
ATOM      3  C2  UNL d   1      -0.451  -2.925  -0.785  0.00  0.00     0.041 A 
ATOM      4  C3  UNL d   1      -0.379  -1.588  -1.222  0.00  0.00    -0.075 A 
ATOM      5  S   UNL d   1       0.452  -0.287  -0.454  0.00  0.00     0.015 SA
ATOM      6  C4  UNL d   1      -0.022   0.824  -1.657  0.00  0.00     0.022 A 
ATOM      7  C5  UNL d   1      -0.795   0.233  -2.628  0.00  0.00     0.026 A 
ATOM      8  C6  UNL d   1      -1.014  -1.166  -2.393  0.00  0.00    -0.082 A 
ATOM      9  C7  UNL d   1      -1.741  -2.123  -3.141  0.00  0.00     0.045 A 
ENDROOT
TORSDOF 0
ENDMDL
