MODEL 1
REMARK minimizedAffinity -2.04226398
REMARK minimizedRMSD -1
REMARK  0 active torsions:
REMARK  status: ('A' for Active; 'I' for Inactive)
ROOT
ATOM      1  C   UNL d   1      -1.154   2.698   2.049  0.00  0.00    -0.002 A 
ATOM      2  C1  UNL d   1      -0.226   1.751   2.458  0.00  0.00     0.010 A 
ATOM      3  C2  UNL d   1       0.543   1.059   1.521  0.00  0.00     0.041 A 
ATOM      4  C3  UNL d   1       0.363   1.338   0.152  0.00  0.00    -0.075 A 
ATOM      5  S   UNL d   1       1.193   0.615  -1.175  0.00  0.00     0.015 SA
ATOM      6  C4  UNL d   1       0.335   1.546  -2.316  0.00  0.00     0.022 A 
ATOM      7  C5  UNL d   1      -0.567   2.394  -1.717  0.00  0.00     0.026 A 
ATOM      8  C6  UNL d   1      -0.565   2.288  -0.285  0.00  0.00    -0.082 A 
ATOM      9  C7  UNL d   1      -1.330   2.972   0.690  0.00  0.00     0.045 A 
ENDROOT
TORSDOF 0
ENDMDL
