MODEL 1
REMARK minimizedAffinity -2.05743098
REMARK minimizedRMSD -1
REMARK  0 active torsions:
REMARK  status: ('A' for Active; 'I' for Inactive)
ROOT
ATOM      1  C   UNL d   1      -1.464   2.032   2.563  0.00  0.00    -0.002 A 
ATOM      2  C1  UNL d   1      -0.604   1.081   3.094  0.00  0.00     0.010 A 
ATOM      3  C2  UNL d   1       0.201   0.305   2.257  0.00  0.00     0.041 A 
ATOM      4  C3  UNL d   1       0.127   0.504   0.864  0.00  0.00    -0.075 A 
ATOM      5  S   UNL d   1       1.018  -0.329  -0.354  0.00  0.00     0.015 SA
ATOM      6  C4  UNL d   1       0.278   0.558  -1.607  0.00  0.00     0.022 A 
ATOM      7  C5  UNL d   1      -0.630   1.472  -1.126  0.00  0.00     0.026 A 
ATOM      8  C6  UNL d   1      -0.732   1.456   0.306  0.00  0.00    -0.082 A 
ATOM      9  C7  UNL d   1      -1.535   2.226   1.181  0.00  0.00     0.045 A 
ENDROOT
TORSDOF 0
ENDMDL
