MODEL 1
REMARK minimizedAffinity 6.90774822
REMARK minimizedRMSD -1
REMARK  3 active torsions:
REMARK  status: ('A' for Active; 'I' for Inactive)
REMARK    1  A    between atoms: C3'_2  and  C2'_3 
REMARK    2  A    between atoms: C2'_3  and  C1'_4 
REMARK    3  A    between atoms: C1'_4  and  C1_5 
ROOT
ATOM      1  C1  N4B d   1       1.965   0.791   0.566  0.00  0.00    -0.075 A 
ATOM      2  C2  N4B d   1       2.447  -0.528   0.717  0.00  0.00     0.002 A 
ATOM      3  C3  N4B d   1       2.064  -1.504  -0.169  0.00  0.00     0.002 A 
ATOM      4  C4  N4B d   1       1.188  -1.191  -1.198  0.00  0.00    -0.004 A 
ATOM      5  C5  N4B d   1       0.747   0.090  -1.352  0.00  0.00     0.002 A 
ATOM      6  C6  N4B d   1       1.127   1.083  -0.471  0.00  0.00     0.002 A 
ENDROOT
BRANCH   1   7
ATOM      7  C1' N4B d   1       2.288   1.873   1.560  0.00  0.00     0.057 C 
BRANCH   7   8
ATOM      8  C2' N4B d   1       1.034   2.205   2.364  0.00  0.00     0.009 C 
BRANCH   8   9
ATOM      9  C3' N4B d   1       1.367   2.645   3.780  0.00  0.00     0.004 C 
ATOM     10  C4' N4B d   1       0.611   1.874   4.821  0.00  0.00     0.003 C 
ENDBRANCH   8   9
ENDBRANCH   7   8
ENDBRANCH   1   7
TORSDOF 3
ENDMDL
