MODEL 1
REMARK minimizedAffinity 8.71051693
REMARK minimizedRMSD -1
REMARK  3 active torsions:
REMARK  status: ('A' for Active; 'I' for Inactive)
REMARK    1  A    between atoms: C3'_2  and  C2'_3 
REMARK    2  A    between atoms: C2'_3  and  C1'_4 
REMARK    3  A    between atoms: C1'_4  and  C1_5 
ROOT
ATOM      1  C1  N4B d   1       2.121   1.862   1.244  0.00  0.00    -0.075 A 
ATOM      2  C2  N4B d   1       1.861   0.705   0.477  0.00  0.00     0.002 A 
ATOM      3  C3  N4B d   1       2.481   0.532  -0.736  0.00  0.00     0.002 A 
ATOM      4  C4  N4B d   1       3.346   1.507  -1.209  0.00  0.00    -0.004 A 
ATOM      5  C5  N4B d   1       3.612   2.609  -0.450  0.00  0.00     0.002 A 
ATOM      6  C6  N4B d   1       2.999   2.794   0.773  0.00  0.00     0.002 A 
ENDROOT
BRANCH   1   7
ATOM      7  C1' N4B d   1       1.402   2.136   2.537  0.00  0.00     0.057 C 
BRANCH   7   8
ATOM      8  C2' N4B d   1       0.923   0.816   3.134  0.00  0.00     0.009 C 
BRANCH   8   9
ATOM      9  C3' N4B d   1       1.936   0.230   4.103  0.00  0.00     0.004 C 
ATOM     10  C4' N4B d   1       2.290  -1.191   3.784  0.00  0.00     0.003 C 
ENDBRANCH   8   9
ENDBRANCH   7   8
ENDBRANCH   1   7
TORSDOF 3
ENDMDL
