MODEL 1
REMARK minimizedAffinity 4.21393824
REMARK minimizedRMSD -1
REMARK  3 active torsions:
REMARK  status: ('A' for Active; 'I' for Inactive)
REMARK    1  A    between atoms: C3'_2  and  C2'_3 
REMARK    2  A    between atoms: C2'_3  and  C1'_4 
REMARK    3  A    between atoms: C1'_4  and  C1_5 
ROOT
ATOM      1  C1  N4B d   1       2.595  -0.806   0.536  0.00  0.00    -0.075 A 
ATOM      2  C2  N4B d   1       2.166  -1.796   1.446  0.00  0.00     0.002 A 
ATOM      3  C3  N4B d   1       1.381  -2.836   1.010  0.00  0.00     0.002 A 
ATOM      4  C4  N4B d   1       1.000  -2.895  -0.322  0.00  0.00    -0.004 A 
ATOM      5  C5  N4B d   1       1.440  -1.948  -1.200  0.00  0.00     0.002 A 
ATOM      6  C6  N4B d   1       2.232  -0.900  -0.777  0.00  0.00     0.002 A 
ENDROOT
BRANCH   1   7
ATOM      7  C1' N4B d   1       3.382   0.396   0.982  0.00  0.00     0.057 C 
BRANCH   7   8
ATOM      8  C2' N4B d   1       2.942   1.612   0.173  0.00  0.00     0.009 C 
BRANCH   8   9
ATOM      9  C3' N4B d   1       1.819   2.373   0.857  0.00  0.00     0.004 C 
ATOM     10  C4' N4B d   1       1.850   2.237   2.350  0.00  0.00     0.003 C 
ENDBRANCH   8   9
ENDBRANCH   7   8
ENDBRANCH   1   7
TORSDOF 3
ENDMDL
