MODEL 1
REMARK minimizedAffinity 4.1122551
REMARK minimizedRMSD -1
REMARK  3 active torsions:
REMARK  status: ('A' for Active; 'I' for Inactive)
REMARK    1  A    between atoms: C3'_2  and  C2'_3 
REMARK    2  A    between atoms: C2'_3  and  C1'_4 
REMARK    3  A    between atoms: C1'_4  and  C1_5 
ROOT
ATOM      1  C1  N4B d   1      -5.278   5.062   3.382  0.00  0.00    -0.075 A 
ATOM      2  C2  N4B d   1      -6.000   5.064   4.595  0.00  0.00     0.002 A 
ATOM      3  C3  N4B d   1      -5.410   5.531   5.744  0.00  0.00     0.002 A 
ATOM      4  C4  N4B d   1      -4.099   5.981   5.708  0.00  0.00    -0.004 A 
ATOM      5  C5  N4B d   1      -3.417   6.000   4.527  0.00  0.00     0.002 A 
ATOM      6  C6  N4B d   1      -3.998   5.537   3.364  0.00  0.00     0.002 A 
ENDROOT
BRANCH   1   7
ATOM      7  C1' N4B d   1      -5.851   4.482   2.118  0.00  0.00     0.057 C 
BRANCH   7   8
ATOM      8  C2' N4B d   1      -5.082   3.214   1.756  0.00  0.00     0.009 C 
BRANCH   8   9
ATOM      9  C3' N4B d   1      -5.034   2.988   0.254  0.00  0.00     0.004 C 
ATOM     10  C4' N4B d   1      -5.130   1.539  -0.119  0.00  0.00     0.003 C 
ENDBRANCH   8   9
ENDBRANCH   7   8
ENDBRANCH   1   7
TORSDOF 3
ENDMDL
