MODEL 1
REMARK minimizedAffinity 6.66905975
REMARK minimizedRMSD -1
REMARK  3 active torsions:
REMARK  status: ('A' for Active; 'I' for Inactive)
REMARK    1  A    between atoms: C3'_2  and  C2'_3 
REMARK    2  A    between atoms: C2'_3  and  C1'_4 
REMARK    3  A    between atoms: C1'_4  and  C1_5 
ROOT
ATOM      1  C1  N4B d   1       2.392   1.175   1.719  0.00  0.00    -0.075 A 
ATOM      2  C2  N4B d   1       1.667   0.346   2.603  0.00  0.00     0.002 A 
ATOM      3  C3  N4B d   1       1.570   0.680   3.932  0.00  0.00     0.002 A 
ATOM      4  C4  N4B d   1       2.202   1.822   4.401  0.00  0.00    -0.004 A 
ATOM      5  C5  N4B d   1       2.879   2.630   3.535  0.00  0.00     0.002 A 
ATOM      6  C6  N4B d   1       2.981   2.310   2.196  0.00  0.00     0.002 A 
ENDROOT
BRANCH   1   7
ATOM      7  C1' N4B d   1       2.598   0.807   0.275  0.00  0.00     0.057 C 
BRANCH   7   8
ATOM      8  C2' N4B d   1       3.161   2.011  -0.474  0.00  0.00     0.009 C 
BRANCH   8   9
ATOM      9  C3' N4B d   1       4.423   1.662  -1.244  0.00  0.00     0.004 C 
ATOM     10  C4' N4B d   1       5.441   2.763  -1.221  0.00  0.00     0.003 C 
ENDBRANCH   8   9
ENDBRANCH   7   8
ENDBRANCH   1   7
TORSDOF 3
ENDMDL
