MODEL 1
REMARK minimizedAffinity -0.277990371
REMARK minimizedRMSD -1
REMARK  1 active torsions:
REMARK  status: ('A' for Active; 'I' for Inactive)
REMARK    1  A    between atoms: C1_2  and  C2_3 
ROOT
ATOM      1  C2  UNL d   1      -5.894  -3.605  -1.427  0.00  0.00    -0.077 A 
ATOM      2  C3  UNL d   1      -6.000  -3.616  -0.030  0.00  0.00     0.002 A 
ATOM      3  C4  UNL d   1      -5.855  -4.810   0.680  0.00  0.00     0.002 A 
ATOM      4  C5  UNL d   1      -5.600  -6.000   0.001  0.00  0.00    -0.004 A 
ATOM      5  C6  UNL d   1      -5.495  -5.999  -1.390  0.00  0.00     0.002 A 
ATOM      6  C7  UNL d   1      -5.640  -4.807  -2.100  0.00  0.00     0.002 A 
ENDROOT
BRANCH   1   7
ATOM      7  C1  UNL d   1      -6.000  -2.310  -2.191  0.00  0.00     0.055 C 
ATOM      8  C   UNL d   1      -5.225  -2.374  -3.499  0.00  0.00     0.019 C 
ENDBRANCH   1   7
TORSDOF 1
ENDMDL
