MODEL 1
REMARK minimizedAffinity -1.78648984
REMARK minimizedRMSD -1
REMARK  1 active torsions:
REMARK  status: ('A' for Active; 'I' for Inactive)
REMARK    1  A    between atoms: C1_2  and  C2_3 
ROOT
ATOM      1  C2  UNL d   1      -5.931  -4.115  -1.241  0.00  0.00    -0.077 A 
ATOM      2  C3  UNL d   1      -5.932  -5.498  -1.014  0.00  0.00     0.002 A 
ATOM      3  C4  UNL d   1      -5.914  -6.000   0.288  0.00  0.00     0.002 A 
ATOM      4  C5  UNL d   1      -5.900  -5.126   1.373  0.00  0.00    -0.004 A 
ATOM      5  C6  UNL d   1      -5.897  -3.748   1.158  0.00  0.00     0.002 A 
ATOM      6  C7  UNL d   1      -5.913  -3.245  -0.144  0.00  0.00     0.002 A 
ENDROOT
BRANCH   1   7
ATOM      7  C1  UNL d   1      -6.000  -3.571  -2.645  0.00  0.00     0.055 C 
ATOM      8  C   UNL d   1      -5.950  -2.050  -2.653  0.00  0.00     0.019 C 
ENDBRANCH   1   7
TORSDOF 1
ENDMDL
