MODEL 1
REMARK minimizedAffinity 0.309377253
REMARK minimizedRMSD -1
REMARK  1 active torsions:
REMARK  status: ('A' for Active; 'I' for Inactive)
REMARK    1  A    between atoms: C1_2  and  C2_3 
ROOT
ATOM      1  C2  UNL d   1       3.007   0.479   1.967  0.00  0.00    -0.077 A 
ATOM      2  C3  UNL d   1       2.477  -0.411   2.912  0.00  0.00     0.002 A 
ATOM      3  C4  UNL d   1       1.204  -0.199   3.445  0.00  0.00     0.002 A 
ATOM      4  C5  UNL d   1       0.449   0.898   3.036  0.00  0.00    -0.004 A 
ATOM      5  C6  UNL d   1       0.968   1.789   2.098  0.00  0.00     0.002 A 
ATOM      6  C7  UNL d   1       2.241   1.580   1.565  0.00  0.00     0.002 A 
ENDROOT
BRANCH   1   7
ATOM      7  C1  UNL d   1       4.360   0.225   1.354  0.00  0.00     0.055 C 
ATOM      8  C   UNL d   1       5.437   0.106   2.421  0.00  0.00     0.019 C 
ENDBRANCH   1   7
TORSDOF 1
ENDMDL
