MODEL 1
REMARK minimizedAffinity 5.86569834
REMARK minimizedRMSD -1
REMARK  1 active torsions:
REMARK  status: ('A' for Active; 'I' for Inactive)
REMARK    1  A    between atoms: C1_2  and  C2_3 
ROOT
ATOM      1  C2  UNL d   1      -5.381  -3.359  -0.921  0.00  0.00    -0.077 A 
ATOM      2  C3  UNL d   1      -5.664  -4.433  -1.776  0.00  0.00     0.002 A 
ATOM      3  C4  UNL d   1      -5.412  -5.745  -1.370  0.00  0.00     0.002 A 
ATOM      4  C5  UNL d   1      -4.880  -5.994  -0.107  0.00  0.00    -0.004 A 
ATOM      5  C6  UNL d   1      -4.592  -4.933   0.750  0.00  0.00     0.002 A 
ATOM      6  C7  UNL d   1      -4.842  -3.621   0.345  0.00  0.00     0.002 A 
ENDROOT
BRANCH   1   7
ATOM      7  C1  UNL d   1      -5.698  -1.946  -1.338  0.00  0.00     0.055 C 
ATOM      8  C   UNL d   1      -5.709  -1.806  -2.854  0.00  0.00     0.019 C 
ENDBRANCH   1   7
TORSDOF 1
ENDMDL
