MODEL 1
REMARK minimizedAffinity 7.42425251
REMARK minimizedRMSD -1
REMARK  1 active torsions:
REMARK  status: ('A' for Active; 'I' for Inactive)
REMARK    1  A    between atoms: C1_2  and  C2_3 
ROOT
ATOM      1  C2  UNL d   1       3.907   4.500  -4.748  0.00  0.00    -0.077 A 
ATOM      2  C3  UNL d   1       3.213   3.472  -5.403  0.00  0.00     0.002 A 
ATOM      3  C4  UNL d   1       3.910   2.420  -6.000  0.00  0.00     0.002 A 
ATOM      4  C5  UNL d   1       5.301   2.382  -5.944  0.00  0.00    -0.004 A 
ATOM      5  C6  UNL d   1       6.000   3.400  -5.297  0.00  0.00     0.002 A 
ATOM      6  C7  UNL d   1       5.306   4.454  -4.700  0.00  0.00     0.002 A 
ENDROOT
BRANCH   1   7
ATOM      7  C1  UNL d   1       3.156   5.610  -4.060  0.00  0.00     0.055 C 
ATOM      8  C   UNL d   1       1.700   5.649  -4.502  0.00  0.00     0.019 C 
ENDBRANCH   1   7
TORSDOF 1
ENDMDL
