MODEL 1
REMARK minimizedAffinity -4.39451027
REMARK minimizedRMSD -1
REMARK  1 active torsions:
REMARK  status: ('A' for Active; 'I' for Inactive)
REMARK    1  A    between atoms: C1_2  and  C2_3 
ROOT
ATOM      1  C2  UNL d   1      -5.658  -4.562   0.518  0.00  0.00    -0.077 A 
ATOM      2  C3  UNL d   1      -5.812  -5.168  -0.737  0.00  0.00     0.002 A 
ATOM      3  C4  UNL d   1      -5.868  -4.389  -1.895  0.00  0.00     0.002 A 
ATOM      4  C5  UNL d   1      -5.767  -3.002  -1.810  0.00  0.00    -0.004 A 
ATOM      5  C6  UNL d   1      -5.616  -2.390  -0.567  0.00  0.00     0.002 A 
ATOM      6  C7  UNL d   1      -5.561  -3.166   0.592  0.00  0.00     0.002 A 
ENDROOT
BRANCH   1   7
ATOM      7  C1  UNL d   1      -5.547  -5.402   1.763  0.00  0.00     0.055 C 
ATOM      8  C   UNL d   1      -4.155  -5.999   1.906  0.00  0.00     0.019 C 
ENDBRANCH   1   7
TORSDOF 1
ENDMDL
