MODEL 1
REMARK minimizedAffinity 7.62613392
REMARK minimizedRMSD -1
REMARK  1 active torsions:
REMARK  status: ('A' for Active; 'I' for Inactive)
REMARK    1  A    between atoms: C1_2  and  C2_3 
ROOT
ATOM      1  C2  UNL d   1       2.974   4.449  -5.448  0.00  0.00    -0.077 A 
ATOM      2  C3  UNL d   1       3.020   3.158  -5.993  0.00  0.00     0.002 A 
ATOM      3  C4  UNL d   1       4.214   2.436  -6.000  0.00  0.00     0.002 A 
ATOM      4  C5  UNL d   1       5.371   2.994  -5.459  0.00  0.00    -0.004 A 
ATOM      5  C6  UNL d   1       5.336   4.278  -4.916  0.00  0.00     0.002 A 
ATOM      6  C7  UNL d   1       4.143   5.002  -4.910  0.00  0.00     0.002 A 
ENDROOT
BRANCH   1   7
ATOM      7  C1  UNL d   1       1.675   5.211  -5.396  0.00  0.00     0.055 C 
ATOM      8  C   UNL d   1       1.525   5.959  -4.079  0.00  0.00     0.019 C 
ENDBRANCH   1   7
TORSDOF 1
ENDMDL
