MODEL 1
REMARK minimizedAffinity 4.59805965
REMARK minimizedRMSD -1
REMARK  1 active torsions:
REMARK  status: ('A' for Active; 'I' for Inactive)
REMARK    1  A    between atoms: C1_2  and  C2_3 
ROOT
ATOM      1  C2  UNL d   1      -2.916   2.269   2.192  0.00  0.00    -0.077 A 
ATOM      2  C3  UNL d   1      -3.449   1.022   1.836  0.00  0.00     0.002 A 
ATOM      3  C4  UNL d   1      -2.619  -0.096   1.727  0.00  0.00     0.002 A 
ATOM      4  C5  UNL d   1      -1.253   0.021   1.975  0.00  0.00    -0.004 A 
ATOM      5  C6  UNL d   1      -0.713   1.258   2.327  0.00  0.00     0.002 A 
ATOM      6  C7  UNL d   1      -1.541   2.376   2.436  0.00  0.00     0.002 A 
ENDROOT
BRANCH   1   7
ATOM      7  C1  UNL d   1      -3.817   3.465   2.359  0.00  0.00     0.055 C 
ATOM      8  C   UNL d   1      -3.168   4.528   3.233  0.00  0.00     0.019 C 
ENDBRANCH   1   7
TORSDOF 1
ENDMDL
