MODEL 1
REMARK minimizedAffinity -0.714516759
REMARK minimizedRMSD -1
REMARK  1 active torsions:
REMARK  status: ('A' for Active; 'I' for Inactive)
REMARK    1  A    between atoms: C1_2  and  C2_3 
ROOT
ATOM      1  C2  UNL d   1      -5.841  -4.335  -2.002  0.00  0.00    -0.077 A 
ATOM      2  C3  UNL d   1      -5.923  -3.258  -1.108  0.00  0.00     0.002 A 
ATOM      3  C4  UNL d   1      -6.000  -1.948  -1.584  0.00  0.00     0.002 A 
ATOM      4  C5  UNL d   1      -6.000  -1.703  -2.956  0.00  0.00    -0.004 A 
ATOM      5  C6  UNL d   1      -5.917  -2.767  -3.853  0.00  0.00     0.002 A 
ATOM      6  C7  UNL d   1      -5.838  -4.077  -3.379  0.00  0.00     0.002 A 
ENDROOT
BRANCH   1   7
ATOM      7  C1  UNL d   1      -5.807  -5.751  -1.490  0.00  0.00     0.055 C 
ATOM      8  C   UNL d   1      -4.579  -5.999  -0.627  0.00  0.00     0.019 C 
ENDBRANCH   1   7
TORSDOF 1
ENDMDL
