MODEL 1
REMARK minimizedAffinity 7.15388823
REMARK minimizedRMSD -1
REMARK  1 active torsions:
REMARK  status: ('A' for Active; 'I' for Inactive)
REMARK    1  A    between atoms: C1_2  and  C2_3 
ROOT
ATOM      1  C2  UNL d   1       2.247   3.404  -2.295  0.00  0.00    -0.077 A 
ATOM      2  C3  UNL d   1       2.017   4.762  -2.557  0.00  0.00     0.002 A 
ATOM      3  C4  UNL d   1       2.734   5.419  -3.559  0.00  0.00     0.002 A 
ATOM      4  C5  UNL d   1       3.682   4.725  -4.309  0.00  0.00    -0.004 A 
ATOM      5  C6  UNL d   1       3.919   3.375  -4.054  0.00  0.00     0.002 A 
ATOM      6  C7  UNL d   1       3.204   2.717  -3.052  0.00  0.00     0.002 A 
ENDROOT
BRANCH   1   7
ATOM      7  C1  UNL d   1       1.439   2.682  -1.248  0.00  0.00     0.055 C 
ATOM      8  C   UNL d   1       1.999   2.922   0.146  0.00  0.00     0.019 C 
ENDBRANCH   1   7
TORSDOF 1
ENDMDL
