MODEL 1
REMARK minimizedAffinity 3.51770329
REMARK minimizedRMSD -1
REMARK  1 active torsions:
REMARK  status: ('A' for Active; 'I' for Inactive)
REMARK    1  A    between atoms: C1_2  and  C2_3 
ROOT
ATOM      1  C2  UNL d   1       0.764   0.985   3.492  0.00  0.00    -0.077 A 
ATOM      2  C3  UNL d   1       0.167   2.228   3.748  0.00  0.00     0.002 A 
ATOM      3  C4  UNL d   1       0.665   3.387   3.151  0.00  0.00     0.002 A 
ATOM      4  C5  UNL d   1       1.759   3.315   2.290  0.00  0.00    -0.004 A 
ATOM      5  C6  UNL d   1       2.361   2.084   2.031  0.00  0.00     0.002 A 
ATOM      6  C7  UNL d   1       1.865   0.925   2.628  0.00  0.00     0.002 A 
ENDROOT
BRANCH   1   7
ATOM      7  C1  UNL d   1       0.198  -0.273   4.097  0.00  0.00     0.055 C 
ATOM      8  C   UNL d   1      -1.282  -0.117   4.415  0.00  0.00     0.019 C 
ENDBRANCH   1   7
TORSDOF 1
ENDMDL
