MODEL 1
REMARK minimizedAffinity 9.1275816
REMARK minimizedRMSD -1
REMARK  1 active torsions:
REMARK  status: ('A' for Active; 'I' for Inactive)
REMARK    1  A    between atoms: C1_2  and  C2_3 
ROOT
ATOM      1  C2  UNL d   1       2.460   4.127  -3.097  0.00  0.00    -0.077 A 
ATOM      2  C3  UNL d   1       1.426   4.576  -3.931  0.00  0.00     0.002 A 
ATOM      3  C4  UNL d   1       1.668   4.824  -5.283  0.00  0.00     0.002 A 
ATOM      4  C5  UNL d   1       2.941   4.624  -5.814  0.00  0.00    -0.004 A 
ATOM      5  C6  UNL d   1       3.976   4.180  -4.992  0.00  0.00     0.002 A 
ATOM      6  C7  UNL d   1       3.736   3.932  -3.639  0.00  0.00     0.002 A 
ENDROOT
BRANCH   1   7
ATOM      7  C1  UNL d   1       2.189   3.811  -1.649  0.00  0.00     0.055 C 
ATOM      8  C   UNL d   1       1.855   2.339  -1.457  0.00  0.00     0.019 C 
ENDBRANCH   1   7
TORSDOF 1
ENDMDL
