MODEL 1
REMARK minimizedAffinity 8.98491287
REMARK minimizedRMSD -1
REMARK  1 active torsions:
REMARK  status: ('A' for Active; 'I' for Inactive)
REMARK    1  A    between atoms: C1_2  and  C2_3 
ROOT
ATOM      1  C2  UNL d   1       1.504   1.748  -2.035  0.00  0.00    -0.077 A 
ATOM      2  C3  UNL d   1       0.374   1.124  -1.489  0.00  0.00     0.002 A 
ATOM      3  C4  UNL d   1       0.053  -0.189  -1.841  0.00  0.00     0.002 A 
ATOM      4  C5  UNL d   1       0.860  -0.889  -2.736  0.00  0.00    -0.004 A 
ATOM      5  C6  UNL d   1       1.985  -0.276  -3.286  0.00  0.00     0.002 A 
ATOM      6  C7  UNL d   1       2.306   1.037  -2.936  0.00  0.00     0.002 A 
ENDROOT
BRANCH   1   7
ATOM      7  C1  UNL d   1       1.879   3.147  -1.619  0.00  0.00     0.055 C 
ATOM      8  C   UNL d   1       2.396   3.956  -2.800  0.00  0.00     0.019 C 
ENDBRANCH   1   7
TORSDOF 1
ENDMDL
