MODEL 1
REMARK minimizedAffinity 10.0509605
REMARK minimizedRMSD -1
REMARK  1 active torsions:
REMARK  status: ('A' for Active; 'I' for Inactive)
REMARK    1  A    between atoms: C1_2  and  C2_3 
ROOT
ATOM      1  C2  UNL d   1       3.376   2.941  -5.537  0.00  0.00    -0.077 A 
ATOM      2  C3  UNL d   1       2.155   3.465  -5.986  0.00  0.00     0.002 A 
ATOM      3  C4  UNL d   1       1.762   4.754  -5.620  0.00  0.00     0.002 A 
ATOM      4  C5  UNL d   1       2.585   5.530  -4.806  0.00  0.00    -0.004 A 
ATOM      5  C6  UNL d   1       3.800   5.017  -4.353  0.00  0.00     0.002 A 
ATOM      6  C7  UNL d   1       4.194   3.729  -4.717  0.00  0.00     0.002 A 
ENDROOT
BRANCH   1   7
ATOM      7  C1  UNL d   1       3.824   1.571  -5.972  0.00  0.00     0.055 C 
ATOM      8  C   UNL d   1       5.342   1.465  -5.990  0.00  0.00     0.019 C 
ENDBRANCH   1   7
TORSDOF 1
ENDMDL
