MODEL 1
REMARK minimizedAffinity -0.793802857
REMARK minimizedRMSD -1
REMARK  3 active torsions:
REMARK  status: ('A' for Active; 'I' for Inactive)
REMARK    1  A    between atoms: C3'_2  and  C2'_3 
REMARK    2  A    between atoms: C2'_3  and  C1'_4 
REMARK    3  A    between atoms: C1'_4  and  C1_5 
ROOT
ATOM      1  C1  N4B d   1       2.338  -1.142   0.644  0.00  0.00    -0.075 A 
ATOM      2  C2  N4B d   1       1.299  -1.832   1.306  0.00  0.00     0.002 A 
ATOM      3  C3  N4B d   1       0.457  -2.651   0.595  0.00  0.00     0.002 A 
ATOM      4  C4  N4B d   1       0.623  -2.782  -0.775  0.00  0.00    -0.004 A 
ATOM      5  C5  N4B d   1       1.645  -2.132  -1.403  0.00  0.00     0.002 A 
ATOM      6  C6  N4B d   1       2.501  -1.308  -0.700  0.00  0.00     0.002 A 
ENDROOT
BRANCH   1   7
ATOM      7  C1' N4B d   1       3.230  -0.168   1.365  0.00  0.00     0.057 C 
BRANCH   7   8
ATOM      8  C2' N4B d   1       2.397   1.020   1.836  0.00  0.00     0.009 C 
BRANCH   8   9
ATOM      9  C3' N4B d   1       1.581   1.625   0.706  0.00  0.00     0.004 C 
ATOM     10  C4' N4B d   1       0.108   1.393   0.864  0.00  0.00     0.003 C 
ENDBRANCH   8   9
ENDBRANCH   7   8
ENDBRANCH   1   7
TORSDOF 3
ENDMDL
