MODEL 1
REMARK minimizedAffinity -5.6003809
REMARK minimizedRMSD -1
REMARK  3 active torsions:
REMARK  status: ('A' for Active; 'I' for Inactive)
REMARK    1  A    between atoms: C3'_2  and  C2'_3 
REMARK    2  A    between atoms: C2'_3  and  C1'_4 
REMARK    3  A    between atoms: C1'_4  and  C1_5 
ROOT
ATOM      1  C1  N4B d   1      -0.014  -0.445   0.323  0.00  0.00    -0.075 A 
ATOM      2  C2  N4B d   1       1.049  -1.370   0.221  0.00  0.00     0.002 A 
ATOM      3  C3  N4B d   1       2.336  -0.968   0.478  0.00  0.00     0.002 A 
ATOM      4  C4  N4B d   1       2.587   0.353   0.818  0.00  0.00    -0.004 A 
ATOM      5  C5  N4B d   1       1.553   1.234   0.939  0.00  0.00     0.002 A 
ATOM      6  C6  N4B d   1       0.253   0.843   0.688  0.00  0.00     0.002 A 
ENDROOT
BRANCH   1   7
ATOM      7  C1' N4B d   1      -1.427  -0.817  -0.032  0.00  0.00     0.057 C 
BRANCH   7   8
ATOM      8  C2' N4B d   1      -1.887   0.032  -1.214  0.00  0.00     0.009 C 
BRANCH   8   9
ATOM      9  C3' N4B d   1      -2.242  -0.820  -2.421  0.00  0.00     0.004 C 
ATOM     10  C4' N4B d   1      -3.068  -0.080  -3.430  0.00  0.00     0.003 C 
ENDBRANCH   8   9
ENDBRANCH   7   8
ENDBRANCH   1   7
TORSDOF 3
ENDMDL
