MODEL 1
REMARK minimizedAffinity -5.4294343
REMARK minimizedRMSD -1
REMARK  3 active torsions:
REMARK  status: ('A' for Active; 'I' for Inactive)
REMARK    1  A    between atoms: C3'_2  and  C2'_3 
REMARK    2  A    between atoms: C2'_3  and  C1'_4 
REMARK    3  A    between atoms: C1'_4  and  C1_5 
ROOT
ATOM      1  C1  N4B d   1       0.121  -0.203   0.622  0.00  0.00    -0.075 A 
ATOM      2  C2  N4B d   1       1.158   0.722   0.372  0.00  0.00     0.002 A 
ATOM      3  C3  N4B d   1       2.397   0.534   0.934  0.00  0.00     0.002 A 
ATOM      4  C4  N4B d   1       2.616  -0.557   1.763  0.00  0.00    -0.004 A 
ATOM      5  C5  N4B d   1       1.616  -1.460   1.979  0.00  0.00     0.002 A 
ATOM      6  C6  N4B d   1       0.367  -1.285   1.417  0.00  0.00     0.002 A 
ENDROOT
BRANCH   1   7
ATOM      7  C1' N4B d   1      -1.273   0.006   0.099  0.00  0.00     0.057 C 
BRANCH   7   8
ATOM      8  C2' N4B d   1      -1.306  -0.332  -1.388  0.00  0.00     0.009 C 
BRANCH   8   9
ATOM      9  C3' N4B d   1      -2.572   0.174  -2.059  0.00  0.00     0.004 C 
ATOM     10  C4' N4B d   1      -2.572  -0.047  -3.542  0.00  0.00     0.003 C 
ENDBRANCH   8   9
ENDBRANCH   7   8
ENDBRANCH   1   7
TORSDOF 3
ENDMDL
