MODEL 1
REMARK minimizedAffinity 10.4586906
REMARK minimizedRMSD -1
REMARK  0 active torsions:
REMARK  status: ('A' for Active; 'I' for Inactive)
ROOT
ATOM      1  C   UNL d   1      -1.954   2.558  -4.809  0.00  0.00     0.078 C 
ATOM      2  C1  UNL d   1      -3.179   3.319  -5.217  0.00  0.00    -0.077 A 
ATOM      3  C2  UNL d   1      -4.376   2.655  -5.514  0.00  0.00    -0.001 A 
ATOM      4  C3  UNL d   1      -5.506   3.376  -5.902  0.00  0.00     0.003 A 
ATOM      5  C4  UNL d   1      -5.451   4.765  -5.998  0.00  0.00    -0.005 A 
ATOM      6  C5  UNL d   1      -4.264   5.435  -5.707  0.00  0.00     0.003 A 
ATOM      7  C6  UNL d   1      -3.133   4.715  -5.319  0.00  0.00    -0.001 A 
ENDROOT
TORSDOF 0
ENDMDL
