MODEL 1
REMARK minimizedAffinity 9.48929119
REMARK minimizedRMSD -1
REMARK  0 active torsions:
REMARK  status: ('A' for Active; 'I' for Inactive)
ROOT
ATOM      1  C   UNL d   1      -0.020  -4.146  -2.384  0.00  0.00     0.078 C 
ATOM      2  C1  UNL d   1       1.005  -3.195  -1.843  0.00  0.00    -0.077 A 
ATOM      3  C2  UNL d   1       2.160  -3.665  -1.206  0.00  0.00    -0.001 A 
ATOM      4  C3  UNL d   1       3.101  -2.768  -0.698  0.00  0.00     0.003 A 
ATOM      5  C4  UNL d   1       2.896  -1.395  -0.821  0.00  0.00    -0.005 A 
ATOM      6  C5  UNL d   1       1.749  -0.918  -1.450  0.00  0.00     0.003 A 
ATOM      7  C6  UNL d   1       0.807  -1.813  -1.959  0.00  0.00    -0.001 A 
ENDROOT
TORSDOF 0
ENDMDL
