MODEL 1
REMARK minimizedAffinity 9.44676399
REMARK minimizedRMSD -1
REMARK  0 active torsions:
REMARK  status: ('A' for Active; 'I' for Inactive)
ROOT
ATOM      1  C   UNL d   1       5.993  -4.874  -2.902  0.00  0.00     0.078 C 
ATOM      2  C1  UNL d   1       4.692  -4.878  -2.156  0.00  0.00    -0.077 A 
ATOM      3  C2  UNL d   1       3.854  -6.000  -2.174  0.00  0.00    -0.001 A 
ATOM      4  C3  UNL d   1       2.642  -5.986  -1.483  0.00  0.00     0.003 A 
ATOM      5  C4  UNL d   1       2.256  -4.853  -0.770  0.00  0.00    -0.005 A 
ATOM      6  C5  UNL d   1       3.082  -3.731  -0.748  0.00  0.00     0.003 A 
ATOM      7  C6  UNL d   1       4.295  -3.743  -1.438  0.00  0.00    -0.001 A 
ENDROOT
TORSDOF 0
ENDMDL
