MODEL 1
REMARK minimizedAffinity 6.92919064
REMARK minimizedRMSD -1
REMARK  0 active torsions:
REMARK  status: ('A' for Active; 'I' for Inactive)
ROOT
ATOM      1  C   UNL d   1       2.246   1.502   2.084  0.00  0.00     0.078 C 
ATOM      2  C1  UNL d   1       2.675   1.947   3.450  0.00  0.00    -0.077 A 
ATOM      3  C2  UNL d   1       2.721   1.047   4.521  0.00  0.00    -0.001 A 
ATOM      4  C3  UNL d   1       3.113   1.478   5.790  0.00  0.00     0.003 A 
ATOM      5  C4  UNL d   1       3.460   2.811   6.000  0.00  0.00    -0.005 A 
ATOM      6  C5  UNL d   1       3.415   3.715   4.940  0.00  0.00     0.003 A 
ATOM      7  C6  UNL d   1       3.024   3.286   3.671  0.00  0.00    -0.001 A 
ENDROOT
TORSDOF 0
ENDMDL
