MODEL 1
REMARK minimizedAffinity 7.06956768
REMARK minimizedRMSD -1
REMARK  0 active torsions:
REMARK  status: ('A' for Active; 'I' for Inactive)
ROOT
ATOM      1  C   UNL d   1       4.353   4.315   1.913  0.00  0.00     0.078 C 
ATOM      2  C1  UNL d   1       3.765   2.973   1.591  0.00  0.00    -0.077 A 
ATOM      3  C2  UNL d   1       2.697   2.456   2.334  0.00  0.00    -0.001 A 
ATOM      4  C3  UNL d   1       2.166   1.202   2.028  0.00  0.00     0.003 A 
ATOM      5  C4  UNL d   1       2.698   0.454   0.980  0.00  0.00    -0.005 A 
ATOM      6  C5  UNL d   1       3.762   0.959   0.236  0.00  0.00     0.003 A 
ATOM      7  C6  UNL d   1       4.294   2.213   0.540  0.00  0.00    -0.001 A 
ENDROOT
TORSDOF 0
ENDMDL
