MODEL 1
REMARK minimizedAffinity 0.571752369
REMARK minimizedRMSD -1
REMARK  0 active torsions:
REMARK  status: ('A' for Active; 'I' for Inactive)
ROOT
ATOM      1  C   UNL d   1       2.879   3.018   5.894  0.00  0.00     0.078 C 
ATOM      2  C1  UNL d   1       2.478   2.255   4.667  0.00  0.00    -0.077 A 
ATOM      3  C2  UNL d   1       2.710   2.774   3.387  0.00  0.00    -0.001 A 
ATOM      4  C3  UNL d   1       2.322   2.056   2.254  0.00  0.00     0.003 A 
ATOM      5  C4  UNL d   1       1.700   0.817   2.390  0.00  0.00    -0.005 A 
ATOM      6  C5  UNL d   1       1.464   0.293   3.659  0.00  0.00     0.003 A 
ATOM      7  C6  UNL d   1       1.851   1.009   4.793  0.00  0.00    -0.001 A 
ENDROOT
TORSDOF 0
ENDMDL
