MODEL 1
REMARK minimizedAffinity 0.27952677
REMARK minimizedRMSD -1
REMARK  0 active torsions:
REMARK  status: ('A' for Active; 'I' for Inactive)
ROOT
ATOM      1  C   UNL d   1      -0.244  -2.639  -1.793  0.00  0.00     0.078 C 
ATOM      2  C1  UNL d   1       0.795  -1.571  -1.628  0.00  0.00    -0.077 A 
ATOM      3  C2  UNL d   1       0.869  -0.492  -2.517  0.00  0.00    -0.001 A 
ATOM      4  C3  UNL d   1       1.848   0.489  -2.357  0.00  0.00     0.003 A 
ATOM      5  C4  UNL d   1       2.762   0.402  -1.309  0.00  0.00    -0.005 A 
ATOM      6  C5  UNL d   1       2.698  -0.669  -0.420  0.00  0.00     0.003 A 
ATOM      7  C6  UNL d   1       1.720  -1.652  -0.579  0.00  0.00    -0.001 A 
ENDROOT
TORSDOF 0
ENDMDL
