MODEL 1
REMARK minimizedAffinity 10.205224
REMARK minimizedRMSD -1
REMARK  0 active torsions:
REMARK  status: ('A' for Active; 'I' for Inactive)
ROOT
ATOM      1  C   UNL d   1       0.667  -1.609  -1.147  0.00  0.00     0.078 C 
ATOM      2  C1  UNL d   1       1.807  -0.647  -0.988  0.00  0.00    -0.077 A 
ATOM      3  C2  UNL d   1       2.937  -0.987  -0.234  0.00  0.00    -0.001 A 
ATOM      4  C3  UNL d   1       3.987  -0.079  -0.086  0.00  0.00     0.003 A 
ATOM      5  C4  UNL d   1       3.916   1.176  -0.688  0.00  0.00    -0.005 A 
ATOM      6  C5  UNL d   1       2.795   1.524  -1.439  0.00  0.00     0.003 A 
ATOM      7  C6  UNL d   1       1.745   0.617  -1.587  0.00  0.00    -0.001 A 
ENDROOT
TORSDOF 0
ENDMDL
