MODEL 1
REMARK minimizedAffinity 5.57956696
REMARK minimizedRMSD -1
REMARK  0 active torsions:
REMARK  status: ('A' for Active; 'I' for Inactive)
ROOT
ATOM      1  C   UNL d   1      -0.144  -3.773  -2.535  0.00  0.00     0.078 C 
ATOM      2  C1  UNL d   1       0.691  -2.557  -2.269  0.00  0.00    -0.077 A 
ATOM      3  C2  UNL d   1       1.549  -2.498  -1.163  0.00  0.00    -0.001 A 
ATOM      4  C3  UNL d   1       2.313  -1.355  -0.922  0.00  0.00     0.003 A 
ATOM      5  C4  UNL d   1       2.226  -0.262  -1.781  0.00  0.00    -0.005 A 
ATOM      6  C5  UNL d   1       1.374  -0.310  -2.883  0.00  0.00     0.003 A 
ATOM      7  C6  UNL d   1       0.609  -1.452  -3.125  0.00  0.00    -0.001 A 
ENDROOT
TORSDOF 0
ENDMDL
