MODEL 1
REMARK minimizedAffinity 13.0029669
REMARK minimizedRMSD -1
REMARK  0 active torsions:
REMARK  status: ('A' for Active; 'I' for Inactive)
ROOT
ATOM      1  C   UNL d   1       0.674   0.723   2.304  0.00  0.00     0.078 C 
ATOM      2  C1  UNL d   1       1.758   1.238   1.405  0.00  0.00    -0.077 A 
ATOM      3  C2  UNL d   1       2.359   2.481   1.639  0.00  0.00    -0.001 A 
ATOM      4  C3  UNL d   1       3.360   2.953   0.788  0.00  0.00     0.003 A 
ATOM      5  C4  UNL d   1       3.768   2.189  -0.304  0.00  0.00    -0.005 A 
ATOM      6  C5  UNL d   1       3.173   0.952  -0.546  0.00  0.00     0.003 A 
ATOM      7  C6  UNL d   1       2.172   0.479   0.303  0.00  0.00    -0.001 A 
ENDROOT
TORSDOF 0
ENDMDL
