MODEL 1
REMARK minimizedAffinity 9.0610342
REMARK minimizedRMSD -1
REMARK  0 active torsions:
REMARK  status: ('A' for Active; 'I' for Inactive)
ROOT
ATOM      1  C   UNL d   1       4.133   0.996  -0.716  0.00  0.00     0.078 C 
ATOM      2  C1  UNL d   1       2.919   0.798  -1.573  0.00  0.00    -0.077 A 
ATOM      3  C2  UNL d   1       2.480  -0.487  -1.916  0.00  0.00    -0.001 A 
ATOM      4  C3  UNL d   1       1.354  -0.656  -2.723  0.00  0.00     0.003 A 
ATOM      5  C4  UNL d   1       0.658   0.455  -3.196  0.00  0.00    -0.005 A 
ATOM      6  C5  UNL d   1       1.089   1.737  -2.863  0.00  0.00     0.003 A 
ATOM      7  C6  UNL d   1       2.215   1.909  -2.055  0.00  0.00    -0.001 A 
ENDROOT
TORSDOF 0
ENDMDL
