MODEL 1
REMARK minimizedAffinity 9.94018841
REMARK minimizedRMSD -1
REMARK  0 active torsions:
REMARK  status: ('A' for Active; 'I' for Inactive)
ROOT
ATOM      1  C   UNL d   1       1.241   3.310  -2.611  0.00  0.00     0.078 C 
ATOM      2  C1  UNL d   1       1.543   1.896  -2.215  0.00  0.00    -0.077 A 
ATOM      3  C2  UNL d   1       1.008   0.817  -2.931  0.00  0.00    -0.001 A 
ATOM      4  C3  UNL d   1       1.289  -0.494  -2.546  0.00  0.00     0.003 A 
ATOM      5  C4  UNL d   1       2.104  -0.740  -1.443  0.00  0.00    -0.005 A 
ATOM      6  C5  UNL d   1       2.639   0.326  -0.723  0.00  0.00     0.003 A 
ATOM      7  C6  UNL d   1       2.359   1.639  -1.107  0.00  0.00    -0.001 A 
ENDROOT
TORSDOF 0
ENDMDL
