MODEL 1
REMARK minimizedAffinity 3.46630239
REMARK minimizedRMSD -1
REMARK  0 active torsions:
REMARK  status: ('A' for Active; 'I' for Inactive)
ROOT
ATOM      1  C   UNL d   1      -0.953  -4.062  -1.854  0.00  0.00     0.078 C 
ATOM      2  C1  UNL d   1       0.061  -2.974  -1.663  0.00  0.00    -0.077 A 
ATOM      3  C2  UNL d   1       0.883  -2.945  -0.530  0.00  0.00    -0.001 A 
ATOM      4  C3  UNL d   1       1.816  -1.921  -0.361  0.00  0.00     0.003 A 
ATOM      5  C4  UNL d   1       1.935  -0.917  -1.320  0.00  0.00    -0.005 A 
ATOM      6  C5  UNL d   1       1.119  -0.936  -2.450  0.00  0.00     0.003 A 
ATOM      7  C6  UNL d   1       0.186  -1.960  -2.621  0.00  0.00    -0.001 A 
ENDROOT
TORSDOF 0
ENDMDL
