MODEL 1
REMARK minimizedAffinity 5.30512047
REMARK minimizedRMSD -1
REMARK  0 active torsions:
REMARK  status: ('A' for Active; 'I' for Inactive)
ROOT
ATOM      1  C   UNL d   1       2.985   4.482   2.137  0.00  0.00     0.078 C 
ATOM      2  C1  UNL d   1       2.765   3.040   1.790  0.00  0.00    -0.077 A 
ATOM      3  C2  UNL d   1       1.637   2.351   2.252  0.00  0.00    -0.001 A 
ATOM      4  C3  UNL d   1       1.450   1.007   1.929  0.00  0.00     0.003 A 
ATOM      5  C4  UNL d   1       2.387   0.339   1.144  0.00  0.00    -0.005 A 
ATOM      6  C5  UNL d   1       3.514   1.015   0.681  0.00  0.00     0.003 A 
ATOM      7  C6  UNL d   1       3.703   2.360   1.003  0.00  0.00    -0.001 A 
ENDROOT
TORSDOF 0
ENDMDL
