MODEL 1
REMARK minimizedAffinity 0.18806611
REMARK minimizedRMSD -1
REMARK  0 active torsions:
REMARK  status: ('A' for Active; 'I' for Inactive)
ROOT
ATOM      1  C   UNL d   1      -1.432  -5.927  -4.085  0.00  0.00     0.078 C 
ATOM      2  C1  UNL d   1      -1.457  -4.556  -3.478  0.00  0.00    -0.077 A 
ATOM      3  C2  UNL d   1      -0.432  -4.127  -2.625  0.00  0.00    -0.001 A 
ATOM      4  C3  UNL d   1      -0.473  -2.852  -2.059  0.00  0.00     0.003 A 
ATOM      5  C4  UNL d   1      -1.536  -1.996  -2.339  0.00  0.00    -0.005 A 
ATOM      6  C5  UNL d   1      -2.561  -2.415  -3.185  0.00  0.00     0.003 A 
ATOM      7  C6  UNL d   1      -2.522  -3.689  -3.752  0.00  0.00    -0.001 A 
ENDROOT
TORSDOF 0
ENDMDL
