MODEL 1
REMARK minimizedAffinity 1.55600607
REMARK minimizedRMSD -1
REMARK  0 active torsions:
REMARK  status: ('A' for Active; 'I' for Inactive)
ROOT
ATOM      1  C   UNL d   1      -1.049  -3.791  -2.168  0.00  0.00     0.078 C 
ATOM      2  C1  UNL d   1       0.131  -2.871  -2.058  0.00  0.00    -0.077 A 
ATOM      3  C2  UNL d   1       0.837  -2.744  -0.855  0.00  0.00    -0.001 A 
ATOM      4  C3  UNL d   1       1.926  -1.877  -0.765  0.00  0.00     0.003 A 
ATOM      5  C4  UNL d   1       2.320  -1.129  -1.873  0.00  0.00    -0.005 A 
ATOM      6  C5  UNL d   1       1.622  -1.247  -3.073  0.00  0.00     0.003 A 
ATOM      7  C6  UNL d   1       0.532  -2.114  -3.166  0.00  0.00    -0.001 A 
ENDROOT
TORSDOF 0
ENDMDL
