MODEL 1
REMARK minimizedAffinity 14.312458
REMARK minimizedRMSD -1
REMARK  0 active torsions:
REMARK  status: ('A' for Active; 'I' for Inactive)
ROOT
ATOM      1  C   UNL d   1       3.718   1.269  -0.295  0.00  0.00     0.078 C 
ATOM      2  C1  UNL d   1       2.737   1.159  -1.424  0.00  0.00    -0.077 A 
ATOM      3  C2  UNL d   1       2.271  -0.089  -1.855  0.00  0.00    -0.001 A 
ATOM      4  C3  UNL d   1       1.365  -0.177  -2.913  0.00  0.00     0.003 A 
ATOM      5  C4  UNL d   1       0.919   0.979  -3.550  0.00  0.00    -0.005 A 
ATOM      6  C5  UNL d   1       1.380   2.225  -3.130  0.00  0.00     0.003 A 
ATOM      7  C6  UNL d   1       2.285   2.315  -2.072  0.00  0.00    -0.001 A 
ENDROOT
TORSDOF 0
ENDMDL
