MODEL 1
REMARK minimizedAffinity -5.11898947
REMARK minimizedRMSD -1
REMARK  2 active torsions:
REMARK  status: ('A' for Active; 'I' for Inactive)
REMARK    1  A    between atoms: C2'_3  and  C1'_4 
REMARK    2  A    between atoms: C1'_4  and  C1_5 
ROOT
ATOM      1  C1  I4B d   1      -0.409   0.901   0.289  0.00  0.00    -0.075 A 
ATOM      2  C2  I4B d   1      -0.630   1.933  -0.589  0.00  0.00     0.003 A 
ATOM      3  C3  I4B d   1      -0.605   3.274  -0.134  0.00  0.00     0.002 A 
ATOM      4  C4  I4B d   1      -0.407   3.533   1.207  0.00  0.00    -0.004 A 
ATOM      5  C5  I4B d   1      -0.161   2.487   2.091  0.00  0.00     0.002 A 
ATOM      6  C6  I4B d   1      -0.149   1.163   1.627  0.00  0.00     0.003 A 
ENDROOT
BRANCH   1   7
ATOM      7  C1' I4B d   1      -0.474  -0.504  -0.220  0.00  0.00     0.060 C 
BRANCH   7   8
ATOM      8  C2' I4B d   1       0.940  -0.961  -0.513  0.00  0.00    -0.013 C 
ATOM      9  C4' I4B d   1       0.980  -2.428  -0.850  0.00  0.00     0.013 C 
ATOM     10  C3' I4B d   1       1.470  -0.131  -1.643  0.00  0.00     0.013 C 
ENDBRANCH   7   8
ENDBRANCH   1   7
TORSDOF 2
ENDMDL
