MODEL 1
REMARK minimizedAffinity -4.49398756
REMARK minimizedRMSD -1
REMARK  2 active torsions:
REMARK  status: ('A' for Active; 'I' for Inactive)
REMARK    1  A    between atoms: C2'_3  and  C1'_4 
REMARK    2  A    between atoms: C1'_4  and  C1_5 
ROOT
ATOM      1  C1  I4B d   1      -0.815   1.197  -0.040  0.00  0.00    -0.075 A 
ATOM      2  C2  I4B d   1       0.051   0.176  -0.342  0.00  0.00     0.003 A 
ATOM      3  C3  I4B d   1       0.768   0.188  -1.563  0.00  0.00     0.002 A 
ATOM      4  C4  I4B d   1       0.552   1.207  -2.468  0.00  0.00    -0.004 A 
ATOM      5  C5  I4B d   1      -0.310   2.253  -2.150  0.00  0.00     0.002 A 
ATOM      6  C6  I4B d   1      -0.988   2.254  -0.923  0.00  0.00     0.003 A 
ENDROOT
BRANCH   1   7
ATOM      7  C1' I4B d   1      -1.581   1.135   1.244  0.00  0.00     0.060 C 
BRANCH   7   8
ATOM      8  C2' I4B d   1      -1.001   2.174   2.183  0.00  0.00    -0.013 C 
ATOM      9  C4' I4B d   1       0.480   1.976   2.368  0.00  0.00     0.013 C 
ATOM     10  C3' I4B d   1      -1.300   3.529   1.615  0.00  0.00     0.013 C 
ENDBRANCH   7   8
ENDBRANCH   1   7
TORSDOF 2
ENDMDL
