MODEL 1
REMARK minimizedAffinity -3.60251451
REMARK minimizedRMSD -1
REMARK  2 active torsions:
REMARK  status: ('A' for Active; 'I' for Inactive)
REMARK    1  A    between atoms: C2'_3  and  C1'_4 
REMARK    2  A    between atoms: C1'_4  and  C1_5 
ROOT
ATOM      1  C1  I4B d   1       0.779  -1.347  -0.604  0.00  0.00    -0.075 A 
ATOM      2  C2  I4B d   1       0.422  -0.498  -1.622  0.00  0.00     0.003 A 
ATOM      3  C3  I4B d   1      -0.088   0.790  -1.330  0.00  0.00     0.002 A 
ATOM      4  C4  I4B d   1      -0.270   1.167  -0.015  0.00  0.00    -0.004 A 
ATOM      5  C5  I4B d   1       0.114   0.314   1.015  0.00  0.00     0.002 A 
ATOM      6  C6  I4B d   1       0.654  -0.946   0.720  0.00  0.00     0.003 A 
ENDROOT
BRANCH   1   7
ATOM      7  C1' I4B d   1       1.283  -2.713  -0.948  0.00  0.00     0.060 C 
BRANCH   7   8
ATOM      8  C2' I4B d   1       0.296  -3.725  -0.405  0.00  0.00    -0.013 C 
ATOM      9  C4' I4B d   1      -0.682  -4.156  -1.467  0.00  0.00     0.013 C 
ATOM     10  C3' I4B d   1       1.073  -4.894   0.122  0.00  0.00     0.013 C 
ENDBRANCH   7   8
ENDBRANCH   1   7
TORSDOF 2
ENDMDL
