MODEL 1
REMARK minimizedAffinity -3.54517436
REMARK minimizedRMSD -1
REMARK  2 active torsions:
REMARK  status: ('A' for Active; 'I' for Inactive)
REMARK    1  A    between atoms: C2'_3  and  C1'_4 
REMARK    2  A    between atoms: C1'_4  and  C1_5 
ROOT
ATOM      1  C1  I4B d   1       0.287   0.294  -0.307  0.00  0.00    -0.075 A 
ATOM      2  C2  I4B d   1       0.455   0.239   1.054  0.00  0.00     0.003 A 
ATOM      3  C3  I4B d   1      -0.031   1.285   1.876  0.00  0.00     0.002 A 
ATOM      4  C4  I4B d   1      -0.630   2.383   1.294  0.00  0.00    -0.004 A 
ATOM      5  C5  I4B d   1      -0.820   2.427  -0.084  0.00  0.00     0.002 A 
ATOM      6  C6  I4B d   1      -0.370   1.370  -0.889  0.00  0.00     0.003 A 
ENDROOT
BRANCH   1   7
ATOM      7  C1' I4B d   1       0.841  -0.812  -1.147  0.00  0.00     0.060 C 
BRANCH   7   8
ATOM      8  C2' I4B d   1       0.026  -2.059  -0.875  0.00  0.00    -0.013 C 
ATOM      9  C4' I4B d   1      -1.156  -2.152  -1.804  0.00  0.00     0.013 C 
ATOM     10  C3' I4B d   1       0.930  -3.246  -1.028  0.00  0.00     0.013 C 
ENDBRANCH   7   8
ENDBRANCH   1   7
TORSDOF 2
ENDMDL
