MODEL 1
REMARK minimizedAffinity -2.89303994
REMARK minimizedRMSD -1
REMARK  2 active torsions:
REMARK  status: ('A' for Active; 'I' for Inactive)
REMARK    1  A    between atoms: C2'_3  and  C1'_4 
REMARK    2  A    between atoms: C1'_4  and  C1_5 
ROOT
ATOM      1  C1  I4B d   1       0.271  -0.595  -0.540  0.00  0.00    -0.075 A 
ATOM      2  C2  I4B d   1       0.617   0.352  -1.472  0.00  0.00     0.003 A 
ATOM      3  C3  I4B d   1       0.095   1.665  -1.384  0.00  0.00     0.002 A 
ATOM      4  C4  I4B d   1      -0.805   1.972  -0.383  0.00  0.00    -0.004 A 
ATOM      5  C5  I4B d   1      -1.137   1.018   0.574  0.00  0.00     0.002 A 
ATOM      6  C6  I4B d   1      -0.587  -0.270   0.503  0.00  0.00     0.003 A 
ENDROOT
BRANCH   1   7
ATOM      7  C1' I4B d   1       0.815  -1.980  -0.683  0.00  0.00     0.060 C 
BRANCH   7   8
ATOM      8  C2' I4B d   1      -0.357  -2.934  -0.793  0.00  0.00    -0.013 C 
ATOM      9  C4' I4B d   1      -0.934  -2.930  -2.184  0.00  0.00     0.013 C 
ATOM     10  C3' I4B d   1       0.122  -4.302  -0.409  0.00  0.00     0.013 C 
ENDBRANCH   7   8
ENDBRANCH   1   7
TORSDOF 2
ENDMDL
