MODEL 1
REMARK minimizedAffinity -2.86090851
REMARK minimizedRMSD -1
REMARK  2 active torsions:
REMARK  status: ('A' for Active; 'I' for Inactive)
REMARK    1  A    between atoms: C2'_3  and  C1'_4 
REMARK    2  A    between atoms: C1'_4  and  C1_5 
ROOT
ATOM      1  C1  I4B d   1       0.487  -0.674  -0.582  0.00  0.00    -0.075 A 
ATOM      2  C2  I4B d   1       0.022  -0.549   0.704  0.00  0.00     0.003 A 
ATOM      3  C3  I4B d   1      -0.344   0.722   1.210  0.00  0.00     0.002 A 
ATOM      4  C4  I4B d   1      -0.182   1.840   0.418  0.00  0.00    -0.004 A 
ATOM      5  C5  I4B d   1       0.268   1.709  -0.892  0.00  0.00     0.002 A 
ATOM      6  C6  I4B d   1       0.593   0.443  -1.400  0.00  0.00     0.003 A 
ENDROOT
BRANCH   1   7
ATOM      7  C1' I4B d   1       0.895  -2.027  -1.073  0.00  0.00     0.060 C 
BRANCH   7   8
ATOM      8  C2' I4B d   1      -0.286  -2.961  -0.903  0.00  0.00    -0.013 C 
ATOM      9  C4' I4B d   1      -0.810  -3.425  -2.237  0.00  0.00     0.013 C 
ATOM     10  C3' I4B d   1       0.157  -4.120  -0.062  0.00  0.00     0.013 C 
ENDBRANCH   7   8
ENDBRANCH   1   7
TORSDOF 2
ENDMDL
