MODEL 1
REMARK minimizedAffinity -1.56905973
REMARK minimizedRMSD -1
REMARK  0 active torsions:
REMARK  status: ('A' for Active; 'I' for Inactive)
ROOT
ATOM      1  C   UNL d   1       2.116   0.147   1.152  0.00  0.00     0.020 A 
ATOM      2  C1  UNL d   1       1.015   0.400   0.334  0.00  0.00     0.020 A 
ATOM      3  C2  UNL d   1       0.959   1.576  -0.417  0.00  0.00     0.034 A 
ATOM      4  C3  UNL d   1       2.006   2.504  -0.353  0.00  0.00     0.017 A 
ATOM      5  C4  UNL d   1       3.110   2.249   0.468  0.00  0.00     0.017 A 
ATOM      6  C5  UNL d   1       3.161   1.070   1.218  0.00  0.00     0.034 A 
ATOM      7 Cl   UNL d   1       4.440   3.345   0.600  0.00  0.00    -0.070 Cl
ATOM      8 Cl1  UNL d   1       1.870   3.936  -1.309  0.00  0.00    -0.070 Cl
ENDROOT
TORSDOF 0
ENDMDL
