MODEL 1
REMARK minimizedAffinity -0.491974741
REMARK minimizedRMSD -1
REMARK  0 active torsions:
REMARK  status: ('A' for Active; 'I' for Inactive)
ROOT
ATOM      1  C   UNL d   1      -1.625   0.562  -1.443  0.00  0.00     0.020 A 
ATOM      2  C1  UNL d   1      -2.649  -0.060  -0.730  0.00  0.00     0.020 A 
ATOM      3  C2  UNL d   1      -2.380  -0.655   0.504  0.00  0.00     0.034 A 
ATOM      4  C3  UNL d   1      -1.082  -0.631   1.029  0.00  0.00     0.017 A 
ATOM      5  C4  UNL d   1      -0.055  -0.006   0.313  0.00  0.00     0.017 A 
ATOM      6  C5  UNL d   1      -0.331   0.589  -0.922  0.00  0.00     0.034 A 
ATOM      7 Cl   UNL d   1       1.571   0.065   0.896  0.00  0.00    -0.070 Cl
ATOM      8 Cl1  UNL d   1      -0.821  -1.387   2.560  0.00  0.00    -0.070 Cl
ENDROOT
TORSDOF 0
ENDMDL
