MODEL 1
REMARK minimizedAffinity -3.13726854
REMARK minimizedRMSD -1
REMARK  0 active torsions:
REMARK  status: ('A' for Active; 'I' for Inactive)
ROOT
ATOM      1  C   UNL d   1       0.181  -0.875   3.132  0.00  0.00     0.020 A 
ATOM      2  C1  UNL d   1      -1.034  -1.363   2.653  0.00  0.00     0.020 A 
ATOM      3  C2  UNL d   1      -1.503  -0.962   1.400  0.00  0.00     0.034 A 
ATOM      4  C3  UNL d   1      -0.756  -0.069   0.622  0.00  0.00     0.017 A 
ATOM      5  C4  UNL d   1       0.463   0.420   1.104  0.00  0.00     0.017 A 
ATOM      6  C5  UNL d   1       0.928   0.015   2.359  0.00  0.00     0.034 A 
ATOM      7 Cl   UNL d   1       1.441   1.524   0.202  0.00  0.00    -0.070 Cl
ATOM      8 Cl1  UNL d   1      -1.395   0.384  -0.918  0.00  0.00    -0.070 Cl
ENDROOT
TORSDOF 0
ENDMDL
