MODEL 1
REMARK minimizedAffinity -0.879113019
REMARK minimizedRMSD -1
REMARK  0 active torsions:
REMARK  status: ('A' for Active; 'I' for Inactive)
ROOT
ATOM      1  C   UNL d   1       3.229   4.253  -0.250  0.00  0.00     0.020 A 
ATOM      2  C1  UNL d   1       2.209   4.177  -1.197  0.00  0.00     0.020 A 
ATOM      3  C2  UNL d   1       1.394   3.044  -1.256  0.00  0.00     0.034 A 
ATOM      4  C3  UNL d   1       1.598   1.984  -0.366  0.00  0.00     0.017 A 
ATOM      5  C4  UNL d   1       2.622   2.061   0.585  0.00  0.00     0.017 A 
ATOM      6  C5  UNL d   1       3.435   3.198   0.639  0.00  0.00     0.034 A 
ATOM      7 Cl   UNL d   1       2.934   0.793   1.716  0.00  0.00    -0.070 Cl
ATOM      8 Cl1  UNL d   1       0.552   0.614  -0.496  0.00  0.00    -0.070 Cl
ENDROOT
TORSDOF 0
ENDMDL
