MODEL 1
REMARK minimizedAffinity -5.54980469
REMARK minimizedRMSD -1
REMARK  0 active torsions:
REMARK  status: ('A' for Active; 'I' for Inactive)
ROOT
ATOM      1  C   UNL d   1      -1.490  -0.753   1.637  0.00  0.00     0.020 A 
ATOM      2  C1  UNL d   1      -0.724  -1.229   2.700  0.00  0.00     0.020 A 
ATOM      3  C2  UNL d   1       0.643  -0.949   2.756  0.00  0.00     0.034 A 
ATOM      4  C3  UNL d   1       1.248  -0.193   1.746  0.00  0.00     0.017 A 
ATOM      5  C4  UNL d   1       0.479   0.284   0.678  0.00  0.00     0.017 A 
ATOM      6  C5  UNL d   1      -0.890   0.001   0.628  0.00  0.00     0.034 A 
ATOM      7 Cl   UNL d   1       1.155   1.224  -0.605  0.00  0.00    -0.070 Cl
ATOM      8 Cl1  UNL d   1       2.944   0.114   1.879  0.00  0.00    -0.070 Cl
ENDROOT
TORSDOF 0
ENDMDL
