MODEL 1
REMARK minimizedAffinity 0.729530811
REMARK minimizedRMSD -1
REMARK  0 active torsions:
REMARK  status: ('A' for Active; 'I' for Inactive)
ROOT
ATOM      1  C   UNL d   1      -5.889  -5.363   1.053  0.00  0.00     0.020 A 
ATOM      2  C1  UNL d   1      -5.999  -3.974   1.109  0.00  0.00     0.020 A 
ATOM      3  C2  UNL d   1      -4.853  -3.188   1.242  0.00  0.00     0.034 A 
ATOM      4  C3  UNL d   1      -3.591  -3.789   1.319  0.00  0.00     0.017 A 
ATOM      5  C4  UNL d   1      -3.482  -5.183   1.263  0.00  0.00     0.017 A 
ATOM      6  C5  UNL d   1      -4.633  -5.966   1.130  0.00  0.00     0.034 A 
ATOM      7 Cl   UNL d   1      -1.960  -5.998   1.352  0.00  0.00    -0.070 Cl
ATOM      8 Cl1  UNL d   1      -2.216  -2.755   1.483  0.00  0.00    -0.070 Cl
ENDROOT
TORSDOF 0
ENDMDL
