MODEL 1
REMARK minimizedAffinity -0.278259367
REMARK minimizedRMSD -1
REMARK  0 active torsions:
REMARK  status: ('A' for Active; 'I' for Inactive)
ROOT
ATOM      1  C   UNL d   1      -2.203   1.882   3.240  0.00  0.00     0.020 A 
ATOM      2  C1  UNL d   1      -2.203   1.489   4.578  0.00  0.00     0.020 A 
ATOM      3  C2  UNL d   1      -3.386   1.534   5.319  0.00  0.00     0.034 A 
ATOM      4  C3  UNL d   1      -4.573   1.974   4.723  0.00  0.00     0.017 A 
ATOM      5  C4  UNL d   1      -4.572   2.368   3.380  0.00  0.00     0.017 A 
ATOM      6  C5  UNL d   1      -3.385   2.321   2.643  0.00  0.00     0.034 A 
ATOM      7 Cl   UNL d   1      -5.998   2.922   2.576  0.00  0.00    -0.070 Cl
ATOM      8 Cl1  UNL d   1      -5.999   2.004   5.699  0.00  0.00    -0.070 Cl
ENDROOT
TORSDOF 0
ENDMDL
