MODEL 1
REMARK minimizedAffinity 1.76103783
REMARK minimizedRMSD -1
REMARK  0 active torsions:
REMARK  status: ('A' for Active; 'I' for Inactive)
ROOT
ATOM      1  C   UNL d   1       0.889  -3.912  -2.983  0.00  0.00     0.020 A 
ATOM      2  C1  UNL d   1      -0.016  -3.230  -2.172  0.00  0.00     0.020 A 
ATOM      3  C2  UNL d   1       0.286  -1.945  -1.715  0.00  0.00     0.034 A 
ATOM      4  C3  UNL d   1       1.497  -1.340  -2.068  0.00  0.00     0.017 A 
ATOM      5  C4  UNL d   1       2.406  -2.026  -2.882  0.00  0.00     0.017 A 
ATOM      6  C5  UNL d   1       2.098  -3.311  -3.337  0.00  0.00     0.034 A 
ATOM      7 Cl   UNL d   1       3.920  -1.343  -3.360  0.00  0.00    -0.070 Cl
ATOM      8 Cl1  UNL d   1       1.805   0.251  -1.467  0.00  0.00    -0.070 Cl
ENDROOT
TORSDOF 0
ENDMDL
