MODEL 1
REMARK minimizedAffinity 1.82772028
REMARK minimizedRMSD -1
REMARK  0 active torsions:
REMARK  status: ('A' for Active; 'I' for Inactive)
ROOT
ATOM      1  C   UNL d   1       1.303  -1.636  -2.002  0.00  0.00     0.020 A 
ATOM      2  C1  UNL d   1       2.407  -2.146  -2.683  0.00  0.00     0.020 A 
ATOM      3  C2  UNL d   1       3.496  -1.319  -2.966  0.00  0.00     0.034 A 
ATOM      4  C3  UNL d   1       3.484   0.022  -2.567  0.00  0.00     0.017 A 
ATOM      5  C4  UNL d   1       2.375   0.533  -1.883  0.00  0.00     0.017 A 
ATOM      6  C5  UNL d   1       1.287  -0.299  -1.602  0.00  0.00     0.034 A 
ATOM      7 Cl   UNL d   1       2.287   2.178  -1.358  0.00  0.00    -0.070 Cl
ATOM      8 Cl1  UNL d   1       4.865   0.987  -2.949  0.00  0.00    -0.070 Cl
ENDROOT
TORSDOF 0
ENDMDL
