MODEL 1
REMARK minimizedAffinity 11.4497747
REMARK minimizedRMSD -1
REMARK  0 active torsions:
REMARK  status: ('A' for Active; 'I' for Inactive)
ROOT
ATOM      1  C   UNL d   1       1.028  -0.490  -0.723  0.00  0.00     0.020 A 
ATOM      2  C1  UNL d   1       0.026   0.459  -0.522  0.00  0.00     0.020 A 
ATOM      3  C2  UNL d   1      -1.095   0.479  -1.355  0.00  0.00     0.034 A 
ATOM      4  C3  UNL d   1      -1.216  -0.451  -2.393  0.00  0.00     0.017 A 
ATOM      5  C4  UNL d   1      -0.210  -1.403  -2.595  0.00  0.00     0.017 A 
ATOM      6  C5  UNL d   1       0.910  -1.418  -1.758  0.00  0.00     0.034 A 
ATOM      7 Cl   UNL d   1      -0.289  -2.582  -3.856  0.00  0.00    -0.070 Cl
ATOM      8 Cl1  UNL d   1      -2.629  -0.368  -3.385  0.00  0.00    -0.070 Cl
ENDROOT
TORSDOF 0
ENDMDL
