MODEL 1
REMARK minimizedAffinity 7.75732708
REMARK minimizedRMSD -1
REMARK  0 active torsions:
REMARK  status: ('A' for Active; 'I' for Inactive)
ROOT
ATOM      1  C   UNL d   1      -5.863  -5.408   1.276  0.00  0.00     0.020 A 
ATOM      2  C1  UNL d   1      -5.994  -4.019   1.280  0.00  0.00     0.020 A 
ATOM      3  C2  UNL d   1      -4.972  -3.220   0.764  0.00  0.00     0.034 A 
ATOM      4  C3  UNL d   1      -3.814  -3.808   0.241  0.00  0.00     0.017 A 
ATOM      5  C4  UNL d   1      -3.683  -5.202   0.238  0.00  0.00     0.017 A 
ATOM      6  C5  UNL d   1      -4.710  -5.997   0.756  0.00  0.00     0.034 A 
ATOM      7 Cl   UNL d   1      -2.284  -6.000  -0.389  0.00  0.00    -0.070 Cl
ATOM      8 Cl1  UNL d   1      -2.591  -2.759  -0.381  0.00  0.00    -0.070 Cl
ENDROOT
TORSDOF 0
ENDMDL
