MODEL 1
REMARK minimizedAffinity 0.365056366
REMARK minimizedRMSD -1
REMARK  0 active torsions:
REMARK  status: ('A' for Active; 'I' for Inactive)
ROOT
ATOM      1  C   UNL d   1       1.086  -2.798  -2.943  0.00  0.00     0.020 A 
ATOM      2  C1  UNL d   1       2.258  -3.344  -3.463  0.00  0.00     0.020 A 
ATOM      3  C2  UNL d   1       3.458  -2.635  -3.376  0.00  0.00     0.034 A 
ATOM      4  C3  UNL d   1       3.488  -1.374  -2.768  0.00  0.00     0.017 A 
ATOM      5  C4  UNL d   1       2.310  -0.827  -2.247  0.00  0.00     0.017 A 
ATOM      6  C5  UNL d   1       1.112  -1.542  -2.336  0.00  0.00     0.034 A 
ATOM      7 Cl   UNL d   1       2.268   0.723  -1.482  0.00  0.00    -0.070 Cl
ATOM      8 Cl1  UNL d   1       5.006  -0.553  -2.695  0.00  0.00    -0.070 Cl
ENDROOT
TORSDOF 0
ENDMDL
