MODEL 1
REMARK minimizedAffinity 8.87697983
REMARK minimizedRMSD -1
REMARK  0 active torsions:
REMARK  status: ('A' for Active; 'I' for Inactive)
ROOT
ATOM      1  C   UNL d   1       0.749  -2.908  -4.502  0.00  0.00     0.020 A 
ATOM      2  C1  UNL d   1       0.633  -2.055  -3.404  0.00  0.00     0.020 A 
ATOM      3  C2  UNL d   1      -0.602  -1.482  -3.093  0.00  0.00     0.034 A 
ATOM      4  C3  UNL d   1      -1.725  -1.760  -3.880  0.00  0.00     0.017 A 
ATOM      5  C4  UNL d   1      -1.608  -2.616  -4.981  0.00  0.00     0.017 A 
ATOM      6  C5  UNL d   1      -0.370  -3.188  -5.288  0.00  0.00     0.034 A 
ATOM      7 Cl   UNL d   1      -2.950  -3.007  -5.998  0.00  0.00    -0.070 Cl
ATOM      8 Cl1  UNL d   1      -3.221  -1.016  -3.437  0.00  0.00    -0.070 Cl
ENDROOT
TORSDOF 0
ENDMDL
