MODEL 1
REMARK minimizedAffinity 3.17880106
REMARK minimizedRMSD -1
REMARK  0 active torsions:
REMARK  status: ('A' for Active; 'I' for Inactive)
ROOT
ATOM      1  C   UNL d   1      -4.192  -5.663   1.073  0.00  0.00     0.020 A 
ATOM      2  C1  UNL d   1      -4.486  -4.339   0.751  0.00  0.00     0.020 A 
ATOM      3  C2  UNL d   1      -3.512  -3.350   0.902  0.00  0.00     0.034 A 
ATOM      4  C3  UNL d   1      -2.238  -3.684   1.377  0.00  0.00     0.017 A 
ATOM      5  C4  UNL d   1      -1.943  -5.014   1.700  0.00  0.00     0.017 A 
ATOM      6  C5  UNL d   1      -2.923  -6.000   1.547  0.00  0.00     0.034 A 
ATOM      7 Cl   UNL d   1      -0.394  -5.502   2.291  0.00  0.00    -0.070 Cl
ATOM      8 Cl1  UNL d   1      -1.082  -2.410   1.539  0.00  0.00    -0.070 Cl
ENDROOT
TORSDOF 0
ENDMDL
