MODEL 1
REMARK minimizedAffinity 1.12837529
REMARK minimizedRMSD -1
REMARK  0 active torsions:
REMARK  status: ('A' for Active; 'I' for Inactive)
ROOT
ATOM      1  C   UNL d   1      -1.958  -5.476   0.103  0.00  0.00     0.020 A 
ATOM      2  C1  UNL d   1      -1.871  -4.240   0.743  0.00  0.00     0.020 A 
ATOM      3  C2  UNL d   1      -3.034  -3.527   1.046  0.00  0.00     0.034 A 
ATOM      4  C3  UNL d   1      -4.288  -4.050   0.708  0.00  0.00     0.017 A 
ATOM      5  C4  UNL d   1      -4.374  -5.290   0.066  0.00  0.00     0.017 A 
ATOM      6  C5  UNL d   1      -3.207  -6.000  -0.234  0.00  0.00     0.034 A 
ATOM      7 Cl   UNL d   1      -5.885  -6.000  -0.381  0.00  0.00    -0.070 Cl
ATOM      8 Cl1  UNL d   1      -5.683  -3.114   1.113  0.00  0.00    -0.070 Cl
ENDROOT
TORSDOF 0
ENDMDL
