MODEL 1
REMARK minimizedAffinity 4.56323242
REMARK minimizedRMSD -1
REMARK  0 active torsions:
REMARK  status: ('A' for Active; 'I' for Inactive)
ROOT
ATOM      1  C   UNL d   1       1.478   2.443   4.134  0.00  0.00     0.020 A 
ATOM      2  C1  UNL d   1       0.357   3.012   4.738  0.00  0.00     0.020 A 
ATOM      3  C2  UNL d   1      -0.921   2.706   4.265  0.00  0.00     0.034 A 
ATOM      4  C3  UNL d   1      -1.081   1.829   3.186  0.00  0.00     0.017 A 
ATOM      5  C4  UNL d   1       0.045   1.259   2.581  0.00  0.00     0.017 A 
ATOM      6  C5  UNL d   1       1.322   1.568   3.059  0.00  0.00     0.034 A 
ATOM      7 Cl   UNL d   1      -0.073   0.168   1.246  0.00  0.00    -0.070 Cl
ATOM      8 Cl1  UNL d   1      -2.691   1.496   2.654  0.00  0.00    -0.070 Cl
ENDROOT
TORSDOF 0
ENDMDL
