MODEL 1
REMARK minimizedAffinity 3.10760689
REMARK minimizedRMSD -1
REMARK  0 active torsions:
REMARK  status: ('A' for Active; 'I' for Inactive)
ROOT
ATOM      1  C   UNL d   1       3.456  -5.681   3.835  0.00  0.00     0.020 A 
ATOM      2  C1  UNL d   1       2.740  -4.930   4.767  0.00  0.00     0.020 A 
ATOM      3  C2  UNL d   1       1.447  -4.497   4.469  0.00  0.00     0.034 A 
ATOM      4  C3  UNL d   1       0.864  -4.815   3.236  0.00  0.00     0.017 A 
ATOM      5  C4  UNL d   1       1.583  -5.569   2.302  0.00  0.00     0.017 A 
ATOM      6  C5  UNL d   1       2.878  -6.000   2.605  0.00  0.00     0.034 A 
ATOM      7 Cl   UNL d   1       0.932  -6.000   0.760  0.00  0.00    -0.070 Cl
ATOM      8 Cl1  UNL d   1      -0.739  -4.247   2.935  0.00  0.00    -0.070 Cl
ENDROOT
TORSDOF 0
ENDMDL
