MODEL 1
REMARK minimizedAffinity 7.70095873
REMARK minimizedRMSD -1
REMARK  1 active torsions:
REMARK  status: ('A' for Active; 'I' for Inactive)
REMARK    1  A    between atoms: C1_2  and  C2_3 
ROOT
ATOM      1  C2  UNL d   1       3.315   3.179   1.817  0.00  0.00    -0.077 A 
ATOM      2  C3  UNL d   1       4.015   2.437   0.855  0.00  0.00     0.002 A 
ATOM      3  C4  UNL d   1       3.626   1.131   0.550  0.00  0.00     0.002 A 
ATOM      4  C5  UNL d   1       2.534   0.558   1.199  0.00  0.00    -0.004 A 
ATOM      5  C6  UNL d   1       1.833   1.288   2.158  0.00  0.00     0.002 A 
ATOM      6  C7  UNL d   1       2.221   2.593   2.465  0.00  0.00     0.002 A 
ENDROOT
BRANCH   1   7
ATOM      7  C1  UNL d   1       3.702   4.605   2.111  0.00  0.00     0.055 C 
ATOM      8  C   UNL d   1       5.204   4.811   1.971  0.00  0.00     0.019 C 
ENDBRANCH   1   7
TORSDOF 1
ENDMDL
