MODEL 1
REMARK minimizedAffinity 12.0010014
REMARK minimizedRMSD -1
REMARK  1 active torsions:
REMARK  status: ('A' for Active; 'I' for Inactive)
REMARK    1  A    between atoms: C1_2  and  C2_3 
ROOT
ATOM      1  C2  UNL d   1      -5.853  -4.262   4.090  0.00  0.00    -0.077 A 
ATOM      2  C3  UNL d   1      -5.844  -5.521   3.473  0.00  0.00     0.002 A 
ATOM      3  C4  UNL d   1      -5.912  -5.626   2.082  0.00  0.00     0.002 A 
ATOM      4  C5  UNL d   1      -5.985  -4.477   1.298  0.00  0.00    -0.004 A 
ATOM      5  C6  UNL d   1      -5.996  -3.220   1.903  0.00  0.00     0.002 A 
ATOM      6  C7  UNL d   1      -5.930  -3.113   3.292  0.00  0.00     0.002 A 
ENDROOT
BRANCH   1   7
ATOM      7  C1  UNL d   1      -5.730  -4.145   5.587  0.00  0.00     0.055 C 
ATOM      8  C   UNL d   1      -5.034  -2.852   5.986  0.00  0.00     0.019 C 
ENDBRANCH   1   7
TORSDOF 1
ENDMDL
