MODEL 1
REMARK minimizedAffinity 4.49182463
REMARK minimizedRMSD -1
REMARK  1 active torsions:
REMARK  status: ('A' for Active; 'I' for Inactive)
REMARK    1  A    between atoms: C1_2  and  C2_3 
ROOT
ATOM      1  C2  UNL d   1       2.919  -4.039  -1.980  0.00  0.00    -0.077 A 
ATOM      2  C3  UNL d   1       3.190  -3.363  -0.782  0.00  0.00     0.002 A 
ATOM      3  C4  UNL d   1       4.143  -3.859   0.109  0.00  0.00     0.002 A 
ATOM      4  C5  UNL d   1       4.837  -5.030  -0.190  0.00  0.00    -0.004 A 
ATOM      5  C6  UNL d   1       4.573  -5.711  -1.378  0.00  0.00     0.002 A 
ATOM      6  C7  UNL d   1       3.619  -5.217  -2.269  0.00  0.00     0.002 A 
ENDROOT
BRANCH   1   7
ATOM      7  C1  UNL d   1       1.926  -3.479  -2.965  0.00  0.00     0.055 C 
ATOM      8  C   UNL d   1       2.607  -3.065  -4.261  0.00  0.00     0.019 C 
ENDBRANCH   1   7
TORSDOF 1
ENDMDL
