MODEL 1
REMARK minimizedAffinity 0.157354236
REMARK minimizedRMSD -1
REMARK  1 active torsions:
REMARK  status: ('A' for Active; 'I' for Inactive)
REMARK    1  A    between atoms: C1_2  and  C2_3 
ROOT
ATOM      1  C2  UNL d   1       2.598  -0.357  -1.829  0.00  0.00    -0.077 A 
ATOM      2  C3  UNL d   1       1.657  -1.359  -1.556  0.00  0.00     0.002 A 
ATOM      3  C4  UNL d   1       1.885  -2.282  -0.533  0.00  0.00     0.002 A 
ATOM      4  C5  UNL d   1       3.050  -2.208   0.228  0.00  0.00    -0.004 A 
ATOM      5  C6  UNL d   1       3.993  -1.215  -0.037  0.00  0.00     0.002 A 
ATOM      6  C7  UNL d   1       3.768  -0.293  -1.061  0.00  0.00     0.002 A 
ENDROOT
BRANCH   1   7
ATOM      7  C1  UNL d   1       2.332   0.669  -2.900  0.00  0.00     0.055 C 
ATOM      8  C   UNL d   1       1.525   0.076  -4.046  0.00  0.00     0.019 C 
ENDBRANCH   1   7
TORSDOF 1
ENDMDL
