MODEL 1
REMARK minimizedAffinity 7.5440197
REMARK minimizedRMSD -1
REMARK  1 active torsions:
REMARK  status: ('A' for Active; 'I' for Inactive)
REMARK    1  A    between atoms: C1_2  and  C2_3 
ROOT
ATOM      1  C2  UNL d   1       0.133   0.486   2.590  0.00  0.00    -0.077 A 
ATOM      2  C3  UNL d   1       1.367   1.149   2.539  0.00  0.00     0.002 A 
ATOM      3  C4  UNL d   1       1.435   2.487   2.143  0.00  0.00     0.002 A 
ATOM      4  C5  UNL d   1       0.272   3.173   1.800  0.00  0.00    -0.004 A 
ATOM      5  C6  UNL d   1      -0.960   2.521   1.846  0.00  0.00     0.002 A 
ATOM      6  C7  UNL d   1      -1.029   1.184   2.240  0.00  0.00     0.002 A 
ENDROOT
BRANCH   1   7
ATOM      7  C1  UNL d   1       0.053  -0.942   3.064  0.00  0.00     0.055 C 
ATOM      8  C   UNL d   1       0.354  -1.049   4.552  0.00  0.00     0.019 C 
ENDBRANCH   1   7
TORSDOF 1
ENDMDL
