MODEL 1
REMARK minimizedAffinity 1.41654718
REMARK minimizedRMSD -1
REMARK  1 active torsions:
REMARK  status: ('A' for Active; 'I' for Inactive)
REMARK    1  A    between atoms: C1_2  and  C2_3 
ROOT
ATOM      1  C2  UNL d   1       3.745  -3.723  -0.608  0.00  0.00    -0.077 A 
ATOM      2  C3  UNL d   1       4.583  -4.814  -0.335  0.00  0.00     0.002 A 
ATOM      3  C4  UNL d   1       4.591  -5.927  -1.179  0.00  0.00     0.002 A 
ATOM      4  C5  UNL d   1       3.767  -5.958  -2.302  0.00  0.00    -0.004 A 
ATOM      5  C6  UNL d   1       2.929  -4.879  -2.581  0.00  0.00     0.002 A 
ATOM      6  C7  UNL d   1       2.919  -3.766  -1.739  0.00  0.00     0.002 A 
ENDROOT
BRANCH   1   7
ATOM      7  C1  UNL d   1       3.771  -2.502   0.272  0.00  0.00     0.055 C 
ATOM      8  C   UNL d   1       5.192  -1.993   0.472  0.00  0.00     0.019 C 
ENDBRANCH   1   7
TORSDOF 1
ENDMDL
