MODEL 1
REMARK minimizedAffinity 9.91597939
REMARK minimizedRMSD -1
REMARK  1 active torsions:
REMARK  status: ('A' for Active; 'I' for Inactive)
REMARK    1  A    between atoms: C1_2  and  C2_3 
ROOT
ATOM      1  C2  UNL d   1       2.313   1.564   4.977  0.00  0.00    -0.077 A 
ATOM      2  C3  UNL d   1       2.142   1.585   3.585  0.00  0.00     0.002 A 
ATOM      3  C4  UNL d   1       1.366   0.609   2.955  0.00  0.00     0.002 A 
ATOM      4  C5  UNL d   1       0.753  -0.390   3.708  0.00  0.00    -0.004 A 
ATOM      5  C6  UNL d   1       0.918  -0.420   5.092  0.00  0.00     0.002 A 
ATOM      6  C7  UNL d   1       1.694   0.553   5.724  0.00  0.00     0.002 A 
ENDROOT
BRANCH   1   7
ATOM      7  C1  UNL d   1       3.108   2.643   5.664  0.00  0.00     0.055 C 
ATOM      8  C   UNL d   1       2.632   4.029   5.252  0.00  0.00     0.019 C 
ENDBRANCH   1   7
TORSDOF 1
ENDMDL
