MODEL 1
REMARK minimizedAffinity 7.89271021
REMARK minimizedRMSD -1
REMARK  1 active torsions:
REMARK  status: ('A' for Active; 'I' for Inactive)
REMARK    1  A    between atoms: C1_2  and  C2_3 
ROOT
ATOM      1  C2  UNL d   1      -1.145  -4.188  -2.446  0.00  0.00    -0.077 A 
ATOM      2  C3  UNL d   1      -2.455  -3.813  -2.774  0.00  0.00     0.002 A 
ATOM      3  C4  UNL d   1      -2.861  -2.483  -2.650  0.00  0.00     0.002 A 
ATOM      4  C5  UNL d   1      -1.963  -1.517  -2.202  0.00  0.00    -0.004 A 
ATOM      5  C6  UNL d   1      -0.658  -1.881  -1.871  0.00  0.00     0.002 A 
ATOM      6  C7  UNL d   1      -0.251  -3.210  -1.993  0.00  0.00     0.002 A 
ENDROOT
BRANCH   1   7
ATOM      7  C1  UNL d   1      -0.691  -5.613  -2.626  0.00  0.00     0.055 C 
ATOM      8  C   UNL d   1      -0.642  -5.997  -4.098  0.00  0.00     0.019 C 
ENDBRANCH   1   7
TORSDOF 1
ENDMDL
