MODEL 1
REMARK minimizedAffinity 5.81838083
REMARK minimizedRMSD -1
REMARK  1 active torsions:
REMARK  status: ('A' for Active; 'I' for Inactive)
REMARK    1  A    between atoms: C1_2  and  C2_3 
ROOT
ATOM      1  C2  UNL d   1      -0.020  -3.286  -1.596  0.00  0.00    -0.077 A 
ATOM      2  C3  UNL d   1       0.893  -4.254  -1.156  0.00  0.00     0.002 A 
ATOM      3  C4  UNL d   1       2.076  -3.872  -0.519  0.00  0.00     0.002 A 
ATOM      4  C5  UNL d   1       2.353  -2.522  -0.314  0.00  0.00    -0.004 A 
ATOM      5  C6  UNL d   1       1.452  -1.551  -0.749  0.00  0.00     0.002 A 
ATOM      6  C7  UNL d   1       0.270  -1.931  -1.387  0.00  0.00     0.002 A 
ENDROOT
BRANCH   1   7
ATOM      7  C1  UNL d   1      -1.319  -3.698  -2.238  0.00  0.00     0.055 C 
ATOM      8  C   UNL d   1      -2.160  -4.545  -1.294  0.00  0.00     0.019 C 
ENDBRANCH   1   7
TORSDOF 1
ENDMDL
