MODEL 1
REMARK minimizedAffinity 9.6886549
REMARK minimizedRMSD -1
REMARK  1 active torsions:
REMARK  status: ('A' for Active; 'I' for Inactive)
REMARK    1  A    between atoms: C1_2  and  C2_3 
ROOT
ATOM      1  C2  UNL d   1      -0.297  -2.220  -2.057  0.00  0.00    -0.077 A 
ATOM      2  C3  UNL d   1      -0.491  -3.598  -1.884  0.00  0.00     0.002 A 
ATOM      3  C4  UNL d   1      -1.711  -4.188  -2.223  0.00  0.00     0.002 A 
ATOM      4  C5  UNL d   1      -2.743  -3.409  -2.742  0.00  0.00    -0.004 A 
ATOM      5  C6  UNL d   1      -2.560  -2.037  -2.916  0.00  0.00     0.002 A 
ATOM      6  C7  UNL d   1      -1.343  -1.446  -2.576  0.00  0.00     0.002 A 
ENDROOT
BRANCH   1   7
ATOM      7  C1  UNL d   1       1.033  -1.591  -1.738  0.00  0.00     0.055 C 
ATOM      8  C   UNL d   1       1.601  -2.128  -0.432  0.00  0.00     0.019 C 
ENDBRANCH   1   7
TORSDOF 1
ENDMDL
