MODEL 1
REMARK minimizedAffinity 5.13799429
REMARK minimizedRMSD -1
REMARK  1 active torsions:
REMARK  status: ('A' for Active; 'I' for Inactive)
REMARK    1  A    between atoms: C1_2  and  C2_3 
ROOT
ATOM      1  C2  UNL d   1       1.726   3.511  -2.099  0.00  0.00    -0.077 A 
ATOM      2  C3  UNL d   1       1.376   3.661  -0.750  0.00  0.00     0.002 A 
ATOM      3  C4  UNL d   1       1.505   4.901  -0.121  0.00  0.00     0.002 A 
ATOM      4  C5  UNL d   1       1.978   6.000  -0.834  0.00  0.00    -0.004 A 
ATOM      5  C6  UNL d   1       2.330   5.860  -2.176  0.00  0.00     0.002 A 
ATOM      6  C7  UNL d   1       2.204   4.622  -2.806  0.00  0.00     0.002 A 
ENDROOT
BRANCH   1   7
ATOM      7  C1  UNL d   1       1.542   2.186  -2.793  0.00  0.00     0.055 C 
ATOM      8  C   UNL d   1       2.195   1.056  -2.010  0.00  0.00     0.019 C 
ENDBRANCH   1   7
TORSDOF 1
ENDMDL
