MODEL 1
REMARK minimizedAffinity 0.912883759
REMARK minimizedRMSD -1
REMARK  1 active torsions:
REMARK  status: ('A' for Active; 'I' for Inactive)
REMARK    1  A    between atoms: C1_2  and  C2_3 
ROOT
ATOM      1  C2  UNL d   1       0.646  -2.631  -1.868  0.00  0.00    -0.077 A 
ATOM      2  C3  UNL d   1       1.479  -2.651  -0.740  0.00  0.00     0.002 A 
ATOM      3  C4  UNL d   1       2.410  -1.632  -0.531  0.00  0.00     0.002 A 
ATOM      4  C5  UNL d   1       2.515  -0.584  -1.443  0.00  0.00    -0.004 A 
ATOM      5  C6  UNL d   1       1.693  -0.555  -2.569  0.00  0.00     0.002 A 
ATOM      6  C7  UNL d   1       0.762  -1.574  -2.780  0.00  0.00     0.002 A 
ENDROOT
BRANCH   1   7
ATOM      7  C1  UNL d   1      -0.393  -3.703  -2.070  0.00  0.00     0.055 C 
ATOM      8  C   UNL d   1      -1.788  -3.107  -2.187  0.00  0.00     0.019 C 
ENDBRANCH   1   7
TORSDOF 1
ENDMDL
