MODEL 1
REMARK minimizedAffinity 4.48119211
REMARK minimizedRMSD -1
REMARK  0 active torsions:
REMARK  status: ('A' for Active; 'I' for Inactive)
ROOT
ATOM      1  C1  BNZ d   1       1.570  -2.326   1.189  0.00  0.00     0.000 A 
ATOM      2  C2  BNZ d   1       1.242  -3.447   0.475  0.00  0.00     0.000 A 
ATOM      3  C3  BNZ d   1       2.169  -4.072  -0.312  0.00  0.00     0.000 A 
ATOM      4  C4  BNZ d   1       3.409  -3.552  -0.415  0.00  0.00     0.000 A 
ATOM      5  C5  BNZ d   1       3.753  -2.417   0.291  0.00  0.00     0.000 A 
ATOM      6  C6  BNZ d   1       2.828  -1.813   1.113  0.00  0.00     0.000 A 
ENDROOT
TORSDOF 0
ENDMDL
