MODEL 1
REMARK minimizedAffinity 0.876377642
REMARK minimizedRMSD -1
REMARK  0 active torsions:
REMARK  status: ('A' for Active; 'I' for Inactive)
ROOT
ATOM      1  C1  BNZ d   1       6.000   3.213  -1.587  0.00  0.00     0.000 A 
ATOM      2  C2  BNZ d   1       5.972   1.848  -1.688  0.00  0.00     0.000 A 
ATOM      3  C3  BNZ d   1       5.932   1.064  -0.568  0.00  0.00     0.000 A 
ATOM      4  C4  BNZ d   1       5.962   1.645   0.649  0.00  0.00     0.000 A 
ATOM      5  C5  BNZ d   1       6.000   3.020   0.766  0.00  0.00     0.000 A 
ATOM      6  C6  BNZ d   1       6.000   3.807  -0.363  0.00  0.00     0.000 A 
ENDROOT
TORSDOF 0
ENDMDL
