MODEL 1
REMARK minimizedAffinity 2.62794971
REMARK minimizedRMSD -1
REMARK  0 active torsions:
REMARK  status: ('A' for Active; 'I' for Inactive)
ROOT
ATOM      1  C1  BNZ d   1       0.271   0.266   3.248  0.00  0.00     0.000 A 
ATOM      2  C2  BNZ d   1      -1.041  -0.126   3.241  0.00  0.00     0.000 A 
ATOM      3  C3  BNZ d   1      -1.405  -1.346   2.743  0.00  0.00     0.000 A 
ATOM      4  C4  BNZ d   1      -0.463  -2.154   2.215  0.00  0.00     0.000 A 
ATOM      5  C5  BNZ d   1       0.863  -1.769   2.206  0.00  0.00     0.000 A 
ATOM      6  C6  BNZ d   1       1.230  -0.558   2.744  0.00  0.00     0.000 A 
ENDROOT
TORSDOF 0
ENDMDL
