MODEL 1
REMARK minimizedAffinity 2.98164082
REMARK minimizedRMSD -1
REMARK  0 active torsions:
REMARK  status: ('A' for Active; 'I' for Inactive)
ROOT
ATOM      1  C1  BNZ d   1       0.085   3.407  -3.495  0.00  0.00     0.000 A 
ATOM      2  C2  BNZ d   1       0.057   2.364  -2.608  0.00  0.00     0.000 A 
ATOM      3  C3  BNZ d   1      -1.126   1.773  -2.260  0.00  0.00     0.000 A 
ATOM      4  C4  BNZ d   1      -2.280   2.251  -2.767  0.00  0.00     0.000 A 
ATOM      5  C5  BNZ d   1      -2.269   3.308  -3.656  0.00  0.00     0.000 A 
ATOM      6  C6  BNZ d   1      -1.074   3.875  -4.034  0.00  0.00     0.000 A 
ENDROOT
TORSDOF 0
ENDMDL
