MODEL 1
REMARK minimizedAffinity 2.22948456
REMARK minimizedRMSD -1
REMARK  0 active torsions:
REMARK  status: ('A' for Active; 'I' for Inactive)
ROOT
ATOM      1  C1  BNZ d   1      -1.928   0.758   3.980  0.00  0.00     0.000 A 
ATOM      2  C2  BNZ d   1      -0.903  -0.099   4.280  0.00  0.00     0.000 A 
ATOM      3  C3  BNZ d   1      -0.618  -1.161   3.467  0.00  0.00     0.000 A 
ATOM      4  C4  BNZ d   1      -1.382  -1.387   2.380  0.00  0.00     0.000 A 
ATOM      5  C5  BNZ d   1      -2.425  -0.538   2.069  0.00  0.00     0.000 A 
ATOM      6  C6  BNZ d   1      -2.685   0.552   2.868  0.00  0.00     0.000 A 
ENDROOT
TORSDOF 0
ENDMDL
