MODEL 1
REMARK minimizedAffinity 1.58252013
REMARK minimizedRMSD -1
REMARK  0 active torsions:
REMARK  status: ('A' for Active; 'I' for Inactive)
ROOT
ATOM      1  C1  BNZ d   1      -2.614  -0.975   2.084  0.00  0.00     0.000 A 
ATOM      2  C2  BNZ d   1      -1.510  -1.753   1.859  0.00  0.00     0.000 A 
ATOM      3  C3  BNZ d   1      -0.393  -1.624   2.636  0.00  0.00     0.000 A 
ATOM      4  C4  BNZ d   1      -0.366  -0.692   3.610  0.00  0.00     0.000 A 
ATOM      5  C5  BNZ d   1      -1.468   0.106   3.843  0.00  0.00     0.000 A 
ATOM      6  C6  BNZ d   1      -2.605  -0.053   3.084  0.00  0.00     0.000 A 
ENDROOT
TORSDOF 0
ENDMDL
