MODEL 1
REMARK minimizedAffinity 1.05928004
REMARK minimizedRMSD -1
REMARK  0 active torsions:
REMARK  status: ('A' for Active; 'I' for Inactive)
ROOT
ATOM      1  C1  BNZ d   1      -0.754  -0.811   3.662  0.00  0.00     0.000 A 
ATOM      2  C2  BNZ d   1       0.097  -1.763   4.156  0.00  0.00     0.000 A 
ATOM      3  C3  BNZ d   1       0.798  -2.581   3.314  0.00  0.00     0.000 A 
ATOM      4  C4  BNZ d   1       0.616  -2.473   1.982  0.00  0.00     0.000 A 
ATOM      5  C5  BNZ d   1      -0.246  -1.524   1.469  0.00  0.00     0.000 A 
ATOM      6  C6  BNZ d   1      -0.919  -0.677   2.318  0.00  0.00     0.000 A 
ENDROOT
TORSDOF 0
ENDMDL
