MODEL 1
REMARK minimizedAffinity -0.728724658
REMARK minimizedRMSD -1
REMARK  0 active torsions:
REMARK  status: ('A' for Active; 'I' for Inactive)
ROOT
ATOM      1  C1  BNZ d   1      -1.300  -1.387   2.827  0.00  0.00     0.000 A 
ATOM      2  C2  BNZ d   1      -0.237  -2.250   2.868  0.00  0.00     0.000 A 
ATOM      3  C3  BNZ d   1       0.977  -1.842   3.345  0.00  0.00     0.000 A 
ATOM      4  C4  BNZ d   1       1.138  -0.564   3.743  0.00  0.00     0.000 A 
ATOM      5  C5  BNZ d   1       0.079   0.321   3.699  0.00  0.00     0.000 A 
ATOM      6  C6  BNZ d   1      -1.153  -0.103   3.255  0.00  0.00     0.000 A 
ENDROOT
TORSDOF 0
ENDMDL
