MODEL 1
REMARK minimizedAffinity 1.32192922
REMARK minimizedRMSD -1
REMARK  0 active torsions:
REMARK  status: ('A' for Active; 'I' for Inactive)
ROOT
ATOM      1  C1  BNZ d   1       1.000  -1.180   0.653  0.00  0.00     0.000 A 
ATOM      2  C2  BNZ d   1       1.995  -2.081   0.385  0.00  0.00     0.000 A 
ATOM      3  C3  BNZ d   1       2.282  -3.089   1.262  0.00  0.00     0.000 A 
ATOM      4  C4  BNZ d   1       1.602  -3.171   2.424  0.00  0.00     0.000 A 
ATOM      5  C5  BNZ d   1       0.601  -2.264   2.713  0.00  0.00     0.000 A 
ATOM      6  C6  BNZ d   1       0.289  -1.274   1.810  0.00  0.00     0.000 A 
ENDROOT
TORSDOF 0
ENDMDL
