MODEL 1
REMARK minimizedAffinity 7.32794619
REMARK minimizedRMSD -1
REMARK  0 active torsions:
REMARK  status: ('A' for Active; 'I' for Inactive)
ROOT
ATOM      1  C1  BNZ d   1       4.390  -2.942   1.269  0.00  0.00     0.000 A 
ATOM      2  C2  BNZ d   1       3.205  -3.506   1.660  0.00  0.00     0.000 A 
ATOM      3  C3  BNZ d   1       2.028  -2.824   1.527  0.00  0.00     0.000 A 
ATOM      4  C4  BNZ d   1       2.042  -1.566   1.043  0.00  0.00     0.000 A 
ATOM      5  C5  BNZ d   1       3.230  -0.980   0.653  0.00  0.00     0.000 A 
ATOM      6  C6  BNZ d   1       4.408  -1.684   0.752  0.00  0.00     0.000 A 
ENDROOT
TORSDOF 0
ENDMDL
