MODEL 1
REMARK minimizedAffinity 3.01652575
REMARK minimizedRMSD -1
REMARK  1 active torsions:
REMARK  status: ('A' for Active; 'I' for Inactive)
REMARK    1  A    between atoms: N_2  and  C1_3 
ROOT
ATOM      1  C1  UNL d   1      -5.093   2.717  -3.971  0.00  0.00     0.143 A 
ATOM      2  C2  UNL d   1      -6.000   3.391  -3.145  0.00  0.00    -0.057 A 
ATOM      3  C3  UNL d   1      -5.889   3.338  -1.750  0.00  0.00     0.033 A 
ATOM      4  C4  UNL d   1      -4.883   2.585  -1.155  0.00  0.00    -0.042 A 
ATOM      5  C5  UNL d   1      -3.986   1.887  -1.955  0.00  0.00     0.033 A 
ATOM      6  C6  UNL d   1      -4.098   1.949  -3.348  0.00  0.00    -0.057 A 
ENDROOT
BRANCH   1   7
ATOM      7  N   UNL d   1      -5.210   2.651  -5.362  0.00  0.00    -0.732 N 
ATOM      8  C   UNL d   1      -5.915   1.555  -5.991  0.00  0.00     0.284 C 
ATOM      9  H3  UNL d   1      -5.395   3.559  -5.780  0.00  0.00     0.395 HD
ENDBRANCH   1   7
TORSDOF 1
ENDMDL
