MODEL 1
REMARK minimizedAffinity 6.94886255
REMARK minimizedRMSD -1
REMARK  1 active torsions:
REMARK  status: ('A' for Active; 'I' for Inactive)
REMARK    1  A    between atoms: N_2  and  C1_3 
ROOT
ATOM      1  C1  UNL d   1      -4.690   2.317  -2.846  0.00  0.00     0.143 A 
ATOM      2  C2  UNL d   1      -3.441   2.500  -2.243  0.00  0.00    -0.057 A 
ATOM      3  C3  UNL d   1      -3.310   2.564  -0.850  0.00  0.00     0.033 A 
ATOM      4  C4  UNL d   1      -4.433   2.474  -0.035  0.00  0.00    -0.042 A 
ATOM      5  C5  UNL d   1      -5.688   2.317  -0.614  0.00  0.00     0.033 A 
ATOM      6  C6  UNL d   1      -5.811   2.248  -2.005  0.00  0.00    -0.057 A 
ENDROOT
BRANCH   1   7
ATOM      7  N   UNL d   1      -4.897   2.344  -4.227  0.00  0.00    -0.732 N 
ATOM      8  C   UNL d   1      -5.606   3.444  -4.845  0.00  0.00     0.284 C 
ATOM      9  H3  UNL d   1      -4.082   2.030  -4.749  0.00  0.00     0.395 HD
ENDBRANCH   1   7
TORSDOF 1
ENDMDL
