MODEL 1
REMARK minimizedAffinity 1.35149181
REMARK minimizedRMSD -1
REMARK  1 active torsions:
REMARK  status: ('A' for Active; 'I' for Inactive)
REMARK    1  A    between atoms: N_2  and  C1_3 
ROOT
ATOM      1  C1  UNL d   1       2.705   1.381   0.991  0.00  0.00     0.143 A 
ATOM      2  C2  UNL d   1       2.856   2.038   2.217  0.00  0.00    -0.057 A 
ATOM      3  C3  UNL d   1       2.773   1.342   3.429  0.00  0.00     0.033 A 
ATOM      4  C4  UNL d   1       2.508  -0.023   3.437  0.00  0.00    -0.042 A 
ATOM      5  C5  UNL d   1       2.329  -0.692   2.231  0.00  0.00     0.033 A 
ATOM      6  C6  UNL d   1       2.419   0.007   1.024  0.00  0.00    -0.057 A 
ENDROOT
BRANCH   1   7
ATOM      7  N   UNL d   1       2.678   2.034  -0.244  0.00  0.00    -0.732 N 
ATOM      8  C   UNL d   1       1.697   3.064  -0.512  0.00  0.00     0.284 C 
ATOM      9  H3  UNL d   1       3.611   2.249  -0.590  0.00  0.00     0.395 HD
ENDBRANCH   1   7
TORSDOF 1
ENDMDL
