MODEL 1
REMARK minimizedAffinity 5.29291677
REMARK minimizedRMSD -1
REMARK  1 active torsions:
REMARK  status: ('A' for Active; 'I' for Inactive)
REMARK    1  A    between atoms: N_2  and  C1_3 
ROOT
ATOM      1  C1  UNL d   1       2.047  -1.472   3.478  0.00  0.00     0.143 A 
ATOM      2  C2  UNL d   1       2.018  -0.229   4.119  0.00  0.00    -0.057 A 
ATOM      3  C3  UNL d   1       2.148   0.963   3.396  0.00  0.00     0.033 A 
ATOM      4  C4  UNL d   1       2.338   0.932   2.019  0.00  0.00    -0.042 A 
ATOM      5  C5  UNL d   1       2.394  -0.293   1.364  0.00  0.00     0.033 A 
ATOM      6  C6  UNL d   1       2.257  -1.480   2.090  0.00  0.00    -0.057 A 
ENDROOT
BRANCH   1   7
ATOM      7  N   UNL d   1       2.022  -2.696   4.152  0.00  0.00    -0.732 N 
ATOM      8  C   UNL d   1       2.682  -3.857   3.596  0.00  0.00     0.284 C 
ATOM      9  H3  UNL d   1       2.146  -2.588   5.156  0.00  0.00     0.395 HD
ENDBRANCH   1   7
TORSDOF 1
ENDMDL
