MODEL 1
REMARK minimizedAffinity 5.74123764
REMARK minimizedRMSD -1
REMARK  1 active torsions:
REMARK  status: ('A' for Active; 'I' for Inactive)
REMARK    1  A    between atoms: N_2  and  C1_3 
ROOT
ATOM      1  C1  UNL d   1      -4.900   2.725  -3.324  0.00  0.00     0.143 A 
ATOM      2  C2  UNL d   1      -3.734   2.294  -2.683  0.00  0.00    -0.057 A 
ATOM      3  C3  UNL d   1      -3.674   2.171  -1.289  0.00  0.00     0.033 A 
ATOM      4  C4  UNL d   1      -4.775   2.507  -0.508  0.00  0.00    -0.042 A 
ATOM      5  C5  UNL d   1      -5.936   2.961  -1.121  0.00  0.00     0.033 A 
ATOM      6  C6  UNL d   1      -5.992   3.075  -2.514  0.00  0.00    -0.057 A 
ENDROOT
BRANCH   1   7
ATOM      7  N   UNL d   1      -4.991   2.961  -4.698  0.00  0.00    -0.732 N 
ATOM      8  C   UNL d   1      -5.438   1.919  -5.597  0.00  0.00     0.284 C 
ATOM      9  H3  UNL d   1      -5.367   3.882  -4.909  0.00  0.00     0.395 HD
ENDBRANCH   1   7
TORSDOF 1
ENDMDL
