MODEL 1
REMARK minimizedAffinity 6.4797492
REMARK minimizedRMSD -1
REMARK  1 active torsions:
REMARK  status: ('A' for Active; 'I' for Inactive)
REMARK    1  A    between atoms: N_2  and  C1_3 
ROOT
ATOM      1  C1  UNL d   1       2.384   0.041   2.473  0.00  0.00     0.143 A 
ATOM      2  C2  UNL d   1       2.742  -0.508   3.709  0.00  0.00    -0.057 A 
ATOM      3  C3  UNL d   1       2.343  -1.799   4.073  0.00  0.00     0.033 A 
ATOM      4  C4  UNL d   1       1.550  -2.556   3.216  0.00  0.00    -0.042 A 
ATOM      5  C5  UNL d   1       1.160  -2.021   1.993  0.00  0.00     0.033 A 
ATOM      6  C6  UNL d   1       1.569  -0.733   1.633  0.00  0.00    -0.057 A 
ENDROOT
BRANCH   1   7
ATOM      7  N   UNL d   1       2.667   1.356   2.094  0.00  0.00    -0.732 N 
ATOM      8  C   UNL d   1       3.008   1.671   0.723  0.00  0.00     0.284 C 
ATOM      9  H3  UNL d   1       2.043   2.029   2.532  0.00  0.00     0.395 HD
ENDBRANCH   1   7
TORSDOF 1
ENDMDL
