MODEL 1
REMARK minimizedAffinity 8.17530823
REMARK minimizedRMSD -1
REMARK  1 active torsions:
REMARK  status: ('A' for Active; 'I' for Inactive)
REMARK    1  A    between atoms: N_2  and  C1_3 
ROOT
ATOM      1  C1  UNL d   1       2.915  -0.153   1.968  0.00  0.00     0.143 A 
ATOM      2  C2  UNL d   1       1.872  -0.563   2.805  0.00  0.00    -0.057 A 
ATOM      3  C3  UNL d   1       2.079  -1.514   3.812  0.00  0.00     0.033 A 
ATOM      4  C4  UNL d   1       3.332  -2.095   3.980  0.00  0.00    -0.042 A 
ATOM      5  C5  UNL d   1       4.377  -1.721   3.144  0.00  0.00     0.033 A 
ATOM      6  C6  UNL d   1       4.165  -0.766   2.145  0.00  0.00    -0.057 A 
ENDROOT
BRANCH   1   7
ATOM      7  N   UNL d   1       2.749   0.715   0.886  0.00  0.00    -0.732 N 
ATOM      8  C   UNL d   1       2.224   2.049   1.084  0.00  0.00     0.284 C 
ATOM      9  H3  UNL d   1       3.523   0.666   0.227  0.00  0.00     0.395 HD
ENDBRANCH   1   7
TORSDOF 1
ENDMDL
