MODEL 1
REMARK minimizedAffinity 4.43450165
REMARK minimizedRMSD -1
REMARK  1 active torsions:
REMARK  status: ('A' for Active; 'I' for Inactive)
REMARK    1  A    between atoms: N_2  and  C1_3 
ROOT
ATOM      1  C1  UNL d   1      -4.419   2.632  -1.061  0.00  0.00     0.143 A 
ATOM      2  C2  UNL d   1      -5.677   3.040  -1.518  0.00  0.00    -0.057 A 
ATOM      3  C3  UNL d   1      -5.994   3.026  -2.881  0.00  0.00     0.033 A 
ATOM      4  C4  UNL d   1      -5.045   2.631  -3.818  0.00  0.00    -0.042 A 
ATOM      5  C5  UNL d   1      -3.780   2.246  -3.389  0.00  0.00     0.033 A 
ATOM      6  C6  UNL d   1      -3.472   2.255  -2.025  0.00  0.00    -0.057 A 
ENDROOT
BRANCH   1   7
ATOM      7  N   UNL d   1      -4.011   2.717   0.272  0.00  0.00    -0.732 N 
ATOM      8  C   UNL d   1      -2.922   1.900   0.763  0.00  0.00     0.284 C 
ATOM      9  H3  UNL d   1      -4.000   3.675   0.615  0.00  0.00     0.395 HD
ENDBRANCH   1   7
TORSDOF 1
ENDMDL
