MODEL 1
REMARK minimizedAffinity 0.468168139
REMARK minimizedRMSD -1
REMARK  2 active torsions:
REMARK  status: ('A' for Active; 'I' for Inactive)
REMARK    1  A    between atoms: C2'_3  and  C1'_4 
REMARK    2  A    between atoms: C1'_4  and  C1_5 
ROOT
ATOM      1  C1  I4B d   1      -3.608   0.262  -5.911  0.00  0.00    -0.075 A 
ATOM      2  C2  I4B d   1      -2.299   0.668  -5.844  0.00  0.00     0.003 A 
ATOM      3  C3  I4B d   1      -1.983   2.047  -5.790  0.00  0.00     0.002 A 
ATOM      4  C4  I4B d   1      -2.997   2.980  -5.857  0.00  0.00    -0.004 A 
ATOM      5  C5  I4B d   1      -4.325   2.566  -5.902  0.00  0.00     0.002 A 
ATOM      6  C6  I4B d   1      -4.634   1.198  -5.917  0.00  0.00     0.003 A 
ENDROOT
BRANCH   1   7
ATOM      7  C1' I4B d   1      -3.905  -1.202  -6.000  0.00  0.00     0.060 C 
BRANCH   7   8
ATOM      8  C2' I4B d   1      -5.273  -1.438  -5.393  0.00  0.00    -0.013 C 
ATOM      9  C4' I4B d   1      -5.933  -2.653  -5.992  0.00  0.00     0.013 C 
ATOM     10  C3' I4B d   1      -5.102  -1.590  -3.911  0.00  0.00     0.013 C 
ENDBRANCH   7   8
ENDBRANCH   1   7
TORSDOF 2
ENDMDL
