MODEL 1
REMARK minimizedAffinity 0.775489092
REMARK minimizedRMSD -1
REMARK  2 active torsions:
REMARK  status: ('A' for Active; 'I' for Inactive)
REMARK    1  A    between atoms: C2'_3  and  C1'_4 
REMARK    2  A    between atoms: C1'_4  and  C1_5 
ROOT
ATOM      1  C1  I4B d   1      -3.275  -0.299  -5.949  0.00  0.00    -0.075 A 
ATOM      2  C2  I4B d   1      -2.280   0.645  -5.907  0.00  0.00     0.003 A 
ATOM      3  C3  I4B d   1      -2.605   2.023  -5.891  0.00  0.00     0.002 A 
ATOM      4  C4  I4B d   1      -3.927   2.411  -5.970  0.00  0.00    -0.004 A 
ATOM      5  C5  I4B d   1      -4.936   1.452  -5.990  0.00  0.00     0.002 A 
ATOM      6  C6  I4B d   1      -4.609   0.088  -5.967  0.00  0.00     0.003 A 
ENDROOT
BRANCH   1   7
ATOM      7  C1' I4B d   1      -2.896  -1.745  -5.998  0.00  0.00     0.060 C 
BRANCH   7   8
ATOM      8  C2' I4B d   1      -3.831  -2.504  -5.080  0.00  0.00    -0.013 C 
ATOM      9  C4' I4B d   1      -4.845  -3.294  -5.866  0.00  0.00     0.013 C 
ATOM     10  C3' I4B d   1      -3.001  -3.402  -4.212  0.00  0.00     0.013 C 
ENDBRANCH   7   8
ENDBRANCH   1   7
TORSDOF 2
ENDMDL
