MODEL 1
REMARK minimizedAffinity 1.00359583
REMARK minimizedRMSD -1
REMARK  2 active torsions:
REMARK  status: ('A' for Active; 'I' for Inactive)
REMARK    1  A    between atoms: C2'_3  and  C1'_4 
REMARK    2  A    between atoms: C1'_4  and  C1_5 
ROOT
ATOM      1  C1  I4B d   1      -3.997   0.974  -5.893  0.00  0.00    -0.075 A 
ATOM      2  C2  I4B d   1      -2.775   1.594  -5.808  0.00  0.00     0.003 A 
ATOM      3  C3  I4B d   1      -2.695   3.005  -5.736  0.00  0.00     0.002 A 
ATOM      4  C4  I4B d   1      -3.851   3.756  -5.803  0.00  0.00    -0.004 A 
ATOM      5  C5  I4B d   1      -5.090   3.126  -5.865  0.00  0.00     0.002 A 
ATOM      6  C6  I4B d   1      -5.165   1.726  -5.898  0.00  0.00     0.003 A 
ENDROOT
BRANCH   1   7
ATOM      7  C1' I4B d   1      -4.044  -0.517  -6.000  0.00  0.00     0.060 C 
BRANCH   7   8
ATOM      8  C2' I4B d   1      -5.470  -0.959  -5.743  0.00  0.00    -0.013 C 
ATOM      9  C4' I4B d   1      -5.638  -2.434  -5.998  0.00  0.00     0.013 C 
ATOM     10  C3' I4B d   1      -5.814  -0.612  -4.325  0.00  0.00     0.013 C 
ENDBRANCH   7   8
ENDBRANCH   1   7
TORSDOF 2
ENDMDL
