MODEL 1
REMARK minimizedAffinity -0.120134421
REMARK minimizedRMSD -1
REMARK  2 active torsions:
REMARK  status: ('A' for Active; 'I' for Inactive)
REMARK    1  A    between atoms: C2'_3  and  C1'_4 
REMARK    2  A    between atoms: C1'_4  and  C1_5 
ROOT
ATOM      1  C1  I4B d   1      -4.289   1.065  -5.904  0.00  0.00    -0.075 A 
ATOM      2  C2  I4B d   1      -3.149   0.302  -5.859  0.00  0.00     0.003 A 
ATOM      3  C3  I4B d   1      -3.236  -1.111  -5.897  0.00  0.00     0.002 A 
ATOM      4  C4  I4B d   1      -4.475  -1.716  -5.931  0.00  0.00    -0.004 A 
ATOM      5  C5  I4B d   1      -5.629  -0.940  -6.000  0.00  0.00     0.002 A 
ATOM      6  C6  I4B d   1      -5.536   0.459  -5.999  0.00  0.00     0.003 A 
ENDROOT
BRANCH   1   7
ATOM      7  C1' I4B d   1      -4.164   2.553  -5.828  0.00  0.00     0.060 C 
BRANCH   7   8
ATOM      8  C2' I4B d   1      -2.701   2.908  -6.000  0.00  0.00    -0.013 C 
ATOM      9  C4' I4B d   1      -2.493   4.399  -5.969  0.00  0.00     0.013 C 
ATOM     10  C3' I4B d   1      -1.929   2.231  -4.906  0.00  0.00     0.013 C 
ENDBRANCH   7   8
ENDBRANCH   1   7
TORSDOF 2
ENDMDL
