MODEL 1
REMARK minimizedAffinity 1.52163625
REMARK minimizedRMSD -1
REMARK  2 active torsions:
REMARK  status: ('A' for Active; 'I' for Inactive)
REMARK    1  A    between atoms: C2'_3  and  C1'_4 
REMARK    2  A    between atoms: C1'_4  and  C1_5 
ROOT
ATOM      1  C1  I4B d   1      -4.456   1.762  -5.957  0.00  0.00    -0.075 A 
ATOM      2  C2  I4B d   1      -3.088   1.663  -5.985  0.00  0.00     0.003 A 
ATOM      3  C3  I4B d   1      -2.288   2.831  -5.976  0.00  0.00     0.002 A 
ATOM      4  C4  I4B d   1      -2.895   4.071  -5.991  0.00  0.00    -0.004 A 
ATOM      5  C5  I4B d   1      -4.282   4.169  -5.940  0.00  0.00     0.002 A 
ATOM      6  C6  I4B d   1      -5.068   3.008  -5.910  0.00  0.00     0.003 A 
ENDROOT
BRANCH   1   7
ATOM      7  C1' I4B d   1      -5.271   0.509  -6.000  0.00  0.00     0.060 C 
BRANCH   7   8
ATOM      8  C2' I4B d   1      -4.402  -0.630  -5.504  0.00  0.00    -0.013 C 
ATOM      9  C4' I4B d   1      -4.930  -1.961  -5.971  0.00  0.00     0.013 C 
ATOM     10  C3' I4B d   1      -3.006  -0.396  -6.000  0.00  0.00     0.013 C 
ENDBRANCH   7   8
ENDBRANCH   1   7
TORSDOF 2
ENDMDL
