MODEL 1
REMARK minimizedAffinity 2.39891052
REMARK minimizedRMSD -1
REMARK  2 active torsions:
REMARK  status: ('A' for Active; 'I' for Inactive)
REMARK    1  A    between atoms: C2'_3  and  C1'_4 
REMARK    2  A    between atoms: C1'_4  and  C1_5 
ROOT
ATOM      1  C1  I4B d   1      -3.717   1.551  -5.911  0.00  0.00    -0.075 A 
ATOM      2  C2  I4B d   1      -2.852   2.617  -5.887  0.00  0.00     0.003 A 
ATOM      3  C3  I4B d   1      -3.353   3.942  -5.904  0.00  0.00     0.002 A 
ATOM      4  C4  I4B d   1      -4.713   4.153  -5.995  0.00  0.00    -0.004 A 
ATOM      5  C5  I4B d   1      -5.590   3.072  -5.996  0.00  0.00     0.002 A 
ATOM      6  C6  I4B d   1      -5.090   1.763  -5.941  0.00  0.00     0.003 A 
ENDROOT
BRANCH   1   7
ATOM      7  C1' I4B d   1      -3.154   0.166  -5.925  0.00  0.00     0.060 C 
BRANCH   7   8
ATOM      8  C2' I4B d   1      -4.312  -0.809  -5.985  0.00  0.00    -0.013 C 
ATOM      9  C4' I4B d   1      -3.827  -2.234  -5.968  0.00  0.00     0.013 C 
ATOM     10  C3' I4B d   1      -5.213  -0.530  -4.819  0.00  0.00     0.013 C 
ENDBRANCH   7   8
ENDBRANCH   1   7
TORSDOF 2
ENDMDL
