MODEL 1
REMARK minimizedAffinity 1.36573339
REMARK minimizedRMSD -1
REMARK  2 active torsions:
REMARK  status: ('A' for Active; 'I' for Inactive)
REMARK    1  A    between atoms: C2'_3  and  C1'_4 
REMARK    2  A    between atoms: C1'_4  and  C1_5 
ROOT
ATOM      1  C1  I4B d   1      -2.722   0.115  -5.254  0.00  0.00    -0.075 A 
ATOM      2  C2  I4B d   1      -3.882  -0.522  -5.617  0.00  0.00     0.003 A 
ATOM      3  C3  I4B d   1      -5.019   0.231  -5.999  0.00  0.00     0.002 A 
ATOM      4  C4  I4B d   1      -4.968   1.609  -5.955  0.00  0.00    -0.004 A 
ATOM      5  C5  I4B d   1      -3.783   2.253  -5.608  0.00  0.00     0.002 A 
ATOM      6  C6  I4B d   1      -2.649   1.501  -5.267  0.00  0.00     0.003 A 
ENDROOT
BRANCH   1   7
ATOM      7  C1' I4B d   1      -1.550  -0.711  -4.825  0.00  0.00     0.060 C 
BRANCH   7   8
ATOM      8  C2' I4B d   1      -1.465  -0.651  -3.313  0.00  0.00    -0.013 C 
ATOM      9  C4' I4B d   1      -2.186  -1.811  -2.680  0.00  0.00     0.013 C 
ATOM     10  C3' I4B d   1      -0.015  -0.640  -2.931  0.00  0.00     0.013 C 
ENDBRANCH   7   8
ENDBRANCH   1   7
TORSDOF 2
ENDMDL
