MODEL 1
REMARK minimizedAffinity 9.8517952
REMARK minimizedRMSD -1
REMARK  2 active torsions:
REMARK  status: ('A' for Active; 'I' for Inactive)
REMARK    1  A    between atoms: C2'_3  and  C1'_4 
REMARK    2  A    between atoms: C1'_4  and  C1_5 
ROOT
ATOM      1  C1  I4B d   1       0.340  -0.048   0.602  0.00  0.00    -0.075 A 
ATOM      2  C2  I4B d   1      -0.393  -1.103   0.117  0.00  0.00     0.003 A 
ATOM      3  C3  I4B d   1      -0.182  -1.571  -1.203  0.00  0.00     0.002 A 
ATOM      4  C4  I4B d   1       0.729  -0.927  -2.014  0.00  0.00    -0.004 A 
ATOM      5  C5  I4B d   1       1.488   0.127  -1.514  0.00  0.00     0.002 A 
ATOM      6  C6  I4B d   1       1.301   0.562  -0.194  0.00  0.00     0.003 A 
ENDROOT
BRANCH   1   7
ATOM      7  C1' I4B d   1       0.068   0.441   1.989  0.00  0.00     0.060 C 
BRANCH   7   8
ATOM      8  C2' I4B d   1       1.382   0.458   2.744  0.00  0.00    -0.013 C 
ATOM      9  C4' I4B d   1       1.840   1.868   3.009  0.00  0.00     0.013 C 
ATOM     10  C3' I4B d   1       1.190  -0.299   4.024  0.00  0.00     0.013 C 
ENDBRANCH   7   8
ENDBRANCH   1   7
TORSDOF 2
ENDMDL
