MODEL 1
REMARK minimizedAffinity 0.622116625
REMARK minimizedRMSD -1
REMARK  2 active torsions:
REMARK  status: ('A' for Active; 'I' for Inactive)
REMARK    1  A    between atoms: C2'_3  and  C1'_4 
REMARK    2  A    between atoms: C1'_4  and  C1_5 
ROOT
ATOM      1  C1  I4B d   1      -4.698   0.039  -5.979  0.00  0.00    -0.075 A 
ATOM      2  C2  I4B d   1      -3.350  -0.217  -5.984  0.00  0.00     0.003 A 
ATOM      3  C3  I4B d   1      -2.878  -1.552  -6.000  0.00  0.00     0.002 A 
ATOM      4  C4  I4B d   1      -3.782  -2.593  -5.960  0.00  0.00    -0.004 A 
ATOM      5  C5  I4B d   1      -5.149  -2.332  -5.978  0.00  0.00     0.002 A 
ATOM      6  C6  I4B d   1      -5.611  -1.008  -6.000  0.00  0.00     0.003 A 
ENDROOT
BRANCH   1   7
ATOM      7  C1' I4B d   1      -5.162   1.460  -5.928  0.00  0.00     0.060 C 
BRANCH   7   8
ATOM      8  C2' I4B d   1      -4.037   2.298  -5.355  0.00  0.00    -0.013 C 
ATOM      9  C4' I4B d   1      -2.719   1.954  -5.997  0.00  0.00     0.013 C 
ATOM     10  C3' I4B d   1      -4.382   3.742  -5.566  0.00  0.00     0.013 C 
ENDBRANCH   7   8
ENDBRANCH   1   7
TORSDOF 2
ENDMDL
