MODEL 1
REMARK minimizedAffinity 2.56183386
REMARK minimizedRMSD -1
REMARK  2 active torsions:
REMARK  status: ('A' for Active; 'I' for Inactive)
REMARK    1  A    between atoms: C2'_3  and  C1'_4 
REMARK    2  A    between atoms: C1'_4  and  C1_5 
ROOT
ATOM      1  C1  I4B d   1      -3.283   2.126  -5.912  0.00  0.00    -0.075 A 
ATOM      2  C2  I4B d   1      -4.342   1.255  -5.863  0.00  0.00     0.003 A 
ATOM      3  C3  I4B d   1      -5.670   1.746  -5.890  0.00  0.00     0.002 A 
ATOM      4  C4  I4B d   1      -5.891   3.108  -5.915  0.00  0.00    -0.004 A 
ATOM      5  C5  I4B d   1      -4.815   3.988  -5.989  0.00  0.00     0.002 A 
ATOM      6  C6  I4B d   1      -3.503   3.494  -6.000  0.00  0.00     0.003 A 
ENDROOT
BRANCH   1   7
ATOM      7  C1' I4B d   1      -1.893   1.575  -5.849  0.00  0.00     0.060 C 
BRANCH   7   8
ATOM      8  C2' I4B d   1      -1.947   0.257  -5.102  0.00  0.00    -0.013 C 
ATOM      9  C4' I4B d   1      -2.414  -0.859  -6.000  0.00  0.00     0.013 C 
ATOM     10  C3' I4B d   1      -0.579  -0.022  -4.557  0.00  0.00     0.013 C 
ENDBRANCH   7   8
ENDBRANCH   1   7
TORSDOF 2
ENDMDL
