MODEL 1
REMARK minimizedAffinity 1.41844106
REMARK minimizedRMSD -1
REMARK  2 active torsions:
REMARK  status: ('A' for Active; 'I' for Inactive)
REMARK    1  A    between atoms: C2'_3  and  C1'_4 
REMARK    2  A    between atoms: C1'_4  and  C1_5 
ROOT
ATOM      1  C1  I4B d   1      -3.806   1.063  -5.939  0.00  0.00    -0.075 A 
ATOM      2  C2  I4B d   1      -2.683   1.850  -5.901  0.00  0.00     0.003 A 
ATOM      3  C3  I4B d   1      -2.801   3.261  -5.883  0.00  0.00     0.002 A 
ATOM      4  C4  I4B d   1      -4.052   3.839  -5.956  0.00  0.00    -0.004 A 
ATOM      5  C5  I4B d   1      -5.191   3.039  -5.972  0.00  0.00     0.002 A 
ATOM      6  C6  I4B d   1      -5.069   1.642  -5.951  0.00  0.00     0.003 A 
ENDROOT
BRANCH   1   7
ATOM      7  C1' I4B d   1      -3.644  -0.423  -5.990  0.00  0.00     0.060 C 
BRANCH   7   8
ATOM      8  C2' I4B d   1      -5.011  -1.049  -5.807  0.00  0.00    -0.013 C 
ATOM      9  C4' I4B d   1      -4.957  -2.542  -5.996  0.00  0.00     0.013 C 
ATOM     10  C3' I4B d   1      -5.503  -0.695  -4.435  0.00  0.00     0.013 C 
ENDBRANCH   7   8
ENDBRANCH   1   7
TORSDOF 2
ENDMDL
