MODEL 1
REMARK minimizedAffinity 1.01804411
REMARK minimizedRMSD -1
REMARK  2 active torsions:
REMARK  status: ('A' for Active; 'I' for Inactive)
REMARK    1  A    between atoms: C2'_3  and  C1'_4 
REMARK    2  A    between atoms: C1'_4  and  C1_5 
ROOT
ATOM      1  C1  I4B d   1      -3.593  -4.451  -5.893  0.00  0.00    -0.075 A 
ATOM      2  C2  I4B d   1      -3.387  -3.101  -5.760  0.00  0.00     0.003 A 
ATOM      3  C3  I4B d   1      -4.488  -2.211  -5.730  0.00  0.00     0.002 A 
ATOM      4  C4  I4B d   1      -5.766  -2.707  -5.887  0.00  0.00    -0.004 A 
ATOM      5  C5  I4B d   1      -5.975  -4.079  -5.999  0.00  0.00     0.002 A 
ATOM      6  C6  I4B d   1      -4.882  -4.958  -5.990  0.00  0.00     0.003 A 
ENDROOT
BRANCH   1   7
ATOM      7  C1' I4B d   1      -2.405  -5.359  -5.954  0.00  0.00     0.060 C 
BRANCH   7   8
ATOM      8  C2' I4B d   1      -1.882  -5.539  -4.543  0.00  0.00    -0.013 C 
ATOM      9  C4' I4B d   1      -0.449  -6.000  -4.548  0.00  0.00     0.013 C 
ATOM     10  C3' I4B d   1      -2.027  -4.230  -3.826  0.00  0.00     0.013 C 
ENDBRANCH   7   8
ENDBRANCH   1   7
TORSDOF 2
ENDMDL
