MODEL 1
REMARK minimizedAffinity 2.59657168
REMARK minimizedRMSD -1
REMARK  2 active torsions:
REMARK  status: ('A' for Active; 'I' for Inactive)
REMARK    1  A    between atoms: C2'_3  and  C1'_4 
REMARK    2  A    between atoms: C1'_4  and  C1_5 
ROOT
ATOM      1  C1  I4B d   1      -3.679  -4.985  -5.686  0.00  0.00    -0.075 A 
ATOM      2  C2  I4B d   1      -3.360  -3.658  -5.540  0.00  0.00     0.003 A 
ATOM      3  C3  I4B d   1      -4.372  -2.670  -5.602  0.00  0.00     0.002 A 
ATOM      4  C4  I4B d   1      -5.674  -3.047  -5.862  0.00  0.00    -0.004 A 
ATOM      5  C5  I4B d   1      -5.999  -4.395  -5.987  0.00  0.00     0.002 A 
ATOM      6  C6  I4B d   1      -4.997  -5.371  -5.887  0.00  0.00     0.003 A 
ENDROOT
BRANCH   1   7
ATOM      7  C1' I4B d   1      -2.580  -5.999  -5.647  0.00  0.00     0.060 C 
BRANCH   7   8
ATOM      8  C2' I4B d   1      -1.531  -5.513  -4.667  0.00  0.00    -0.013 C 
ATOM      9  C4' I4B d   1      -1.822  -5.998  -3.272  0.00  0.00     0.013 C 
ATOM     10  C3' I4B d   1      -0.194  -6.000  -5.141  0.00  0.00     0.013 C 
ENDBRANCH   7   8
ENDBRANCH   1   7
TORSDOF 2
ENDMDL
