MODEL 1
REMARK minimizedAffinity -4.42051935
REMARK minimizedRMSD -1
REMARK  1 active torsions:
REMARK  status: ('A' for Active; 'I' for Inactive)
REMARK    1  A    between atoms: N_2  and  C1_3 
ROOT
ATOM      1  C1  UNL d   1       0.327   0.568   0.055  0.00  0.00     0.143 A 
ATOM      2  C2  UNL d   1      -0.043   0.681  -1.289  0.00  0.00    -0.057 A 
ATOM      3  C3  UNL d   1      -1.312   0.285  -1.729  0.00  0.00     0.033 A 
ATOM      4  C4  UNL d   1      -2.225  -0.262  -0.833  0.00  0.00    -0.042 A 
ATOM      5  C5  UNL d   1      -1.870  -0.407   0.503  0.00  0.00     0.033 A 
ATOM      6  C6  UNL d   1      -0.604  -0.003   0.937  0.00  0.00    -0.057 A 
ENDROOT
BRANCH   1   7
ATOM      7  N   UNL d   1       1.608   0.853   0.535  0.00  0.00    -0.732 N 
ATOM      8  C   UNL d   1       1.817   1.926   1.483  0.00  0.00     0.284 C 
ATOM      9  H3  UNL d   1       2.144   0.011   0.735  0.00  0.00     0.395 HD
ENDBRANCH   1   7
TORSDOF 1
ENDMDL
