MODEL 1
REMARK minimizedAffinity -2.03734851
REMARK minimizedRMSD -1
REMARK  1 active torsions:
REMARK  status: ('A' for Active; 'I' for Inactive)
REMARK    1  A    between atoms: N_2  and  C1_3 
ROOT
ATOM      1  C1  UNL d   1       0.689   0.441   0.611  0.00  0.00     0.143 A 
ATOM      2  C2  UNL d   1       1.882   0.390  -0.118  0.00  0.00    -0.057 A 
ATOM      3  C3  UNL d   1       2.989   1.168   0.245  0.00  0.00     0.033 A 
ATOM      4  C4  UNL d   1       2.911   2.035   1.330  0.00  0.00    -0.042 A 
ATOM      5  C5  UNL d   1       1.727   2.120   2.054  0.00  0.00     0.033 A 
ATOM      6  C6  UNL d   1       0.628   1.336   1.691  0.00  0.00    -0.057 A 
ENDROOT
BRANCH   1   7
ATOM      7  N   UNL d   1      -0.477  -0.234   0.242  0.00  0.00    -0.732 N 
ATOM      8  C   UNL d   1      -1.328   0.285  -0.807  0.00  0.00     0.284 C 
ATOM      9  H3  UNL d   1      -0.349  -1.243   0.213  0.00  0.00     0.395 HD
ENDBRANCH   1   7
TORSDOF 1
ENDMDL
