MODEL 1
REMARK minimizedAffinity -4.59141636
REMARK minimizedRMSD -1
REMARK  1 active torsions:
REMARK  status: ('A' for Active; 'I' for Inactive)
REMARK    1  A    between atoms: N_2  and  C1_3 
ROOT
ATOM      1  C1  UNL d   1      -0.350   0.028   0.281  0.00  0.00     0.143 A 
ATOM      2  C2  UNL d   1      -1.354  -0.287   1.204  0.00  0.00    -0.057 A 
ATOM      3  C3  UNL d   1      -2.652  -0.603   0.785  0.00  0.00     0.033 A 
ATOM      4  C4  UNL d   1      -2.977  -0.582  -0.567  0.00  0.00    -0.042 A 
ATOM      5  C5  UNL d   1      -2.002  -0.247  -1.500  0.00  0.00     0.033 A 
ATOM      6  C6  UNL d   1      -0.706   0.061  -1.076  0.00  0.00    -0.057 A 
ENDROOT
BRANCH   1   7
ATOM      7  N   UNL d   1       0.933   0.447   0.641  0.00  0.00    -0.732 N 
ATOM      8  C   UNL d   1       2.098  -0.082  -0.036  0.00  0.00     0.284 C 
ATOM      9  H3  UNL d   1       0.978   1.446   0.826  0.00  0.00     0.395 HD
ENDBRANCH   1   7
TORSDOF 1
ENDMDL
