MODEL 1
REMARK minimizedAffinity -3.54061174
REMARK minimizedRMSD -1
REMARK  1 active torsions:
REMARK  status: ('A' for Active; 'I' for Inactive)
REMARK    1  A    between atoms: N_2  and  C1_3 
ROOT
ATOM      1  C1  UNL d   1       0.696   0.111   0.085  0.00  0.00     0.143 A 
ATOM      2  C2  UNL d   1      -0.113  -0.546   1.018  0.00  0.00    -0.057 A 
ATOM      3  C3  UNL d   1      -1.442  -0.872   0.725  0.00  0.00     0.033 A 
ATOM      4  C4  UNL d   1      -1.997  -0.519  -0.501  0.00  0.00    -0.042 A 
ATOM      5  C5  UNL d   1      -1.219   0.156  -1.435  0.00  0.00     0.033 A 
ATOM      6  C6  UNL d   1       0.110   0.473  -1.138  0.00  0.00    -0.057 A 
ENDROOT
BRANCH   1   7
ATOM      7  N   UNL d   1       1.995   0.550   0.353  0.00  0.00    -0.732 N 
ATOM      8  C   UNL d   1       2.224   1.830   0.988  0.00  0.00     0.284 C 
ATOM      9  H3  UNL d   1       2.594  -0.197   0.697  0.00  0.00     0.395 HD
ENDBRANCH   1   7
TORSDOF 1
ENDMDL
