MODEL 1
REMARK minimizedAffinity -4.32360888
REMARK minimizedRMSD -1
REMARK  1 active torsions:
REMARK  status: ('A' for Active; 'I' for Inactive)
REMARK    1  A    between atoms: N_2  and  C1_3 
ROOT
ATOM      1  C1  UNL d   1      -0.690   0.076  -0.196  0.00  0.00     0.143 A 
ATOM      2  C2  UNL d   1      -1.130  -0.400  -1.436  0.00  0.00    -0.057 A 
ATOM      3  C3  UNL d   1      -2.352  -1.070  -1.565  0.00  0.00     0.033 A 
ATOM      4  C4  UNL d   1      -3.147  -1.301  -0.447  0.00  0.00    -0.042 A 
ATOM      5  C5  UNL d   1      -2.718  -0.858   0.800  0.00  0.00     0.033 A 
ATOM      6  C6  UNL d   1      -1.500  -0.184   0.921  0.00  0.00    -0.057 A 
ENDROOT
BRANCH   1   7
ATOM      7  N   UNL d   1       0.560   0.662   0.013  0.00  0.00    -0.732 N 
ATOM      8  C   UNL d   1       1.674  -0.128   0.492  0.00  0.00     0.284 C 
ATOM      9  H3  UNL d   1       0.806   1.326  -0.718  0.00  0.00     0.395 HD
ENDBRANCH   1   7
TORSDOF 1
ENDMDL
