MODEL 1
REMARK minimizedAffinity -1.6436801
REMARK minimizedRMSD -1
REMARK  1 active torsions:
REMARK  status: ('A' for Active; 'I' for Inactive)
REMARK    1  A    between atoms: N_2  and  C1_3 
ROOT
ATOM      1  C1  UNL d   1       0.999   0.141   0.553  0.00  0.00     0.143 A 
ATOM      2  C2  UNL d   1       0.869  -1.057   1.264  0.00  0.00    -0.057 A 
ATOM      3  C3  UNL d   1      -0.329  -1.782   1.253  0.00  0.00     0.033 A 
ATOM      4  C4  UNL d   1      -1.431  -1.305   0.551  0.00  0.00    -0.042 A 
ATOM      5  C5  UNL d   1      -1.333  -0.104  -0.142  0.00  0.00     0.033 A 
ATOM      6  C6  UNL d   1      -0.132   0.612  -0.133  0.00  0.00    -0.057 A 
ENDROOT
BRANCH   1   7
ATOM      7  N   UNL d   1       2.131   0.958   0.605  0.00  0.00    -0.732 N 
ATOM      8  C   UNL d   1       2.167   2.113   1.475  0.00  0.00     0.284 C 
ATOM      9  H3  UNL d   1       2.997   0.423   0.588  0.00  0.00     0.395 HD
ENDBRANCH   1   7
TORSDOF 1
ENDMDL
