MODEL 1
REMARK minimizedAffinity -1.46518087
REMARK minimizedRMSD -1
REMARK  1 active torsions:
REMARK  status: ('A' for Active; 'I' for Inactive)
REMARK    1  A    between atoms: N_2  and  C1_3 
ROOT
ATOM      1  C1  UNL d   1       0.485  -0.311   0.807  0.00  0.00     0.143 A 
ATOM      2  C2  UNL d   1       0.620  -1.428   1.639  0.00  0.00    -0.057 A 
ATOM      3  C3  UNL d   1      -0.490  -2.195   2.012  0.00  0.00     0.033 A 
ATOM      4  C4  UNL d   1      -1.764  -1.840   1.582  0.00  0.00    -0.042 A 
ATOM      5  C5  UNL d   1      -1.926  -0.719   0.775  0.00  0.00     0.033 A 
ATOM      6  C6  UNL d   1      -0.812   0.038   0.400  0.00  0.00    -0.057 A 
ENDROOT
BRANCH   1   7
ATOM      7  N   UNL d   1       1.537   0.548   0.481  0.00  0.00    -0.732 N 
ATOM      8  C   UNL d   1       1.820   1.709   1.298  0.00  0.00     0.284 C 
ATOM      9  H3  UNL d   1       2.365   0.047   0.169  0.00  0.00     0.395 HD
ENDBRANCH   1   7
TORSDOF 1
ENDMDL
