MODEL 1
REMARK minimizedAffinity -5.21838713
REMARK minimizedRMSD -1
REMARK  1 active torsions:
REMARK  status: ('A' for Active; 'I' for Inactive)
REMARK    1  A    between atoms: N_2  and  C1_3 
ROOT
ATOM      1  C1  UNL d   1      -0.367  -0.240   0.205  0.00  0.00     0.143 A 
ATOM      2  C2  UNL d   1      -1.242   0.236  -0.777  0.00  0.00    -0.057 A 
ATOM      3  C3  UNL d   1      -2.581  -0.170  -0.815  0.00  0.00     0.033 A 
ATOM      4  C4  UNL d   1      -3.064  -1.085   0.115  0.00  0.00    -0.042 A 
ATOM      5  C5  UNL d   1      -2.206  -1.590   1.085  0.00  0.00     0.033 A 
ATOM      6  C6  UNL d   1      -0.871  -1.176   1.122  0.00  0.00    -0.057 A 
ENDROOT
BRANCH   1   7
ATOM      7  N   UNL d   1       0.999   0.049   0.237  0.00  0.00    -0.732 N 
ATOM      8  C   UNL d   1       1.471   1.327   0.725  0.00  0.00     0.284 C 
ATOM      9  H3  UNL d   1       1.557  -0.745   0.543  0.00  0.00     0.395 HD
ENDBRANCH   1   7
TORSDOF 1
ENDMDL
