MODEL 1
REMARK minimizedAffinity -0.997600079
REMARK minimizedRMSD -1
REMARK  1 active torsions:
REMARK  status: ('A' for Active; 'I' for Inactive)
REMARK    1  A    between atoms: N_2  and  C1_3 
ROOT
ATOM      1  C1  UNL d   1       0.002   0.066  -0.080  0.00  0.00     0.143 A 
ATOM      2  C2  UNL d   1      -1.378  -0.113   0.061  0.00  0.00    -0.057 A 
ATOM      3  C3  UNL d   1      -1.904  -0.947   1.056  0.00  0.00     0.033 A 
ATOM      4  C4  UNL d   1      -1.055  -1.641   1.911  0.00  0.00    -0.042 A 
ATOM      5  C5  UNL d   1       0.321  -1.497   1.773  0.00  0.00     0.033 A 
ATOM      6  C6  UNL d   1       0.840  -0.658   0.783  0.00  0.00    -0.057 A 
ENDROOT
BRANCH   1   7
ATOM      7  N   UNL d   1       0.589   0.804  -1.111  0.00  0.00    -0.732 N 
ATOM      8  C   UNL d   1       0.372   0.439  -2.494  0.00  0.00     0.284 C 
ATOM      9  H3  UNL d   1       0.563   1.806  -0.935  0.00  0.00     0.395 HD
ENDBRANCH   1   7
TORSDOF 1
ENDMDL
