MODEL 1
REMARK minimizedAffinity -4.71843767
REMARK minimizedRMSD -1
REMARK  1 active torsions:
REMARK  status: ('A' for Active; 'I' for Inactive)
REMARK    1  A    between atoms: N_2  and  C1_3 
ROOT
ATOM      1  C1  UNL d   1      -1.323  -0.645  -0.485  0.00  0.00     0.143 A 
ATOM      2  C2  UNL d   1      -0.270   0.086  -1.048  0.00  0.00    -0.057 A 
ATOM      3  C3  UNL d   1       0.981   0.154  -0.425  0.00  0.00     0.033 A 
ATOM      4  C4  UNL d   1       1.195  -0.486   0.792  0.00  0.00    -0.042 A 
ATOM      5  C5  UNL d   1       0.156  -1.198   1.382  0.00  0.00     0.033 A 
ATOM      6  C6  UNL d   1      -1.090  -1.267   0.751  0.00  0.00    -0.057 A 
ENDROOT
BRANCH   1   7
ATOM      7  N   UNL d   1      -2.619  -0.669  -1.007  0.00  0.00    -0.732 N 
ATOM      8  C   UNL d   1      -3.629  -1.530  -0.430  0.00  0.00     0.284 C 
ATOM      9  H3  UNL d   1      -2.955   0.259  -1.255  0.00  0.00     0.395 HD
ENDBRANCH   1   7
TORSDOF 1
ENDMDL
