MODEL 1
REMARK minimizedAffinity -2.5273335
REMARK minimizedRMSD -1
REMARK  1 active torsions:
REMARK  status: ('A' for Active; 'I' for Inactive)
REMARK    1  A    between atoms: N_2  and  C1_3 
ROOT
ATOM      1  C1  UNL d   1       0.275   0.212   0.157  0.00  0.00     0.143 A 
ATOM      2  C2  UNL d   1      -0.242  -0.117  -1.101  0.00  0.00    -0.057 A 
ATOM      3  C3  UNL d   1      -1.571  -0.528  -1.255  0.00  0.00     0.033 A 
ATOM      4  C4  UNL d   1      -2.403  -0.644  -0.146  0.00  0.00    -0.042 A 
ATOM      5  C5  UNL d   1      -1.904  -0.347   1.117  0.00  0.00     0.033 A 
ATOM      6  C6  UNL d   1      -0.577   0.069   1.264  0.00  0.00    -0.057 A 
ENDROOT
BRANCH   1   7
ATOM      7  N   UNL d   1       1.615   0.531   0.388  0.00  0.00    -0.732 N 
ATOM      8  C   UNL d   1       1.973   1.742   1.095  0.00  0.00     0.284 C 
ATOM      9  H3  UNL d   1       2.168  -0.282   0.650  0.00  0.00     0.395 HD
ENDBRANCH   1   7
TORSDOF 1
ENDMDL
