MODEL 1
REMARK minimizedAffinity 0.835954309
REMARK minimizedRMSD -1
REMARK  1 active torsions:
REMARK  status: ('A' for Active; 'I' for Inactive)
REMARK    1  A    between atoms: N_2  and  C1_3 
ROOT
ATOM      1  C1  UNL d   1       0.282  -0.253   0.214  0.00  0.00     0.143 A 
ATOM      2  C2  UNL d   1      -1.067   0.082   0.375  0.00  0.00    -0.057 A 
ATOM      3  C3  UNL d   1      -1.887  -0.618   1.268  0.00  0.00     0.033 A 
ATOM      4  C4  UNL d   1      -1.378  -1.687   1.998  0.00  0.00    -0.042 A 
ATOM      5  C5  UNL d   1      -0.046  -2.053   1.836  0.00  0.00     0.033 A 
ATOM      6  C6  UNL d   1       0.769  -1.346   0.947  0.00  0.00    -0.057 A 
ENDROOT
BRANCH   1   7
ATOM      7  N   UNL d   1       1.123   0.341  -0.730  0.00  0.00    -0.732 N 
ATOM      8  C   UNL d   1       0.873   0.177  -2.146  0.00  0.00     0.284 C 
ATOM      9  H3  UNL d   1       1.404   1.282  -0.463  0.00  0.00     0.395 HD
ENDBRANCH   1   7
TORSDOF 1
ENDMDL
