MODEL 1
REMARK minimizedAffinity 0.268533498
REMARK minimizedRMSD -1
REMARK  0 active torsions:
REMARK  status: ('A' for Active; 'I' for Inactive)
ROOT
ATOM      1  C   UNL d   1       0.553   1.848  -2.597  0.00  0.00    -0.002 A 
ATOM      2  C1  UNL d   1       1.064   2.500  -1.483  0.00  0.00     0.010 A 
ATOM      3  C2  UNL d   1       1.220   1.821  -0.273  0.00  0.00     0.041 A 
ATOM      4  C3  UNL d   1       0.854   0.462  -0.201  0.00  0.00    -0.075 A 
ATOM      5  S   UNL d   1       0.958  -0.571   1.174  0.00  0.00     0.015 SA
ATOM      6  C4  UNL d   1       0.328  -1.902   0.316  0.00  0.00     0.022 A 
ATOM      7  C5  UNL d   1       0.040  -1.583  -0.990  0.00  0.00     0.026 A 
ATOM      8  C6  UNL d   1       0.338  -0.215  -1.310  0.00  0.00    -0.082 A 
ATOM      9  C7  UNL d   1       0.190   0.501  -2.522  0.00  0.00     0.045 A 
ENDROOT
TORSDOF 0
ENDMDL
