MODEL 1
REMARK minimizedAffinity 3.51927805
REMARK minimizedRMSD -1
REMARK  0 active torsions:
REMARK  status: ('A' for Active; 'I' for Inactive)
ROOT
ATOM      1  C   UNL d   1       0.571   1.890  -2.140  0.00  0.00    -0.002 A 
ATOM      2  C1  UNL d   1       0.775   2.528  -0.925  0.00  0.00     0.010 A 
ATOM      3  C2  UNL d   1       0.802   1.797   0.265  0.00  0.00     0.041 A 
ATOM      4  C3  UNL d   1       0.619   0.401   0.212  0.00  0.00    -0.075 A 
ATOM      5  S   UNL d   1       0.613  -0.697   1.541  0.00  0.00     0.015 SA
ATOM      6  C4  UNL d   1       0.339  -2.039   0.526  0.00  0.00     0.022 A 
ATOM      7  C5  UNL d   1       0.252  -1.676  -0.797  0.00  0.00     0.026 A 
ATOM      8  C6  UNL d   1       0.412  -0.263  -1.000  0.00  0.00    -0.082 A 
ATOM      9  C7  UNL d   1       0.390   0.505  -2.189  0.00  0.00     0.045 A 
ENDROOT
TORSDOF 0
ENDMDL
