MODEL 1
REMARK minimizedAffinity 1.32497156
REMARK minimizedRMSD -1
REMARK  0 active torsions:
REMARK  status: ('A' for Active; 'I' for Inactive)
ROOT
ATOM      1  C   UNL d   1       1.668   1.012  -0.665  0.00  0.00    -0.002 A 
ATOM      2  C1  UNL d   1       2.357  -0.007  -0.022  0.00  0.00     0.010 A 
ATOM      3  C2  UNL d   1       1.671  -0.966   0.726  0.00  0.00     0.041 A 
ATOM      4  C3  UNL d   1       0.268  -0.884   0.817  0.00  0.00    -0.075 A 
ATOM      5  S   UNL d   1      -0.782  -1.947   1.676  0.00  0.00     0.015 SA
ATOM      6  C4  UNL d   1      -2.170  -1.075   1.209  0.00  0.00     0.022 A 
ATOM      7  C5  UNL d   1      -1.858   0.005   0.417  0.00  0.00     0.026 A 
ATOM      8  C6  UNL d   1      -0.448   0.132   0.177  0.00  0.00    -0.082 A 
ATOM      9  C7  UNL d   1       0.276   1.090  -0.573  0.00  0.00     0.045 A 
ENDROOT
TORSDOF 0
ENDMDL
