MODEL 1
REMARK minimizedAffinity -3.80647612
REMARK minimizedRMSD -1
REMARK  0 active torsions:
REMARK  status: ('A' for Active; 'I' for Inactive)
ROOT
ATOM      1  C   UNL d   1       3.681   2.058  -1.427  0.00  0.00    -0.002 A 
ATOM      2  C1  UNL d   1       4.039   2.375  -2.729  0.00  0.00     0.010 A 
ATOM      3  C2  UNL d   1       3.139   2.182  -3.780  0.00  0.00     0.041 A 
ATOM      4  C3  UNL d   1       1.861   1.663  -3.496  0.00  0.00    -0.075 A 
ATOM      5  S   UNL d   1       0.595   1.344  -4.622  0.00  0.00     0.015 SA
ATOM      6  C4  UNL d   1      -0.451   0.781  -3.400  0.00  0.00     0.022 A 
ATOM      7  C5  UNL d   1       0.135   0.827  -2.158  0.00  0.00     0.026 A 
ATOM      8  C6  UNL d   1       1.477   1.337  -2.192  0.00  0.00    -0.082 A 
ATOM      9  C7  UNL d   1       2.412   1.542  -1.149  0.00  0.00     0.045 A 
ENDROOT
TORSDOF 0
ENDMDL
