MODEL 1
REMARK minimizedAffinity -5.22618914
REMARK minimizedRMSD -1
REMARK  0 active torsions:
REMARK  status: ('A' for Active; 'I' for Inactive)
ROOT
ATOM      1  C   UNL d   1      -0.500  -3.381  -0.074  0.00  0.00    -0.002 A 
ATOM      2  C1  UNL d   1      -0.900  -2.779   1.111  0.00  0.00     0.010 A 
ATOM      3  C2  UNL d   1      -0.741  -1.405   1.300  0.00  0.00     0.041 A 
ATOM      4  C3  UNL d   1      -0.168  -0.637   0.266  0.00  0.00    -0.075 A 
ATOM      5  S   UNL d   1       0.124   1.062   0.273  0.00  0.00     0.015 SA
ATOM      6  C4  UNL d   1       0.786   1.030  -1.297  0.00  0.00     0.022 A 
ATOM      7  C5  UNL d   1       0.792  -0.238  -1.828  0.00  0.00     0.026 A 
ATOM      8  C6  UNL d   1       0.242  -1.220  -0.936  0.00  0.00    -0.082 A 
ATOM      9  C7  UNL d   1       0.067  -2.616  -1.096  0.00  0.00     0.045 A 
ENDROOT
TORSDOF 0
ENDMDL
