MODEL 1
REMARK minimizedAffinity -2.91330528
REMARK minimizedRMSD -1
REMARK  0 active torsions:
REMARK  status: ('A' for Active; 'I' for Inactive)
ROOT
ATOM      1  C   UNL d   1      -2.622  -2.197   0.748  0.00  0.00    -0.002 A 
ATOM      2  C1  UNL d   1      -1.534  -2.928   1.203  0.00  0.00     0.010 A 
ATOM      3  C2  UNL d   1      -0.289  -2.319   1.369  0.00  0.00     0.041 A 
ATOM      4  C3  UNL d   1      -0.154  -0.949   1.069  0.00  0.00    -0.075 A 
ATOM      5  S   UNL d   1       1.274   0.007   1.198  0.00  0.00     0.015 SA
ATOM      6  C4  UNL d   1       0.474   1.410   0.653  0.00  0.00     0.022 A 
ATOM      7  C5  UNL d   1      -0.851   1.172   0.374  0.00  0.00     0.026 A 
ATOM      8  C6  UNL d   1      -1.235  -0.192   0.610  0.00  0.00    -0.082 A 
ATOM      9  C7  UNL d   1      -2.485  -0.838   0.451  0.00  0.00     0.045 A 
ENDROOT
TORSDOF 0
ENDMDL
