MODEL 1
REMARK minimizedAffinity -4.04986763
REMARK minimizedRMSD -1
REMARK  0 active torsions:
REMARK  status: ('A' for Active; 'I' for Inactive)
ROOT
ATOM      1  C   UNL d   1      -1.525  -2.697  -0.234  0.00  0.00    -0.002 A 
ATOM      2  C1  UNL d   1      -1.440  -2.373   1.113  0.00  0.00     0.010 A 
ATOM      3  C2  UNL d   1      -0.764  -1.224   1.525  0.00  0.00     0.041 A 
ATOM      4  C3  UNL d   1      -0.170  -0.395   0.552  0.00  0.00    -0.075 A 
ATOM      5  S   UNL d   1       0.707   1.063   0.824  0.00  0.00     0.015 SA
ATOM      6  C4  UNL d   1       0.989   1.292  -0.841  0.00  0.00     0.022 A 
ATOM      7  C5  UNL d   1       0.435   0.289  -1.601  0.00  0.00     0.026 A 
ATOM      8  C6  UNL d   1      -0.243  -0.700  -0.810  0.00  0.00    -0.082 A 
ATOM      9  C7  UNL d   1      -0.935  -1.873  -1.196  0.00  0.00     0.045 A 
ENDROOT
TORSDOF 0
ENDMDL
