MODEL 1
REMARK minimizedAffinity -3.58191729
REMARK minimizedRMSD -1
REMARK  0 active torsions:
REMARK  status: ('A' for Active; 'I' for Inactive)
ROOT
ATOM      1  C   UNL d   1      -1.324  -2.376   1.783  0.00  0.00    -0.002 A 
ATOM      2  C1  UNL d   1      -2.254  -1.491   2.310  0.00  0.00     0.010 A 
ATOM      3  C2  UNL d   1      -2.175  -0.126   2.027  0.00  0.00     0.041 A 
ATOM      4  C3  UNL d   1      -1.136   0.339   1.197  0.00  0.00    -0.075 A 
ATOM      5  S   UNL d   1      -0.842   1.967   0.714  0.00  0.00     0.015 SA
ATOM      6  C4  UNL d   1       0.525   1.527  -0.204  0.00  0.00     0.022 A 
ATOM      7  C5  UNL d   1       0.766   0.174  -0.154  0.00  0.00     0.026 A 
ATOM      8  C6  UNL d   1      -0.188  -0.533   0.654  0.00  0.00    -0.082 A 
ATOM      9  C7  UNL d   1      -0.295  -1.911   0.960  0.00  0.00     0.045 A 
ENDROOT
TORSDOF 0
ENDMDL
