MODEL 1
REMARK minimizedAffinity -0.805047214
REMARK minimizedRMSD -1
REMARK  0 active torsions:
REMARK  status: ('A' for Active; 'I' for Inactive)
ROOT
ATOM      1  C   UNL d   1      -2.248  -2.286   1.110  0.00  0.00    -0.002 A 
ATOM      2  C1  UNL d   1      -1.337  -2.515   2.131  0.00  0.00     0.010 A 
ATOM      3  C2  UNL d   1      -0.076  -1.915   2.106  0.00  0.00     0.041 A 
ATOM      4  C3  UNL d   1       0.255  -1.070   1.028  0.00  0.00    -0.075 A 
ATOM      5  S   UNL d   1       1.739  -0.226   0.788  0.00  0.00     0.015 SA
ATOM      6  C4  UNL d   1       1.198   0.460  -0.676  0.00  0.00     0.022 A 
ATOM      7  C5  UNL d   1      -0.081   0.065  -0.988  0.00  0.00     0.026 A 
ATOM      8  C6  UNL d   1      -0.646  -0.823  -0.011  0.00  0.00    -0.082 A 
ATOM      9  C7  UNL d   1      -1.915  -1.447   0.042  0.00  0.00     0.045 A 
ENDROOT
TORSDOF 0
ENDMDL
