MODEL 1
REMARK minimizedAffinity -3.45454073
REMARK minimizedRMSD -1
REMARK  0 active torsions:
REMARK  status: ('A' for Active; 'I' for Inactive)
ROOT
ATOM      1  C   UNL d   1      -2.040  -2.385   0.826  0.00  0.00    -0.002 A 
ATOM      2  C1  UNL d   1      -1.078  -3.172   1.443  0.00  0.00     0.010 A 
ATOM      3  C2  UNL d   1       0.252  -2.750   1.505  0.00  0.00     0.041 A 
ATOM      4  C3  UNL d   1       0.601  -1.512   0.933  0.00  0.00    -0.075 A 
ATOM      5  S   UNL d   1       2.167  -0.791   0.890  0.00  0.00     0.015 SA
ATOM      6  C4  UNL d   1       1.596   0.579   0.053  0.00  0.00     0.022 A 
ATOM      7  C5  UNL d   1       0.246   0.505  -0.197  0.00  0.00     0.026 A 
ATOM      8  C6  UNL d   1      -0.350  -0.701   0.307  0.00  0.00    -0.082 A 
ATOM      9  C7  UNL d   1      -1.689  -1.156   0.259  0.00  0.00     0.045 A 
ENDROOT
TORSDOF 0
ENDMDL
