MODEL 1
REMARK minimizedAffinity 0.611650288
REMARK minimizedRMSD -1
REMARK  0 active torsions:
REMARK  status: ('A' for Active; 'I' for Inactive)
ROOT
ATOM      1  C   UNL d   1       0.862  -2.342   0.331  0.00  0.00    -0.002 A 
ATOM      2  C1  UNL d   1       0.892  -1.238  -0.509  0.00  0.00     0.010 A 
ATOM      3  C2  UNL d   1       0.027  -0.162  -0.300  0.00  0.00     0.041 A 
ATOM      4  C3  UNL d   1      -0.876  -0.214   0.781  0.00  0.00    -0.075 A 
ATOM      5  S   UNL d   1      -2.027   0.988   1.231  0.00  0.00     0.015 SA
ATOM      6  C4  UNL d   1      -2.586   0.064   2.550  0.00  0.00     0.022 A 
ATOM      7  C5  UNL d   1      -1.921  -1.134   2.659  0.00  0.00     0.026 A 
ATOM      8  C6  UNL d   1      -0.924  -1.314   1.641  0.00  0.00    -0.082 A 
ATOM      9  C7  UNL d   1      -0.035  -2.389   1.401  0.00  0.00     0.045 A 
ENDROOT
TORSDOF 0
ENDMDL
