MODEL 1
REMARK minimizedAffinity -3.05304551
REMARK minimizedRMSD -1
REMARK  0 active torsions:
REMARK  status: ('A' for Active; 'I' for Inactive)
ROOT
ATOM      1  C   UNL d   1       0.347  -3.016   1.476  0.00  0.00    -0.002 A 
ATOM      2  C1  UNL d   1      -0.928  -2.518   1.704  0.00  0.00     0.010 A 
ATOM      3  C2  UNL d   1      -1.312  -1.282   1.180  0.00  0.00     0.041 A 
ATOM      4  C3  UNL d   1      -0.385  -0.549   0.414  0.00  0.00    -0.075 A 
ATOM      5  S   UNL d   1      -0.634   0.987  -0.328  0.00  0.00     0.015 SA
ATOM      6  C4  UNL d   1       0.946   1.018  -0.967  0.00  0.00     0.022 A 
ATOM      7  C5  UNL d   1       1.660  -0.108  -0.632  0.00  0.00     0.026 A 
ATOM      8  C6  UNL d   1       0.904  -1.030   0.169  0.00  0.00    -0.082 A 
ATOM      9  C7  UNL d   1       1.264  -2.286   0.715  0.00  0.00     0.045 A 
ENDROOT
TORSDOF 0
ENDMDL
