MODEL 1
REMARK minimizedAffinity -0.243664086
REMARK minimizedRMSD -1
REMARK  0 active torsions:
REMARK  status: ('A' for Active; 'I' for Inactive)
ROOT
ATOM      1  C   UNL d   1      -0.208   0.004   0.725  0.00  0.00    -0.002 A 
ATOM      2  C1  UNL d   1       0.215  -1.138   0.059  0.00  0.00     0.010 A 
ATOM      3  C2  UNL d   1       0.974  -1.039  -1.108  0.00  0.00     0.041 A 
ATOM      4  C3  UNL d   1       1.306   0.239  -1.600  0.00  0.00    -0.075 A 
ATOM      5  S   UNL d   1       2.227   0.603  -3.011  0.00  0.00     0.015 SA
ATOM      6  C4  UNL d   1       2.081   2.283  -2.764  0.00  0.00     0.022 A 
ATOM      7  C5  UNL d   1       1.350   2.577  -1.637  0.00  0.00     0.026 A 
ATOM      8  C6  UNL d   1       0.892   1.403  -0.947  0.00  0.00    -0.082 A 
ATOM      9  C7  UNL d   1       0.123   1.270   0.234  0.00  0.00     0.045 A 
ENDROOT
TORSDOF 0
ENDMDL
