MODEL 1
REMARK minimizedAffinity -0.974398077
REMARK minimizedRMSD -1
REMARK  0 active torsions:
REMARK  status: ('A' for Active; 'I' for Inactive)
ROOT
ATOM      1  C   UNL d   1       0.158  -0.797   0.585  0.00  0.00    -0.002 A 
ATOM      2  C1  UNL d   1       0.361  -1.750  -0.403  0.00  0.00     0.010 A 
ATOM      3  C2  UNL d   1       0.641  -1.363  -1.716  0.00  0.00     0.041 A 
ATOM      4  C3  UNL d   1       0.715   0.011  -2.020  0.00  0.00    -0.075 A 
ATOM      5  S   UNL d   1       1.045   0.718  -3.557  0.00  0.00     0.015 SA
ATOM      6  C4  UNL d   1       0.924   2.302  -2.938  0.00  0.00     0.022 A 
ATOM      7  C5  UNL d   1       0.639   2.309  -1.593  0.00  0.00     0.026 A 
ATOM      8  C6  UNL d   1       0.515   0.989  -1.042  0.00  0.00    -0.082 A 
ATOM      9  C7  UNL d   1       0.232   0.564   0.279  0.00  0.00     0.045 A 
ENDROOT
TORSDOF 0
ENDMDL
