MODEL 1
REMARK minimizedAffinity -0.967537522
REMARK minimizedRMSD -1
REMARK  0 active torsions:
REMARK  status: ('A' for Active; 'I' for Inactive)
ROOT
ATOM      1  C   UNL d   1       0.463  -1.325   0.887  0.00  0.00    -0.002 A 
ATOM      2  C1  UNL d   1       0.615  -2.195  -0.183  0.00  0.00     0.010 A 
ATOM      3  C2  UNL d   1       0.966  -1.713  -1.446  0.00  0.00     0.041 A 
ATOM      4  C3  UNL d   1       1.166  -0.329  -1.616  0.00  0.00    -0.075 A 
ATOM      5  S   UNL d   1       1.602   0.488  -3.070  0.00  0.00     0.015 SA
ATOM      6  C4  UNL d   1       1.598   2.010  -2.305  0.00  0.00     0.022 A 
ATOM      7  C5  UNL d   1       1.274   1.917  -0.972  0.00  0.00     0.026 A 
ATOM      8  C6  UNL d   1       1.020   0.567  -0.553  0.00  0.00    -0.082 A 
ATOM      9  C7  UNL d   1       0.662   0.048   0.715  0.00  0.00     0.045 A 
ENDROOT
TORSDOF 0
ENDMDL
