MODEL 1
REMARK minimizedAffinity 1.62521482
REMARK minimizedRMSD -1
REMARK  0 active torsions:
REMARK  status: ('A' for Active; 'I' for Inactive)
ROOT
ATOM      1  C   UNL d   1      -3.918  -0.329  -4.006  0.00  0.00     0.078 C 
ATOM      2  C1  UNL d   1      -3.726   0.912  -3.187  0.00  0.00    -0.077 A 
ATOM      3  C2  UNL d   1      -4.013   2.177  -3.716  0.00  0.00    -0.001 A 
ATOM      4  C3  UNL d   1      -3.820   3.325  -2.945  0.00  0.00     0.003 A 
ATOM      5  C4  UNL d   1      -3.338   3.219  -1.642  0.00  0.00    -0.005 A 
ATOM      6  C5  UNL d   1      -3.048   1.966  -1.108  0.00  0.00     0.003 A 
ATOM      7  C6  UNL d   1      -3.240   0.817  -1.877  0.00  0.00    -0.001 A 
ENDROOT
TORSDOF 0
ENDMDL
