MODEL 1
REMARK minimizedAffinity 4.69878769
REMARK minimizedRMSD -1
REMARK  0 active torsions:
REMARK  status: ('A' for Active; 'I' for Inactive)
ROOT
ATOM      1  C   UNL d   1      -4.895  -2.094  -3.695  0.00  0.00     0.078 C 
ATOM      2  C1  UNL d   1      -5.047  -3.459  -4.296  0.00  0.00    -0.077 A 
ATOM      3  C2  UNL d   1      -4.379  -4.564  -3.755  0.00  0.00    -0.001 A 
ATOM      4  C3  UNL d   1      -4.522  -5.828  -4.331  0.00  0.00     0.003 A 
ATOM      5  C4  UNL d   1      -5.333  -5.998  -5.452  0.00  0.00    -0.005 A 
ATOM      6  C5  UNL d   1      -6.000  -4.904  -5.999  0.00  0.00     0.003 A 
ATOM      7  C6  UNL d   1      -5.858  -3.640  -5.424  0.00  0.00    -0.001 A 
ENDROOT
TORSDOF 0
ENDMDL
