MODEL 1
REMARK minimizedAffinity 5.32872677
REMARK minimizedRMSD -1
REMARK  0 active torsions:
REMARK  status: ('A' for Active; 'I' for Inactive)
ROOT
ATOM      1  C   UNL d   1      -5.251  -2.319  -3.655  0.00  0.00     0.078 C 
ATOM      2  C1  UNL d   1      -5.090  -3.602  -4.415  0.00  0.00    -0.077 A 
ATOM      3  C2  UNL d   1      -5.999  -4.654  -4.254  0.00  0.00    -0.001 A 
ATOM      4  C3  UNL d   1      -5.832  -5.846  -4.960  0.00  0.00     0.003 A 
ATOM      5  C4  UNL d   1      -4.756  -5.997  -5.833  0.00  0.00    -0.005 A 
ATOM      6  C5  UNL d   1      -3.845  -4.956  -5.998  0.00  0.00     0.003 A 
ATOM      7  C6  UNL d   1      -4.011  -3.763  -5.292  0.00  0.00    -0.001 A 
ENDROOT
TORSDOF 0
ENDMDL
