MODEL 1
REMARK minimizedAffinity 2.18382764
REMARK minimizedRMSD -1
REMARK  0 active torsions:
REMARK  status: ('A' for Active; 'I' for Inactive)
ROOT
ATOM      1  C   UNL d   1       1.814  -1.168   2.832  0.00  0.00     0.078 C 
ATOM      2  C1  UNL d   1       2.151  -0.013   1.937  0.00  0.00    -0.077 A 
ATOM      3  C2  UNL d   1       1.151   0.833   1.443  0.00  0.00    -0.001 A 
ATOM      4  C3  UNL d   1       1.478   1.898   0.603  0.00  0.00     0.003 A 
ATOM      5  C4  UNL d   1       2.806   2.127   0.249  0.00  0.00    -0.005 A 
ATOM      6  C5  UNL d   1       3.809   1.290   0.734  0.00  0.00     0.003 A 
ATOM      7  C6  UNL d   1       3.483   0.224   1.574  0.00  0.00    -0.001 A 
ENDROOT
TORSDOF 0
ENDMDL
