MODEL 1
REMARK minimizedAffinity 1.58651471
REMARK minimizedRMSD -1
REMARK  0 active torsions:
REMARK  status: ('A' for Active; 'I' for Inactive)
ROOT
ATOM      1  C   UNL d   1      -4.123  -5.970  -2.736  0.00  0.00     0.078 C 
ATOM      2  C1  UNL d   1      -4.761  -5.228  -3.873  0.00  0.00    -0.077 A 
ATOM      3  C2  UNL d   1      -4.747  -3.828  -3.919  0.00  0.00    -0.001 A 
ATOM      4  C3  UNL d   1      -5.353  -3.150  -4.978  0.00  0.00     0.003 A 
ATOM      5  C4  UNL d   1      -5.978  -3.863  -5.998  0.00  0.00    -0.005 A 
ATOM      6  C5  UNL d   1      -5.999  -5.256  -5.960  0.00  0.00     0.003 A 
ATOM      7  C6  UNL d   1      -5.394  -5.936  -4.902  0.00  0.00    -0.001 A 
ENDROOT
TORSDOF 0
ENDMDL
