MODEL 1
REMARK minimizedAffinity 1.0739125
REMARK minimizedRMSD -1
REMARK  0 active torsions:
REMARK  status: ('A' for Active; 'I' for Inactive)
ROOT
ATOM      1  C   UNL d   1      -3.283   3.260  -1.777  0.00  0.00     0.078 C 
ATOM      2  C1  UNL d   1      -3.670   2.488  -3.003  0.00  0.00    -0.077 A 
ATOM      3  C2  UNL d   1      -3.419   1.114  -3.099  0.00  0.00    -0.001 A 
ATOM      4  C3  UNL d   1      -3.775   0.409  -4.250  0.00  0.00     0.003 A 
ATOM      5  C4  UNL d   1      -4.384   1.071  -5.314  0.00  0.00    -0.005 A 
ATOM      6  C5  UNL d   1      -4.636   2.439  -5.229  0.00  0.00     0.003 A 
ATOM      7  C6  UNL d   1      -4.280   3.145  -4.079  0.00  0.00    -0.001 A 
ENDROOT
TORSDOF 0
ENDMDL
