MODEL 1
REMARK minimizedAffinity 6.17852783
REMARK minimizedRMSD -1
REMARK  0 active torsions:
REMARK  status: ('A' for Active; 'I' for Inactive)
ROOT
ATOM      1  C   UNL d   1       2.656   1.449   1.142  0.00  0.00     0.078 C 
ATOM      2  C1  UNL d   1       1.973   0.176   1.542  0.00  0.00    -0.077 A 
ATOM      3  C2  UNL d   1       0.773  -0.220   0.939  0.00  0.00    -0.001 A 
ATOM      4  C3  UNL d   1       0.144  -1.403   1.329  0.00  0.00     0.003 A 
ATOM      5  C4  UNL d   1       0.707  -2.200   2.324  0.00  0.00    -0.005 A 
ATOM      6  C5  UNL d   1       1.900  -1.814   2.931  0.00  0.00     0.003 A 
ATOM      7  C6  UNL d   1       2.530  -0.631   2.543  0.00  0.00    -0.001 A 
ENDROOT
TORSDOF 0
ENDMDL
