MODEL 1
REMARK minimizedAffinity 11.3278046
REMARK minimizedRMSD -1
REMARK  0 active torsions:
REMARK  status: ('A' for Active; 'I' for Inactive)
ROOT
ATOM      1  C   UNL d   1      -3.308   0.705  -3.483  0.00  0.00     0.078 C 
ATOM      2  C1  UNL d   1      -3.150   1.286  -2.110  0.00  0.00    -0.077 A 
ATOM      3  C2  UNL d   1      -3.481   2.621  -1.849  0.00  0.00    -0.001 A 
ATOM      4  C3  UNL d   1      -3.319   3.152  -0.568  0.00  0.00     0.003 A 
ATOM      5  C4  UNL d   1      -2.825   2.354   0.462  0.00  0.00    -0.005 A 
ATOM      6  C5  UNL d   1      -2.491   1.025   0.212  0.00  0.00     0.003 A 
ATOM      7  C6  UNL d   1      -2.652   0.493  -1.069  0.00  0.00    -0.001 A 
ENDROOT
TORSDOF 0
ENDMDL
