MODEL 1
REMARK minimizedAffinity 10.852128
REMARK minimizedRMSD -1
REMARK  0 active torsions:
REMARK  status: ('A' for Active; 'I' for Inactive)
ROOT
ATOM      1  C   UNL d   1       2.073   1.393   2.001  0.00  0.00     0.078 C 
ATOM      2  C1  UNL d   1       1.723  -0.049   2.224  0.00  0.00    -0.077 A 
ATOM      3  C2  UNL d   1       1.938  -0.659   3.466  0.00  0.00    -0.001 A 
ATOM      4  C3  UNL d   1       1.616  -2.004   3.657  0.00  0.00     0.003 A 
ATOM      5  C4  UNL d   1       1.080  -2.750   2.609  0.00  0.00    -0.005 A 
ATOM      6  C5  UNL d   1       0.865  -2.152   1.369  0.00  0.00     0.003 A 
ATOM      7  C6  UNL d   1       1.186  -0.807   1.177  0.00  0.00    -0.001 A 
ENDROOT
TORSDOF 0
ENDMDL
