MODEL 1
REMARK minimizedAffinity -0.216514647
REMARK minimizedRMSD -1
REMARK  0 active torsions:
REMARK  status: ('A' for Active; 'I' for Inactive)
ROOT
ATOM      1  C   UNL d   1       5.474  -6.000  -5.314  0.00  0.00     0.078 C 
ATOM      2  C1  UNL d   1       4.416  -5.888  -4.258  0.00  0.00    -0.077 A 
ATOM      3  C2  UNL d   1       4.757  -5.698  -2.913  0.00  0.00    -0.001 A 
ATOM      4  C3  UNL d   1       3.761  -5.606  -1.939  0.00  0.00     0.003 A 
ATOM      5  C4  UNL d   1       2.419  -5.704  -2.299  0.00  0.00    -0.005 A 
ATOM      6  C5  UNL d   1       2.070  -5.896  -3.634  0.00  0.00     0.003 A 
ATOM      7  C6  UNL d   1       3.064  -5.988  -4.610  0.00  0.00    -0.001 A 
ENDROOT
TORSDOF 0
ENDMDL
