MODEL 1
REMARK minimizedAffinity 4.63935184
REMARK minimizedRMSD -1
REMARK  0 active torsions:
REMARK  status: ('A' for Active; 'I' for Inactive)
ROOT
ATOM      1  C   UNL d   1       1.981  -1.957   3.250  0.00  0.00     0.078 C 
ATOM      2  C1  UNL d   1       2.055  -0.903   2.186  0.00  0.00    -0.077 A 
ATOM      3  C2  UNL d   1       1.710  -1.192   0.860  0.00  0.00    -0.001 A 
ATOM      4  C3  UNL d   1       1.793  -0.204  -0.123  0.00  0.00     0.003 A 
ATOM      5  C4  UNL d   1       2.222   1.079   0.210  0.00  0.00    -0.005 A 
ATOM      6  C5  UNL d   1       2.569   1.376   1.527  0.00  0.00     0.003 A 
ATOM      7  C6  UNL d   1       2.486   0.389   2.511  0.00  0.00    -0.001 A 
ENDROOT
TORSDOF 0
ENDMDL
