MODEL 1
REMARK minimizedAffinity 6.19843197
REMARK minimizedRMSD -1
REMARK  0 active torsions:
REMARK  status: ('A' for Active; 'I' for Inactive)
ROOT
ATOM      1  C   UNL d   1      -4.493  -2.106  -3.115  0.00  0.00     0.078 C 
ATOM      2  C1  UNL d   1      -4.898  -3.242  -4.007  0.00  0.00    -0.077 A 
ATOM      3  C2  UNL d   1      -5.621  -3.012  -5.184  0.00  0.00    -0.001 A 
ATOM      4  C3  UNL d   1      -6.000  -4.079  -5.999  0.00  0.00     0.003 A 
ATOM      5  C4  UNL d   1      -5.660  -5.384  -5.647  0.00  0.00    -0.005 A 
ATOM      6  C5  UNL d   1      -4.943  -5.623  -4.477  0.00  0.00     0.003 A 
ATOM      7  C6  UNL d   1      -4.563  -4.557  -3.660  0.00  0.00    -0.001 A 
ENDROOT
TORSDOF 0
ENDMDL
