MODEL 1
REMARK minimizedAffinity 3.73108649
REMARK minimizedRMSD -1
REMARK  0 active torsions:
REMARK  status: ('A' for Active; 'I' for Inactive)
ROOT
ATOM      1  C   UNL d   1       3.413  -5.987   1.615  0.00  0.00     0.078 C 
ATOM      2  C1  UNL d   1       4.053  -5.081   2.624  0.00  0.00    -0.077 A 
ATOM      3  C2  UNL d   1       3.323  -4.583   3.711  0.00  0.00    -0.001 A 
ATOM      4  C3  UNL d   1       3.928  -3.732   4.637  0.00  0.00     0.003 A 
ATOM      5  C4  UNL d   1       5.266  -3.371   4.486  0.00  0.00    -0.005 A 
ATOM      6  C5  UNL d   1       5.999  -3.860   3.407  0.00  0.00     0.003 A 
ATOM      7  C6  UNL d   1       5.395  -4.711   2.479  0.00  0.00    -0.001 A 
ENDROOT
TORSDOF 0
ENDMDL
