MODEL 1
REMARK minimizedAffinity 0.305256695
REMARK minimizedRMSD -1
REMARK  0 active torsions:
REMARK  status: ('A' for Active; 'I' for Inactive)
ROOT
ATOM      1  C   UNL d   1       2.354  -2.312   3.379  0.00  0.00     0.078 C 
ATOM      2  C1  UNL d   1       3.630  -2.893   3.909  0.00  0.00    -0.077 A 
ATOM      3  C2  UNL d   1       4.821  -2.808   3.177  0.00  0.00    -0.001 A 
ATOM      4  C3  UNL d   1       6.000  -3.362   3.678  0.00  0.00     0.003 A 
ATOM      5  C4  UNL d   1       6.000  -4.006   4.914  0.00  0.00    -0.005 A 
ATOM      6  C5  UNL d   1       4.820  -4.098   5.649  0.00  0.00     0.003 A 
ATOM      7  C6  UNL d   1       3.640  -3.545   5.149  0.00  0.00    -0.001 A 
ENDROOT
TORSDOF 0
ENDMDL
