MODEL 1
REMARK minimizedAffinity 2.5511868
REMARK minimizedRMSD -1
REMARK  0 active torsions:
REMARK  status: ('A' for Active; 'I' for Inactive)
ROOT
ATOM      1  C   UNL d   1      -6.000   3.750  -0.802  0.00  0.00     0.078 C 
ATOM      2  C1  UNL d   1      -5.350   3.094  -1.983  0.00  0.00    -0.077 A 
ATOM      3  C2  UNL d   1      -5.803   3.341  -3.285  0.00  0.00    -0.001 A 
ATOM      4  C3  UNL d   1      -5.195   2.715  -4.374  0.00  0.00     0.003 A 
ATOM      5  C4  UNL d   1      -4.132   1.837  -4.173  0.00  0.00    -0.005 A 
ATOM      6  C5  UNL d   1      -3.676   1.583  -2.881  0.00  0.00     0.003 A 
ATOM      7  C6  UNL d   1      -4.283   2.208  -1.790  0.00  0.00    -0.001 A 
ENDROOT
TORSDOF 0
ENDMDL
