MODEL 1
REMARK minimizedAffinity -2.29516745
REMARK minimizedRMSD -1
REMARK  0 active torsions:
REMARK  status: ('A' for Active; 'I' for Inactive)
ROOT
ATOM      1  C   UNL d   1       3.769   5.668   4.163  0.00  0.00     0.020 A 
ATOM      2  C1  UNL d   1       4.206   4.344   4.168  0.00  0.00     0.020 A 
ATOM      3  C2  UNL d   1       3.411   3.348   4.741  0.00  0.00     0.034 A 
ATOM      4  C3  UNL d   1       2.175   3.675   5.310  0.00  0.00     0.017 A 
ATOM      5  C4  UNL d   1       1.737   5.005   5.304  0.00  0.00     0.017 A 
ATOM      6  C5  UNL d   1       2.537   5.997   4.730  0.00  0.00     0.034 A 
ATOM      7 Cl   UNL d   1       0.224   5.485   5.988  0.00  0.00    -0.070 Cl
ATOM      8 Cl1  UNL d   1       1.244   2.394   6.000  0.00  0.00    -0.070 Cl
ENDROOT
TORSDOF 0
ENDMDL
