MODEL 1
REMARK minimizedAffinity -1.44135833
REMARK minimizedRMSD -1
REMARK  0 active torsions:
REMARK  status: ('A' for Active; 'I' for Inactive)
ROOT
ATOM      1  C   UNL d   1       5.564   5.844   4.133  0.00  0.00     0.020 A 
ATOM      2  C1  UNL d   1       5.405   5.488   5.472  0.00  0.00     0.020 A 
ATOM      3  C2  UNL d   1       4.127   5.259   5.986  0.00  0.00     0.034 A 
ATOM      4  C3  UNL d   1       3.003   5.387   5.161  0.00  0.00     0.017 A 
ATOM      5  C4  UNL d   1       3.164   5.745   3.818  0.00  0.00     0.017 A 
ATOM      6  C5  UNL d   1       4.446   5.972   3.308  0.00  0.00     0.034 A 
ATOM      7 Cl   UNL d   1       1.825   5.921   2.739  0.00  0.00    -0.070 Cl
ATOM      8 Cl1  UNL d   1       1.453   5.089   5.864  0.00  0.00    -0.070 Cl
ENDROOT
TORSDOF 0
ENDMDL
