MODEL 1
REMARK minimizedAffinity 2.96711874
REMARK minimizedRMSD -1
REMARK  0 active torsions:
REMARK  status: ('A' for Active; 'I' for Inactive)
ROOT
ATOM      1  C   UNL d   1       2.436   2.185   5.402  0.00  0.00     0.020 A 
ATOM      2  C1  UNL d   1       2.611   2.012   4.030  0.00  0.00     0.020 A 
ATOM      3  C2  UNL d   1       3.060   3.075   3.243  0.00  0.00     0.034 A 
ATOM      4  C3  UNL d   1       3.335   4.317   3.828  0.00  0.00     0.017 A 
ATOM      5  C4  UNL d   1       3.158   4.490   5.206  0.00  0.00     0.017 A 
ATOM      6  C5  UNL d   1       2.709   3.422   5.989  0.00  0.00     0.034 A 
ATOM      7 Cl   UNL d   1       3.476   5.992   6.000  0.00  0.00    -0.070 Cl
ATOM      8 Cl1  UNL d   1       3.886   5.587   2.796  0.00  0.00    -0.070 Cl
ENDROOT
TORSDOF 0
ENDMDL
