MODEL 1
REMARK minimizedAffinity 4.17974997
REMARK minimizedRMSD -1
REMARK  0 active torsions:
REMARK  status: ('A' for Active; 'I' for Inactive)
ROOT
ATOM      1  C   UNL d   1      -3.907   1.482   0.871  0.00  0.00     0.020 A 
ATOM      2  C1  UNL d   1      -4.594   0.533   0.115  0.00  0.00     0.020 A 
ATOM      3  C2  UNL d   1      -3.978  -0.058  -0.990  0.00  0.00     0.034 A 
ATOM      4  C3  UNL d   1      -2.671   0.300  -1.343  0.00  0.00     0.017 A 
ATOM      5  C4  UNL d   1      -1.983   1.253  -0.583  0.00  0.00     0.017 A 
ATOM      6  C5  UNL d   1      -2.605   1.841   0.522  0.00  0.00     0.034 A 
ATOM      7 Cl   UNL d   1      -0.369   1.746  -0.956  0.00  0.00    -0.070 Cl
ATOM      8 Cl1  UNL d   1      -1.971  -0.471  -2.721  0.00  0.00    -0.070 Cl
ENDROOT
TORSDOF 0
ENDMDL
