MODEL 1
REMARK minimizedAffinity 8.23517799
REMARK minimizedRMSD -1
REMARK  0 active torsions:
REMARK  status: ('A' for Active; 'I' for Inactive)
ROOT
ATOM      1  C   UNL d   1      -4.251   1.630   1.633  0.00  0.00     0.020 A 
ATOM      2  C1  UNL d   1      -5.181   0.900   0.894  0.00  0.00     0.020 A 
ATOM      3  C2  UNL d   1      -4.774   0.203  -0.246  0.00  0.00     0.034 A 
ATOM      4  C3  UNL d   1      -3.435   0.235  -0.650  0.00  0.00     0.017 A 
ATOM      5  C4  UNL d   1      -2.503   0.969   0.092  0.00  0.00     0.017 A 
ATOM      6  C5  UNL d   1      -2.915   1.665   1.233  0.00  0.00     0.034 A 
ATOM      7 Cl   UNL d   1      -0.832   1.057  -0.344  0.00  0.00    -0.070 Cl
ATOM      8 Cl1  UNL d   1      -3.002  -0.650  -2.070  0.00  0.00    -0.070 Cl
ENDROOT
TORSDOF 0
ENDMDL
