MODEL 1
REMARK minimizedAffinity -3.14018273
REMARK minimizedRMSD -1
REMARK  0 active torsions:
REMARK  status: ('A' for Active; 'I' for Inactive)
ROOT
ATOM      1  C   UNL d   1       3.228   2.208   5.483  0.00  0.00     0.020 A 
ATOM      2  C1  UNL d   1       3.831   2.209   4.226  0.00  0.00     0.020 A 
ATOM      3  C2  UNL d   1       3.897   3.390   3.484  0.00  0.00     0.034 A 
ATOM      4  C3  UNL d   1       3.359   4.576   3.999  0.00  0.00     0.017 A 
ATOM      5  C4  UNL d   1       2.755   4.574   5.261  0.00  0.00     0.017 A 
ATOM      6  C5  UNL d   1       2.691   3.388   6.000  0.00  0.00     0.034 A 
ATOM      7 Cl   UNL d   1       2.070   5.997   5.963  0.00  0.00    -0.070 Cl
ATOM      8 Cl1  UNL d   1       3.477   6.000   3.027  0.00  0.00    -0.070 Cl
ENDROOT
TORSDOF 0
ENDMDL
