MODEL 1
REMARK minimizedAffinity -4.58637762
REMARK minimizedRMSD -1
REMARK  0 active torsions:
REMARK  status: ('A' for Active; 'I' for Inactive)
ROOT
ATOM      1  C   UNL d   1       2.211  -1.988   0.436  0.00  0.00     0.023 A 
ATOM      2  C1  UNL d   1       0.999  -2.421  -0.101  0.00  0.00     0.003 A 
ATOM      3  C2  UNL d   1       0.076  -1.492  -0.584  0.00  0.00     0.048 A 
ATOM      4  C3  UNL d   1       0.371  -0.130  -0.527  0.00  0.00     0.023 A 
ATOM      5  C4  UNL d   1       1.583   0.308   0.009  0.00  0.00     0.048 A 
ATOM      6  C5  UNL d   1       2.503  -0.625   0.491  0.00  0.00     0.003 A 
ATOM      7  I   UNL d   1      -1.001   1.256  -1.245  0.00  0.00    -0.146 I 
ENDROOT
TORSDOF 0
ENDMDL
