MODEL 1
REMARK minimizedAffinity -2.10511756
REMARK minimizedRMSD -1
REMARK  0 active torsions:
REMARK  status: ('A' for Active; 'I' for Inactive)
ROOT
ATOM      1  C   UNL d   1      -0.043  -2.549   2.149  0.00  0.00     0.023 A 
ATOM      2  C1  UNL d   1       1.128  -2.642   1.396  0.00  0.00     0.003 A 
ATOM      3  C2  UNL d   1       1.322  -1.801   0.298  0.00  0.00     0.048 A 
ATOM      4  C3  UNL d   1       0.342  -0.869  -0.040  0.00  0.00     0.023 A 
ATOM      5  C4  UNL d   1      -0.831  -0.772   0.710  0.00  0.00     0.048 A 
ATOM      6  C5  UNL d   1      -1.021  -1.615   1.806  0.00  0.00     0.003 A 
ATOM      7  I   UNL d   1       0.629   0.384  -1.674  0.00  0.00    -0.146 I 
ENDROOT
TORSDOF 0
ENDMDL
