MODEL 1
REMARK minimizedAffinity -4.19218922
REMARK minimizedRMSD -1
REMARK  0 active torsions:
REMARK  status: ('A' for Active; 'I' for Inactive)
ROOT
ATOM      1  C   UNL d   1       1.796  -2.500   1.023  0.00  0.00     0.023 A 
ATOM      2  C1  UNL d   1       0.427  -2.652   0.806  0.00  0.00     0.003 A 
ATOM      3  C2  UNL d   1      -0.317  -1.599   0.269  0.00  0.00     0.048 A 
ATOM      4  C3  UNL d   1       0.315  -0.398  -0.050  0.00  0.00     0.023 A 
ATOM      5  C4  UNL d   1       1.685  -0.242   0.164  0.00  0.00     0.048 A 
ATOM      6  C5  UNL d   1       2.425  -1.296   0.703  0.00  0.00     0.003 A 
ATOM      7  I   UNL d   1      -0.791   1.170  -0.851  0.00  0.00    -0.146 I 
ENDROOT
TORSDOF 0
ENDMDL
