MODEL 1
REMARK minimizedAffinity -2.7391243
REMARK minimizedRMSD -1
REMARK  0 active torsions:
REMARK  status: ('A' for Active; 'I' for Inactive)
ROOT
ATOM      1  C   UNL d   1       2.352  -1.444   0.493  0.00  0.00     0.023 A 
ATOM      2  C1  UNL d   1       2.410  -0.051   0.434  0.00  0.00     0.003 A 
ATOM      3  C2  UNL d   1       1.339   0.672  -0.095  0.00  0.00     0.048 A 
ATOM      4  C3  UNL d   1       0.213  -0.004  -0.563  0.00  0.00     0.023 A 
ATOM      5  C4  UNL d   1       0.150  -1.398  -0.506  0.00  0.00     0.048 A 
ATOM      6  C5  UNL d   1       1.224  -2.116   0.023  0.00  0.00     0.003 A 
ATOM      7  I   UNL d   1      -1.383   1.069  -1.351  0.00  0.00    -0.146 I 
ENDROOT
TORSDOF 0
ENDMDL
