MODEL 1
REMARK minimizedAffinity -1.8172282
REMARK minimizedRMSD -1
REMARK  0 active torsions:
REMARK  status: ('A' for Active; 'I' for Inactive)
ROOT
ATOM      1  C   UNL d   1       1.880  -1.449   0.622  0.00  0.00     0.023 A 
ATOM      2  C1  UNL d   1       1.020  -0.559   1.264  0.00  0.00     0.003 A 
ATOM      3  C2  UNL d   1       0.228   0.314   0.514  0.00  0.00     0.048 A 
ATOM      4  C3  UNL d   1       0.301   0.290  -0.878  0.00  0.00     0.023 A 
ATOM      5  C4  UNL d   1       1.160  -0.600  -1.526  0.00  0.00     0.048 A 
ATOM      6  C5  UNL d   1       1.950  -1.470  -0.771  0.00  0.00     0.003 A 
ATOM      7  I   UNL d   1      -0.876   1.587  -1.997  0.00  0.00    -0.146 I 
ENDROOT
TORSDOF 0
ENDMDL
