MODEL 1
REMARK minimizedAffinity -2.21677685
REMARK minimizedRMSD -1
REMARK  0 active torsions:
REMARK  status: ('A' for Active; 'I' for Inactive)
ROOT
ATOM      1  C   UNL d   1       0.866  -1.134   1.213  0.00  0.00     0.023 A 
ATOM      2  C1  UNL d   1      -0.380  -0.650   1.610  0.00  0.00     0.003 A 
ATOM      3  C2  UNL d   1      -1.068   0.258   0.802  0.00  0.00     0.048 A 
ATOM      4  C3  UNL d   1      -0.504   0.677  -0.402  0.00  0.00     0.023 A 
ATOM      5  C4  UNL d   1       0.743   0.195  -0.804  0.00  0.00     0.048 A 
ATOM      6  C5  UNL d   1       1.427  -0.712   0.007  0.00  0.00     0.003 A 
ATOM      7  I   UNL d   1      -1.525   2.029  -1.606  0.00  0.00    -0.146 I 
ENDROOT
TORSDOF 0
ENDMDL
