MODEL 1
REMARK minimizedAffinity -4.47975874
REMARK minimizedRMSD -1
REMARK  0 active torsions:
REMARK  status: ('A' for Active; 'I' for Inactive)
ROOT
ATOM      1  C   UNL d   1       2.243  -2.182   0.870  0.00  0.00     0.023 A 
ATOM      2  C1  UNL d   1       0.920  -2.204   1.311  0.00  0.00     0.003 A 
ATOM      3  C2  UNL d   1       0.078  -1.121   1.053  0.00  0.00     0.048 A 
ATOM      4  C3  UNL d   1       0.566  -0.018   0.352  0.00  0.00     0.023 A 
ATOM      5  C4  UNL d   1       1.889   0.008  -0.092  0.00  0.00     0.048 A 
ATOM      6  C5  UNL d   1       2.727  -1.077   0.170  0.00  0.00     0.003 A 
ATOM      7  I   UNL d   1      -0.685   1.596  -0.034  0.00  0.00    -0.146 I 
ENDROOT
TORSDOF 0
ENDMDL
