MODEL 1
REMARK minimizedAffinity -1.4461565
REMARK minimizedRMSD -1
REMARK  0 active torsions:
REMARK  status: ('A' for Active; 'I' for Inactive)
ROOT
ATOM      1  C   UNL d   1       2.285  -1.389   0.261  0.00  0.00     0.023 A 
ATOM      2  C1  UNL d   1       1.051  -1.975  -0.022  0.00  0.00     0.003 A 
ATOM      3  C2  UNL d   1      -0.023  -1.182  -0.431  0.00  0.00     0.048 A 
ATOM      4  C3  UNL d   1       0.144   0.196  -0.557  0.00  0.00     0.023 A 
ATOM      5  C4  UNL d   1       1.377   0.787  -0.277  0.00  0.00     0.048 A 
ATOM      6  C5  UNL d   1       2.448  -0.009   0.133  0.00  0.00     0.003 A 
ATOM      7  I   UNL d   1      -1.453   1.378  -1.167  0.00  0.00    -0.146 I 
ENDROOT
TORSDOF 0
ENDMDL
