MODEL 1
REMARK minimizedAffinity -2.06574988
REMARK minimizedRMSD -1
REMARK  0 active torsions:
REMARK  status: ('A' for Active; 'I' for Inactive)
ROOT
ATOM      1  C   UNL d   1       1.745  -0.633   0.200  0.00  0.00     0.023 A 
ATOM      2  C1  UNL d   1       1.057   0.487   0.669  0.00  0.00     0.003 A 
ATOM      3  C2  UNL d   1       0.044   1.059  -0.103  0.00  0.00     0.048 A 
ATOM      4  C3  UNL d   1      -0.277   0.507  -1.342  0.00  0.00     0.023 A 
ATOM      5  C4  UNL d   1       0.407  -0.614  -1.815  0.00  0.00     0.048 A 
ATOM      6  C5  UNL d   1       1.420  -1.182  -1.041  0.00  0.00     0.003 A 
ATOM      7  I   UNL d   1      -1.785   1.357  -2.493  0.00  0.00    -0.146 I 
ENDROOT
TORSDOF 0
ENDMDL
