MODEL 1
REMARK minimizedAffinity -2.99020195
REMARK minimizedRMSD -1
REMARK  0 active torsions:
REMARK  status: ('A' for Active; 'I' for Inactive)
ROOT
ATOM      1  C   UNL d   1      -1.547   1.411  -2.121  0.00  0.00     0.023 A 
ATOM      2  C1  UNL d   1      -0.807   0.421  -2.767  0.00  0.00     0.003 A 
ATOM      3  C2  UNL d   1       0.114  -0.344  -2.048  0.00  0.00     0.048 A 
ATOM      4  C3  UNL d   1       0.288  -0.115  -0.684  0.00  0.00     0.023 A 
ATOM      5  C4  UNL d   1      -0.451   0.874  -0.033  0.00  0.00     0.048 A 
ATOM      6  C5  UNL d   1      -1.370   1.637  -0.756  0.00  0.00     0.003 A 
ATOM      7  I   UNL d   1       1.657  -1.254   0.388  0.00  0.00    -0.146 I 
ENDROOT
TORSDOF 0
ENDMDL
