MODEL 1
REMARK minimizedAffinity -2.27846289
REMARK minimizedRMSD -1
REMARK  0 active torsions:
REMARK  status: ('A' for Active; 'I' for Inactive)
ROOT
ATOM      1  C   UNL d   1       2.114  -1.837   0.380  0.00  0.00     0.023 A 
ATOM      2  C1  UNL d   1       0.785  -1.930   0.792  0.00  0.00     0.003 A 
ATOM      3  C2  UNL d   1      -0.141  -0.963   0.395  0.00  0.00     0.048 A 
ATOM      4  C3  UNL d   1       0.270   0.095  -0.415  0.00  0.00     0.023 A 
ATOM      5  C4  UNL d   1       1.598   0.192  -0.832  0.00  0.00     0.048 A 
ATOM      6  C5  UNL d   1       2.520  -0.778  -0.432  0.00  0.00     0.003 A 
ATOM      7  I   UNL d   1      -1.106   1.536  -1.008  0.00  0.00    -0.146 I 
ENDROOT
TORSDOF 0
ENDMDL
