MODEL 1
REMARK minimizedAffinity 10.7081327
REMARK minimizedRMSD -1
REMARK  0 active torsions:
REMARK  status: ('A' for Active; 'I' for Inactive)
ROOT
ATOM      1  C   UNL d   1      -5.626   4.049   1.531  0.00  0.00     0.023 A 
ATOM      2  C1  UNL d   1      -5.271   3.267   2.630  0.00  0.00     0.003 A 
ATOM      3  C2  UNL d   1      -5.278   3.820   3.913  0.00  0.00     0.048 A 
ATOM      4  C3  UNL d   1      -5.643   5.154   4.088  0.00  0.00     0.023 A 
ATOM      5  C4  UNL d   1      -6.000   5.940   2.991  0.00  0.00     0.048 A 
ATOM      6  C5  UNL d   1      -5.990   5.383   1.711  0.00  0.00     0.003 A 
ATOM      7  I   UNL d   1      -5.655   5.979   5.996  0.00  0.00    -0.146 I 
ENDROOT
TORSDOF 0
ENDMDL
