MODEL 1
REMARK minimizedAffinity 3.78341913
REMARK minimizedRMSD -1
REMARK  0 active torsions:
REMARK  status: ('A' for Active; 'I' for Inactive)
ROOT
ATOM      1  C   UNL d   1       3.883   1.886  -0.105  0.00  0.00     0.023 A 
ATOM      2  C1  UNL d   1       3.554   0.963   0.887  0.00  0.00     0.003 A 
ATOM      3  C2  UNL d   1       2.918  -0.233   0.546  0.00  0.00     0.048 A 
ATOM      4  C3  UNL d   1       2.616  -0.500  -0.788  0.00  0.00     0.023 A 
ATOM      5  C4  UNL d   1       2.945   0.421  -1.785  0.00  0.00     0.048 A 
ATOM      6  C5  UNL d   1       3.579   1.615  -1.440  0.00  0.00     0.003 A 
ATOM      7  I   UNL d   1       1.671  -2.279  -1.298  0.00  0.00    -0.146 I 
ENDROOT
TORSDOF 0
ENDMDL
