MODEL 1
REMARK minimizedAffinity 15.8429775
REMARK minimizedRMSD -1
REMARK  0 active torsions:
REMARK  status: ('A' for Active; 'I' for Inactive)
ROOT
ATOM      1  C   UNL d   1       3.739   2.210  -1.808  0.00  0.00     0.023 A 
ATOM      2  C1  UNL d   1       3.991   1.652  -3.061  0.00  0.00     0.003 A 
ATOM      3  C2  UNL d   1       3.509   0.378  -3.370  0.00  0.00     0.048 A 
ATOM      4  C3  UNL d   1       2.774  -0.331  -2.421  0.00  0.00     0.023 A 
ATOM      5  C4  UNL d   1       2.519   0.223  -1.165  0.00  0.00     0.048 A 
ATOM      6  C5  UNL d   1       3.004   1.497  -0.861  0.00  0.00     0.003 A 
ATOM      7  I   UNL d   1       2.055  -2.227  -2.878  0.00  0.00    -0.146 I 
ENDROOT
TORSDOF 0
ENDMDL
