MODEL 1
REMARK minimizedAffinity 11.865449
REMARK minimizedRMSD -1
REMARK  0 active torsions:
REMARK  status: ('A' for Active; 'I' for Inactive)
ROOT
ATOM      1  C   UNL d   1       1.342  -2.871  -0.610  0.00  0.00     0.023 A 
ATOM      2  C1  UNL d   1       1.529  -2.151  -1.790  0.00  0.00     0.003 A 
ATOM      3  C2  UNL d   1       2.130  -0.891  -1.752  0.00  0.00     0.048 A 
ATOM      4  C3  UNL d   1       2.543  -0.358  -0.532  0.00  0.00     0.023 A 
ATOM      5  C4  UNL d   1       2.359  -1.076   0.651  0.00  0.00     0.048 A 
ATOM      6  C5  UNL d   1       1.756  -2.335   0.609  0.00  0.00     0.003 A 
ATOM      7  I   UNL d   1       3.438   1.516  -0.473  0.00  0.00    -0.146 I 
ENDROOT
TORSDOF 0
ENDMDL
