MODEL 1
REMARK minimizedAffinity 0.604676902
REMARK minimizedRMSD -1
REMARK  0 active torsions:
REMARK  status: ('A' for Active; 'I' for Inactive)
ROOT
ATOM      1  C   UNL d   1      -4.478   2.394   0.151  0.00  0.00     0.023 A 
ATOM      2  C1  UNL d   1      -4.505   1.050  -0.221  0.00  0.00     0.003 A 
ATOM      3  C2  UNL d   1      -4.942   0.687  -1.497  0.00  0.00     0.048 A 
ATOM      4  C3  UNL d   1      -5.349   1.672  -2.395  0.00  0.00     0.023 A 
ATOM      5  C4  UNL d   1      -5.323   3.018  -2.027  0.00  0.00     0.048 A 
ATOM      6  C5  UNL d   1      -4.886   3.377  -0.750  0.00  0.00     0.003 A 
ATOM      7  I   UNL d   1      -6.000   1.134  -4.294  0.00  0.00    -0.146 I 
ENDROOT
TORSDOF 0
ENDMDL
