MODEL 1
REMARK minimizedAffinity -2.59295154
REMARK minimizedRMSD -1
REMARK  1 active torsions:
REMARK  status: ('A' for Active; 'I' for Inactive)
REMARK    1  A    between atoms: C1_2  and  C2_3 
ROOT
ATOM      1  C2  UNL d   1      -1.027   0.155  -0.385  0.00  0.00    -0.073 A 
ATOM      2  C3  UNL d   1      -1.569  -0.875   0.391  0.00  0.00    -0.002 A 
ATOM      3  C4  UNL d   1      -2.431  -1.811  -0.183  0.00  0.00     0.004 A 
ATOM      4  C5  UNL d   1      -2.753  -1.731  -1.538  0.00  0.00    -0.004 A 
ATOM      5  C6  UNL d   1      -2.211  -0.715  -2.332  0.00  0.00    -0.075 A 
ATOM      6  C7  UNL d   1      -2.550  -0.613  -3.791  0.00  0.00     0.076 C 
ATOM      7  C8  UNL d   1      -1.349   0.223  -1.748  0.00  0.00     0.001 A 
ENDROOT
BRANCH   1   8
ATOM      8  C1  UNL d   1      -0.091   1.164   0.229  0.00  0.00     0.053 C 
ATOM      9  C   UNL d   1       1.343   0.659   0.273  0.00  0.00     0.018 C 
ENDBRANCH   1   8
TORSDOF 1
ENDMDL
