MODEL 1
REMARK minimizedAffinity 6.39221191
REMARK minimizedRMSD -1
REMARK  1 active torsions:
REMARK  status: ('A' for Active; 'I' for Inactive)
REMARK    1  A    between atoms: C1_2  and  C2_3 
ROOT
ATOM      1  C2  UNL d   1      -3.218   1.961   0.798  0.00  0.00    -0.073 A 
ATOM      2  C3  UNL d   1      -4.047   2.264   1.884  0.00  0.00    -0.002 A 
ATOM      3  C4  UNL d   1      -5.311   2.814   1.673  0.00  0.00     0.004 A 
ATOM      4  C5  UNL d   1      -5.763   3.061   0.377  0.00  0.00    -0.004 A 
ATOM      5  C6  UNL d   1      -4.953   2.754  -0.722  0.00  0.00    -0.075 A 
ATOM      6  C7  UNL d   1      -5.423   3.015  -2.123  0.00  0.00     0.076 C 
ATOM      7  C8  UNL d   1      -3.683   2.204  -0.502  0.00  0.00     0.001 A 
ENDROOT
BRANCH   1   8
ATOM      8  C1  UNL d   1      -1.854   1.360   1.020  0.00  0.00     0.053 C 
ATOM      9  C   UNL d   1      -1.854  -0.147   0.817  0.00  0.00     0.018 C 
ENDBRANCH   1   8
TORSDOF 1
ENDMDL
