MODEL 1
REMARK minimizedAffinity -1.7369405
REMARK minimizedRMSD -1
REMARK  1 active torsions:
REMARK  status: ('A' for Active; 'I' for Inactive)
REMARK    1  A    between atoms: C1_2  and  C2_3 
ROOT
ATOM      1  C2  UNL d   1      -1.062   0.330  -0.805  0.00  0.00    -0.073 A 
ATOM      2  C3  UNL d   1      -0.816  -0.527   0.273  0.00  0.00    -0.002 A 
ATOM      3  C4  UNL d   1       0.323  -0.360   1.061  0.00  0.00     0.004 A 
ATOM      4  C5  UNL d   1       1.223   0.669   0.785  0.00  0.00    -0.004 A 
ATOM      5  C6  UNL d   1       0.989   1.543  -0.281  0.00  0.00    -0.075 A 
ATOM      6  C7  UNL d   1       1.949   2.654  -0.593  0.00  0.00     0.076 C 
ATOM      7  C8  UNL d   1      -0.156   1.367  -1.070  0.00  0.00     0.001 A 
ENDROOT
BRANCH   1   8
ATOM      8  C1  UNL d   1      -2.294   0.158  -1.655  0.00  0.00     0.053 C 
ATOM      9  C   UNL d   1      -1.969  -0.436  -3.016  0.00  0.00     0.018 C 
ENDBRANCH   1   8
TORSDOF 1
ENDMDL
