MODEL 1
REMARK minimizedAffinity -3.50138497
REMARK minimizedRMSD -1
REMARK  1 active torsions:
REMARK  status: ('A' for Active; 'I' for Inactive)
REMARK    1  A    between atoms: C1_2  and  C2_3 
ROOT
ATOM      1  C2  UNL d   1      -1.291   0.318  -0.878  0.00  0.00    -0.073 A 
ATOM      2  C3  UNL d   1      -0.256   1.260  -0.900  0.00  0.00    -0.002 A 
ATOM      3  C4  UNL d   1       0.879   1.079  -0.109  0.00  0.00     0.004 A 
ATOM      4  C5  UNL d   1       0.995  -0.047   0.705  0.00  0.00    -0.004 A 
ATOM      5  C6  UNL d   1      -0.023  -1.006   0.732  0.00  0.00    -0.075 A 
ATOM      6  C7  UNL d   1       0.086  -2.222   1.605  0.00  0.00     0.076 C 
ATOM      7  C8  UNL d   1      -1.161  -0.816  -0.063  0.00  0.00     0.001 A 
ENDROOT
BRANCH   1   8
ATOM      8  C1  UNL d   1      -2.516   0.506  -1.735  0.00  0.00     0.053 C 
ATOM      9  C   UNL d   1      -2.323  -0.054  -3.135  0.00  0.00     0.018 C 
ENDBRANCH   1   8
TORSDOF 1
ENDMDL
