MODEL 1
REMARK minimizedAffinity -1.06940508
REMARK minimizedRMSD -1
REMARK  0 active torsions:
REMARK  status: ('A' for Active; 'I' for Inactive)
ROOT
ATOM      1  C   UNL d   1      -5.998   2.176  -4.719  0.00  0.00     0.172 C 
ATOM      2  N   UNL d   1      -5.435   3.357  -4.108  0.00  0.00    -0.070 N 
ATOM      3  C1  UNL d   1      -6.000   4.605  -4.111  0.00  0.00    -0.004 A 
ATOM      4  C2  UNL d   1      -5.156   5.452  -3.426  0.00  0.00    -0.047 A 
ATOM      5  C3  UNL d   1      -4.045   4.688  -2.997  0.00  0.00    -0.047 A 
ATOM      6  C4  UNL d   1      -4.244   3.395  -3.433  0.00  0.00    -0.004 A 
ENDROOT
TORSDOF 0
ENDMDL
