MODEL 1
REMARK minimizedAffinity 1.44222736
REMARK minimizedRMSD -1
REMARK  0 active torsions:
REMARK  status: ('A' for Active; 'I' for Inactive)
ROOT
ATOM      1  C   UNL d   1      -2.249   4.904  -1.747  0.00  0.00     0.172 C 
ATOM      2  N   UNL d   1      -1.151   4.349  -0.990  0.00  0.00    -0.070 N 
ATOM      3  C1  UNL d   1       0.164   4.351  -1.372  0.00  0.00    -0.004 A 
ATOM      4  C2  UNL d   1       0.892   3.731  -0.381  0.00  0.00    -0.047 A 
ATOM      5  C3  UNL d   1      -0.017   3.341   0.632  0.00  0.00    -0.047 A 
ATOM      6  C4  UNL d   1      -1.275   3.736   0.229  0.00  0.00    -0.004 A 
ENDROOT
TORSDOF 0
ENDMDL
