MODEL 1
REMARK minimizedAffinity 2.54797721
REMARK minimizedRMSD -1
REMARK  0 active torsions:
REMARK  status: ('A' for Active; 'I' for Inactive)
ROOT
ATOM      1  C   UNL d   1      -0.338   3.660   0.424  0.00  0.00     0.172 C 
ATOM      2  N   UNL d   1      -0.186   4.307  -0.858  0.00  0.00    -0.070 N 
ATOM      3  C1  UNL d   1       1.000   4.695  -1.421  0.00  0.00    -0.004 A 
ATOM      4  C2  UNL d   1       0.720   5.270  -2.641  0.00  0.00    -0.047 A 
ATOM      5  C3  UNL d   1      -0.683   5.228  -2.817  0.00  0.00    -0.047 A 
ATOM      6  C4  UNL d   1      -1.220   4.627  -1.699  0.00  0.00    -0.004 A 
ENDROOT
TORSDOF 0
ENDMDL
