MODEL 1
REMARK minimizedAffinity 0.350248188
REMARK minimizedRMSD -1
REMARK  0 active torsions:
REMARK  status: ('A' for Active; 'I' for Inactive)
ROOT
ATOM      1  C   UNL d   1      -1.552  -3.416  -3.062  0.00  0.00     0.172 C 
ATOM      2  N   UNL d   1      -0.551  -3.129  -2.062  0.00  0.00    -0.070 N 
ATOM      3  C1  UNL d   1      -0.267  -1.892  -1.548  0.00  0.00    -0.004 A 
ATOM      4  C2  UNL d   1       0.745  -2.041  -0.625  0.00  0.00    -0.047 A 
ATOM      5  C3  UNL d   1       1.082  -3.414  -0.583  0.00  0.00    -0.047 A 
ATOM      6  C4  UNL d   1       0.265  -4.065  -1.483  0.00  0.00    -0.004 A 
ENDROOT
TORSDOF 0
ENDMDL
