MODEL 1
REMARK minimizedAffinity 0.78429985
REMARK minimizedRMSD -1
REMARK  0 active torsions:
REMARK  status: ('A' for Active; 'I' for Inactive)
ROOT
ATOM      1  C   UNL d   1      -0.006   2.629   1.372  0.00  0.00     0.172 C 
ATOM      2  N   UNL d   1      -0.294   3.489   0.249  0.00  0.00    -0.070 N 
ATOM      3  C1  UNL d   1      -0.484   4.843   0.309  0.00  0.00    -0.004 A 
ATOM      4  C2  UNL d   1      -0.734   5.291  -0.970  0.00  0.00    -0.047 A 
ATOM      5  C3  UNL d   1      -0.694   4.167  -1.829  0.00  0.00    -0.047 A 
ATOM      6  C4  UNL d   1      -0.419   3.064  -1.048  0.00  0.00    -0.004 A 
ENDROOT
TORSDOF 0
ENDMDL
