MODEL 1
REMARK minimizedAffinity 4.09897804
REMARK minimizedRMSD -1
REMARK  0 active torsions:
REMARK  status: ('A' for Active; 'I' for Inactive)
ROOT
ATOM      1  C   UNL d   1       4.222  -5.795  -2.271  0.00  0.00     0.172 C 
ATOM      2  N   UNL d   1       4.669  -4.615  -1.569  0.00  0.00    -0.070 N 
ATOM      3  C1  UNL d   1       4.182  -3.347  -1.749  0.00  0.00    -0.004 A 
ATOM      4  C2  UNL d   1       4.866  -2.508  -0.896  0.00  0.00    -0.047 A 
ATOM      5  C3  UNL d   1       5.796  -3.298  -0.179  0.00  0.00    -0.047 A 
ATOM      6  C4  UNL d   1       5.652  -4.598  -0.615  0.00  0.00    -0.004 A 
ENDROOT
TORSDOF 0
ENDMDL
