MODEL 1
REMARK minimizedAffinity 1.04294741
REMARK minimizedRMSD -1
REMARK  0 active torsions:
REMARK  status: ('A' for Active; 'I' for Inactive)
ROOT
ATOM      1  C   UNL d   1      -5.075   0.697   2.495  0.00  0.00     0.172 C 
ATOM      2  N   UNL d   1      -5.451   0.209   3.801  0.00  0.00    -0.070 N 
ATOM      3  C1  UNL d   1      -5.658  -1.104   4.133  0.00  0.00    -0.004 A 
ATOM      4  C2  UNL d   1      -6.000  -1.152   5.467  0.00  0.00    -0.047 A 
ATOM      5  C3  UNL d   1      -6.000   0.177   5.953  0.00  0.00    -0.047 A 
ATOM      6  C4  UNL d   1      -5.657   0.999   4.900  0.00  0.00    -0.004 A 
ENDROOT
TORSDOF 0
ENDMDL
