MODEL 1
REMARK minimizedAffinity -5.0181427
REMARK minimizedRMSD -1
REMARK  0 active torsions:
REMARK  status: ('A' for Active; 'I' for Inactive)
ROOT
ATOM      1  C1  BNZ d   1       0.218   2.927   0.446  0.00  0.00     0.000 A 
ATOM      2  C2  BNZ d   1      -0.831   2.278   1.043  0.00  0.00     0.000 A 
ATOM      3  C3  BNZ d   1      -1.082   0.961   0.775  0.00  0.00     0.000 A 
ATOM      4  C4  BNZ d   1      -0.311   0.307  -0.117  0.00  0.00     0.000 A 
ATOM      5  C5  BNZ d   1       0.744   0.949  -0.733  0.00  0.00     0.000 A 
ATOM      6  C6  BNZ d   1       1.018   2.264  -0.432  0.00  0.00     0.000 A 
ENDROOT
TORSDOF 0
ENDMDL
