MODEL 1
REMARK minimizedAffinity -2.6333282
REMARK minimizedRMSD -1
REMARK  0 active torsions:
REMARK  status: ('A' for Active; 'I' for Inactive)
ROOT
ATOM      1  C1  BNZ d   1      -0.957  -0.266   1.360  0.00  0.00     0.000 A 
ATOM      2  C2  BNZ d   1      -0.994   0.976   0.785  0.00  0.00     0.000 A 
ATOM      3  C3  BNZ d   1       0.006   1.390  -0.050  0.00  0.00     0.000 A 
ATOM      4  C4  BNZ d   1       1.060   0.580  -0.277  0.00  0.00     0.000 A 
ATOM      5  C5  BNZ d   1       1.116  -0.672   0.303  0.00  0.00     0.000 A 
ATOM      6  C6  BNZ d   1       0.089  -1.101   1.112  0.00  0.00     0.000 A 
ENDROOT
TORSDOF 0
ENDMDL
