MODEL 1
REMARK minimizedAffinity -3.20466661
REMARK minimizedRMSD -1
REMARK  0 active torsions:
REMARK  status: ('A' for Active; 'I' for Inactive)
ROOT
ATOM      1  C1  BNZ d   1      -0.470   1.754   0.711  0.00  0.00     0.000 A 
ATOM      2  C2  BNZ d   1      -1.153   0.646   1.137  0.00  0.00     0.000 A 
ATOM      3  C3  BNZ d   1      -1.079  -0.530   0.444  0.00  0.00     0.000 A 
ATOM      4  C4  BNZ d   1      -0.357  -0.585  -0.694  0.00  0.00     0.000 A 
ATOM      5  C5  BNZ d   1       0.330   0.526  -1.141  0.00  0.00     0.000 A 
ATOM      6  C6  BNZ d   1       0.285   1.697  -0.420  0.00  0.00     0.000 A 
ENDROOT
TORSDOF 0
ENDMDL
