MODEL 1
REMARK minimizedAffinity -5.3358655
REMARK minimizedRMSD -1
REMARK  0 active torsions:
REMARK  status: ('A' for Active; 'I' for Inactive)
ROOT
ATOM      1  C1  BNZ d   1       1.103   2.232  -0.159  0.00  0.00     0.000 A 
ATOM      2  C2  BNZ d   1       0.237   3.091   0.465  0.00  0.00     0.000 A 
ATOM      3  C3  BNZ d   1      -0.914   2.629   1.039  0.00  0.00     0.000 A 
ATOM      4  C4  BNZ d   1      -1.219   1.318   0.952  0.00  0.00     0.000 A 
ATOM      5  C5  BNZ d   1      -0.361   0.441   0.318  0.00  0.00     0.000 A 
ATOM      6  C6  BNZ d   1       0.816   0.903  -0.224  0.00  0.00     0.000 A 
ENDROOT
TORSDOF 0
ENDMDL
