MODEL 1
REMARK minimizedAffinity -2.66365504
REMARK minimizedRMSD -1
REMARK  0 active torsions:
REMARK  status: ('A' for Active; 'I' for Inactive)
ROOT
ATOM      1  C1  BNZ d   1      -1.353   2.941   1.537  0.00  0.00     0.000 A 
ATOM      2  C2  BNZ d   1      -0.333   3.453   0.779  0.00  0.00     0.000 A 
ATOM      3  C3  BNZ d   1       0.455   2.633   0.020  0.00  0.00     0.000 A 
ATOM      4  C4  BNZ d   1       0.248   1.300   0.051  0.00  0.00     0.000 A 
ATOM      5  C5  BNZ d   1      -0.770   0.768   0.817  0.00  0.00     0.000 A 
ATOM      6  C6  BNZ d   1      -1.586   1.600   1.549  0.00  0.00     0.000 A 
ENDROOT
TORSDOF 0
ENDMDL
