MODEL 1
REMARK minimizedAffinity -4.9048748
REMARK minimizedRMSD -1
REMARK  0 active torsions:
REMARK  status: ('A' for Active; 'I' for Inactive)
ROOT
ATOM      1  C1  BNZ d   1      -1.094   1.457   1.247  0.00  0.00     0.000 A 
ATOM      2  C2  BNZ d   1      -0.684   2.760   1.348  0.00  0.00     0.000 A 
ATOM      3  C3  BNZ d   1       0.316   3.243   0.552  0.00  0.00     0.000 A 
ATOM      4  C4  BNZ d   1       0.932   2.414  -0.316  0.00  0.00     0.000 A 
ATOM      5  C5  BNZ d   1       0.536   1.095  -0.423  0.00  0.00     0.000 A 
ATOM      6  C6  BNZ d   1      -0.497   0.623   0.353  0.00  0.00     0.000 A 
ENDROOT
TORSDOF 0
ENDMDL
