MODEL 1
REMARK minimizedAffinity -2.79237342
REMARK minimizedRMSD -1
REMARK  0 active torsions:
REMARK  status: ('A' for Active; 'I' for Inactive)
ROOT
ATOM      1  C1  BNZ d   1      -1.232   2.358   0.673  0.00  0.00     0.000 A 
ATOM      2  C2  BNZ d   1      -1.315   1.061   0.241  0.00  0.00     0.000 A 
ATOM      3  C3  BNZ d   1      -0.213   0.252   0.239  0.00  0.00     0.000 A 
ATOM      4  C4  BNZ d   1       0.977   0.752   0.631  0.00  0.00     0.000 A 
ATOM      5  C5  BNZ d   1       1.078   2.060   1.061  0.00  0.00     0.000 A 
ATOM      6  C6  BNZ d   1      -0.041   2.860   1.098  0.00  0.00     0.000 A 
ENDROOT
TORSDOF 0
ENDMDL
