MODEL 1
REMARK minimizedAffinity -3.24533725
REMARK minimizedRMSD -1
REMARK  0 active torsions:
REMARK  status: ('A' for Active; 'I' for Inactive)
ROOT
ATOM      1  C1  BNZ d   1      -1.144   3.217   2.117  0.00  0.00     0.000 A 
ATOM      2  C2  BNZ d   1      -1.735   1.997   1.929  0.00  0.00     0.000 A 
ATOM      3  C3  BNZ d   1      -1.325   1.168   0.922  0.00  0.00     0.000 A 
ATOM      4  C4  BNZ d   1      -0.354   1.577   0.081  0.00  0.00     0.000 A 
ATOM      5  C5  BNZ d   1       0.246   2.809   0.252  0.00  0.00     0.000 A 
ATOM      6  C6  BNZ d   1      -0.142   3.624   1.290  0.00  0.00     0.000 A 
ENDROOT
TORSDOF 0
ENDMDL
