MODEL 1
REMARK minimizedAffinity -5.09090137
REMARK minimizedRMSD -1
REMARK  0 active torsions:
REMARK  status: ('A' for Active; 'I' for Inactive)
ROOT
ATOM      1  C1  BNZ d   1      -0.796   0.707  -0.502  0.00  0.00     0.000 A 
ATOM      2  C2  BNZ d   1       0.378   1.304  -0.877  0.00  0.00     0.000 A 
ATOM      3  C3  BNZ d   1       0.778   2.480  -0.308  0.00  0.00     0.000 A 
ATOM      4  C4  BNZ d   1      -0.014   3.078   0.606  0.00  0.00     0.000 A 
ATOM      5  C5  BNZ d   1      -1.205   2.494   0.988  0.00  0.00     0.000 A 
ATOM      6  C6  BNZ d   1      -1.586   1.290   0.441  0.00  0.00     0.000 A 
ENDROOT
TORSDOF 0
ENDMDL
