MODEL 1
REMARK minimizedAffinity -4.40753412
REMARK minimizedRMSD -1
REMARK  0 active torsions:
REMARK  status: ('A' for Active; 'I' for Inactive)
ROOT
ATOM      1  C1  BNZ d   1       0.705   0.479  -0.136  0.00  0.00     0.000 A 
ATOM      2  C2  BNZ d   1       1.064   1.793  -0.272  0.00  0.00     0.000 A 
ATOM      3  C3  BNZ d   1       0.235   2.793   0.152  0.00  0.00     0.000 A 
ATOM      4  C4  BNZ d   1      -0.969   2.480   0.673  0.00  0.00     0.000 A 
ATOM      5  C5  BNZ d   1      -1.350   1.160   0.808  0.00  0.00     0.000 A 
ATOM      6  C6  BNZ d   1      -0.496   0.154   0.416  0.00  0.00     0.000 A 
ENDROOT
TORSDOF 0
ENDMDL
