MODEL 1
REMARK minimizedAffinity -4.00425339
REMARK minimizedRMSD -1
REMARK  0 active torsions:
REMARK  status: ('A' for Active; 'I' for Inactive)
ROOT
ATOM      1  C1  BNZ d   1       0.582   2.102  -0.026  0.00  0.00     0.000 A 
ATOM      2  C2  BNZ d   1       0.132   0.875  -0.435  0.00  0.00     0.000 A 
ATOM      3  C3  BNZ d   1      -1.030   0.354   0.062  0.00  0.00     0.000 A 
ATOM      4  C4  BNZ d   1      -1.719   1.042   0.995  0.00  0.00     0.000 A 
ATOM      5  C5  BNZ d   1      -1.274   2.277   1.424  0.00  0.00     0.000 A 
ATOM      6  C6  BNZ d   1      -0.125   2.815   0.893  0.00  0.00     0.000 A 
ENDROOT
TORSDOF 0
ENDMDL
