MODEL 1
REMARK minimizedAffinity -4.15521717
REMARK minimizedRMSD -1
REMARK  0 active torsions:
REMARK  status: ('A' for Active; 'I' for Inactive)
ROOT
ATOM      1  C1  BNZ d   1      -1.841   1.352   1.102  0.00  0.00     0.000 A 
ATOM      2  C2  BNZ d   1      -1.325   2.580   1.421  0.00  0.00     0.000 A 
ATOM      3  C3  BNZ d   1      -0.091   2.959   0.970  0.00  0.00     0.000 A 
ATOM      4  C4  BNZ d   1       0.640   2.095   0.237  0.00  0.00     0.000 A 
ATOM      5  C5  BNZ d   1       0.138   0.850  -0.085  0.00  0.00     0.000 A 
ATOM      6  C6  BNZ d   1      -1.121   0.487   0.338  0.00  0.00     0.000 A 
ENDROOT
TORSDOF 0
ENDMDL
