MODEL 1
REMARK minimizedAffinity -3.00498509
REMARK minimizedRMSD -1
REMARK  0 active torsions:
REMARK  status: ('A' for Active; 'I' for Inactive)
ROOT
ATOM      1  C1  BNZ d   1      -0.844   0.409  -0.053  0.00  0.00     0.000 A 
ATOM      2  C2  BNZ d   1       0.032  -0.644  -0.031  0.00  0.00     0.000 A 
ATOM      3  C3  BNZ d   1       1.318  -0.476   0.401  0.00  0.00     0.000 A 
ATOM      4  C4  BNZ d   1       1.737   0.751   0.774  0.00  0.00     0.000 A 
ATOM      5  C5  BNZ d   1       0.868   1.824   0.749  0.00  0.00     0.000 A 
ATOM      6  C6  BNZ d   1      -0.436   1.643   0.350  0.00  0.00     0.000 A 
ENDROOT
TORSDOF 0
ENDMDL
