MODEL 1
REMARK minimizedAffinity -2.2160933
REMARK minimizedRMSD -1
REMARK  0 active torsions:
REMARK  status: ('A' for Active; 'I' for Inactive)
ROOT
ATOM      1  C1  BNZ d   1      -1.788   1.605   0.456  0.00  0.00     0.000 A 
ATOM      2  C2  BNZ d   1      -1.358   0.342   0.145  0.00  0.00     0.000 A 
ATOM      3  C3  BNZ d   1      -0.047  -0.010   0.307  0.00  0.00     0.000 A 
ATOM      4  C4  BNZ d   1       0.838   0.910   0.740  0.00  0.00     0.000 A 
ATOM      5  C5  BNZ d   1       0.422   2.190   1.048  0.00  0.00     0.000 A 
ATOM      6  C6  BNZ d   1      -0.906   2.530   0.921  0.00  0.00     0.000 A 
ENDROOT
TORSDOF 0
ENDMDL
