MODEL 1
REMARK minimizedAffinity -4.20480108
REMARK minimizedRMSD -1
REMARK  0 active torsions:
REMARK  status: ('A' for Active; 'I' for Inactive)
ROOT
ATOM      1  C1  BNZ d   1       0.865   2.133  -0.567  0.00  0.00     0.000 A 
ATOM      2  C2  BNZ d   1       0.731   0.771  -0.538  0.00  0.00     0.000 A 
ATOM      3  C3  BNZ d   1      -0.226   0.179   0.239  0.00  0.00     0.000 A 
ATOM      4  C4  BNZ d   1      -1.018   0.946   1.015  0.00  0.00     0.000 A 
ATOM      5  C5  BNZ d   1      -0.889   2.321   1.003  0.00  0.00     0.000 A 
ATOM      6  C6  BNZ d   1       0.049   2.915   0.191  0.00  0.00     0.000 A 
ENDROOT
TORSDOF 0
ENDMDL
