MODEL 1
REMARK minimizedAffinity -3.68992901
REMARK minimizedRMSD -1
REMARK  0 active torsions:
REMARK  status: ('A' for Active; 'I' for Inactive)
ROOT
ATOM      1  C   UNL d   1      -0.567   0.411  -0.471  0.00  0.00     0.172 C 
ATOM      2  N   UNL d   1       0.736   0.481   0.146  0.00  0.00    -0.070 N 
ATOM      3  C1  UNL d   1       1.460   1.624   0.358  0.00  0.00    -0.004 A 
ATOM      4  C2  UNL d   1       2.643   1.268   0.969  0.00  0.00    -0.047 A 
ATOM      5  C3  UNL d   1       2.630  -0.138   1.129  0.00  0.00    -0.047 A 
ATOM      6  C4  UNL d   1       1.439  -0.600   0.611  0.00  0.00    -0.004 A 
ENDROOT
TORSDOF 0
ENDMDL
