MODEL 1
REMARK minimizedAffinity -3.30131912
REMARK minimizedRMSD -1
REMARK  0 active torsions:
REMARK  status: ('A' for Active; 'I' for Inactive)
ROOT
ATOM      1  C   UNL d   1       2.544  -1.793   0.035  0.00  0.00     0.172 C 
ATOM      2  N   UNL d   1       1.321  -1.033  -0.067  0.00  0.00    -0.070 N 
ATOM      3  C1  UNL d   1       1.142   0.253   0.368  0.00  0.00    -0.004 A 
ATOM      4  C2  UNL d   1      -0.158   0.616   0.088  0.00  0.00    -0.047 A 
ATOM      5  C3  UNL d   1      -0.782  -0.491  -0.536  0.00  0.00    -0.047 A 
ATOM      6  C4  UNL d   1       0.156  -1.497  -0.619  0.00  0.00    -0.004 A 
ENDROOT
TORSDOF 0
ENDMDL
