MODEL 1
REMARK minimizedAffinity -3.31909466
REMARK minimizedRMSD -1
REMARK  0 active torsions:
REMARK  status: ('A' for Active; 'I' for Inactive)
ROOT
ATOM      1  C   UNL d   1       2.479  -1.767   0.605  0.00  0.00     0.172 C 
ATOM      2  N   UNL d   1       1.288  -1.029   0.255  0.00  0.00    -0.070 N 
ATOM      3  C1  UNL d   1       1.118   0.323   0.392  0.00  0.00    -0.004 A 
ATOM      4  C2  UNL d   1      -0.149   0.636  -0.052  0.00  0.00    -0.047 A 
ATOM      5  C3  UNL d   1      -0.761  -0.570  -0.469  0.00  0.00    -0.047 A 
ATOM      6  C4  UNL d   1       0.151  -1.584  -0.268  0.00  0.00    -0.004 A 
ENDROOT
TORSDOF 0
ENDMDL
