MODEL 1
REMARK minimizedAffinity -2.43704176
REMARK minimizedRMSD -1
REMARK  0 active torsions:
REMARK  status: ('A' for Active; 'I' for Inactive)
ROOT
ATOM      1  C   UNL d   1      -0.721  -0.605  -0.315  0.00  0.00     0.172 C 
ATOM      2  N   UNL d   1      -1.901   0.014   0.240  0.00  0.00    -0.070 N 
ATOM      3  C1  UNL d   1      -2.836  -0.608   1.024  0.00  0.00    -0.004 A 
ATOM      4  C2  UNL d   1      -3.801   0.321   1.348  0.00  0.00    -0.047 A 
ATOM      5  C3  UNL d   1      -3.434   1.544   0.738  0.00  0.00    -0.047 A 
ATOM      6  C4  UNL d   1      -2.254   1.326   0.059  0.00  0.00    -0.004 A 
ENDROOT
TORSDOF 0
ENDMDL
