MODEL 1
REMARK minimizedAffinity 3.13042617
REMARK minimizedRMSD -1
REMARK  0 active torsions:
REMARK  status: ('A' for Active; 'I' for Inactive)
ROOT
ATOM      1  C   UNL d   1       1.477   0.002  -0.755  0.00  0.00     0.172 C 
ATOM      2  N   UNL d   1       1.001  -1.242  -0.199  0.00  0.00    -0.070 N 
ATOM      3  C1  UNL d   1      -0.246  -1.458   0.324  0.00  0.00    -0.004 A 
ATOM      4  C2  UNL d   1      -0.305  -2.769   0.747  0.00  0.00    -0.047 A 
ATOM      5  C3  UNL d   1       0.950  -3.360   0.470  0.00  0.00    -0.047 A 
ATOM      6  C4  UNL d   1       1.740  -2.393  -0.115  0.00  0.00    -0.004 A 
ENDROOT
TORSDOF 0
ENDMDL
