MODEL 1
REMARK minimizedAffinity -4.01305819
REMARK minimizedRMSD -1
REMARK  0 active torsions:
REMARK  status: ('A' for Active; 'I' for Inactive)
ROOT
ATOM      1  C   UNL d   1      -0.628   0.442  -0.193  0.00  0.00     0.172 C 
ATOM      2  N   UNL d   1       0.561  -0.332   0.072  0.00  0.00    -0.070 N 
ATOM      3  C1  UNL d   1       1.577   0.030   0.917  0.00  0.00    -0.004 A 
ATOM      4  C2  UNL d   1       2.522  -0.973   0.894  0.00  0.00    -0.047 A 
ATOM      5  C3  UNL d   1       2.059  -1.972   0.005  0.00  0.00    -0.047 A 
ATOM      6  C4  UNL d   1       0.843  -1.549  -0.490  0.00  0.00    -0.004 A 
ENDROOT
TORSDOF 0
ENDMDL
