MODEL 1
REMARK minimizedAffinity -2.20346355
REMARK minimizedRMSD -1
REMARK  0 active torsions:
REMARK  status: ('A' for Active; 'I' for Inactive)
ROOT
ATOM      1  C   UNL d   1      -0.338  -0.223  -0.592  0.00  0.00     0.172 C 
ATOM      2  N   UNL d   1      -1.428   0.346   0.165  0.00  0.00    -0.070 N 
ATOM      3  C1  UNL d   1      -1.581   0.274   1.523  0.00  0.00    -0.004 A 
ATOM      4  C2  UNL d   1      -2.742   0.939   1.854  0.00  0.00    -0.047 A 
ATOM      5  C3  UNL d   1      -3.307   1.427   0.652  0.00  0.00    -0.047 A 
ATOM      6  C4  UNL d   1      -2.474   1.046  -0.378  0.00  0.00    -0.004 A 
ENDROOT
TORSDOF 0
ENDMDL
