MODEL 1
REMARK minimizedAffinity -1.67978382
REMARK minimizedRMSD -1
REMARK  0 active torsions:
REMARK  status: ('A' for Active; 'I' for Inactive)
ROOT
ATOM      1  C   UNL d   1       2.304  -1.585  -0.545  0.00  0.00     0.172 C 
ATOM      2  N   UNL d   1       1.092  -0.802  -0.469  0.00  0.00    -0.070 N 
ATOM      3  C1  UNL d   1       1.029   0.559  -0.334  0.00  0.00    -0.004 A 
ATOM      4  C2  UNL d   1      -0.301   0.918  -0.301  0.00  0.00    -0.047 A 
ATOM      5  C3  UNL d   1      -1.063  -0.268  -0.420  0.00  0.00    -0.047 A 
ATOM      6  C4  UNL d   1      -0.175  -1.318  -0.523  0.00  0.00    -0.004 A 
ENDROOT
TORSDOF 0
ENDMDL
