MODEL 1
REMARK minimizedAffinity -1.91482472
REMARK minimizedRMSD -1
REMARK  0 active torsions:
REMARK  status: ('A' for Active; 'I' for Inactive)
ROOT
ATOM      1  C   UNL d   1       3.194  -0.065   0.679  0.00  0.00     0.172 C 
ATOM      2  N   UNL d   1       1.860   0.041   0.135  0.00  0.00    -0.070 N 
ATOM      3  C1  UNL d   1       1.061   1.151   0.192  0.00  0.00    -0.004 A 
ATOM      4  C2  UNL d   1      -0.127   0.848  -0.437  0.00  0.00    -0.047 A 
ATOM      5  C3  UNL d   1      -0.039  -0.491  -0.887  0.00  0.00    -0.047 A 
ATOM      6  C4  UNL d   1       1.202  -0.966  -0.519  0.00  0.00    -0.004 A 
ENDROOT
TORSDOF 0
ENDMDL
