MODEL 1
REMARK minimizedAffinity -3.32230973
REMARK minimizedRMSD -1
REMARK  0 active torsions:
REMARK  status: ('A' for Active; 'I' for Inactive)
ROOT
ATOM      1  C   UNL d   1      -1.317   0.678  -0.244  0.00  0.00     0.172 C 
ATOM      2  N   UNL d   1      -0.152  -0.168  -0.127  0.00  0.00    -0.070 N 
ATOM      3  C1  UNL d   1      -0.134  -1.528  -0.286  0.00  0.00    -0.004 A 
ATOM      4  C2  UNL d   1       1.162  -1.957  -0.096  0.00  0.00    -0.047 A 
ATOM      5  C3  UNL d   1       1.949  -0.816   0.188  0.00  0.00    -0.047 A 
ATOM      6  C4  UNL d   1       1.110   0.278   0.162  0.00  0.00    -0.004 A 
ENDROOT
TORSDOF 0
ENDMDL
