MODEL 1
REMARK minimizedAffinity -2.84784102
REMARK minimizedRMSD -1
REMARK  0 active torsions:
REMARK  status: ('A' for Active; 'I' for Inactive)
ROOT
ATOM      1  C   UNL d   1       2.571   0.705   1.230  0.00  0.00     0.172 C 
ATOM      2  N   UNL d   1       1.426   0.388   0.410  0.00  0.00    -0.070 N 
ATOM      3  C1  UNL d   1       0.475   1.279  -0.012  0.00  0.00    -0.004 A 
ATOM      4  C2  UNL d   1      -0.446   0.587  -0.769  0.00  0.00    -0.047 A 
ATOM      5  C3  UNL d   1      -0.035  -0.767  -0.802  0.00  0.00    -0.047 A 
ATOM      6  C4  UNL d   1       1.126  -0.862  -0.064  0.00  0.00    -0.004 A 
ENDROOT
TORSDOF 0
ENDMDL
