MODEL 1
REMARK minimizedAffinity -3.61864448
REMARK minimizedRMSD -1
REMARK  0 active torsions:
REMARK  status: ('A' for Active; 'I' for Inactive)
ROOT
ATOM      1  C   UNL d   1      -0.692   1.134  -0.314  0.00  0.00     0.172 C 
ATOM      2  N   UNL d   1       0.356   0.165  -0.091  0.00  0.00    -0.070 N 
ATOM      3  C1  UNL d   1       1.464   0.354   0.691  0.00  0.00    -0.004 A 
ATOM      4  C2  UNL d   1       2.215  -0.800   0.644  0.00  0.00    -0.047 A 
ATOM      5  C3  UNL d   1       1.536  -1.714  -0.197  0.00  0.00    -0.047 A 
ATOM      6  C4  UNL d   1       0.388  -1.090  -0.638  0.00  0.00    -0.004 A 
ENDROOT
TORSDOF 0
ENDMDL
