MODEL 1
REMARK minimizedAffinity -2.75142813
REMARK minimizedRMSD -1
REMARK  0 active torsions:
REMARK  status: ('A' for Active; 'I' for Inactive)
ROOT
ATOM      1  C   UNL d   1       2.371  -1.649   0.160  0.00  0.00     0.172 C 
ATOM      2  N   UNL d   1       1.149  -0.897   0.002  0.00  0.00    -0.070 N 
ATOM      3  C1  UNL d   1       0.013  -1.342  -0.620  0.00  0.00    -0.004 A 
ATOM      4  C2  UNL d   1      -0.924  -0.333  -0.560  0.00  0.00    -0.047 A 
ATOM      5  C3  UNL d   1      -0.330   0.757   0.119  0.00  0.00    -0.047 A 
ATOM      6  C4  UNL d   1       0.954   0.381   0.456  0.00  0.00    -0.004 A 
ENDROOT
TORSDOF 0
ENDMDL
