MODEL 1
REMARK minimizedAffinity -2.94615889
REMARK minimizedRMSD -1
REMARK  0 active torsions:
REMARK  status: ('A' for Active; 'I' for Inactive)
ROOT
ATOM      1  C1  BNZ d   1      -4.880   4.549   2.939  0.00  0.00     0.000 A 
ATOM      2  C2  BNZ d   1      -3.761   4.501   3.726  0.00  0.00     0.000 A 
ATOM      3  C3  BNZ d   1      -3.745   3.762   4.876  0.00  0.00     0.000 A 
ATOM      4  C4  BNZ d   1      -4.860   3.105   5.257  0.00  0.00     0.000 A 
ATOM      5  C5  BNZ d   1      -5.999   3.151   4.479  0.00  0.00     0.000 A 
ATOM      6  C6  BNZ d   1      -5.999   3.864   3.302  0.00  0.00     0.000 A 
ENDROOT
TORSDOF 0
ENDMDL
