MODEL 1
REMARK minimizedAffinity -3.13618827
REMARK minimizedRMSD -1
REMARK  0 active torsions:
REMARK  status: ('A' for Active; 'I' for Inactive)
ROOT
ATOM      1  C1  BNZ d   1      -4.492   5.051   2.605  0.00  0.00     0.000 A 
ATOM      2  C2  BNZ d   1      -4.497   3.753   3.041  0.00  0.00     0.000 A 
ATOM      3  C3  BNZ d   1      -5.267   3.375   4.104  0.00  0.00     0.000 A 
ATOM      4  C4  BNZ d   1      -6.000   4.301   4.755  0.00  0.00     0.000 A 
ATOM      5  C5  BNZ d   1      -5.999   5.616   4.334  0.00  0.00     0.000 A 
ATOM      6  C6  BNZ d   1      -5.253   5.985   3.238  0.00  0.00     0.000 A 
ENDROOT
TORSDOF 0
ENDMDL
