MODEL 1
REMARK minimizedAffinity 2.88913441
REMARK minimizedRMSD -1
REMARK  0 active torsions:
REMARK  status: ('A' for Active; 'I' for Inactive)
ROOT
ATOM      1  C1  BNZ d   1      -5.249   5.552   1.895  0.00  0.00     0.000 A 
ATOM      2  C2  BNZ d   1      -4.546   4.504   1.364  0.00  0.00     0.000 A 
ATOM      3  C3  BNZ d   1      -4.545   3.280   1.974  0.00  0.00     0.000 A 
ATOM      4  C4  BNZ d   1      -5.212   3.118   3.134  0.00  0.00     0.000 A 
ATOM      5  C5  BNZ d   1      -5.918   4.168   3.688  0.00  0.00     0.000 A 
ATOM      6  C6  BNZ d   1      -5.949   5.387   3.051  0.00  0.00     0.000 A 
ENDROOT
TORSDOF 0
ENDMDL
