MODEL 1
REMARK minimizedAffinity -3.38251042
REMARK minimizedRMSD -1
REMARK  0 active torsions:
REMARK  status: ('A' for Active; 'I' for Inactive)
ROOT
ATOM      1  C1  BNZ d   1      -4.909   4.330   2.478  0.00  0.00     0.000 A 
ATOM      2  C2  BNZ d   1      -5.194   3.019   2.752  0.00  0.00     0.000 A 
ATOM      3  C3  BNZ d   1      -5.030   2.516   4.013  0.00  0.00     0.000 A 
ATOM      4  C4  BNZ d   1      -4.545   3.313   4.986  0.00  0.00     0.000 A 
ATOM      5  C5  BNZ d   1      -4.245   4.635   4.723  0.00  0.00     0.000 A 
ATOM      6  C6  BNZ d   1      -4.448   5.148   3.463  0.00  0.00     0.000 A 
ENDROOT
TORSDOF 0
ENDMDL
