MODEL 1
REMARK minimizedAffinity -2.56663299
REMARK minimizedRMSD -1
REMARK  0 active torsions:
REMARK  status: ('A' for Active; 'I' for Inactive)
ROOT
ATOM      1  C1  BNZ d   1       2.350   2.269   3.769  0.00  0.00     0.000 A 
ATOM      2  C2  BNZ d   1       2.464   3.159   2.735  0.00  0.00     0.000 A 
ATOM      3  C3  BNZ d   1       2.581   2.722   1.445  0.00  0.00     0.000 A 
ATOM      4  C4  BNZ d   1       2.624   1.398   1.195  0.00  0.00     0.000 A 
ATOM      5  C5  BNZ d   1       2.520   0.488   2.228  0.00  0.00     0.000 A 
ATOM      6  C6  BNZ d   1       2.363   0.931   3.521  0.00  0.00     0.000 A 
ENDROOT
TORSDOF 0
ENDMDL
