MODEL 1
REMARK minimizedAffinity -3.51532173
REMARK minimizedRMSD -1
REMARK  0 active torsions:
REMARK  status: ('A' for Active; 'I' for Inactive)
ROOT
ATOM      1  C1  BNZ d   1      -4.579   4.842   2.302  0.00  0.00     0.000 A 
ATOM      2  C2  BNZ d   1      -4.953   5.987   2.954  0.00  0.00     0.000 A 
ATOM      3  C3  BNZ d   1      -5.178   5.983   4.302  0.00  0.00     0.000 A 
ATOM      4  C4  BNZ d   1      -5.069   4.828   4.989  0.00  0.00     0.000 A 
ATOM      5  C5  BNZ d   1      -4.703   3.663   4.345  0.00  0.00     0.000 A 
ATOM      6  C6  BNZ d   1      -4.439   3.679   2.994  0.00  0.00     0.000 A 
ENDROOT
TORSDOF 0
ENDMDL
