MODEL 1
REMARK minimizedAffinity -3.13204718
REMARK minimizedRMSD -1
REMARK  0 active torsions:
REMARK  status: ('A' for Active; 'I' for Inactive)
ROOT
ATOM      1  C1  BNZ d   1      -4.957   5.007   2.066  0.00  0.00     0.000 A 
ATOM      2  C2  BNZ d   1      -5.991   4.611   2.871  0.00  0.00     0.000 A 
ATOM      3  C3  BNZ d   1      -5.806   4.438   4.214  0.00  0.00     0.000 A 
ATOM      4  C4  BNZ d   1      -4.579   4.623   4.743  0.00  0.00     0.000 A 
ATOM      5  C5  BNZ d   1      -3.524   5.014   3.943  0.00  0.00     0.000 A 
ATOM      6  C6  BNZ d   1      -3.723   5.224   2.598  0.00  0.00     0.000 A 
ENDROOT
TORSDOF 0
ENDMDL
