MODEL 1
REMARK minimizedAffinity -2.98256922
REMARK minimizedRMSD -1
REMARK  0 active torsions:
REMARK  status: ('A' for Active; 'I' for Inactive)
ROOT
ATOM      1  C1  BNZ d   1      -5.314   6.000   4.050  0.00  0.00     0.000 A 
ATOM      2  C2  BNZ d   1      -4.723   4.953   3.395  0.00  0.00     0.000 A 
ATOM      3  C3  BNZ d   1      -4.517   3.758   4.027  0.00  0.00     0.000 A 
ATOM      4  C4  BNZ d   1      -4.865   3.625   5.323  0.00  0.00     0.000 A 
ATOM      5  C5  BNZ d   1      -5.454   4.674   6.000  0.00  0.00     0.000 A 
ATOM      6  C6  BNZ d   1      -5.695   5.863   5.349  0.00  0.00     0.000 A 
ENDROOT
TORSDOF 0
ENDMDL
