MODEL 1
REMARK minimizedAffinity -2.67220116
REMARK minimizedRMSD -1
REMARK  0 active torsions:
REMARK  status: ('A' for Active; 'I' for Inactive)
ROOT
ATOM      1  C1  BNZ d   1      -5.301   6.000   2.568  0.00  0.00     0.000 A 
ATOM      2  C2  BNZ d   1      -4.400   5.019   2.251  0.00  0.00     0.000 A 
ATOM      3  C3  BNZ d   1      -4.197   3.957   3.088  0.00  0.00     0.000 A 
ATOM      4  C4  BNZ d   1      -4.865   3.899   4.259  0.00  0.00     0.000 A 
ATOM      5  C5  BNZ d   1      -5.769   4.885   4.597  0.00  0.00     0.000 A 
ATOM      6  C6  BNZ d   1      -6.000   5.932   3.734  0.00  0.00     0.000 A 
ENDROOT
TORSDOF 0
ENDMDL
