MODEL 1
REMARK minimizedAffinity -3.25521922
REMARK minimizedRMSD -1
REMARK  0 active torsions:
REMARK  status: ('A' for Active; 'I' for Inactive)
ROOT
ATOM      1  C1  BNZ d   1      -4.887   5.753   3.000  0.00  0.00     0.000 A 
ATOM      2  C2  BNZ d   1      -4.493   4.564   2.446  0.00  0.00     0.000 A 
ATOM      3  C3  BNZ d   1      -4.869   3.374   3.003  0.00  0.00     0.000 A 
ATOM      4  C4  BNZ d   1      -5.603   3.374   4.134  0.00  0.00     0.000 A 
ATOM      5  C5  BNZ d   1      -6.000   4.564   4.710  0.00  0.00     0.000 A 
ATOM      6  C6  BNZ d   1      -5.652   5.760   4.125  0.00  0.00     0.000 A 
ENDROOT
TORSDOF 0
ENDMDL
