MODEL 1
REMARK minimizedAffinity -2.87244248
REMARK minimizedRMSD -1
REMARK  0 active torsions:
REMARK  status: ('A' for Active; 'I' for Inactive)
ROOT
ATOM      1  C1  BNZ d   1      -5.102   5.263   3.948  0.00  0.00     0.000 A 
ATOM      2  C2  BNZ d   1      -5.341   4.909   5.249  0.00  0.00     0.000 A 
ATOM      3  C3  BNZ d   1      -5.639   3.617   5.580  0.00  0.00     0.000 A 
ATOM      4  C4  BNZ d   1      -5.736   2.689   4.606  0.00  0.00     0.000 A 
ATOM      5  C5  BNZ d   1      -5.507   3.032   3.288  0.00  0.00     0.000 A 
ATOM      6  C6  BNZ d   1      -5.169   4.326   2.964  0.00  0.00     0.000 A 
ENDROOT
TORSDOF 0
ENDMDL
