MODEL 1
REMARK minimizedAffinity -3.15846825
REMARK minimizedRMSD -1
REMARK  0 active torsions:
REMARK  status: ('A' for Active; 'I' for Inactive)
ROOT
ATOM      1  C1  BNZ d   1      -4.745   5.036   2.845  0.00  0.00     0.000 A 
ATOM      2  C2  BNZ d   1      -5.411   3.946   3.338  0.00  0.00     0.000 A 
ATOM      3  C3  BNZ d   1      -5.368   3.643   4.671  0.00  0.00     0.000 A 
ATOM      4  C4  BNZ d   1      -4.627   4.406   5.500  0.00  0.00     0.000 A 
ATOM      5  C5  BNZ d   1      -3.942   5.503   5.017  0.00  0.00     0.000 A 
ATOM      6  C6  BNZ d   1      -4.020   5.827   3.682  0.00  0.00     0.000 A 
ENDROOT
TORSDOF 0
ENDMDL
