MODEL 1
REMARK minimizedAffinity -2.50050712
REMARK minimizedRMSD -1
REMARK  0 active torsions:
REMARK  status: ('A' for Active; 'I' for Inactive)
ROOT
ATOM      1  C1  BNZ d   1      -4.496   2.674   4.347  0.00  0.00     0.000 A 
ATOM      2  C2  BNZ d   1      -4.512   3.062   3.033  0.00  0.00     0.000 A 
ATOM      3  C3  BNZ d   1      -5.248   4.141   2.631  0.00  0.00     0.000 A 
ATOM      4  C4  BNZ d   1      -5.998   4.806   3.533  0.00  0.00     0.000 A 
ATOM      5  C5  BNZ d   1      -6.000   4.422   4.859  0.00  0.00     0.000 A 
ATOM      6  C6  BNZ d   1      -5.227   3.359   5.268  0.00  0.00     0.000 A 
ENDROOT
TORSDOF 0
ENDMDL
