MODEL 1
REMARK minimizedAffinity -3.19479179
REMARK minimizedRMSD -1
REMARK  0 active torsions:
REMARK  status: ('A' for Active; 'I' for Inactive)
ROOT
ATOM      1  C1  BNZ d   1      -5.033   3.375   3.994  0.00  0.00     0.000 A 
ATOM      2  C2  BNZ d   1      -4.125   4.391   4.125  0.00  0.00     0.000 A 
ATOM      3  C3  BNZ d   1      -4.163   5.476   3.293  0.00  0.00     0.000 A 
ATOM      4  C4  BNZ d   1      -5.083   5.523   2.308  0.00  0.00     0.000 A 
ATOM      5  C5  BNZ d   1      -6.000   4.502   2.158  0.00  0.00     0.000 A 
ATOM      6  C6  BNZ d   1      -5.983   3.431   3.021  0.00  0.00     0.000 A 
ENDROOT
TORSDOF 0
ENDMDL
