MODEL 1
REMARK minimizedAffinity -2.7626791
REMARK minimizedRMSD -1
REMARK  0 active torsions:
REMARK  status: ('A' for Active; 'I' for Inactive)
ROOT
ATOM      1  C1  BNZ d   1      -4.127   4.894   2.566  0.00  0.00     0.000 A 
ATOM      2  C2  BNZ d   1      -4.260   3.795   3.371  0.00  0.00     0.000 A 
ATOM      3  C3  BNZ d   1      -5.211   3.756   4.352  0.00  0.00     0.000 A 
ATOM      4  C4  BNZ d   1      -6.000   4.832   4.553  0.00  0.00     0.000 A 
ATOM      5  C5  BNZ d   1      -5.872   5.952   3.756  0.00  0.00     0.000 A 
ATOM      6  C6  BNZ d   1      -4.939   5.972   2.744  0.00  0.00     0.000 A 
ENDROOT
TORSDOF 0
ENDMDL
