MODEL 1
REMARK minimizedAffinity -2.57699847
REMARK minimizedRMSD -1
REMARK  0 active torsions:
REMARK  status: ('A' for Active; 'I' for Inactive)
ROOT
ATOM      1  C1  BNZ d   1      -5.979   3.931   2.960  0.00  0.00     0.000 A 
ATOM      2  C2  BNZ d   1      -5.855   4.758   1.876  0.00  0.00     0.000 A 
ATOM      3  C3  BNZ d   1      -4.914   5.750   1.857  0.00  0.00     0.000 A 
ATOM      4  C4  BNZ d   1      -4.128   5.939   2.937  0.00  0.00     0.000 A 
ATOM      5  C5  BNZ d   1      -4.248   5.119   4.041  0.00  0.00     0.000 A 
ATOM      6  C6  BNZ d   1      -5.169   4.097   4.041  0.00  0.00     0.000 A 
ENDROOT
TORSDOF 0
ENDMDL
