MODEL 1
REMARK minimizedAffinity -3.24027967
REMARK minimizedRMSD -1
REMARK  0 active torsions:
REMARK  status: ('A' for Active; 'I' for Inactive)
ROOT
ATOM      1  C1  BNZ d   1      -3.869   5.243   3.827  0.00  0.00     0.000 A 
ATOM      2  C2  BNZ d   1      -4.098   4.117   4.571  0.00  0.00     0.000 A 
ATOM      3  C3  BNZ d   1      -5.051   3.212   4.196  0.00  0.00     0.000 A 
ATOM      4  C4  BNZ d   1      -5.800   3.454   3.101  0.00  0.00     0.000 A 
ATOM      5  C5  BNZ d   1      -5.588   4.589   2.345  0.00  0.00     0.000 A 
ATOM      6  C6  BNZ d   1      -4.601   5.479   2.704  0.00  0.00     0.000 A 
ENDROOT
TORSDOF 0
ENDMDL
