MODEL 1
REMARK minimizedAffinity -3.56619692
REMARK minimizedRMSD -1
REMARK  0 active torsions:
REMARK  status: ('A' for Active; 'I' for Inactive)
ROOT
ATOM      1  C1  BNZ d   1      -4.361   3.564   4.273  0.00  0.00     0.000 A 
ATOM      2  C2  BNZ d   1      -3.843   4.722   4.790  0.00  0.00     0.000 A 
ATOM      3  C3  BNZ d   1      -3.875   5.885   4.072  0.00  0.00     0.000 A 
ATOM      4  C4  BNZ d   1      -4.386   5.880   2.825  0.00  0.00     0.000 A 
ATOM      5  C5  BNZ d   1      -4.903   4.719   2.285  0.00  0.00     0.000 A 
ATOM      6  C6  BNZ d   1      -4.905   3.559   3.025  0.00  0.00     0.000 A 
ENDROOT
TORSDOF 0
ENDMDL
