MODEL 1
REMARK minimizedAffinity -3.46089005
REMARK minimizedRMSD -1
REMARK  1 active torsions:
REMARK  status: ('A' for Active; 'I' for Inactive)
REMARK    1  A    between atoms: C1_2  and  C2_3 
ROOT
ATOM      1  C2  UNL d   1      -0.124  -0.144   0.039  0.00  0.00    -0.073 A 
ATOM      2  C3  UNL d   1       0.710   0.797   0.653  0.00  0.00    -0.002 A 
ATOM      3  C4  UNL d   1       1.777   1.358  -0.050  0.00  0.00     0.004 A 
ATOM      4  C5  UNL d   1       2.017   0.990  -1.374  0.00  0.00    -0.004 A 
ATOM      5  C6  UNL d   1       1.187   0.059  -2.008  0.00  0.00    -0.075 A 
ATOM      6  C7  UNL d   1       1.433  -0.349  -3.431  0.00  0.00     0.076 C 
ATOM      7  C8  UNL d   1       0.120  -0.502  -1.295  0.00  0.00     0.001 A 
ENDROOT
BRANCH   1   8
ATOM      8  C1  UNL d   1      -1.281  -0.748   0.792  0.00  0.00     0.053 C 
ATOM      9  C   UNL d   1      -2.092   0.305   1.531  0.00  0.00     0.018 C 
ENDBRANCH   1   8
TORSDOF 1
ENDMDL
