MODEL 1
REMARK minimizedAffinity -3.7134037
REMARK minimizedRMSD -1
REMARK  1 active torsions:
REMARK  status: ('A' for Active; 'I' for Inactive)
REMARK    1  A    between atoms: C1_2  and  C2_3 
ROOT
ATOM      1  C2  UNL d   1       0.692   0.453  -0.287  0.00  0.00    -0.073 A 
ATOM      2  C3  UNL d   1       0.666  -0.880   0.139  0.00  0.00    -0.002 A 
ATOM      3  C4  UNL d   1      -0.260  -1.297   1.096  0.00  0.00     0.004 A 
ATOM      4  C5  UNL d   1      -1.174  -0.389   1.631  0.00  0.00    -0.004 A 
ATOM      5  C6  UNL d   1      -1.172   0.945   1.209  0.00  0.00    -0.075 A 
ATOM      6  C7  UNL d   1      -2.147   1.935   1.776  0.00  0.00     0.076 C 
ATOM      7  C8  UNL d   1      -0.237   1.356   0.250  0.00  0.00     0.001 A 
ENDROOT
BRANCH   1   8
ATOM      8  C1  UNL d   1       1.686   0.906  -1.324  0.00  0.00     0.053 C 
ATOM      9  C   UNL d   1       1.242   0.548  -2.734  0.00  0.00     0.018 C 
ENDBRANCH   1   8
TORSDOF 1
ENDMDL
