MODEL 1
REMARK minimizedAffinity -3.11732936
REMARK minimizedRMSD -1
REMARK  1 active torsions:
REMARK  status: ('A' for Active; 'I' for Inactive)
REMARK    1  A    between atoms: C1_2  and  C2_3 
ROOT
ATOM      1  C2  UNL d   1       0.396  -0.322  -0.077  0.00  0.00    -0.073 A 
ATOM      2  C3  UNL d   1      -0.202  -1.568   0.143  0.00  0.00    -0.002 A 
ATOM      3  C4  UNL d   1      -0.097  -2.579  -0.813  0.00  0.00     0.004 A 
ATOM      4  C5  UNL d   1       0.612  -2.357  -1.994  0.00  0.00    -0.004 A 
ATOM      5  C6  UNL d   1       1.226  -1.123  -2.227  0.00  0.00    -0.075 A 
ATOM      6  C7  UNL d   1       1.990  -0.868  -3.493  0.00  0.00     0.076 C 
ATOM      7  C8  UNL d   1       1.114  -0.112  -1.263  0.00  0.00     0.001 A 
ENDROOT
BRANCH   1   8
ATOM      8  C1  UNL d   1       0.290   0.770   0.956  0.00  0.00     0.053 C 
ATOM      9  C   UNL d   1       1.433   1.768   0.849  0.00  0.00     0.018 C 
ENDBRANCH   1   8
TORSDOF 1
ENDMDL
