MODEL 1
REMARK minimizedAffinity -5.30084801
REMARK minimizedRMSD -1
REMARK  1 active torsions:
REMARK  status: ('A' for Active; 'I' for Inactive)
REMARK    1  A    between atoms: C1_2  and  C2_3 
ROOT
ATOM      1  C2  UNL d   1       0.285   0.278  -0.054  0.00  0.00    -0.073 A 
ATOM      2  C3  UNL d   1       0.990   1.168  -0.872  0.00  0.00    -0.002 A 
ATOM      3  C4  UNL d   1       1.692   0.699  -1.984  0.00  0.00     0.004 A 
ATOM      4  C5  UNL d   1       1.691  -0.662  -2.292  0.00  0.00    -0.004 A 
ATOM      5  C6  UNL d   1       0.982  -1.565  -1.493  0.00  0.00    -0.075 A 
ATOM      6  C7  UNL d   1       0.973  -3.032  -1.810  0.00  0.00     0.076 C 
ATOM      7  C8  UNL d   1       0.282  -1.087  -0.377  0.00  0.00     0.001 A 
ENDROOT
BRANCH   1   8
ATOM      8  C1  UNL d   1      -0.480   0.780   1.143  0.00  0.00     0.053 C 
ATOM      9  C   UNL d   1      -1.760  -0.007   1.373  0.00  0.00     0.018 C 
ENDBRANCH   1   8
TORSDOF 1
ENDMDL
