MODEL 1
REMARK minimizedAffinity -4.53071785
REMARK minimizedRMSD -1
REMARK  1 active torsions:
REMARK  status: ('A' for Active; 'I' for Inactive)
REMARK    1  A    between atoms: C1_2  and  C2_3 
ROOT
ATOM      1  C2  UNL d   1      -1.033   0.623   0.869  0.00  0.00    -0.073 A 
ATOM      2  C3  UNL d   1      -1.178  -0.728   0.535  0.00  0.00    -0.002 A 
ATOM      3  C4  UNL d   1      -0.323  -1.320  -0.395  0.00  0.00     0.004 A 
ATOM      4  C5  UNL d   1       0.690  -0.570  -0.994  0.00  0.00    -0.004 A 
ATOM      5  C6  UNL d   1       0.858   0.778  -0.664  0.00  0.00    -0.075 A 
ATOM      6  C7  UNL d   1       1.941   1.599  -1.301  0.00  0.00     0.076 C 
ATOM      7  C8  UNL d   1      -0.006   1.366   0.269  0.00  0.00     0.001 A 
ENDROOT
BRANCH   1   8
ATOM      8  C1  UNL d   1      -1.950   1.265   1.878  0.00  0.00     0.053 C 
ATOM      9  C   UNL d   1      -3.375   0.748   1.763  0.00  0.00     0.018 C 
ENDBRANCH   1   8
TORSDOF 1
ENDMDL
