MODEL 1
REMARK minimizedAffinity -3.07184148
REMARK minimizedRMSD -1
REMARK  1 active torsions:
REMARK  status: ('A' for Active; 'I' for Inactive)
REMARK    1  A    between atoms: C1_2  and  C2_3 
ROOT
ATOM      1  C2  UNL d   1       0.260  -0.308   0.183  0.00  0.00    -0.073 A 
ATOM      2  C3  UNL d   1       0.118  -1.683   0.401  0.00  0.00    -0.002 A 
ATOM      3  C4  UNL d   1       0.846  -2.596  -0.363  0.00  0.00     0.004 A 
ATOM      4  C5  UNL d   1       1.726  -2.145  -1.346  0.00  0.00    -0.004 A 
ATOM      5  C6  UNL d   1       1.890  -0.774  -1.571  0.00  0.00    -0.075 A 
ATOM      6  C7  UNL d   1       2.831  -0.272  -2.627  0.00  0.00     0.076 C 
ATOM      7  C8  UNL d   1       1.154   0.137  -0.802  0.00  0.00     0.001 A 
ENDROOT
BRANCH   1   8
ATOM      8  C1  UNL d   1      -0.520   0.683   1.010  0.00  0.00     0.053 C 
ATOM      9  C   UNL d   1      -1.935   0.203   1.289  0.00  0.00     0.018 C 
ENDBRANCH   1   8
TORSDOF 1
ENDMDL
