MODEL 1
REMARK minimizedAffinity -0.842455924
REMARK minimizedRMSD -1
REMARK  1 active torsions:
REMARK  status: ('A' for Active; 'I' for Inactive)
REMARK    1  A    between atoms: C1_2  and  C2_3 
ROOT
ATOM      1  C2  UNL d   1      -1.203   0.551   1.447  0.00  0.00    -0.073 A 
ATOM      2  C3  UNL d   1      -0.404   1.618   1.023  0.00  0.00    -0.002 A 
ATOM      3  C4  UNL d   1       0.696   1.390   0.195  0.00  0.00     0.004 A 
ATOM      4  C5  UNL d   1       1.003   0.095  -0.223  0.00  0.00    -0.004 A 
ATOM      5  C6  UNL d   1       0.209  -0.983   0.180  0.00  0.00    -0.075 A 
ATOM      6  C7  UNL d   1       0.528  -2.382  -0.259  0.00  0.00     0.076 C 
ATOM      7  C8  UNL d   1      -0.892  -0.746   1.014  0.00  0.00     0.001 A 
ENDROOT
BRANCH   1   8
ATOM      8  C1  UNL d   1      -2.396   0.793   2.335  0.00  0.00     0.053 C 
ATOM      9  C   UNL d   1      -3.538   1.463   1.587  0.00  0.00     0.018 C 
ENDBRANCH   1   8
TORSDOF 1
ENDMDL
