MODEL 1
REMARK minimizedAffinity -0.554742157
REMARK minimizedRMSD -1
REMARK  0 active torsions:
REMARK  status: ('A' for Active; 'I' for Inactive)
ROOT
ATOM      1  C   UNL d   1       2.377  -4.976   3.726  0.00  0.00     0.078 C 
ATOM      2  C1  UNL d   1       1.962  -3.598   3.305  0.00  0.00    -0.077 A 
ATOM      3  C2  UNL d   1       1.955  -2.536   4.218  0.00  0.00    -0.001 A 
ATOM      4  C3  UNL d   1       1.557  -1.260   3.814  0.00  0.00     0.003 A 
ATOM      5  C4  UNL d   1       1.162  -1.035   2.497  0.00  0.00    -0.005 A 
ATOM      6  C5  UNL d   1       1.164  -2.086   1.582  0.00  0.00     0.003 A 
ATOM      7  C6  UNL d   1       1.561  -3.362   1.984  0.00  0.00    -0.001 A 
ENDROOT
TORSDOF 0
ENDMDL
