MODEL 1
REMARK minimizedAffinity 3.59187698
REMARK minimizedRMSD -1
REMARK  0 active torsions:
REMARK  status: ('A' for Active; 'I' for Inactive)
ROOT
ATOM      1  C   UNL d   1       1.858  -2.191   1.583  0.00  0.00     0.078 C 
ATOM      2  C1  UNL d   1       1.588  -2.829   0.253  0.00  0.00    -0.077 A 
ATOM      3  C2  UNL d   1       1.188  -4.168   0.163  0.00  0.00    -0.001 A 
ATOM      4  C3  UNL d   1       0.950  -4.751  -1.082  0.00  0.00     0.003 A 
ATOM      5  C4  UNL d   1       1.111  -4.004  -2.247  0.00  0.00    -0.005 A 
ATOM      6  C5  UNL d   1       1.511  -2.672  -2.168  0.00  0.00     0.003 A 
ATOM      7  C6  UNL d   1       1.749  -2.086  -0.923  0.00  0.00    -0.001 A 
ENDROOT
TORSDOF 0
ENDMDL
