MODEL 1
REMARK minimizedAffinity 12.0554333
REMARK minimizedRMSD -1
REMARK  0 active torsions:
REMARK  status: ('A' for Active; 'I' for Inactive)
ROOT
ATOM      1  C   UNL d   1       0.870   5.119  -0.534  0.00  0.00     0.078 C 
ATOM      2  C1  UNL d   1       0.022   3.911  -0.268  0.00  0.00    -0.077 A 
ATOM      3  C2  UNL d   1      -0.719   3.309  -1.292  0.00  0.00    -0.001 A 
ATOM      4  C3  UNL d   1      -1.511   2.191  -1.028  0.00  0.00     0.003 A 
ATOM      5  C4  UNL d   1      -1.571   1.665   0.261  0.00  0.00    -0.005 A 
ATOM      6  C5  UNL d   1      -0.838   2.258   1.288  0.00  0.00     0.003 A 
ATOM      7  C6  UNL d   1      -0.046   3.376   1.025  0.00  0.00    -0.001 A 
ENDROOT
TORSDOF 0
ENDMDL
