MODEL 1
REMARK minimizedAffinity -5.02741623
REMARK minimizedRMSD -1
REMARK  0 active torsions:
REMARK  status: ('A' for Active; 'I' for Inactive)
ROOT
ATOM      1  C   UNL d   1       1.146  -1.761   2.105  0.00  0.00     0.078 C 
ATOM      2  C1  UNL d   1       1.859  -2.245   3.332  0.00  0.00    -0.077 A 
ATOM      3  C2  UNL d   1       1.188  -2.368   4.555  0.00  0.00    -0.001 A 
ATOM      4  C3  UNL d   1       1.867  -2.811   5.691  0.00  0.00     0.003 A 
ATOM      5  C4  UNL d   1       3.220  -3.133   5.616  0.00  0.00    -0.005 A 
ATOM      6  C5  UNL d   1       3.897  -3.012   4.404  0.00  0.00     0.003 A 
ATOM      7  C6  UNL d   1       3.220  -2.569   3.267  0.00  0.00    -0.001 A 
ENDROOT
TORSDOF 0
ENDMDL
