MODEL 1
REMARK minimizedAffinity 4.30354023
REMARK minimizedRMSD -1
REMARK  0 active torsions:
REMARK  status: ('A' for Active; 'I' for Inactive)
ROOT
ATOM      1  C   UNL d   1       2.428   0.553   1.694  0.00  0.00     0.078 C 
ATOM      2  C1  UNL d   1       1.856  -0.702   2.284  0.00  0.00    -0.077 A 
ATOM      3  C2  UNL d   1       1.721  -1.864   1.514  0.00  0.00    -0.001 A 
ATOM      4  C3  UNL d   1       1.178  -3.021   2.073  0.00  0.00     0.003 A 
ATOM      5  C4  UNL d   1       0.764  -3.028   3.404  0.00  0.00    -0.005 A 
ATOM      6  C5  UNL d   1       0.892  -1.876   4.177  0.00  0.00     0.003 A 
ATOM      7  C6  UNL d   1       1.435  -0.717   3.619  0.00  0.00    -0.001 A 
ENDROOT
TORSDOF 0
ENDMDL
