MODEL 1
REMARK minimizedAffinity 6.27953148
REMARK minimizedRMSD -1
REMARK  0 active torsions:
REMARK  status: ('A' for Active; 'I' for Inactive)
ROOT
ATOM      1  C   UNL d   1      -3.244  -5.949  -2.688  0.00  0.00     0.078 C 
ATOM      2  C1  UNL d   1      -4.089  -5.337  -3.766  0.00  0.00    -0.077 A 
ATOM      3  C2  UNL d   1      -4.264  -5.979  -4.998  0.00  0.00    -0.001 A 
ATOM      4  C3  UNL d   1      -5.045  -5.393  -5.995  0.00  0.00     0.003 A 
ATOM      5  C4  UNL d   1      -5.658  -4.161  -5.771  0.00  0.00    -0.005 A 
ATOM      6  C5  UNL d   1      -5.488  -3.514  -4.549  0.00  0.00     0.003 A 
ATOM      7  C6  UNL d   1      -4.707  -4.098  -3.550  0.00  0.00    -0.001 A 
ENDROOT
TORSDOF 0
ENDMDL
