MODEL 1
REMARK minimizedAffinity 11.0030422
REMARK minimizedRMSD -1
REMARK  0 active torsions:
REMARK  status: ('A' for Active; 'I' for Inactive)
ROOT
ATOM      1  C   UNL d   1       6.000  -3.041   2.968  0.00  0.00     0.078 C 
ATOM      2  C1  UNL d   1       4.674  -3.186   3.654  0.00  0.00    -0.077 A 
ATOM      3  C2  UNL d   1       3.477  -3.113   2.932  0.00  0.00    -0.001 A 
ATOM      4  C3  UNL d   1       2.249  -3.240   3.584  0.00  0.00     0.003 A 
ATOM      5  C4  UNL d   1       2.208  -3.440   4.963  0.00  0.00    -0.005 A 
ATOM      6  C5  UNL d   1       3.394  -3.512   5.690  0.00  0.00     0.003 A 
ATOM      7  C6  UNL d   1       4.622  -3.385   5.039  0.00  0.00    -0.001 A 
ENDROOT
TORSDOF 0
ENDMDL
