MODEL 1
REMARK minimizedAffinity 5.67092991
REMARK minimizedRMSD -1
REMARK  0 active torsions:
REMARK  status: ('A' for Active; 'I' for Inactive)
ROOT
ATOM      1  C   UNL d   1      -2.250   2.798   0.430  0.00  0.00     0.078 C 
ATOM      2  C1  UNL d   1      -3.551   3.383   0.892  0.00  0.00    -0.077 A 
ATOM      3  C2  UNL d   1      -3.807   3.588   2.253  0.00  0.00    -0.001 A 
ATOM      4  C3  UNL d   1      -5.026   4.125   2.669  0.00  0.00     0.003 A 
ATOM      5  C4  UNL d   1      -6.000   4.460   1.731  0.00  0.00    -0.005 A 
ATOM      6  C5  UNL d   1      -5.755   4.258   0.374  0.00  0.00     0.003 A 
ATOM      7  C6  UNL d   1      -4.537   3.721  -0.044  0.00  0.00    -0.001 A 
ENDROOT
TORSDOF 0
ENDMDL
