MODEL 1
REMARK minimizedAffinity 3.35729718
REMARK minimizedRMSD -1
REMARK  0 active torsions:
REMARK  status: ('A' for Active; 'I' for Inactive)
ROOT
ATOM      1  C   UNL d   1      -4.245  -2.441  -3.670  0.00  0.00     0.078 C 
ATOM      2  C1  UNL d   1      -4.549  -3.676  -4.466  0.00  0.00    -0.077 A 
ATOM      3  C2  UNL d   1      -3.682  -4.775  -4.452  0.00  0.00    -0.001 A 
ATOM      4  C3  UNL d   1      -3.973  -5.913  -5.205  0.00  0.00     0.003 A 
ATOM      5  C4  UNL d   1      -5.132  -5.963  -5.978  0.00  0.00    -0.005 A 
ATOM      6  C5  UNL d   1      -6.000  -4.873  -6.000  0.00  0.00     0.003 A 
ATOM      7  C6  UNL d   1      -5.710  -3.734  -5.248  0.00  0.00    -0.001 A 
ENDROOT
TORSDOF 0
ENDMDL
