MODEL 1
REMARK minimizedAffinity -4.45466042
REMARK minimizedRMSD -1
REMARK  0 active torsions:
REMARK  status: ('A' for Active; 'I' for Inactive)
ROOT
ATOM      1  C   UNL d   1       1.480   2.506   0.565  0.00  0.00     0.077 C 
ATOM      2  C1  UNL d   1       1.470   1.014   0.413  0.00  0.00    -0.074 A 
ATOM      3  C2  UNL d   1       2.513   0.233   0.921  0.00  0.00    -0.005 A 
ATOM      4  C3  UNL d   1       2.485  -1.155   0.780  0.00  0.00     0.006 A 
ATOM      5  C4  UNL d   1       1.416  -1.774   0.131  0.00  0.00    -0.005 A 
ATOM      6  C5  UNL d   1       0.364  -1.009  -0.382  0.00  0.00    -0.074 A 
ATOM      7  C6  UNL d   1      -0.798  -1.660  -1.073  0.00  0.00     0.077 C 
ATOM      8  C7  UNL d   1       0.396   0.384  -0.230  0.00  0.00    -0.001 A 
ENDROOT
TORSDOF 0
ENDMDL
