MODEL 1
REMARK minimizedAffinity -4.12193727
REMARK minimizedRMSD -1
REMARK  0 active torsions:
REMARK  status: ('A' for Active; 'I' for Inactive)
ROOT
ATOM      1  C   UNL d   1       2.979  -1.077   1.179  0.00  0.00     0.077 C 
ATOM      2  C1  UNL d   1       1.758  -0.558   0.480  0.00  0.00    -0.074 A 
ATOM      3  C2  UNL d   1       1.314   0.752   0.688  0.00  0.00    -0.005 A 
ATOM      4  C3  UNL d   1       0.182   1.224   0.024  0.00  0.00     0.006 A 
ATOM      5  C4  UNL d   1      -0.517   0.393  -0.853  0.00  0.00    -0.005 A 
ATOM      6  C5  UNL d   1      -0.087  -0.920  -1.073  0.00  0.00    -0.074 A 
ATOM      7  C6  UNL d   1      -0.821  -1.823  -2.019  0.00  0.00     0.077 C 
ATOM      8  C7  UNL d   1       1.055  -1.385  -0.407  0.00  0.00    -0.001 A 
ENDROOT
TORSDOF 0
ENDMDL
