MODEL 1
REMARK minimizedAffinity -0.887038052
REMARK minimizedRMSD -1
REMARK  0 active torsions:
REMARK  status: ('A' for Active; 'I' for Inactive)
ROOT
ATOM      1  C   UNL d   1      -0.551   0.373  -0.039  0.00  0.00     0.077 C 
ATOM      2  C1  UNL d   1       0.764  -0.321  -0.230  0.00  0.00    -0.074 A 
ATOM      3  C2  UNL d   1       0.845  -1.717  -0.239  0.00  0.00    -0.005 A 
ATOM      4  C3  UNL d   1       2.074  -2.349  -0.427  0.00  0.00     0.006 A 
ATOM      5  C4  UNL d   1       3.233  -1.593  -0.609  0.00  0.00    -0.005 A 
ATOM      6  C5  UNL d   1       3.171  -0.196  -0.603  0.00  0.00    -0.074 A 
ATOM      7  C6  UNL d   1       4.406   0.632  -0.807  0.00  0.00     0.077 C 
ATOM      8  C7  UNL d   1       1.932   0.432  -0.420  0.00  0.00    -0.001 A 
ENDROOT
TORSDOF 0
ENDMDL
