MODEL 1
REMARK minimizedAffinity -3.91317654
REMARK minimizedRMSD -1
REMARK  0 active torsions:
REMARK  status: ('A' for Active; 'I' for Inactive)
ROOT
ATOM      1  C   UNL d   1       1.189   2.571  -0.023  0.00  0.00     0.077 C 
ATOM      2  C1  UNL d   1       0.957   1.089  -0.032  0.00  0.00    -0.074 A 
ATOM      3  C2  UNL d   1      -0.291   0.559  -0.374  0.00  0.00    -0.005 A 
ATOM      4  C3  UNL d   1      -0.489  -0.822  -0.388  0.00  0.00     0.006 A 
ATOM      5  C4  UNL d   1       0.557  -1.685  -0.060  0.00  0.00    -0.005 A 
ATOM      6  C5  UNL d   1       1.812  -1.173   0.284  0.00  0.00    -0.074 A 
ATOM      7  C6  UNL d   1       2.950  -2.087   0.629  0.00  0.00     0.077 C 
ATOM      8  C7  UNL d   1       2.006   0.215   0.288  0.00  0.00    -0.001 A 
ENDROOT
TORSDOF 0
ENDMDL
