MODEL 1
REMARK minimizedAffinity -2.62293887
REMARK minimizedRMSD -1
REMARK  0 active torsions:
REMARK  status: ('A' for Active; 'I' for Inactive)
ROOT
ATOM      1  C   UNL d   1       1.118  -1.933   0.016  0.00  0.00     0.077 C 
ATOM      2  C1  UNL d   1       0.246  -0.719   0.150  0.00  0.00    -0.074 A 
ATOM      3  C2  UNL d   1       0.678   0.530  -0.307  0.00  0.00    -0.005 A 
ATOM      4  C3  UNL d   1      -0.147   1.648  -0.184  0.00  0.00     0.006 A 
ATOM      5  C4  UNL d   1      -1.410   1.528   0.396  0.00  0.00    -0.005 A 
ATOM      6  C5  UNL d   1      -1.860   0.287   0.858  0.00  0.00    -0.074 A 
ATOM      7  C6  UNL d   1      -3.219   0.139   1.475  0.00  0.00     0.077 C 
ATOM      8  C7  UNL d   1      -1.027  -0.833   0.725  0.00  0.00    -0.001 A 
ENDROOT
TORSDOF 0
ENDMDL
