MODEL 1
REMARK minimizedAffinity 2.72615528
REMARK minimizedRMSD -1
REMARK  0 active torsions:
REMARK  status: ('A' for Active; 'I' for Inactive)
ROOT
ATOM      1  C   UNL d   1      -1.274  -0.438  -1.323  0.00  0.00     0.077 C 
ATOM      2  C1  UNL d   1      -0.015  -1.196  -1.025  0.00  0.00    -0.074 A 
ATOM      3  C2  UNL d   1       0.235  -1.699   0.256  0.00  0.00    -0.005 A 
ATOM      4  C3  UNL d   1       1.406  -2.410   0.516  0.00  0.00     0.006 A 
ATOM      5  C4  UNL d   1       2.337  -2.626  -0.500  0.00  0.00    -0.005 A 
ATOM      6  C5  UNL d   1       2.104  -2.132  -1.787  0.00  0.00    -0.074 A 
ATOM      7  C6  UNL d   1       3.090  -2.363  -2.894  0.00  0.00     0.077 C 
ATOM      8  C7  UNL d   1       0.922  -1.424  -2.043  0.00  0.00    -0.001 A 
ENDROOT
TORSDOF 0
ENDMDL
