MODEL 1
REMARK minimizedAffinity 3.53634644
REMARK minimizedRMSD -1
REMARK  0 active torsions:
REMARK  status: ('A' for Active; 'I' for Inactive)
ROOT
ATOM      1  C   UNL d   1      -0.374  -4.979  -0.676  0.00  0.00     0.077 C 
ATOM      2  C1  UNL d   1       0.317  -3.653  -0.800  0.00  0.00    -0.074 A 
ATOM      3  C2  UNL d   1      -0.090  -2.717  -1.756  0.00  0.00    -0.005 A 
ATOM      4  C3  UNL d   1       0.556  -1.485  -1.853  0.00  0.00     0.006 A 
ATOM      5  C4  UNL d   1       1.614  -1.177  -0.997  0.00  0.00    -0.005 A 
ATOM      6  C5  UNL d   1       2.035  -2.100  -0.035  0.00  0.00    -0.074 A 
ATOM      7  C6  UNL d   1       3.165  -1.781   0.899  0.00  0.00     0.077 C 
ATOM      8  C7  UNL d   1       1.376  -3.333   0.061  0.00  0.00    -0.001 A 
ENDROOT
TORSDOF 0
ENDMDL
