MODEL 1
REMARK minimizedAffinity -1.56556594
REMARK minimizedRMSD -1
REMARK  0 active torsions:
REMARK  status: ('A' for Active; 'I' for Inactive)
ROOT
ATOM      1  C   UNL d   1      -4.379  -6.000  -2.047  0.00  0.00     0.020 A 
ATOM      2  C1  UNL d   1      -5.075  -6.000  -3.255  0.00  0.00     0.020 A 
ATOM      3  C2  UNL d   1      -4.375  -5.993  -4.464  0.00  0.00     0.034 A 
ATOM      4  C3  UNL d   1      -2.976  -5.987  -4.467  0.00  0.00     0.017 A 
ATOM      5  C4  UNL d   1      -2.278  -5.987  -3.254  0.00  0.00     0.017 A 
ATOM      6  C5  UNL d   1      -2.983  -5.994  -2.046  0.00  0.00     0.034 A 
ATOM      7 Cl   UNL d   1      -0.551  -5.980  -3.177  0.00  0.00    -0.070 Cl
ATOM      8 Cl1  UNL d   1      -2.176  -5.979  -5.998  0.00  0.00    -0.070 Cl
ENDROOT
TORSDOF 0
ENDMDL
