MODEL 1
REMARK minimizedAffinity 1.64250696
REMARK minimizedRMSD -1
REMARK  0 active torsions:
REMARK  status: ('A' for Active; 'I' for Inactive)
ROOT
ATOM      1  C   UNL d   1      -0.797  -5.975  -6.000  0.00  0.00     0.020 A 
ATOM      2  C1  UNL d   1      -2.187  -5.974  -5.888  0.00  0.00     0.020 A 
ATOM      3  C2  UNL d   1      -2.785  -5.982  -4.626  0.00  0.00     0.034 A 
ATOM      4  C3  UNL d   1      -1.994  -5.990  -3.472  0.00  0.00     0.017 A 
ATOM      5  C4  UNL d   1      -0.599  -5.990  -3.585  0.00  0.00     0.017 A 
ATOM      6  C5  UNL d   1      -0.005  -5.983  -4.851  0.00  0.00     0.034 A 
ATOM      7 Cl   UNL d   1       0.443  -6.000  -2.206  0.00  0.00    -0.070 Cl
ATOM      8 Cl1  UNL d   1      -2.802  -5.999  -1.944  0.00  0.00    -0.070 Cl
ENDROOT
TORSDOF 0
ENDMDL
