MODEL 1
REMARK minimizedAffinity 3.56151295
REMARK minimizedRMSD -1
REMARK  0 active torsions:
REMARK  status: ('A' for Active; 'I' for Inactive)
ROOT
ATOM      1  C   UNL d   1      -2.907  -5.999  -3.442  0.00  0.00     0.020 A 
ATOM      2  C1  UNL d   1      -2.373  -5.999  -2.154  0.00  0.00     0.020 A 
ATOM      3  C2  UNL d   1      -0.988  -5.999  -1.972  0.00  0.00     0.034 A 
ATOM      4  C3  UNL d   1      -0.133  -5.999  -3.080  0.00  0.00     0.017 A 
ATOM      5  C4  UNL d   1      -0.670  -5.999  -4.373  0.00  0.00     0.017 A 
ATOM      6  C5  UNL d   1      -2.058  -6.000  -4.549  0.00  0.00     0.034 A 
ATOM      7 Cl   UNL d   1       0.321  -6.000  -5.789  0.00  0.00    -0.070 Cl
ATOM      8 Cl1  UNL d   1       1.569  -5.998  -2.782  0.00  0.00    -0.070 Cl
ENDROOT
TORSDOF 0
ENDMDL
