MODEL 1
REMARK minimizedAffinity -2.15421438
REMARK minimizedRMSD -1
REMARK  0 active torsions:
REMARK  status: ('A' for Active; 'I' for Inactive)
ROOT
ATOM      1  C   UNL d   1      -3.637  -6.000  -1.483  0.00  0.00     0.020 A 
ATOM      2  C1  UNL d   1      -4.449  -6.000  -2.617  0.00  0.00     0.020 A 
ATOM      3  C2  UNL d   1      -3.872  -6.000  -3.889  0.00  0.00     0.034 A 
ATOM      4  C3  UNL d   1      -2.480  -6.000  -4.030  0.00  0.00     0.017 A 
ATOM      5  C4  UNL d   1      -1.666  -6.000  -2.891  0.00  0.00     0.017 A 
ATOM      6  C5  UNL d   1      -2.249  -6.000  -1.620  0.00  0.00     0.034 A 
ATOM      7 Cl   UNL d   1       0.060  -6.000  -2.985  0.00  0.00    -0.070 Cl
ATOM      8 Cl1  UNL d   1      -1.835  -6.000  -5.633  0.00  0.00    -0.070 Cl
ENDROOT
TORSDOF 0
ENDMDL
