MODEL 1
REMARK minimizedAffinity 9.02001858
REMARK minimizedRMSD -1
REMARK  0 active torsions:
REMARK  status: ('A' for Active; 'I' for Inactive)
ROOT
ATOM      1  C   UNL d   1      -0.593  -5.987  -5.977  0.00  0.00     0.020 A 
ATOM      2  C1  UNL d   1      -1.938  -5.990  -5.611  0.00  0.00     0.020 A 
ATOM      3  C2  UNL d   1      -2.293  -5.994  -4.260  0.00  0.00     0.034 A 
ATOM      4  C3  UNL d   1      -1.303  -5.994  -3.272  0.00  0.00     0.017 A 
ATOM      5  C4  UNL d   1       0.047  -5.991  -3.640  0.00  0.00     0.017 A 
ATOM      6  C5  UNL d   1       0.398  -5.987  -4.994  0.00  0.00     0.034 A 
ATOM      7 Cl   UNL d   1       1.326  -5.991  -2.478  0.00  0.00    -0.070 Cl
ATOM      8 Cl1  UNL d   1      -1.815  -5.999  -1.621  0.00  0.00    -0.070 Cl
ENDROOT
TORSDOF 0
ENDMDL
