MODEL 1
REMARK minimizedAffinity 1.13091671
REMARK minimizedRMSD -1
REMARK  0 active torsions:
REMARK  status: ('A' for Active; 'I' for Inactive)
ROOT
ATOM      1  C   UNL d   1       0.162   4.380  -4.374  0.00  0.00     0.020 A 
ATOM      2  C1  UNL d   1      -1.153   4.469  -4.829  0.00  0.00     0.020 A 
ATOM      3  C2  UNL d   1      -2.110   3.554  -4.382  0.00  0.00     0.034 A 
ATOM      4  C3  UNL d   1      -1.752   2.547  -3.479  0.00  0.00     0.017 A 
ATOM      5  C4  UNL d   1      -0.432   2.458  -3.023  0.00  0.00     0.017 A 
ATOM      6  C5  UNL d   1       0.522   3.377  -3.473  0.00  0.00     0.034 A 
ATOM      7 Cl   UNL d   1       0.085   1.243  -1.908  0.00  0.00    -0.070 Cl
ATOM      8 Cl1  UNL d   1      -2.986   1.450  -2.969  0.00  0.00    -0.070 Cl
ENDROOT
TORSDOF 0
ENDMDL
