MODEL 1
REMARK minimizedAffinity 1.05088544
REMARK minimizedRMSD -1
REMARK  0 active torsions:
REMARK  status: ('A' for Active; 'I' for Inactive)
ROOT
ATOM      1  C   UNL d   1      -2.174  -5.857  -2.131  0.00  0.00     0.020 A 
ATOM      2  C1  UNL d   1      -2.776  -5.686  -3.377  0.00  0.00     0.020 A 
ATOM      3  C2  UNL d   1      -1.989  -5.610  -4.528  0.00  0.00     0.034 A 
ATOM      4  C3  UNL d   1      -0.596  -5.704  -4.435  0.00  0.00     0.017 A 
ATOM      5  C4  UNL d   1       0.008  -5.875  -3.184  0.00  0.00     0.017 A 
ATOM      6  C5  UNL d   1      -0.785  -5.952  -2.035  0.00  0.00     0.034 A 
ATOM      7 Cl   UNL d   1       1.721  -6.000  -2.991  0.00  0.00    -0.070 Cl
ATOM      8 Cl1  UNL d   1       0.315  -5.601  -5.900  0.00  0.00    -0.070 Cl
ENDROOT
TORSDOF 0
ENDMDL
