MODEL 1
REMARK minimizedAffinity -0.590735495
REMARK minimizedRMSD -1
REMARK  0 active torsions:
REMARK  status: ('A' for Active; 'I' for Inactive)
ROOT
ATOM      1  C   UNL d   1      -3.081  -5.762  -3.487  0.00  0.00     0.020 A 
ATOM      2  C1  UNL d   1      -2.499  -5.922  -2.230  0.00  0.00     0.020 A 
ATOM      3  C2  UNL d   1      -1.109  -5.993  -2.109  0.00  0.00     0.034 A 
ATOM      4  C3  UNL d   1      -0.298  -5.904  -3.246  0.00  0.00     0.017 A 
ATOM      5  C4  UNL d   1      -0.884  -5.744  -4.507  0.00  0.00     0.017 A 
ATOM      6  C5  UNL d   1      -2.276  -5.673  -4.622  0.00  0.00     0.034 A 
ATOM      7 Cl   UNL d   1       0.051  -5.627  -5.955  0.00  0.00    -0.070 Cl
ATOM      8 Cl1  UNL d   1       1.413  -6.000  -3.022  0.00  0.00    -0.070 Cl
ENDROOT
TORSDOF 0
ENDMDL
