MODEL 1
REMARK minimizedAffinity 1.10398233
REMARK minimizedRMSD -1
REMARK  0 active torsions:
REMARK  status: ('A' for Active; 'I' for Inactive)
ROOT
ATOM      1  C   UNL d   1      -0.338   2.071  -3.265  0.00  0.00     0.020 A 
ATOM      2  C1  UNL d   1      -0.602   3.426  -3.065  0.00  0.00     0.020 A 
ATOM      3  C2  UNL d   1      -0.374   4.004  -1.814  0.00  0.00     0.034 A 
ATOM      4  C3  UNL d   1       0.118   3.228  -0.759  0.00  0.00     0.017 A 
ATOM      5  C4  UNL d   1       0.382   1.868  -0.960  0.00  0.00     0.017 A 
ATOM      6  C5  UNL d   1       0.152   1.294  -2.215  0.00  0.00     0.034 A 
ATOM      7 Cl   UNL d   1       0.990   0.846   0.294  0.00  0.00    -0.070 Cl
ATOM      8 Cl1  UNL d   1       0.376   4.009   0.761  0.00  0.00    -0.070 Cl
ENDROOT
TORSDOF 0
ENDMDL
