MODEL 1
REMARK minimizedAffinity 1.7362026
REMARK minimizedRMSD -1
REMARK  0 active torsions:
REMARK  status: ('A' for Active; 'I' for Inactive)
ROOT
ATOM      1  C   UNL d   1      -0.307  -5.982  -1.678  0.00  0.00     0.020 A 
ATOM      2  C1  UNL d   1      -1.661  -5.995  -2.009  0.00  0.00     0.020 A 
ATOM      3  C2  UNL d   1      -2.052  -6.000  -3.349  0.00  0.00     0.034 A 
ATOM      4  C3  UNL d   1      -1.088  -5.992  -4.364  0.00  0.00     0.017 A 
ATOM      5  C4  UNL d   1       0.271  -5.979  -4.031  0.00  0.00     0.017 A 
ATOM      6  C5  UNL d   1       0.657  -5.974  -2.687  0.00  0.00     0.034 A 
ATOM      7 Cl   UNL d   1       1.519  -5.969  -5.227  0.00  0.00    -0.070 Cl
ATOM      8 Cl1  UNL d   1      -1.643  -6.000  -6.000  0.00  0.00    -0.070 Cl
ENDROOT
TORSDOF 0
ENDMDL
