MODEL 1
REMARK minimizedAffinity 4.00539207
REMARK minimizedRMSD -1
REMARK  0 active torsions:
REMARK  status: ('A' for Active; 'I' for Inactive)
ROOT
ATOM      1  C   UNL d   1       1.235  -5.891  -5.431  0.00  0.00     0.020 A 
ATOM      2  C1  UNL d   1      -0.012  -5.634  -6.000  0.00  0.00     0.020 A 
ATOM      3  C2  UNL d   1      -1.134  -5.486  -5.183  0.00  0.00     0.034 A 
ATOM      4  C3  UNL d   1      -1.012  -5.595  -3.793  0.00  0.00     0.017 A 
ATOM      5  C4  UNL d   1       0.240  -5.852  -3.223  0.00  0.00     0.017 A 
ATOM      6  C5  UNL d   1       1.361  -6.000  -4.046  0.00  0.00     0.034 A 
ATOM      7 Cl   UNL d   1       0.469  -6.000  -1.516  0.00  0.00    -0.070 Cl
ATOM      8 Cl1  UNL d   1      -2.443  -5.400  -2.843  0.00  0.00    -0.070 Cl
ENDROOT
TORSDOF 0
ENDMDL
