MODEL 1
REMARK minimizedAffinity 5.7201848
REMARK minimizedRMSD -1
REMARK  0 active torsions:
REMARK  status: ('A' for Active; 'I' for Inactive)
ROOT
ATOM      1  C   UNL d   1       0.907  -3.740   2.452  0.00  0.00     0.020 A 
ATOM      2  C1  UNL d   1       0.893  -3.185   1.173  0.00  0.00     0.020 A 
ATOM      3  C2  UNL d   1      -0.311  -2.754   0.612  0.00  0.00     0.034 A 
ATOM      4  C3  UNL d   1      -1.506  -2.878   1.330  0.00  0.00     0.017 A 
ATOM      5  C4  UNL d   1      -1.491  -3.436   2.614  0.00  0.00     0.017 A 
ATOM      6  C5  UNL d   1      -0.282  -3.865   3.170  0.00  0.00     0.034 A 
ATOM      7 Cl   UNL d   1      -2.925  -3.621   3.561  0.00  0.00    -0.070 Cl
ATOM      8 Cl1  UNL d   1      -2.959  -2.325   0.575  0.00  0.00    -0.070 Cl
ENDROOT
TORSDOF 0
ENDMDL
