MODEL 1
REMARK minimizedAffinity 4.471735
REMARK minimizedRMSD -1
REMARK  0 active torsions:
REMARK  status: ('A' for Active; 'I' for Inactive)
ROOT
ATOM      1  C   UNL d   1      -0.140  -5.996  -5.743  0.00  0.00     0.020 A 
ATOM      2  C1  UNL d   1      -1.530  -5.997  -5.848  0.00  0.00     0.020 A 
ATOM      3  C2  UNL d   1      -2.317  -5.998  -4.695  0.00  0.00     0.034 A 
ATOM      4  C3  UNL d   1      -1.715  -5.999  -3.432  0.00  0.00     0.017 A 
ATOM      5  C4  UNL d   1      -0.319  -5.998  -3.327  0.00  0.00     0.017 A 
ATOM      6  C5  UNL d   1       0.464  -5.997  -4.485  0.00  0.00     0.034 A 
ATOM      7 Cl   UNL d   1       0.496  -5.998  -1.803  0.00  0.00    -0.070 Cl
ATOM      8 Cl1  UNL d   1      -2.750  -5.999  -2.048  0.00  0.00    -0.070 Cl
ENDROOT
TORSDOF 0
ENDMDL
