MODEL 1
REMARK minimizedAffinity -0.201401889
REMARK minimizedRMSD -1
REMARK  0 active torsions:
REMARK  status: ('A' for Active; 'I' for Inactive)
ROOT
ATOM      1  C   UNL d   1      -2.027  -5.821  -1.569  0.00  0.00     0.020 A 
ATOM      2  C1  UNL d   1      -3.056  -5.813  -2.509  0.00  0.00     0.020 A 
ATOM      3  C2  UNL d   1      -2.757  -5.863  -3.872  0.00  0.00     0.034 A 
ATOM      4  C3  UNL d   1      -1.426  -5.921  -4.299  0.00  0.00     0.017 A 
ATOM      5  C4  UNL d   1      -0.393  -5.929  -3.354  0.00  0.00     0.017 A 
ATOM      6  C5  UNL d   1      -0.698  -5.879  -1.990  0.00  0.00     0.034 A 
ATOM      7 Cl   UNL d   1       1.274  -6.000  -3.804  0.00  0.00    -0.070 Cl
ATOM      8 Cl1  UNL d   1      -1.129  -5.981  -6.000  0.00  0.00    -0.070 Cl
ENDROOT
TORSDOF 0
ENDMDL
