MODEL 1
REMARK minimizedAffinity -2.15292883
REMARK minimizedRMSD -1
REMARK  0 active torsions:
REMARK  status: ('A' for Active; 'I' for Inactive)
ROOT
ATOM      1  C   UNL d   1      -2.666  -5.983  -4.740  0.00  0.00     0.020 A 
ATOM      2  C1  UNL d   1      -2.548  -5.983  -3.351  0.00  0.00     0.020 A 
ATOM      3  C2  UNL d   1      -1.285  -5.987  -2.757  0.00  0.00     0.034 A 
ATOM      4  C3  UNL d   1      -0.133  -5.992  -3.552  0.00  0.00     0.017 A 
ATOM      5  C4  UNL d   1      -0.252  -5.992  -4.947  0.00  0.00     0.017 A 
ATOM      6  C5  UNL d   1      -1.520  -5.987  -5.536  0.00  0.00     0.034 A 
ATOM      7 Cl   UNL d   1       1.123  -5.997  -5.994  0.00  0.00    -0.070 Cl
ATOM      8 Cl1  UNL d   1       1.397  -5.997  -2.750  0.00  0.00    -0.070 Cl
ENDROOT
TORSDOF 0
ENDMDL
