MODEL 1
REMARK minimizedAffinity -1.54445839
REMARK minimizedRMSD -1
REMARK  0 active torsions:
REMARK  status: ('A' for Active; 'I' for Inactive)
ROOT
ATOM      1  C   UNL d   1      -0.596  -5.975  -5.998  0.00  0.00     0.020 A 
ATOM      2  C1  UNL d   1       0.421  -5.973  -5.044  0.00  0.00     0.020 A 
ATOM      3  C2  UNL d   1       0.102  -5.978  -3.684  0.00  0.00     0.034 A 
ATOM      4  C3  UNL d   1      -1.237  -5.985  -3.275  0.00  0.00     0.017 A 
ATOM      5  C4  UNL d   1      -2.256  -5.987  -4.234  0.00  0.00     0.017 A 
ATOM      6  C5  UNL d   1      -1.932  -5.982  -5.594  0.00  0.00     0.034 A 
ATOM      7 Cl   UNL d   1      -3.931  -5.997  -3.806  0.00  0.00    -0.070 Cl
ATOM      8 Cl1  UNL d   1      -1.558  -5.992  -1.577  0.00  0.00    -0.070 Cl
ENDROOT
TORSDOF 0
ENDMDL
