MODEL 1
REMARK minimizedAffinity 2.84814787
REMARK minimizedRMSD -1
REMARK  0 active torsions:
REMARK  status: ('A' for Active; 'I' for Inactive)
ROOT
ATOM      1  C   UNL d   1      -0.353  -5.855  -4.609  0.00  0.00     0.020 A 
ATOM      2  C1  UNL d   1      -1.086  -5.874  -5.795  0.00  0.00     0.020 A 
ATOM      3  C2  UNL d   1      -2.482  -5.919  -5.752  0.00  0.00     0.034 A 
ATOM      4  C3  UNL d   1      -3.147  -5.944  -4.521  0.00  0.00     0.017 A 
ATOM      5  C4  UNL d   1      -2.410  -5.924  -3.331  0.00  0.00     0.017 A 
ATOM      6  C5  UNL d   1      -1.013  -5.880  -3.380  0.00  0.00     0.034 A 
ATOM      7 Cl   UNL d   1      -3.161  -5.954  -1.775  0.00  0.00    -0.070 Cl
ATOM      8 Cl1  UNL d   1      -4.874  -5.998  -4.542  0.00  0.00    -0.070 Cl
ENDROOT
TORSDOF 0
ENDMDL
