MODEL 1
REMARK minimizedAffinity 2.1149509
REMARK minimizedRMSD -1
REMARK  0 active torsions:
REMARK  status: ('A' for Active; 'I' for Inactive)
ROOT
ATOM      1  C   UNL d   1      -0.158  -5.992  -5.691  0.00  0.00     0.020 A 
ATOM      2  C1  UNL d   1       0.928  -5.997  -4.817  0.00  0.00     0.020 A 
ATOM      3  C2  UNL d   1       0.714  -5.999  -3.437  0.00  0.00     0.034 A 
ATOM      4  C3  UNL d   1      -0.589  -5.997  -2.927  0.00  0.00     0.017 A 
ATOM      5  C4  UNL d   1      -1.679  -5.992  -3.805  0.00  0.00     0.017 A 
ATOM      6  C5  UNL d   1      -1.459  -5.989  -5.186  0.00  0.00     0.034 A 
ATOM      7 Cl   UNL d   1      -3.316  -5.988  -3.251  0.00  0.00    -0.070 Cl
ATOM      8 Cl1  UNL d   1      -0.780  -6.000  -1.210  0.00  0.00    -0.070 Cl
ENDROOT
TORSDOF 0
ENDMDL
