MODEL 1
REMARK minimizedAffinity -3.18562317
REMARK minimizedRMSD -1
REMARK  0 active torsions:
REMARK  status: ('A' for Active; 'I' for Inactive)
ROOT
ATOM      1  C   UNL d   1      -2.856  -5.997  -5.619  0.00  0.00     0.020 A 
ATOM      2  C1  UNL d   1      -3.706  -6.000  -4.513  0.00  0.00     0.020 A 
ATOM      3  C2  UNL d   1      -3.172  -6.000  -3.223  0.00  0.00     0.034 A 
ATOM      4  C3  UNL d   1      -1.785  -5.997  -3.035  0.00  0.00     0.017 A 
ATOM      5  C4  UNL d   1      -0.933  -5.995  -4.145  0.00  0.00     0.017 A 
ATOM      6  C5  UNL d   1      -1.473  -5.995  -5.435  0.00  0.00     0.034 A 
ATOM      7 Cl   UNL d   1       0.788  -5.992  -3.992  0.00  0.00    -0.070 Cl
ATOM      8 Cl1  UNL d   1      -1.195  -5.997  -1.411  0.00  0.00    -0.070 Cl
ENDROOT
TORSDOF 0
ENDMDL
