MODEL 1
REMARK minimizedAffinity 16.8779831
REMARK minimizedRMSD -1
REMARK  3 active torsions:
REMARK  status: ('A' for Active; 'I' for Inactive)
REMARK    1  A    between atoms: C3'_2  and  C2'_3 
REMARK    2  A    between atoms: C2'_3  and  C1'_4 
REMARK    3  A    between atoms: C1'_4  and  C1_5 
ROOT
ATOM      1  C1  N4B d   1       3.416   3.074  -3.157  0.00  0.00    -0.075 A 
ATOM      2  C2  N4B d   1       4.267   3.749  -2.254  0.00  0.00     0.002 A 
ATOM      3  C3  N4B d   1       5.442   4.302  -2.701  0.00  0.00     0.002 A 
ATOM      4  C4  N4B d   1       5.794   4.176  -4.036  0.00  0.00    -0.004 A 
ATOM      5  C5  N4B d   1       4.955   3.545  -4.907  0.00  0.00     0.002 A 
ATOM      6  C6  N4B d   1       3.768   2.989  -4.472  0.00  0.00     0.002 A 
ENDROOT
BRANCH   1   7
ATOM      7  C1' N4B d   1       2.162   2.380  -2.698  0.00  0.00     0.057 C 
BRANCH   7   8
ATOM      8  C2' N4B d   1       2.534   1.274  -1.714  0.00  0.00     0.009 C 
BRANCH   8   9
ATOM      9  C3' N4B d   1       2.502   1.760  -0.275  0.00  0.00     0.004 C 
ATOM     10  C4' N4B d   1       2.544   0.638   0.718  0.00  0.00     0.003 C 
ENDBRANCH   8   9
ENDBRANCH   7   8
ENDBRANCH   1   7
TORSDOF 3
ENDMDL
