MODEL 1
REMARK minimizedAffinity 5.04941225
REMARK minimizedRMSD -1
REMARK  3 active torsions:
REMARK  status: ('A' for Active; 'I' for Inactive)
REMARK    1  A    between atoms: C3'_2  and  C2'_3 
REMARK    2  A    between atoms: C2'_3  and  C1'_4 
REMARK    3  A    between atoms: C1'_4  and  C1_5 
ROOT
ATOM      1  C1  N4B d   1      -4.760   0.397   3.390  0.00  0.00    -0.075 A 
ATOM      2  C2  N4B d   1      -3.570   0.511   4.143  0.00  0.00     0.002 A 
ATOM      3  C3  N4B d   1      -3.619   0.957   5.441  0.00  0.00     0.002 A 
ATOM      4  C4  N4B d   1      -4.838   1.311   5.999  0.00  0.00    -0.004 A 
ATOM      5  C5  N4B d   1      -5.985   1.173   5.274  0.00  0.00     0.002 A 
ATOM      6  C6  N4B d   1      -5.952   0.722   3.970  0.00  0.00     0.002 A 
ENDROOT
BRANCH   1   7
ATOM      7  C1' N4B d   1      -4.747  -0.004   1.941  0.00  0.00     0.057 C 
BRANCH   7   8
ATOM      8  C2' N4B d   1      -5.897   0.691   1.219  0.00  0.00     0.009 C 
BRANCH   8   9
ATOM      9  C3' N4B d   1      -5.506   1.132  -0.181  0.00  0.00     0.004 C 
ATOM     10  C4' N4B d   1      -5.066   2.564  -0.238  0.00  0.00     0.003 C 
ENDBRANCH   8   9
ENDBRANCH   7   8
ENDBRANCH   1   7
TORSDOF 3
ENDMDL
