MODEL 1
REMARK minimizedAffinity 8.92965794
REMARK minimizedRMSD -1
REMARK  3 active torsions:
REMARK  status: ('A' for Active; 'I' for Inactive)
REMARK    1  A    between atoms: C3'_2  and  C2'_3 
REMARK    2  A    between atoms: C2'_3  and  C1'_4 
REMARK    3  A    between atoms: C1'_4  and  C1_5 
ROOT
ATOM      1  C1  N4B d   1      -3.297  -1.251   2.197  0.00  0.00    -0.075 A 
ATOM      2  C2  N4B d   1      -3.224  -0.058   2.949  0.00  0.00     0.002 A 
ATOM      3  C3  N4B d   1      -2.011   0.558   3.141  0.00  0.00     0.002 A 
ATOM      4  C4  N4B d   1      -0.862  -0.008   2.611  0.00  0.00    -0.004 A 
ATOM      5  C5  N4B d   1      -0.945  -1.148   1.865  0.00  0.00     0.002 A 
ATOM      6  C6  N4B d   1      -2.157  -1.775   1.660  0.00  0.00     0.002 A 
ENDROOT
BRANCH   1   7
ATOM      7  C1' N4B d   1      -4.587  -2.007   2.032  0.00  0.00     0.057 C 
BRANCH   7   8
ATOM      8  C2' N4B d   1      -4.548  -3.261   2.900  0.00  0.00     0.009 C 
BRANCH   8   9
ATOM      9  C3' N4B d   1      -5.307  -4.415   2.267  0.00  0.00     0.004 C 
ATOM     10  C4' N4B d   1      -5.350  -5.632   3.142  0.00  0.00     0.003 C 
ENDBRANCH   8   9
ENDBRANCH   7   8
ENDBRANCH   1   7
TORSDOF 3
ENDMDL
