MODEL 1
REMARK minimizedAffinity 10.6464739
REMARK minimizedRMSD -1
REMARK  3 active torsions:
REMARK  status: ('A' for Active; 'I' for Inactive)
REMARK    1  A    between atoms: C3'_2  and  C2'_3 
REMARK    2  A    between atoms: C2'_3  and  C1'_4 
REMARK    3  A    between atoms: C1'_4  and  C1_5 
ROOT
ATOM      1  C1  N4B d   1       3.887   2.201   0.721  0.00  0.00    -0.075 A 
ATOM      2  C2  N4B d   1       4.791   2.842  -0.155  0.00  0.00     0.002 A 
ATOM      3  C3  N4B d   1       5.843   3.563   0.353  0.00  0.00     0.002 A 
ATOM      4  C4  N4B d   1       6.000   3.673   1.727  0.00  0.00    -0.004 A 
ATOM      5  C5  N4B d   1       5.137   3.030   2.565  0.00  0.00     0.002 A 
ATOM      6  C6  N4B d   1       4.077   2.298   2.069  0.00  0.00     0.002 A 
ENDROOT
BRANCH   1   7
ATOM      7  C1' N4B d   1       2.672   1.472   0.214  0.00  0.00     0.057 C 
BRANCH   7   8
ATOM      8  C2' N4B d   1       2.852   1.173  -1.272  0.00  0.00     0.009 C 
BRANCH   8   9
ATOM      9  C3' N4B d   1       1.753   1.800  -2.114  0.00  0.00     0.004 C 
ATOM     10  C4' N4B d   1       2.251   2.921  -2.977  0.00  0.00     0.003 C 
ENDBRANCH   8   9
ENDBRANCH   7   8
ENDBRANCH   1   7
TORSDOF 3
ENDMDL
