MODEL 1
REMARK minimizedAffinity 8.52263737
REMARK minimizedRMSD -1
REMARK  3 active torsions:
REMARK  status: ('A' for Active; 'I' for Inactive)
REMARK    1  A    between atoms: C3'_2  and  C2'_3 
REMARK    2  A    between atoms: C2'_3  and  C1'_4 
REMARK    3  A    between atoms: C1'_4  and  C1_5 
ROOT
ATOM      1  C1  N4B d   1      -1.318  -4.373  -3.420  0.00  0.00    -0.075 A 
ATOM      2  C2  N4B d   1      -0.034  -4.812  -3.810  0.00  0.00     0.002 A 
ATOM      3  C3  N4B d   1       0.111  -5.611  -4.918  0.00  0.00     0.002 A 
ATOM      4  C4  N4B d   1      -1.011  -5.997  -5.637  0.00  0.00    -0.004 A 
ATOM      5  C5  N4B d   1      -2.245  -5.547  -5.268  0.00  0.00     0.002 A 
ATOM      6  C6  N4B d   1      -2.405  -4.741  -4.159  0.00  0.00     0.002 A 
ENDROOT
BRANCH   1   7
ATOM      7  C1' N4B d   1      -1.536  -3.569  -2.167  0.00  0.00     0.057 C 
BRANCH   7   8
ATOM      8  C2' N4B d   1      -1.588  -4.513  -0.969  0.00  0.00     0.009 C 
BRANCH   8   9
ATOM      9  C3' N4B d   1      -1.505  -3.764   0.349  0.00  0.00     0.004 C 
ATOM     10  C4' N4B d   1      -2.772  -3.036   0.685  0.00  0.00     0.003 C 
ENDBRANCH   8   9
ENDBRANCH   7   8
ENDBRANCH   1   7
TORSDOF 3
ENDMDL
