MODEL 1
REMARK minimizedAffinity 11.9480619
REMARK minimizedRMSD -1
REMARK  3 active torsions:
REMARK  status: ('A' for Active; 'I' for Inactive)
REMARK    1  A    between atoms: C3'_2  and  C2'_3 
REMARK    2  A    between atoms: C2'_3  and  C1'_4 
REMARK    3  A    between atoms: C1'_4  and  C1_5 
ROOT
ATOM      1  C1  N4B d   1      -0.201  -5.458  -3.966  0.00  0.00    -0.075 A 
ATOM      2  C2  N4B d   1      -1.450  -5.157  -3.379  0.00  0.00     0.002 A 
ATOM      3  C3  N4B d   1      -2.602  -5.280  -4.116  0.00  0.00     0.002 A 
ATOM      4  C4  N4B d   1      -2.529  -5.682  -5.442  0.00  0.00    -0.004 A 
ATOM      5  C5  N4B d   1      -1.321  -5.995  -5.993  0.00  0.00     0.002 A 
ATOM      6  C6  N4B d   1      -0.156  -5.880  -5.263  0.00  0.00     0.002 A 
ENDROOT
BRANCH   1   7
ATOM      7  C1' N4B d   1       1.093  -5.256  -3.226  0.00  0.00     0.057 C 
BRANCH   7   8
ATOM      8  C2' N4B d   1       2.208  -5.998  -3.957  0.00  0.00     0.009 C 
BRANCH   8   9
ATOM      9  C3' N4B d   1       3.576  -5.679  -3.378  0.00  0.00     0.004 C 
ATOM     10  C4' N4B d   1       3.514  -5.245  -1.944  0.00  0.00     0.003 C 
ENDBRANCH   8   9
ENDBRANCH   7   8
ENDBRANCH   1   7
TORSDOF 3
ENDMDL
