MODEL 1
REMARK minimizedAffinity 9.10867405
REMARK minimizedRMSD -1
REMARK  3 active torsions:
REMARK  status: ('A' for Active; 'I' for Inactive)
REMARK    1  A    between atoms: C3'_2  and  C2'_3 
REMARK    2  A    between atoms: C2'_3  and  C1'_4 
REMARK    3  A    between atoms: C1'_4  and  C1_5 
ROOT
ATOM      1  C1  N4B d   1      -5.073   0.316   3.282  0.00  0.00    -0.075 A 
ATOM      2  C2  N4B d   1      -4.954   1.347   4.239  0.00  0.00     0.002 A 
ATOM      3  C3  N4B d   1      -4.776   1.036   5.565  0.00  0.00     0.002 A 
ATOM      4  C4  N4B d   1      -4.733  -0.294   5.957  0.00  0.00    -0.004 A 
ATOM      5  C5  N4B d   1      -4.823  -1.283   5.023  0.00  0.00     0.002 A 
ATOM      6  C6  N4B d   1      -4.998  -0.985   3.686  0.00  0.00     0.002 A 
ENDROOT
BRANCH   1   7
ATOM      7  C1' N4B d   1      -5.354   0.607   1.833  0.00  0.00     0.057 C 
BRANCH   7   8
ATOM      8  C2' N4B d   1      -5.723   2.079   1.680  0.00  0.00     0.009 C 
BRANCH   8   9
ATOM      9  C3' N4B d   1      -5.728   2.516   0.225  0.00  0.00     0.004 C 
ATOM     10  C4' N4B d   1      -4.692   3.559  -0.072  0.00  0.00     0.003 C 
ENDBRANCH   8   9
ENDBRANCH   7   8
ENDBRANCH   1   7
TORSDOF 3
ENDMDL
