MODEL 1
REMARK minimizedAffinity 10.0829735
REMARK minimizedRMSD -1
REMARK  3 active torsions:
REMARK  status: ('A' for Active; 'I' for Inactive)
REMARK    1  A    between atoms: C3'_2  and  C2'_3 
REMARK    2  A    between atoms: C2'_3  and  C1'_4 
REMARK    3  A    between atoms: C1'_4  and  C1_5 
ROOT
ATOM      1  C1  N4B d   1      -3.695   0.226   1.987  0.00  0.00    -0.075 A 
ATOM      2  C2  N4B d   1      -2.966  -0.764   1.292  0.00  0.00     0.002 A 
ATOM      3  C3  N4B d   1      -1.689  -1.080   1.688  0.00  0.00     0.002 A 
ATOM      4  C4  N4B d   1      -1.117  -0.410   2.758  0.00  0.00    -0.004 A 
ATOM      5  C5  N4B d   1      -1.837   0.527   3.440  0.00  0.00     0.002 A 
ATOM      6  C6  N4B d   1      -3.123   0.852   3.056  0.00  0.00     0.002 A 
ENDROOT
BRANCH   1   7
ATOM      7  C1' N4B d   1      -5.062   0.667   1.539  0.00  0.00     0.057 C 
BRANCH   7   8
ATOM      8  C2' N4B d   1      -5.051   0.870   0.027  0.00  0.00     0.009 C 
BRANCH   8   9
ATOM      9  C3' N4B d   1      -5.997   1.978  -0.404  0.00  0.00     0.004 C 
ATOM     10  C4' N4B d   1      -5.279   3.236  -0.794  0.00  0.00     0.003 C 
ENDBRANCH   8   9
ENDBRANCH   7   8
ENDBRANCH   1   7
TORSDOF 3
ENDMDL
