MODEL 1
REMARK minimizedAffinity 4.52603149
REMARK minimizedRMSD -1
REMARK  3 active torsions:
REMARK  status: ('A' for Active; 'I' for Inactive)
REMARK    1  A    between atoms: C3'_2  and  C2'_3 
REMARK    2  A    between atoms: C2'_3  and  C1'_4 
REMARK    3  A    between atoms: C1'_4  and  C1_5 
ROOT
ATOM      1  C1  N4B d   1      -0.459   0.410   3.908  0.00  0.00    -0.075 A 
ATOM      2  C2  N4B d   1      -1.504   1.173   3.342  0.00  0.00     0.002 A 
ATOM      3  C3  N4B d   1      -2.567   1.563   4.119  0.00  0.00     0.002 A 
ATOM      4  C4  N4B d   1      -2.616   1.187   5.454  0.00  0.00    -0.004 A 
ATOM      5  C5  N4B d   1      -1.590   0.472   5.998  0.00  0.00     0.002 A 
ATOM      6  C6  N4B d   1      -0.513   0.076   5.230  0.00  0.00     0.002 A 
ENDROOT
BRANCH   1   7
ATOM      7  C1' N4B d   1       0.681  -0.113   3.077  0.00  0.00     0.057 C 
BRANCH   7   8
ATOM      8  C2' N4B d   1       0.902  -1.588   3.401  0.00  0.00     0.009 C 
BRANCH   8   9
ATOM      9  C3' N4B d   1       2.369  -1.975   3.318  0.00  0.00     0.004 C 
ATOM     10  C4' N4B d   1       3.237  -0.856   2.825  0.00  0.00     0.003 C 
ENDBRANCH   8   9
ENDBRANCH   7   8
ENDBRANCH   1   7
TORSDOF 3
ENDMDL
