MODEL 1
REMARK minimizedAffinity 14.2496138
REMARK minimizedRMSD -1
REMARK  3 active torsions:
REMARK  status: ('A' for Active; 'I' for Inactive)
REMARK    1  A    between atoms: C3'_2  and  C2'_3 
REMARK    2  A    between atoms: C2'_3  and  C1'_4 
REMARK    3  A    between atoms: C1'_4  and  C1_5 
ROOT
ATOM      1  C1  N4B d   1       3.562   2.732  -2.994  0.00  0.00    -0.075 A 
ATOM      2  C2  N4B d   1       4.406   3.660  -2.345  0.00  0.00     0.002 A 
ATOM      3  C3  N4B d   1       5.326   4.376  -3.071  0.00  0.00     0.002 A 
ATOM      4  C4  N4B d   1       5.432   4.169  -4.438  0.00  0.00    -0.004 A 
ATOM      5  C5  N4B d   1       4.595   3.289  -5.061  0.00  0.00     0.002 A 
ATOM      6  C6  N4B d   1       3.664   2.565  -4.344  0.00  0.00     0.002 A 
ENDROOT
BRANCH   1   7
ATOM      7  C1' N4B d   1       2.601   1.863  -2.229  0.00  0.00     0.057 C 
BRANCH   7   8
ATOM      8  C2' N4B d   1       3.364   1.104  -1.147  0.00  0.00     0.009 C 
BRANCH   8   9
ATOM      9  C3' N4B d   1       2.868   1.449   0.246  0.00  0.00     0.004 C 
ATOM     10  C4' N4B d   1       3.965   1.922   1.153  0.00  0.00     0.003 C 
ENDBRANCH   8   9
ENDBRANCH   7   8
ENDBRANCH   1   7
TORSDOF 3
ENDMDL
