MODEL 1
REMARK minimizedAffinity -4.85435009
REMARK minimizedRMSD -1
REMARK  2 active torsions:
REMARK  status: ('A' for Active; 'I' for Inactive)
REMARK    1  A    between atoms: C1_2  and  C2_3 
REMARK    2  A    between atoms: C2_3  and  C3_4 
ROOT
ATOM      1  C3  UNL d   1       0.554  -0.101   0.413  0.00  0.00    -0.075 A 
ATOM      2  C4  UNL d   1       0.890  -1.408   0.792  0.00  0.00     0.002 A 
ATOM      3  C5  UNL d   1       2.220  -1.759   1.025  0.00  0.00     0.002 A 
ATOM      4  C6  UNL d   1       3.230  -0.811   0.874  0.00  0.00    -0.004 A 
ATOM      5  C7  UNL d   1       2.909   0.487   0.482  0.00  0.00     0.002 A 
ATOM      6  C8  UNL d   1       1.579   0.841   0.252  0.00  0.00     0.002 A 
ENDROOT
BRANCH   1   7
ATOM      7  C2  UNL d   1      -0.886   0.292   0.187  0.00  0.00     0.056 C 
BRANCH   7   8
ATOM      8  C1  UNL d   1      -1.491  -0.268  -1.105  0.00  0.00     0.007 C 
ATOM      9  C   UNL d   1      -2.469   0.688  -1.774  0.00  0.00     0.009 C 
ENDBRANCH   7   8
ENDBRANCH   1   7
TORSDOF 2
ENDMDL
