MODEL 1
REMARK minimizedAffinity -3.29567099
REMARK minimizedRMSD -1
REMARK  2 active torsions:
REMARK  status: ('A' for Active; 'I' for Inactive)
REMARK    1  A    between atoms: C1_2  and  C2_3 
REMARK    2  A    between atoms: C2_3  and  C3_4 
ROOT
ATOM      1  C3  UNL d   1      -1.484  -0.291  -0.757  0.00  0.00    -0.075 A 
ATOM      2  C4  UNL d   1      -1.439  -1.368  -1.654  0.00  0.00     0.002 A 
ATOM      3  C5  UNL d   1      -2.285  -1.401  -2.764  0.00  0.00     0.002 A 
ATOM      4  C6  UNL d   1      -3.190  -0.366  -2.985  0.00  0.00    -0.004 A 
ATOM      5  C7  UNL d   1      -3.255   0.701  -2.091  0.00  0.00     0.002 A 
ATOM      6  C8  UNL d   1      -2.408   0.739  -0.983  0.00  0.00     0.002 A 
ENDROOT
BRANCH   1   7
ATOM      7  C2  UNL d   1      -0.552  -0.234   0.429  0.00  0.00     0.056 C 
BRANCH   7   8
ATOM      8  C1  UNL d   1       0.650  -1.178   0.323  0.00  0.00     0.007 C 
ATOM      9  C   UNL d   1       1.967  -0.520   0.716  0.00  0.00     0.009 C 
ENDBRANCH   7   8
ENDBRANCH   1   7
TORSDOF 2
ENDMDL
