MODEL 1
REMARK minimizedAffinity -3.0886035
REMARK minimizedRMSD -1
REMARK  0 active torsions:
REMARK  status: ('A' for Active; 'I' for Inactive)
ROOT
ATOM      1  C   UNL d   1      -1.432   1.169   0.038  0.00  0.00     0.172 C 
ATOM      2  N   UNL d   1      -1.922   1.017   1.388  0.00  0.00    -0.070 N 
ATOM      3  C1  UNL d   1      -1.627   1.841   2.441  0.00  0.00    -0.004 A 
ATOM      4  C2  UNL d   1      -2.287   1.360   3.551  0.00  0.00    -0.047 A 
ATOM      5  C3  UNL d   1      -3.002   0.206   3.152  0.00  0.00    -0.047 A 
ATOM      6  C4  UNL d   1      -2.758   0.017   1.808  0.00  0.00    -0.004 A 
ENDROOT
TORSDOF 0
ENDMDL
