MODEL 1
REMARK minimizedAffinity -3.69875956
REMARK minimizedRMSD -1
REMARK  0 active torsions:
REMARK  status: ('A' for Active; 'I' for Inactive)
ROOT
ATOM      1  C   UNL d   1      -0.483   0.287  -0.742  0.00  0.00     0.172 C 
ATOM      2  N   UNL d   1       0.918   0.209  -1.081  0.00  0.00    -0.070 N 
ATOM      3  C1  UNL d   1       1.482   0.649  -2.249  0.00  0.00    -0.004 A 
ATOM      4  C2  UNL d   1       2.835   0.395  -2.186  0.00  0.00    -0.047 A 
ATOM      5  C3  UNL d   1       3.093  -0.219  -0.937  0.00  0.00    -0.047 A 
ATOM      6  C4  UNL d   1       1.889  -0.322  -0.274  0.00  0.00    -0.004 A 
ENDROOT
TORSDOF 0
ENDMDL
