MODEL 1
REMARK minimizedAffinity -3.33764076
REMARK minimizedRMSD -1
REMARK  0 active torsions:
REMARK  status: ('A' for Active; 'I' for Inactive)
ROOT
ATOM      1  C   UNL d   1       1.455   1.299  -2.829  0.00  0.00     0.172 C 
ATOM      2  N   UNL d   1       0.899   0.608  -1.689  0.00  0.00    -0.070 N 
ATOM      3  C1  UNL d   1       1.301  -0.615  -1.223  0.00  0.00    -0.004 A 
ATOM      4  C2  UNL d   1       0.527  -0.924  -0.125  0.00  0.00    -0.047 A 
ATOM      5  C3  UNL d   1      -0.372   0.151   0.075  0.00  0.00    -0.047 A 
ATOM      6  C4  UNL d   1      -0.120   1.086  -0.908  0.00  0.00    -0.004 A 
ENDROOT
TORSDOF 0
ENDMDL
