MODEL 1
REMARK minimizedAffinity -2.36542416
REMARK minimizedRMSD -1
REMARK  0 active torsions:
REMARK  status: ('A' for Active; 'I' for Inactive)
ROOT
ATOM      1  C   UNL d   1       0.740   1.610  -2.294  0.00  0.00     0.172 C 
ATOM      2  N   UNL d   1       0.380   0.547  -1.386  0.00  0.00    -0.070 N 
ATOM      3  C1  UNL d   1       1.069  -0.623  -1.212  0.00  0.00    -0.004 A 
ATOM      4  C2  UNL d   1       0.405  -1.367  -0.262  0.00  0.00    -0.047 A 
ATOM      5  C3  UNL d   1      -0.723  -0.619   0.150  0.00  0.00    -0.047 A 
ATOM      6  C4  UNL d   1      -0.714   0.562  -0.561  0.00  0.00    -0.004 A 
ENDROOT
TORSDOF 0
ENDMDL
