MODEL 1
REMARK minimizedAffinity -2.99606991
REMARK minimizedRMSD -1
REMARK  0 active torsions:
REMARK  status: ('A' for Active; 'I' for Inactive)
ROOT
ATOM      1  C   UNL d   1      -0.306   0.498   0.415  0.00  0.00     0.172 C 
ATOM      2  N   UNL d   1      -1.211   0.552   1.539  0.00  0.00    -0.070 N 
ATOM      3  C1  UNL d   1      -1.085   1.374   2.627  0.00  0.00    -0.004 A 
ATOM      4  C2  UNL d   1      -2.145   1.123   3.471  0.00  0.00    -0.047 A 
ATOM      5  C3  UNL d   1      -2.935   0.114   2.870  0.00  0.00    -0.047 A 
ATOM      6  C4  UNL d   1      -2.334  -0.222   1.675  0.00  0.00    -0.004 A 
ENDROOT
TORSDOF 0
ENDMDL
