MODEL 1
REMARK minimizedAffinity -2.98982716
REMARK minimizedRMSD -1
REMARK  0 active torsions:
REMARK  status: ('A' for Active; 'I' for Inactive)
ROOT
ATOM      1  C   UNL d   1      -0.873   0.576   0.284  0.00  0.00     0.172 C 
ATOM      2  N   UNL d   1       0.167  -0.285  -0.228  0.00  0.00    -0.070 N 
ATOM      3  C1  UNL d   1       1.124   0.074  -1.138  0.00  0.00    -0.004 A 
ATOM      4  C2  UNL d   1       1.924  -1.025  -1.365  0.00  0.00    -0.047 A 
ATOM      5  C3  UNL d   1       1.430  -2.082  -0.564  0.00  0.00    -0.047 A 
ATOM      6  C4  UNL d   1       0.341  -1.596   0.130  0.00  0.00    -0.004 A 
ENDROOT
TORSDOF 0
ENDMDL
