MODEL 1
REMARK minimizedAffinity -3.61040974
REMARK minimizedRMSD -1
REMARK  0 active torsions:
REMARK  status: ('A' for Active; 'I' for Inactive)
ROOT
ATOM      1  C   UNL d   1      -0.436   0.092   0.275  0.00  0.00     0.172 C 
ATOM      2  N   UNL d   1       0.801   0.172  -0.466  0.00  0.00    -0.070 N 
ATOM      3  C1  UNL d   1       1.207   1.234  -1.229  0.00  0.00    -0.004 A 
ATOM      4  C2  UNL d   1       2.437   0.922  -1.766  0.00  0.00    -0.047 A 
ATOM      5  C3  UNL d   1       2.782  -0.373  -1.311  0.00  0.00    -0.047 A 
ATOM      6  C4  UNL d   1       1.751  -0.814  -0.508  0.00  0.00    -0.004 A 
ENDROOT
TORSDOF 0
ENDMDL
