MODEL 1
REMARK minimizedAffinity -3.85881782
REMARK minimizedRMSD -1
REMARK  0 active torsions:
REMARK  status: ('A' for Active; 'I' for Inactive)
ROOT
ATOM      1  C   UNL d   1       0.551   0.051   0.261  0.00  0.00     0.172 C 
ATOM      2  N   UNL d   1       1.429   0.331  -0.850  0.00  0.00    -0.070 N 
ATOM      3  C1  UNL d   1       2.406  -0.502  -1.326  0.00  0.00    -0.004 A 
ATOM      4  C2  UNL d   1       3.017   0.127  -2.389  0.00  0.00    -0.047 A 
ATOM      5  C3  UNL d   1       2.387   1.382  -2.557  0.00  0.00    -0.047 A 
ATOM      6  C4  UNL d   1       1.407   1.483  -1.592  0.00  0.00    -0.004 A 
ENDROOT
TORSDOF 0
ENDMDL
