MODEL 1
REMARK minimizedAffinity -2.7047174
REMARK minimizedRMSD -1
REMARK  0 active torsions:
REMARK  status: ('A' for Active; 'I' for Inactive)
ROOT
ATOM      1  C   UNL d   1       1.980  -0.674  -2.559  0.00  0.00     0.172 C 
ATOM      2  N   UNL d   1       1.254  -0.627  -1.311  0.00  0.00    -0.070 N 
ATOM      3  C1  UNL d   1       0.362   0.344  -0.943  0.00  0.00    -0.004 A 
ATOM      4  C2  UNL d   1      -0.111   0.028   0.312  0.00  0.00    -0.047 A 
ATOM      5  C3  UNL d   1       0.519  -1.174   0.712  0.00  0.00    -0.047 A 
ATOM      6  C4  UNL d   1       1.359  -1.558  -0.312  0.00  0.00    -0.004 A 
ENDROOT
TORSDOF 0
ENDMDL
