MODEL 1
REMARK minimizedAffinity -1.66119385
REMARK minimizedRMSD -1
REMARK  0 active torsions:
REMARK  status: ('A' for Active; 'I' for Inactive)
ROOT
ATOM      1  C   UNL d   1      -1.034   0.768   2.114  0.00  0.00     0.172 C 
ATOM      2  N   UNL d   1      -0.493   0.090   0.960  0.00  0.00    -0.070 N 
ATOM      3  C1  UNL d   1      -0.700   0.449  -0.346  0.00  0.00    -0.004 A 
ATOM      4  C2  UNL d   1      -0.017  -0.445  -1.142  0.00  0.00    -0.047 A 
ATOM      5  C3  UNL d   1       0.621  -1.373  -0.286  0.00  0.00    -0.047 A 
ATOM      6  C4  UNL d   1       0.309  -1.019   1.010  0.00  0.00    -0.004 A 
ENDROOT
TORSDOF 0
ENDMDL
