MODEL 1
REMARK minimizedAffinity -3.61793137
REMARK minimizedRMSD -1
REMARK  0 active torsions:
REMARK  status: ('A' for Active; 'I' for Inactive)
ROOT
ATOM      1  C   UNL d   1       0.053  -1.479  -0.088  0.00  0.00     0.172 C 
ATOM      2  N   UNL d   1       1.015  -0.640  -0.764  0.00  0.00    -0.070 N 
ATOM      3  C1  UNL d   1       2.054  -1.081  -1.539  0.00  0.00    -0.004 A 
ATOM      4  C2  UNL d   1       2.735   0.024  -2.001  0.00  0.00    -0.047 A 
ATOM      5  C3  UNL d   1       2.083   1.170  -1.485  0.00  0.00    -0.047 A 
ATOM      6  C4  UNL d   1       1.022   0.729  -0.723  0.00  0.00    -0.004 A 
ENDROOT
TORSDOF 0
ENDMDL
