MODEL 1
REMARK minimizedAffinity 0.414710313
REMARK minimizedRMSD -1
REMARK  0 active torsions:
REMARK  status: ('A' for Active; 'I' for Inactive)
ROOT
ATOM      1  C   UNL d   1       3.686  -0.024  -1.425  0.00  0.00     0.172 C 
ATOM      2  N   UNL d   1       2.660   0.965  -1.661  0.00  0.00    -0.070 N 
ATOM      3  C1  UNL d   1       2.546   2.166  -1.014  0.00  0.00    -0.004 A 
ATOM      4  C2  UNL d   1       1.442   2.816  -1.522  0.00  0.00    -0.047 A 
ATOM      5  C3  UNL d   1       0.873   1.975  -2.508  0.00  0.00    -0.047 A 
ATOM      6  C4  UNL d   1       1.647   0.836  -2.573  0.00  0.00    -0.004 A 
ENDROOT
TORSDOF 0
ENDMDL
