MODEL 1
REMARK minimizedAffinity -2.24695897
REMARK minimizedRMSD -1
REMARK  0 active torsions:
REMARK  status: ('A' for Active; 'I' for Inactive)
ROOT
ATOM      1  C   UNL d   1       5.662  -4.071   6.000  0.00  0.00     0.172 C 
ATOM      2  N   UNL d   1       5.263  -2.818   5.404  0.00  0.00    -0.070 N 
ATOM      3  C1  UNL d   1       5.430  -1.579   5.962  0.00  0.00    -0.004 A 
ATOM      4  C2  UNL d   1       4.922  -0.647   5.084  0.00  0.00    -0.047 A 
ATOM      5  C3  UNL d   1       4.430  -1.350   3.958  0.00  0.00    -0.047 A 
ATOM      6  C4  UNL d   1       4.654  -2.692   4.183  0.00  0.00    -0.004 A 
ENDROOT
TORSDOF 0
ENDMDL
