MODEL 1
REMARK minimizedAffinity -3.1727109
REMARK minimizedRMSD -1
REMARK  0 active torsions:
REMARK  status: ('A' for Active; 'I' for Inactive)
ROOT
ATOM      1  C   UNL d   1       4.121  -5.752   4.736  0.00  0.00     0.172 C 
ATOM      2  N   UNL d   1       4.120  -4.342   4.425  0.00  0.00    -0.070 N 
ATOM      3  C1  UNL d   1       3.339  -3.733   3.480  0.00  0.00    -0.004 A 
ATOM      4  C2  UNL d   1       3.634  -2.387   3.491  0.00  0.00    -0.047 A 
ATOM      5  C3  UNL d   1       4.627  -2.179   4.478  0.00  0.00    -0.047 A 
ATOM      6  C4  UNL d   1       4.910  -3.406   5.040  0.00  0.00    -0.004 A 
ENDROOT
TORSDOF 0
ENDMDL
