MODEL 1
REMARK minimizedAffinity -3.70663261
REMARK minimizedRMSD -1
REMARK  0 active torsions:
REMARK  status: ('A' for Active; 'I' for Inactive)
ROOT
ATOM      1  C   UNL d   1       0.133   1.250   0.683  0.00  0.00     0.172 C 
ATOM      2  N   UNL d   1       0.791   0.552  -0.396  0.00  0.00    -0.070 N 
ATOM      3  C1  UNL d   1       1.042   1.062  -1.642  0.00  0.00    -0.004 A 
ATOM      4  C2  UNL d   1       1.683   0.088  -2.376  0.00  0.00    -0.047 A 
ATOM      5  C3  UNL d   1       1.822  -1.048  -1.543  0.00  0.00    -0.047 A 
ATOM      6  C4  UNL d   1       1.262  -0.733  -0.323  0.00  0.00    -0.004 A 
ENDROOT
TORSDOF 0
ENDMDL
