MODEL 1
REMARK minimizedAffinity -3.16241074
REMARK minimizedRMSD -1
REMARK  0 active torsions:
REMARK  status: ('A' for Active; 'I' for Inactive)
ROOT
ATOM      1  C   UNL d   1       2.535   0.896  -2.996  0.00  0.00     0.172 C 
ATOM      2  N   UNL d   1       1.703   0.361  -1.944  0.00  0.00    -0.070 N 
ATOM      3  C1  UNL d   1       0.717   1.042  -1.281  0.00  0.00    -0.004 A 
ATOM      4  C2  UNL d   1       0.160   0.185  -0.357  0.00  0.00    -0.047 A 
ATOM      5  C3  UNL d   1       0.836  -1.054  -0.467  0.00  0.00    -0.047 A 
ATOM      6  C4  UNL d   1       1.785  -0.917  -1.457  0.00  0.00    -0.004 A 
ENDROOT
TORSDOF 0
ENDMDL
