MODEL 1
REMARK minimizedAffinity 19.3727207
REMARK minimizedRMSD -1
REMARK  0 active torsions:
REMARK  status: ('A' for Active; 'I' for Inactive)
ROOT
ATOM      1  C   UNL d   1       1.266  -3.380  -0.855  0.00  0.00     0.077 C 
ATOM      2  C1  UNL d   1       2.119  -2.645   0.136  0.00  0.00    -0.074 A 
ATOM      3  C2  UNL d   1       1.607  -1.566   0.864  0.00  0.00    -0.005 A 
ATOM      4  C3  UNL d   1       2.410  -0.898   1.789  0.00  0.00     0.006 A 
ATOM      5  C4  UNL d   1       3.729  -1.302   1.996  0.00  0.00    -0.005 A 
ATOM      6  C5  UNL d   1       4.258  -2.379   1.278  0.00  0.00    -0.074 A 
ATOM      7  C6  UNL d   1       5.671  -2.832   1.495  0.00  0.00     0.077 C 
ATOM      8  C7  UNL d   1       3.444  -3.049   0.355  0.00  0.00    -0.001 A 
ENDROOT
TORSDOF 0
ENDMDL
