MODEL 1
REMARK minimizedAffinity 14.1063976
REMARK minimizedRMSD -1
REMARK  0 active torsions:
REMARK  status: ('A' for Active; 'I' for Inactive)
ROOT
ATOM      1  C   UNL d   1       1.533  -5.044  -1.880  0.00  0.00     0.077 C 
ATOM      2  C1  UNL d   1       1.541  -3.679  -1.259  0.00  0.00    -0.074 A 
ATOM      3  C2  UNL d   1       0.569  -2.731  -1.595  0.00  0.00    -0.005 A 
ATOM      4  C3  UNL d   1       0.584  -1.469  -1.002  0.00  0.00     0.006 A 
ATOM      5  C4  UNL d   1       1.569  -1.142  -0.069  0.00  0.00    -0.005 A 
ATOM      6  C5  UNL d   1       2.548  -2.077   0.280  0.00  0.00    -0.074 A 
ATOM      7  C6  UNL d   1       3.608  -1.746   1.288  0.00  0.00     0.077 C 
ATOM      8  C7  UNL d   1       2.523  -3.346  -0.315  0.00  0.00    -0.001 A 
ENDROOT
TORSDOF 0
ENDMDL
