MODEL 1
REMARK minimizedAffinity 12.8130417
REMARK minimizedRMSD -1
REMARK  0 active torsions:
REMARK  status: ('A' for Active; 'I' for Inactive)
ROOT
ATOM      1  C   UNL d   1       5.612  -3.679   1.302  0.00  0.00     0.077 C 
ATOM      2  C1  UNL d   1       4.309  -3.082   0.860  0.00  0.00    -0.074 A 
ATOM      3  C2  UNL d   1       3.900  -1.827   1.322  0.00  0.00    -0.005 A 
ATOM      4  C3  UNL d   1       2.690  -1.280   0.895  0.00  0.00     0.006 A 
ATOM      5  C4  UNL d   1       1.878  -1.982   0.004  0.00  0.00    -0.005 A 
ATOM      6  C5  UNL d   1       2.270  -3.238  -0.470  0.00  0.00    -0.074 A 
ATOM      7  C6  UNL d   1       1.414  -4.001  -1.436  0.00  0.00     0.077 C 
ATOM      8  C7  UNL d   1       3.491  -3.778  -0.041  0.00  0.00    -0.001 A 
ENDROOT
TORSDOF 0
ENDMDL
