MODEL 1
REMARK minimizedAffinity 16.7026043
REMARK minimizedRMSD -1
REMARK  0 active torsions:
REMARK  status: ('A' for Active; 'I' for Inactive)
ROOT
ATOM      1  C   UNL d   1       1.068  -4.093  -2.214  0.00  0.00     0.077 C 
ATOM      2  C1  UNL d   1       2.483  -4.165  -2.706  0.00  0.00    -0.074 A 
ATOM      3  C2  UNL d   1       2.843  -3.617  -3.941  0.00  0.00    -0.005 A 
ATOM      4  C3  UNL d   1       4.165  -3.684  -4.382  0.00  0.00     0.006 A 
ATOM      5  C4  UNL d   1       5.138  -4.298  -3.593  0.00  0.00    -0.005 A 
ATOM      6  C5  UNL d   1       4.797  -4.851  -2.354  0.00  0.00    -0.074 A 
ATOM      7  C6  UNL d   1       5.832  -5.506  -1.489  0.00  0.00     0.077 C 
ATOM      8  C7  UNL d   1       3.468  -4.774  -1.916  0.00  0.00    -0.001 A 
ENDROOT
TORSDOF 0
ENDMDL
