MODEL 1
REMARK minimizedAffinity 10.3614607
REMARK minimizedRMSD -1
REMARK  0 active torsions:
REMARK  status: ('A' for Active; 'I' for Inactive)
ROOT
ATOM      1  C   UNL d   1       5.261  -5.662   1.068  0.00  0.00     0.077 C 
ATOM      2  C1  UNL d   1       4.981  -4.191   0.990  0.00  0.00    -0.074 A 
ATOM      3  C2  UNL d   1       5.998  -3.253   1.197  0.00  0.00    -0.005 A 
ATOM      4  C3  UNL d   1       5.725  -1.888   1.112  0.00  0.00     0.006 A 
ATOM      5  C4  UNL d   1       4.433  -1.447   0.820  0.00  0.00    -0.005 A 
ATOM      6  C5  UNL d   1       3.404  -2.370   0.609  0.00  0.00    -0.074 A 
ATOM      7  C6  UNL d   1       2.012  -1.913   0.285  0.00  0.00     0.077 C 
ATOM      8  C7  UNL d   1       3.688  -3.740   0.690  0.00  0.00    -0.001 A 
ENDROOT
TORSDOF 0
ENDMDL
