MODEL 1
REMARK minimizedAffinity 15.5206156
REMARK minimizedRMSD -1
REMARK  0 active torsions:
REMARK  status: ('A' for Active; 'I' for Inactive)
ROOT
ATOM      1  C   UNL d   1       2.249  -1.936   0.807  0.00  0.00     0.077 C 
ATOM      2  C1  UNL d   1       2.321  -3.044  -0.201  0.00  0.00    -0.074 A 
ATOM      3  C2  UNL d   1       1.329  -3.195  -1.176  0.00  0.00    -0.005 A 
ATOM      4  C3  UNL d   1       1.415  -4.225  -2.113  0.00  0.00     0.006 A 
ATOM      5  C4  UNL d   1       2.491  -5.113  -2.084  0.00  0.00    -0.005 A 
ATOM      6  C5  UNL d   1       3.492  -4.977  -1.118  0.00  0.00    -0.074 A 
ATOM      7  C6  UNL d   1       4.660  -5.917  -1.079  0.00  0.00     0.077 C 
ATOM      8  C7  UNL d   1       3.403  -3.936  -0.184  0.00  0.00    -0.001 A 
ENDROOT
TORSDOF 0
ENDMDL
