MODEL 1
REMARK minimizedAffinity 19.8317413
REMARK minimizedRMSD -1
REMARK  0 active torsions:
REMARK  status: ('A' for Active; 'I' for Inactive)
ROOT
ATOM      1  C   UNL d   1       1.246   1.488   4.384  0.00  0.00     0.077 C 
ATOM      2  C1  UNL d   1       0.965   1.894   2.967  0.00  0.00    -0.074 A 
ATOM      3  C2  UNL d   1       0.162   1.104   2.139  0.00  0.00    -0.005 A 
ATOM      4  C3  UNL d   1      -0.098   1.498   0.827  0.00  0.00     0.006 A 
ATOM      5  C4  UNL d   1       0.442   2.685   0.330  0.00  0.00    -0.005 A 
ATOM      6  C5  UNL d   1       1.247   3.489   1.144  0.00  0.00    -0.074 A 
ATOM      7  C6  UNL d   1       1.828   4.772   0.629  0.00  0.00     0.077 C 
ATOM      8  C7  UNL d   1       1.498   3.089   2.463  0.00  0.00    -0.001 A 
ENDROOT
TORSDOF 0
ENDMDL
