MODEL 1
REMARK minimizedAffinity 10.9809093
REMARK minimizedRMSD -1
REMARK  0 active torsions:
REMARK  status: ('A' for Active; 'I' for Inactive)
ROOT
ATOM      1  C   UNL d   1       5.957  -4.112   1.282  0.00  0.00     0.077 C 
ATOM      2  C1  UNL d   1       4.746  -3.281   0.979  0.00  0.00    -0.074 A 
ATOM      3  C2  UNL d   1       4.684  -1.936   1.355  0.00  0.00    -0.005 A 
ATOM      4  C3  UNL d   1       3.554  -1.173   1.057  0.00  0.00     0.006 A 
ATOM      5  C4  UNL d   1       2.477  -1.748   0.381  0.00  0.00    -0.005 A 
ATOM      6  C5  UNL d   1       2.521  -3.092  -0.004  0.00  0.00    -0.074 A 
ATOM      7  C6  UNL d   1       1.377  -3.722  -0.740  0.00  0.00     0.077 C 
ATOM      8  C7  UNL d   1       3.663  -3.849   0.293  0.00  0.00    -0.001 A 
ENDROOT
TORSDOF 0
ENDMDL
