MODEL 1
REMARK minimizedAffinity 9.2036314
REMARK minimizedRMSD -1
REMARK  0 active torsions:
REMARK  status: ('A' for Active; 'I' for Inactive)
ROOT
ATOM      1  C   UNL d   1       1.468  -4.376  -1.147  0.00  0.00     0.077 C 
ATOM      2  C1  UNL d   1       2.606  -3.749  -0.399  0.00  0.00    -0.074 A 
ATOM      3  C2  UNL d   1       2.557  -2.407  -0.009  0.00  0.00    -0.005 A 
ATOM      4  C3  UNL d   1       3.619  -1.839   0.694  0.00  0.00     0.006 A 
ATOM      5  C4  UNL d   1       4.740  -2.607   1.014  0.00  0.00    -0.005 A 
ATOM      6  C5  UNL d   1       4.806  -3.951   0.633  0.00  0.00    -0.074 A 
ATOM      7  C6  UNL d   1       5.999  -4.792   0.978  0.00  0.00     0.077 C 
ATOM      8  C7  UNL d   1       3.732  -4.515  -0.067  0.00  0.00    -0.001 A 
ENDROOT
TORSDOF 0
ENDMDL
