MODEL 1
REMARK minimizedAffinity 15.0160961
REMARK minimizedRMSD -1
REMARK  0 active torsions:
REMARK  status: ('A' for Active; 'I' for Inactive)
ROOT
ATOM      1  C   UNL d   1      -5.332  -3.682   5.843  0.00  0.00     0.077 C 
ATOM      2  C1  UNL d   1      -5.550  -4.153   4.436  0.00  0.00    -0.074 A 
ATOM      3  C2  UNL d   1      -5.787  -5.503   4.158  0.00  0.00    -0.005 A 
ATOM      4  C3  UNL d   1      -5.997  -5.924   2.845  0.00  0.00     0.006 A 
ATOM      5  C4  UNL d   1      -5.972  -5.002   1.799  0.00  0.00    -0.005 A 
ATOM      6  C5  UNL d   1      -5.738  -3.648   2.057  0.00  0.00    -0.074 A 
ATOM      7  C6  UNL d   1      -5.718  -2.641   0.945  0.00  0.00     0.077 C 
ATOM      8  C7  UNL d   1      -5.535  -3.231   3.380  0.00  0.00    -0.001 A 
ENDROOT
TORSDOF 0
ENDMDL
