MODEL 1
REMARK minimizedAffinity 7.80071449
REMARK minimizedRMSD -1
REMARK  0 active torsions:
REMARK  status: ('A' for Active; 'I' for Inactive)
ROOT
ATOM      1  C   UNL d   1      -5.894  -2.312   1.424  0.00  0.00     0.077 C 
ATOM      2  C1  UNL d   1      -5.936  -3.570   2.240  0.00  0.00    -0.074 A 
ATOM      3  C2  UNL d   1      -5.953  -4.826   1.623  0.00  0.00    -0.005 A 
ATOM      4  C3  UNL d   1      -5.982  -5.988   2.395  0.00  0.00     0.006 A 
ATOM      5  C4  UNL d   1      -5.996  -5.906   3.788  0.00  0.00    -0.005 A 
ATOM      6  C5  UNL d   1      -5.979  -4.659   4.422  0.00  0.00    -0.074 A 
ATOM      7  C6  UNL d   1      -5.983  -4.554   5.918  0.00  0.00     0.077 C 
ATOM      8  C7  UNL d   1      -5.942  -3.497   3.640  0.00  0.00    -0.001 A 
ENDROOT
TORSDOF 0
ENDMDL
