MODEL 1
REMARK minimizedAffinity 8.01083946
REMARK minimizedRMSD -1
REMARK  0 active torsions:
REMARK  status: ('A' for Active; 'I' for Inactive)
ROOT
ATOM      1  C   UNL d   1       5.853  -5.713   1.333  0.00  0.00     0.077 C 
ATOM      2  C1  UNL d   1       4.888  -4.853   0.572  0.00  0.00    -0.074 A 
ATOM      3  C2  UNL d   1       4.470  -5.208  -0.715  0.00  0.00    -0.005 A 
ATOM      4  C3  UNL d   1       3.565  -4.403  -1.407  0.00  0.00     0.006 A 
ATOM      5  C4  UNL d   1       3.069  -3.238  -0.820  0.00  0.00    -0.005 A 
ATOM      6  C5  UNL d   1       3.475  -2.868   0.466  0.00  0.00    -0.074 A 
ATOM      7  C6  UNL d   1       2.945  -1.624   1.115  0.00  0.00     0.077 C 
ATOM      8  C7  UNL d   1       4.380  -3.685   1.158  0.00  0.00    -0.001 A 
ENDROOT
TORSDOF 0
ENDMDL
