MODEL 1
REMARK minimizedAffinity 13.9926004
REMARK minimizedRMSD -1
REMARK  0 active torsions:
REMARK  status: ('A' for Active; 'I' for Inactive)
ROOT
ATOM      1  C   UNL d   1       0.062   1.515   1.388  0.00  0.00     0.077 C 
ATOM      2  C1  UNL d   1       0.062   2.306   0.114  0.00  0.00    -0.074 A 
ATOM      3  C2  UNL d   1       0.953   3.368  -0.072  0.00  0.00    -0.005 A 
ATOM      4  C3  UNL d   1       0.948   4.088  -1.267  0.00  0.00     0.006 A 
ATOM      5  C4  UNL d   1       0.054   3.755  -2.285  0.00  0.00    -0.005 A 
ATOM      6  C5  UNL d   1      -0.844   2.696  -2.116  0.00  0.00    -0.074 A 
ATOM      7  C6  UNL d   1      -1.805   2.319  -3.204  0.00  0.00     0.077 C 
ATOM      8  C7  UNL d   1      -0.828   1.972  -0.916  0.00  0.00    -0.001 A 
ENDROOT
TORSDOF 0
ENDMDL
