MODEL 1
REMARK minimizedAffinity 3.17777705
REMARK minimizedRMSD -1
REMARK  0 active torsions:
REMARK  status: ('A' for Active; 'I' for Inactive)
ROOT
ATOM      1  C   UNL d   1      -4.336  -3.926   3.377  0.00  0.00     0.077 C 
ATOM      2  C1  UNL d   1      -3.158  -3.756   4.290  0.00  0.00    -0.074 A 
ATOM      3  C2  UNL d   1      -3.066  -2.655   5.147  0.00  0.00    -0.005 A 
ATOM      4  C3  UNL d   1      -1.969  -2.516   5.997  0.00  0.00     0.006 A 
ATOM      5  C4  UNL d   1      -0.956  -3.475   6.000  0.00  0.00    -0.005 A 
ATOM      6  C5  UNL d   1      -1.032  -4.584   5.151  0.00  0.00    -0.074 A 
ATOM      7  C6  UNL d   1       0.044  -5.630   5.148  0.00  0.00     0.077 C 
ATOM      8  C7  UNL d   1      -2.140  -4.720   4.304  0.00  0.00    -0.001 A 
ENDROOT
TORSDOF 0
ENDMDL
