MODEL 1
REMARK minimizedAffinity 15.4286213
REMARK minimizedRMSD -1
REMARK  0 active torsions:
REMARK  status: ('A' for Active; 'I' for Inactive)
ROOT
ATOM      1  C   UNL d   1       0.614   2.961  -1.028  0.00  0.00     0.077 C 
ATOM      2  C1  UNL d   1      -0.415   2.742   0.040  0.00  0.00    -0.074 A 
ATOM      3  C2  UNL d   1      -0.236   1.760   1.020  0.00  0.00    -0.005 A 
ATOM      4  C3  UNL d   1      -1.198   1.574   2.013  0.00  0.00     0.006 A 
ATOM      5  C4  UNL d   1      -2.345   2.367   2.037  0.00  0.00    -0.005 A 
ATOM      6  C5  UNL d   1      -2.541   3.355   1.067  0.00  0.00    -0.074 A 
ATOM      7  C6  UNL d   1      -3.764   4.223   1.084  0.00  0.00     0.077 C 
ATOM      8  C7  UNL d   1      -1.567   3.540   0.076  0.00  0.00    -0.001 A 
ENDROOT
TORSDOF 0
ENDMDL
