MODEL 1
REMARK minimizedAffinity 17.6315842
REMARK minimizedRMSD -1
REMARK  0 active torsions:
REMARK  status: ('A' for Active; 'I' for Inactive)
ROOT
ATOM      1  C   UNL d   1       5.989  -4.982  -2.614  0.00  0.00     0.077 C 
ATOM      2  C1  UNL d   1       5.726  -4.884  -1.140  0.00  0.00    -0.074 A 
ATOM      3  C2  UNL d   1       5.266  -5.989  -0.417  0.00  0.00    -0.005 A 
ATOM      4  C3  UNL d   1       5.036  -5.886   0.955  0.00  0.00     0.006 A 
ATOM      5  C4  UNL d   1       5.262  -4.678   1.616  0.00  0.00    -0.005 A 
ATOM      6  C5  UNL d   1       5.723  -3.562   0.910  0.00  0.00    -0.074 A 
ATOM      7  C6  UNL d   1       5.981  -2.260   1.607  0.00  0.00     0.077 C 
ATOM      8  C7  UNL d   1       5.959  -3.676  -0.467  0.00  0.00    -0.001 A 
ENDROOT
TORSDOF 0
ENDMDL
