MODEL 1
REMARK minimizedAffinity 23.1372318
REMARK minimizedRMSD -1
REMARK  0 active torsions:
REMARK  status: ('A' for Active; 'I' for Inactive)
ROOT
ATOM      1  C   UNL d   1      -3.419   1.544   0.903  0.00  0.00     0.077 C 
ATOM      2  C1  UNL d   1      -1.993   1.991   1.036  0.00  0.00    -0.074 A 
ATOM      3  C2  UNL d   1      -1.410   2.830   0.081  0.00  0.00    -0.005 A 
ATOM      4  C3  UNL d   1      -0.086   3.245   0.224  0.00  0.00     0.006 A 
ATOM      5  C4  UNL d   1       0.667   2.826   1.321  0.00  0.00    -0.005 A 
ATOM      6  C5  UNL d   1       0.101   1.988   2.287  0.00  0.00    -0.074 A 
ATOM      7  C6  UNL d   1       0.893   1.537   3.478  0.00  0.00     0.077 C 
ATOM      8  C7  UNL d   1      -1.232   1.581   2.140  0.00  0.00    -0.001 A 
ENDROOT
TORSDOF 0
ENDMDL
