MODEL 1
REMARK minimizedAffinity 10.7961025
REMARK minimizedRMSD -1
REMARK  0 active torsions:
REMARK  status: ('A' for Active; 'I' for Inactive)
ROOT
ATOM      1  C   UNL d   1       0.292   5.185  -1.619  0.00  0.00     0.077 C 
ATOM      2  C1  UNL d   1      -0.192   3.847  -1.143  0.00  0.00    -0.074 A 
ATOM      3  C2  UNL d   1       0.261   3.308   0.066  0.00  0.00    -0.005 A 
ATOM      4  C3  UNL d   1      -0.205   2.068   0.501  0.00  0.00     0.006 A 
ATOM      5  C4  UNL d   1      -1.127   1.355  -0.267  0.00  0.00    -0.005 A 
ATOM      6  C5  UNL d   1      -1.592   1.879  -1.477  0.00  0.00    -0.074 A 
ATOM      7  C6  UNL d   1      -2.590   1.130  -2.310  0.00  0.00     0.077 C 
ATOM      8  C7  UNL d   1      -1.124   3.129  -1.904  0.00  0.00    -0.001 A 
ENDROOT
TORSDOF 0
ENDMDL
