MODEL 1
REMARK minimizedAffinity -2.26183701
REMARK minimizedRMSD -1
REMARK  0 active torsions:
REMARK  status: ('A' for Active; 'I' for Inactive)
ROOT
ATOM      1  C   UNL d   1      -0.747  -3.219  -1.646  0.00  0.00    -0.002 A 
ATOM      2  C1  UNL d   1      -0.088  -2.370  -2.525  0.00  0.00     0.010 A 
ATOM      3  C2  UNL d   1       0.384  -1.129  -2.094  0.00  0.00     0.041 A 
ATOM      4  C3  UNL d   1       0.182  -0.751  -0.752  0.00  0.00    -0.075 A 
ATOM      5  S   UNL d   1       0.673   0.721  -0.001  0.00  0.00     0.015 SA
ATOM      6  C4  UNL d   1       0.021   0.258   1.504  0.00  0.00     0.022 A 
ATOM      7  C5  UNL d   1      -0.562  -0.986   1.453  0.00  0.00     0.026 A 
ATOM      8  C6  UNL d   1      -0.478  -1.588   0.152  0.00  0.00    -0.082 A 
ATOM      9  C7  UNL d   1      -0.946  -2.840  -0.316  0.00  0.00     0.045 A 
ENDROOT
TORSDOF 0
ENDMDL
