MODEL 1
REMARK minimizedAffinity -3.46384954
REMARK minimizedRMSD -1
REMARK  0 active torsions:
REMARK  status: ('A' for Active; 'I' for Inactive)
ROOT
ATOM      1  C   UNL d   1       0.364  -0.997   0.150  0.00  0.00    -0.002 A 
ATOM      2  C1  UNL d   1      -0.326  -0.287  -0.822  0.00  0.00     0.010 A 
ATOM      3  C2  UNL d   1      -0.240   1.105  -0.880  0.00  0.00     0.041 A 
ATOM      4  C3  UNL d   1       0.560   1.778   0.064  0.00  0.00    -0.075 A 
ATOM      5  S   UNL d   1       0.816   3.479   0.186  0.00  0.00     0.015 SA
ATOM      6  C4  UNL d   1       1.848   3.303   1.531  0.00  0.00     0.022 A 
ATOM      7  C5  UNL d   1       2.005   1.986   1.892  0.00  0.00     0.026 A 
ATOM      8  C6  UNL d   1       1.265   1.085   1.052  0.00  0.00    -0.082 A 
ATOM      9  C7  UNL d   1       1.157  -0.326   1.085  0.00  0.00     0.045 A 
ENDROOT
TORSDOF 0
ENDMDL
