MODEL 1
REMARK minimizedAffinity -2.02514815
REMARK minimizedRMSD -1
REMARK  0 active torsions:
REMARK  status: ('A' for Active; 'I' for Inactive)
ROOT
ATOM      1  C   UNL d   1      -0.601  -2.080   1.975  0.00  0.00    -0.002 A 
ATOM      2  C1  UNL d   1      -0.016  -2.994   1.111  0.00  0.00     0.010 A 
ATOM      3  C2  UNL d   1       0.419  -2.597  -0.155  0.00  0.00     0.041 A 
ATOM      4  C3  UNL d   1       0.255  -1.252  -0.541  0.00  0.00    -0.075 A 
ATOM      5  S   UNL d   1       0.713  -0.539  -2.042  0.00  0.00     0.015 SA
ATOM      6  C4  UNL d   1       0.144   0.997  -1.572  0.00  0.00     0.022 A 
ATOM      7  C5  UNL d   1      -0.386   0.984  -0.303  0.00  0.00     0.026 A 
ATOM      8  C6  UNL d   1      -0.330  -0.313   0.312  0.00  0.00    -0.082 A 
ATOM      9  C7  UNL d   1      -0.762  -0.746   1.589  0.00  0.00     0.045 A 
ENDROOT
TORSDOF 0
ENDMDL
