MODEL 1
REMARK minimizedAffinity -0.931114614
REMARK minimizedRMSD -1
REMARK  0 active torsions:
REMARK  status: ('A' for Active; 'I' for Inactive)
ROOT
ATOM      1  C   UNL d   1       2.334   2.715  -0.219  0.00  0.00    -0.002 A 
ATOM      2  C1  UNL d   1       1.490   3.374   0.664  0.00  0.00     0.010 A 
ATOM      3  C2  UNL d   1       0.352   2.740   1.165  0.00  0.00     0.041 A 
ATOM      4  C3  UNL d   1       0.074   1.419   0.762  0.00  0.00    -0.075 A 
ATOM      5  S   UNL d   1      -1.262   0.443   1.248  0.00  0.00     0.015 SA
ATOM      6  C4  UNL d   1      -0.743  -0.872   0.296  0.00  0.00     0.022 A 
ATOM      7  C5  UNL d   1       0.419  -0.591  -0.383  0.00  0.00     0.026 A 
ATOM      8  C6  UNL d   1       0.909   0.734  -0.125  0.00  0.00    -0.082 A 
ATOM      9  C7  UNL d   1       2.055   1.404  -0.617  0.00  0.00     0.045 A 
ENDROOT
TORSDOF 0
ENDMDL
