MODEL 1
REMARK minimizedAffinity -3.47194862
REMARK minimizedRMSD -1
REMARK  0 active torsions:
REMARK  status: ('A' for Active; 'I' for Inactive)
ROOT
ATOM      1  C   UNL d   1       1.619   2.822   0.456  0.00  0.00    -0.002 A 
ATOM      2  C1  UNL d   1       0.484   2.843  -0.342  0.00  0.00     0.010 A 
ATOM      3  C2  UNL d   1      -0.278   1.687  -0.524  0.00  0.00     0.041 A 
ATOM      4  C3  UNL d   1       0.123   0.499   0.117  0.00  0.00    -0.075 A 
ATOM      5  S   UNL d   1      -0.656  -1.038   0.039  0.00  0.00     0.015 SA
ATOM      6  C4  UNL d   1       0.499  -1.758   1.065  0.00  0.00     0.022 A 
ATOM      7  C5  UNL d   1       1.463  -0.863   1.465  0.00  0.00     0.026 A 
ATOM      8  C6  UNL d   1       1.261   0.453   0.926  0.00  0.00    -0.082 A 
ATOM      9  C7  UNL d   1       2.013   1.641   1.091  0.00  0.00     0.045 A 
ENDROOT
TORSDOF 0
ENDMDL
