MODEL 1
REMARK minimizedAffinity -2.24253869
REMARK minimizedRMSD -1
REMARK  0 active torsions:
REMARK  status: ('A' for Active; 'I' for Inactive)
ROOT
ATOM      1  C   UNL d   1      -0.467  -3.028  -1.911  0.00  0.00    -0.002 A 
ATOM      2  C1  UNL d   1      -1.053  -3.434  -0.721  0.00  0.00     0.010 A 
ATOM      3  C2  UNL d   1      -1.259  -2.522   0.316  0.00  0.00     0.041 A 
ATOM      4  C3  UNL d   1      -0.864  -1.182   0.134  0.00  0.00    -0.075 A 
ATOM      5  S   UNL d   1      -1.019   0.110   1.265  0.00  0.00     0.015 SA
ATOM      6  C4  UNL d   1      -0.312   1.232   0.194  0.00  0.00     0.022 A 
ATOM      7  C5  UNL d   1       0.040   0.652  -1.002  0.00  0.00     0.026 A 
ATOM      8  C6  UNL d   1      -0.273  -0.749  -1.056  0.00  0.00    -0.082 A 
ATOM      9  C7  UNL d   1      -0.077  -1.698  -2.088  0.00  0.00     0.045 A 
ENDROOT
TORSDOF 0
ENDMDL
