MODEL 1
REMARK minimizedAffinity -4.05738926
REMARK minimizedRMSD -1
REMARK  0 active torsions:
REMARK  status: ('A' for Active; 'I' for Inactive)
ROOT
ATOM      1  C   UNL d   1      -0.012  -3.698  -1.141  0.00  0.00    -0.002 A 
ATOM      2  C1  UNL d   1      -0.776  -4.008  -0.025  0.00  0.00     0.010 A 
ATOM      3  C2  UNL d   1      -1.217  -3.000   0.836  0.00  0.00     0.041 A 
ATOM      4  C3  UNL d   1      -0.876  -1.663   0.552  0.00  0.00    -0.075 A 
ATOM      5  S   UNL d   1      -1.306  -0.265   1.463  0.00  0.00     0.015 SA
ATOM      6  C4  UNL d   1      -0.487   0.777   0.392  0.00  0.00     0.022 A 
ATOM      7  C5  UNL d   1       0.106   0.091  -0.642  0.00  0.00     0.026 A 
ATOM      8  C6  UNL d   1      -0.109  -1.326  -0.567  0.00  0.00    -0.082 A 
ATOM      9  C7  UNL d   1       0.324  -2.370  -1.420  0.00  0.00     0.045 A 
ENDROOT
TORSDOF 0
ENDMDL
