MODEL 1
REMARK minimizedAffinity 0.193958119
REMARK minimizedRMSD -1
REMARK  0 active torsions:
REMARK  status: ('A' for Active; 'I' for Inactive)
ROOT
ATOM      1  C   UNL d   1      -0.835  -1.232   0.352  0.00  0.00    -0.002 A 
ATOM      2  C1  UNL d   1      -0.108  -1.232   1.534  0.00  0.00     0.010 A 
ATOM      3  C2  UNL d   1       0.618  -0.104   1.921  0.00  0.00     0.041 A 
ATOM      4  C3  UNL d   1       0.599   1.036   1.094  0.00  0.00    -0.075 A 
ATOM      5  S   UNL d   1       1.411   2.532   1.366  0.00  0.00     0.015 SA
ATOM      6  C4  UNL d   1       0.811   3.207  -0.079  0.00  0.00     0.022 A 
ATOM      7  C5  UNL d   1       0.009   2.327  -0.765  0.00  0.00     0.026 A 
ATOM      8  C6  UNL d   1      -0.127   1.061  -0.100  0.00  0.00    -0.082 A 
ATOM      9  C7  UNL d   1      -0.852  -0.099  -0.466  0.00  0.00     0.045 A 
ENDROOT
TORSDOF 0
ENDMDL
