MODEL 1
REMARK minimizedAffinity -2.7497282
REMARK minimizedRMSD -1
REMARK  0 active torsions:
REMARK  status: ('A' for Active; 'I' for Inactive)
ROOT
ATOM      1  C   UNL d   1      -0.434  -2.508   1.236  0.00  0.00    -0.002 A 
ATOM      2  C1  UNL d   1      -0.610  -2.711  -0.126  0.00  0.00     0.010 A 
ATOM      3  C2  UNL d   1      -0.472  -1.652  -1.025  0.00  0.00     0.041 A 
ATOM      4  C3  UNL d   1      -0.148  -0.374  -0.529  0.00  0.00    -0.075 A 
ATOM      5  S   UNL d   1       0.074   1.071  -1.443  0.00  0.00     0.015 SA
ATOM      6  C4  UNL d   1       0.408   1.991  -0.048  0.00  0.00     0.022 A 
ATOM      7  C5  UNL d   1       0.356   1.230   1.096  0.00  0.00     0.026 A 
ATOM      8  C6  UNL d   1       0.035  -0.145   0.838  0.00  0.00    -0.082 A 
ATOM      9  C7  UNL d   1      -0.113  -1.239   1.724  0.00  0.00     0.045 A 
ENDROOT
TORSDOF 0
ENDMDL
