MODEL 1
REMARK minimizedAffinity -4.10563946
REMARK minimizedRMSD -1
REMARK  0 active torsions:
REMARK  status: ('A' for Active; 'I' for Inactive)
ROOT
ATOM      1  C   UNL d   1      -0.173  -3.240  -2.579  0.00  0.00    -0.002 A 
ATOM      2  C1  UNL d   1      -0.107  -1.973  -3.140  0.00  0.00     0.010 A 
ATOM      3  C2  UNL d   1      -0.052  -0.839  -2.327  0.00  0.00     0.041 A 
ATOM      4  C3  UNL d   1      -0.061  -1.001  -0.928  0.00  0.00    -0.075 A 
ATOM      5  S   UNL d   1       0.000   0.243   0.264  0.00  0.00     0.015 SA
ATOM      6  C4  UNL d   1      -0.058  -0.879   1.545  0.00  0.00     0.022 A 
ATOM      7  C5  UNL d   1      -0.124  -2.175   1.093  0.00  0.00     0.026 A 
ATOM      8  C6  UNL d   1      -0.126  -2.267  -0.340  0.00  0.00    -0.082 A 
ATOM      9  C7  UNL d   1      -0.183  -3.398  -1.190  0.00  0.00     0.045 A 
ENDROOT
TORSDOF 0
ENDMDL
