MODEL 1
REMARK minimizedAffinity -2.90794683
REMARK minimizedRMSD -1
REMARK  0 active torsions:
REMARK  status: ('A' for Active; 'I' for Inactive)
ROOT
ATOM      1  C   UNL d   1       2.146   2.956   1.276  0.00  0.00    -0.002 A 
ATOM      2  C1  UNL d   1       1.671   3.064  -0.024  0.00  0.00     0.010 A 
ATOM      3  C2  UNL d   1       1.104   1.961  -0.667  0.00  0.00     0.041 A 
ATOM      4  C3  UNL d   1       1.020   0.738   0.026  0.00  0.00    -0.075 A 
ATOM      5  S   UNL d   1       0.364  -0.745  -0.559  0.00  0.00     0.015 SA
ATOM      6  C4  UNL d   1       0.697  -1.556   0.902  0.00  0.00     0.022 A 
ATOM      7  C5  UNL d   1       1.294  -0.731   1.825  0.00  0.00     0.026 A 
ATOM      8  C6  UNL d   1       1.490   0.605   1.336  0.00  0.00    -0.082 A 
ATOM      9  C7  UNL d   1       2.060   1.741   1.960  0.00  0.00     0.045 A 
ENDROOT
TORSDOF 0
ENDMDL
