MODEL 1
REMARK minimizedAffinity -5.08447409
REMARK minimizedRMSD -1
REMARK  2 active torsions:
REMARK  status: ('A' for Active; 'I' for Inactive)
REMARK    1  A    between atoms: C2'_3  and  C1'_4 
REMARK    2  A    between atoms: C1'_4  and  C1_5 
ROOT
ATOM      1  C1  I4B d   1       0.042  -1.096  -0.900  0.00  0.00    -0.075 A 
ATOM      2  C2  I4B d   1       0.372  -2.404  -0.647  0.00  0.00     0.003 A 
ATOM      3  C3  I4B d   1      -0.348  -3.454  -1.268  0.00  0.00     0.002 A 
ATOM      4  C4  I4B d   1      -1.415  -3.153  -2.089  0.00  0.00    -0.004 A 
ATOM      5  C5  I4B d   1      -1.734  -1.825  -2.362  0.00  0.00     0.002 A 
ATOM      6  C6  I4B d   1      -0.993  -0.790  -1.774  0.00  0.00     0.003 A 
ENDROOT
BRANCH   1   7
ATOM      7  C1' I4B d   1       0.802  -0.013  -0.202  0.00  0.00     0.060 C 
BRANCH   7   8
ATOM      8  C2' I4B d   1       0.293   0.070   1.223  0.00  0.00    -0.013 C 
ATOM      9  C4' I4B d   1       1.276  -0.535   2.190  0.00  0.00     0.013 C 
ATOM     10  C3' I4B d   1       0.041   1.514   1.540  0.00  0.00     0.013 C 
ENDBRANCH   7   8
ENDBRANCH   1   7
TORSDOF 2
ENDMDL
