MODEL 1
REMARK minimizedAffinity -5.22086096
REMARK minimizedRMSD -1
REMARK  2 active torsions:
REMARK  status: ('A' for Active; 'I' for Inactive)
REMARK    1  A    between atoms: C2'_3  and  C1'_4 
REMARK    2  A    between atoms: C1'_4  and  C1_5 
ROOT
ATOM      1  C1  I4B d   1      -1.013   1.878  -0.118  0.00  0.00    -0.075 A 
ATOM      2  C2  I4B d   1      -1.504   2.715   0.852  0.00  0.00     0.003 A 
ATOM      3  C3  I4B d   1      -1.411   4.119   0.697  0.00  0.00     0.002 A 
ATOM      4  C4  I4B d   1      -0.778   4.639  -0.414  0.00  0.00    -0.004 A 
ATOM      5  C5  I4B d   1      -0.301   3.790  -1.408  0.00  0.00     0.002 A 
ATOM      6  C6  I4B d   1      -0.430   2.401  -1.266  0.00  0.00     0.003 A 
ENDROOT
BRANCH   1   7
ATOM      7  C1' I4B d   1      -1.098   0.400   0.094  0.00  0.00     0.060 C 
BRANCH   7   8
ATOM      8  C2' I4B d   1       0.314  -0.148   0.137  0.00  0.00    -0.013 C 
ATOM      9  C4' I4B d   1       0.853  -0.156   1.544  0.00  0.00     0.013 C 
ATOM     10  C3' I4B d   1       0.292  -1.531  -0.442  0.00  0.00     0.013 C 
ENDBRANCH   7   8
ENDBRANCH   1   7
TORSDOF 2
ENDMDL
