MODEL 1
REMARK minimizedAffinity 7.20554733
REMARK minimizedRMSD -1
REMARK  2 active torsions:
REMARK  status: ('A' for Active; 'I' for Inactive)
REMARK    1  A    between atoms: C2'_3  and  C1'_4 
REMARK    2  A    between atoms: C1'_4  and  C1_5 
ROOT
ATOM      1  C1  I4B d   1      -3.289   0.580  -1.438  0.00  0.00    -0.075 A 
ATOM      2  C2  I4B d   1      -2.882  -0.371  -2.340  0.00  0.00     0.003 A 
ATOM      3  C3  I4B d   1      -1.512  -0.710  -2.449  0.00  0.00     0.002 A 
ATOM      4  C4  I4B d   1      -0.583  -0.041  -1.678  0.00  0.00    -0.004 A 
ATOM      5  C5  I4B d   1      -1.000   0.907  -0.748  0.00  0.00     0.002 A 
ATOM      6  C6  I4B d   1      -2.363   1.211  -0.619  0.00  0.00     0.003 A 
ENDROOT
BRANCH   1   7
ATOM      7  C1' I4B d   1      -4.741   0.937  -1.373  0.00  0.00     0.060 C 
BRANCH   7   8
ATOM      8  C2' I4B d   1      -5.063   1.804  -2.573  0.00  0.00    -0.013 C 
ATOM      9  C4' I4B d   1      -4.539   3.204  -2.390  0.00  0.00     0.013 C 
ATOM     10  C3' I4B d   1      -4.465   1.156  -3.786  0.00  0.00     0.013 C 
ENDBRANCH   7   8
ENDBRANCH   1   7
TORSDOF 2
ENDMDL
