MODEL 1
REMARK minimizedAffinity -0.674182892
REMARK minimizedRMSD -1
REMARK  2 active torsions:
REMARK  status: ('A' for Active; 'I' for Inactive)
REMARK    1  A    between atoms: C2'_3  and  C1'_4 
REMARK    2  A    between atoms: C1'_4  and  C1_5 
ROOT
ATOM      1  C1  I4B d   1      -0.160   1.961   1.545  0.00  0.00    -0.075 A 
ATOM      2  C2  I4B d   1       0.625   3.085   1.481  0.00  0.00     0.003 A 
ATOM      3  C3  I4B d   1       0.572   3.928   0.345  0.00  0.00     0.002 A 
ATOM      4  C4  I4B d   1      -0.237   3.584  -0.719  0.00  0.00    -0.004 A 
ATOM      5  C5  I4B d   1      -1.049   2.456  -0.643  0.00  0.00     0.002 A 
ATOM      6  C6  I4B d   1      -1.020   1.646   0.501  0.00  0.00     0.003 A 
ENDROOT
BRANCH   1   7
ATOM      7  C1' I4B d   1      -0.055   1.076   2.747  0.00  0.00     0.060 C 
BRANCH   7   8
ATOM      8  C2' I4B d   1       0.163  -0.343   2.263  0.00  0.00    -0.013 C 
ATOM      9  C4' I4B d   1       1.528  -0.507   1.649  0.00  0.00     0.013 C 
ATOM     10  C3' I4B d   1      -0.019  -1.264   3.432  0.00  0.00     0.013 C 
ENDBRANCH   7   8
ENDBRANCH   1   7
TORSDOF 2
ENDMDL
