MODEL 1
REMARK minimizedAffinity -3.41828656
REMARK minimizedRMSD -1
REMARK  0 active torsions:
REMARK  status: ('A' for Active; 'I' for Inactive)
ROOT
ATOM      1  C1  BNZ d   1       5.085  -5.234  -1.812  0.00  0.00     0.000 A 
ATOM      2  C2  BNZ d   1       4.307  -5.148  -2.935  0.00  0.00     0.000 A 
ATOM      3  C3  BNZ d   1       3.737  -3.962  -3.304  0.00  0.00     0.000 A 
ATOM      4  C4  BNZ d   1       3.912  -2.873  -2.528  0.00  0.00     0.000 A 
ATOM      5  C5  BNZ d   1       4.687  -2.945  -1.387  0.00  0.00     0.000 A 
ATOM      6  C6  BNZ d   1       5.291  -4.132  -1.040  0.00  0.00     0.000 A 
ENDROOT
TORSDOF 0
ENDMDL
