MODEL 1
REMARK minimizedAffinity -0.692410052
REMARK minimizedRMSD -1
REMARK  0 active torsions:
REMARK  status: ('A' for Active; 'I' for Inactive)
ROOT
ATOM      1  C1  BNZ d   1      -1.460   4.909  -1.449  0.00  0.00     0.000 A 
ATOM      2  C2  BNZ d   1      -1.949   3.681  -1.806  0.00  0.00     0.000 A 
ATOM      3  C3  BNZ d   1      -1.331   2.534  -1.391  0.00  0.00     0.000 A 
ATOM      4  C4  BNZ d   1      -0.204   2.617  -0.654  0.00  0.00     0.000 A 
ATOM      5  C5  BNZ d   1       0.306   3.849  -0.293  0.00  0.00     0.000 A 
ATOM      6  C6  BNZ d   1      -0.341   5.000  -0.680  0.00  0.00     0.000 A 
ENDROOT
TORSDOF 0
ENDMDL
