MODEL 1
REMARK minimizedAffinity 4.36160803
REMARK minimizedRMSD -1
REMARK  0 active torsions:
REMARK  status: ('A' for Active; 'I' for Inactive)
ROOT
ATOM      1  C1  BNZ d   1       0.162   4.122  -0.039  0.00  0.00     0.000 A 
ATOM      2  C2  BNZ d   1      -0.009   3.015   0.748  0.00  0.00     0.000 A 
ATOM      3  C3  BNZ d   1      -0.392   1.821   0.203  0.00  0.00     0.000 A 
ATOM      4  C4  BNZ d   1      -0.642   1.746  -1.120  0.00  0.00     0.000 A 
ATOM      5  C5  BNZ d   1      -0.483   2.856  -1.925  0.00  0.00     0.000 A 
ATOM      6  C6  BNZ d   1      -0.060   4.046  -1.379  0.00  0.00     0.000 A 
ENDROOT
TORSDOF 0
ENDMDL
