MODEL 1
REMARK minimizedAffinity -2.47790384
REMARK minimizedRMSD -1
REMARK  0 active torsions:
REMARK  status: ('A' for Active; 'I' for Inactive)
ROOT
ATOM      1  C1  BNZ d   1       2.839  -4.524  -1.173  0.00  0.00     0.000 A 
ATOM      2  C2  BNZ d   1       3.182  -3.365  -0.530  0.00  0.00     0.000 A 
ATOM      3  C3  BNZ d   1       4.176  -2.562  -1.015  0.00  0.00     0.000 A 
ATOM      4  C4  BNZ d   1       4.852  -2.939  -2.120  0.00  0.00     0.000 A 
ATOM      5  C5  BNZ d   1       4.524  -4.109  -2.775  0.00  0.00     0.000 A 
ATOM      6  C6  BNZ d   1       3.497  -4.895  -2.305  0.00  0.00     0.000 A 
ENDROOT
TORSDOF 0
ENDMDL
