MODEL 1
REMARK minimizedAffinity -0.988132834
REMARK minimizedRMSD -1
REMARK  0 active torsions:
REMARK  status: ('A' for Active; 'I' for Inactive)
ROOT
ATOM      1  C1  BNZ d   1       5.389  -5.037  -0.651  0.00  0.00     0.000 A 
ATOM      2  C2  BNZ d   1       4.759  -5.748  -1.638  0.00  0.00     0.000 A 
ATOM      3  C3  BNZ d   1       3.777  -5.174  -2.395  0.00  0.00     0.000 A 
ATOM      4  C4  BNZ d   1       3.399  -3.905  -2.139  0.00  0.00     0.000 A 
ATOM      5  C5  BNZ d   1       4.018  -3.179  -1.142  0.00  0.00     0.000 A 
ATOM      6  C6  BNZ d   1       5.033  -3.747  -0.407  0.00  0.00     0.000 A 
ENDROOT
TORSDOF 0
ENDMDL
