MODEL 1
REMARK minimizedAffinity -2.1755774
REMARK minimizedRMSD -1
REMARK  0 active torsions:
REMARK  status: ('A' for Active; 'I' for Inactive)
ROOT
ATOM      1  C4' PXY d   1       1.030  -3.318   0.059  0.00  0.00     0.077 C 
ATOM      2  C1' PXY d   1      -0.357   2.262  -0.536  0.00  0.00     0.077 C 
ATOM      3  C1  PXY d   1       0.004   0.796  -0.393  0.00  0.00    -0.082 A 
ATOM      4  C2  PXY d   1      -0.059   0.221   0.797  0.00  0.00     0.003 A 
ATOM      5  C3  PXY d   1       0.295  -1.095   0.950  0.00  0.00     0.003 A 
ATOM      6  C4  PXY d   1       0.665  -1.844  -0.135  0.00  0.00    -0.082 A 
ATOM      7  C5  PXY d   1       0.721  -1.267  -1.354  0.00  0.00     0.003 A 
ATOM      8  C6  PXY d   1       0.398   0.081  -1.481  0.00  0.00     0.003 A 
ENDROOT
TORSDOF 0
ENDMDL
