MODEL 1
REMARK minimizedAffinity -2.17086887
REMARK minimizedRMSD -1
REMARK  0 active torsions:
REMARK  status: ('A' for Active; 'I' for Inactive)
ROOT
ATOM      1  C4' PXY d   1       0.757   1.878   0.411  0.00  0.00     0.077 C 
ATOM      2  C1' PXY d   1      -1.865  -3.257   0.823  0.00  0.00     0.077 C 
ATOM      3  C1  PXY d   1      -1.170  -1.915   0.705  0.00  0.00    -0.082 A 
ATOM      4  C2  PXY d   1      -1.126  -1.107   1.752  0.00  0.00     0.003 A 
ATOM      5  C3  PXY d   1      -0.529   0.124   1.654  0.00  0.00     0.003 A 
ATOM      6  C4  PXY d   1       0.075   0.510   0.487  0.00  0.00    -0.082 A 
ATOM      7  C5  PXY d   1       0.043  -0.314  -0.582  0.00  0.00     0.003 A 
ATOM      8  C6  PXY d   1      -0.603  -1.542  -0.474  0.00  0.00     0.003 A 
ENDROOT
TORSDOF 0
ENDMDL
