MODEL 1
REMARK minimizedAffinity -3.4814229
REMARK minimizedRMSD -1
REMARK  0 active torsions:
REMARK  status: ('A' for Active; 'I' for Inactive)
ROOT
ATOM      1  C4' PXY d   1      -2.184  -3.325   0.332  0.00  0.00     0.077 C 
ATOM      2  C1' PXY d   1       0.937   1.541   0.264  0.00  0.00     0.077 C 
ATOM      3  C1  PXY d   1       0.124   0.261   0.271  0.00  0.00    -0.082 A 
ATOM      4  C2  PXY d   1      -1.009   0.209   0.952  0.00  0.00     0.003 A 
ATOM      5  C3  PXY d   1      -1.740  -0.950   0.995  0.00  0.00     0.003 A 
ATOM      6  C4  PXY d   1      -1.335  -2.051   0.290  0.00  0.00    -0.082 A 
ATOM      7  C5  PXY d   1      -0.186  -2.002  -0.417  0.00  0.00     0.003 A 
ATOM      8  C6  PXY d   1       0.563  -0.829  -0.414  0.00  0.00     0.003 A 
ENDROOT
TORSDOF 0
ENDMDL
