MODEL 1
REMARK minimizedAffinity -1.46580744
REMARK minimizedRMSD -1
REMARK  0 active torsions:
REMARK  status: ('A' for Active; 'I' for Inactive)
ROOT
ATOM      1  C4' PXY d   1      -0.462   3.068   0.538  0.00  0.00     0.077 C 
ATOM      2  C1' PXY d   1       0.387  -2.196  -1.695  0.00  0.00     0.077 C 
ATOM      3  C1  PXY d   1       0.157  -0.820  -1.100  0.00  0.00    -0.082 A 
ATOM      4  C2  PXY d   1       0.296   0.253  -1.861  0.00  0.00     0.003 A 
ATOM      5  C3  PXY d   1       0.123   1.506  -1.331  0.00  0.00     0.003 A 
ATOM      6  C4  PXY d   1      -0.248   1.659  -0.022  0.00  0.00    -0.082 A 
ATOM      7  C5  PXY d   1      -0.403   0.568   0.758  0.00  0.00     0.003 A 
ATOM      8  C6  PXY d   1      -0.182  -0.693   0.211  0.00  0.00     0.003 A 
ENDROOT
TORSDOF 0
ENDMDL
