MODEL 1
REMARK minimizedAffinity -2.43710637
REMARK minimizedRMSD -1
REMARK  0 active torsions:
REMARK  status: ('A' for Active; 'I' for Inactive)
ROOT
ATOM      1  C4' PXY d   1      -3.329  -3.081   0.402  0.00  0.00     0.077 C 
ATOM      2  C1' PXY d   1       2.122  -1.547  -0.759  0.00  0.00     0.077 C 
ATOM      3  C1  PXY d   1       0.694  -1.959  -0.464  0.00  0.00    -0.082 A 
ATOM      4  C2  PXY d   1      -0.155  -1.071   0.027  0.00  0.00     0.003 A 
ATOM      5  C3  PXY d   1      -1.442  -1.434   0.331  0.00  0.00     0.003 A 
ATOM      6  C4  PXY d   1      -1.880  -2.707   0.079  0.00  0.00    -0.082 A 
ATOM      7  C5  PXY d   1      -1.023  -3.617  -0.432  0.00  0.00     0.003 A 
ATOM      8  C6  PXY d   1       0.291  -3.238  -0.694  0.00  0.00     0.003 A 
ENDROOT
TORSDOF 0
ENDMDL
