MODEL 1
REMARK minimizedAffinity -0.28484264
REMARK minimizedRMSD -1
REMARK  0 active torsions:
REMARK  status: ('A' for Active; 'I' for Inactive)
ROOT
ATOM      1  C4' PXY d   1      -3.276  -0.399   2.310  0.00  0.00     0.077 C 
ATOM      2  C1' PXY d   1       1.036  -2.626  -0.832  0.00  0.00     0.077 C 
ATOM      3  C1  PXY d   1      -0.103  -2.051  -0.013  0.00  0.00    -0.082 A 
ATOM      4  C2  PXY d   1      -0.049  -0.791   0.389  0.00  0.00     0.003 A 
ATOM      5  C3  PXY d   1      -1.055  -0.265   1.158  0.00  0.00     0.003 A 
ATOM      6  C4  PXY d   1      -2.153  -1.019   1.473  0.00  0.00    -0.082 A 
ATOM      7  C5  PXY d   1      -2.221  -2.301   1.057  0.00  0.00     0.003 A 
ATOM      8  C6  PXY d   1      -1.170  -2.830   0.313  0.00  0.00     0.003 A 
ENDROOT
TORSDOF 0
ENDMDL
