MODEL 1
REMARK minimizedAffinity -4.27752924
REMARK minimizedRMSD -1
REMARK  0 active torsions:
REMARK  status: ('A' for Active; 'I' for Inactive)
ROOT
ATOM      1  C4' PXY d   1      -0.138   2.440  -0.087  0.00  0.00     0.077 C 
ATOM      2  C1' PXY d   1       0.101  -3.309   0.471  0.00  0.00     0.077 C 
ATOM      3  C1  PXY d   1       0.027  -1.801   0.331  0.00  0.00    -0.082 A 
ATOM      4  C2  PXY d   1       0.663  -1.204  -0.664  0.00  0.00     0.003 A 
ATOM      5  C3  PXY d   1       0.633   0.161  -0.786  0.00  0.00     0.003 A 
ATOM      6  C4  PXY d   1      -0.099   0.919   0.088  0.00  0.00    -0.082 A 
ATOM      7  C5  PXY d   1      -0.760   0.317   1.099  0.00  0.00     0.003 A 
ATOM      8  C6  PXY d   1      -0.683  -1.067   1.230  0.00  0.00     0.003 A 
ENDROOT
TORSDOF 0
ENDMDL
