MODEL 1
REMARK minimizedAffinity -3.29039168
REMARK minimizedRMSD -1
REMARK  0 active torsions:
REMARK  status: ('A' for Active; 'I' for Inactive)
ROOT
ATOM      1  C4' PXY d   1       0.155   2.865   0.298  0.00  0.00     0.077 C 
ATOM      2  C1' PXY d   1      -0.370  -2.877   0.704  0.00  0.00     0.077 C 
ATOM      3  C1  PXY d   1      -0.223  -1.373   0.588  0.00  0.00    -0.082 A 
ATOM      4  C2  PXY d   1      -0.523  -0.605   1.623  0.00  0.00     0.003 A 
ATOM      5  C3  PXY d   1      -0.427   0.759   1.525  0.00  0.00     0.003 A 
ATOM      6  C4  PXY d   1       0.031   1.341   0.373  0.00  0.00    -0.082 A 
ATOM      7  C5  PXY d   1       0.349   0.563  -0.684  0.00  0.00     0.003 A 
ATOM      8  C6  PXY d   1       0.206  -0.817  -0.578  0.00  0.00     0.003 A 
ENDROOT
TORSDOF 0
ENDMDL
