MODEL 1
REMARK minimizedAffinity -4.26856232
REMARK minimizedRMSD -1
REMARK  0 active torsions:
REMARK  status: ('A' for Active; 'I' for Inactive)
ROOT
ATOM      1  C4' PXY d   1      -3.756  -3.333   1.176  0.00  0.00     0.077 C 
ATOM      2  C1' PXY d   1       0.988  -0.267  -0.054  0.00  0.00     0.077 C 
ATOM      3  C1  PXY d   1      -0.253  -1.079   0.258  0.00  0.00    -0.082 A 
ATOM      4  C2  PXY d   1      -1.267  -0.509   0.889  0.00  0.00     0.003 A 
ATOM      5  C3  PXY d   1      -2.384  -1.237   1.208  0.00  0.00     0.003 A 
ATOM      6  C4  PXY d   1      -2.486  -2.549   0.831  0.00  0.00    -0.082 A 
ATOM      7  C5  PXY d   1      -1.461  -3.136   0.178  0.00  0.00     0.003 A 
ATOM      8  C6  PXY d   1      -0.319  -2.390  -0.100  0.00  0.00     0.003 A 
ENDROOT
TORSDOF 0
ENDMDL
