MODEL 1
REMARK minimizedAffinity -4.95672512
REMARK minimizedRMSD -1
REMARK  0 active torsions:
REMARK  status: ('A' for Active; 'I' for Inactive)
ROOT
ATOM      1  C4' PXY d   1      -0.072   1.507  -0.011  0.00  0.00     0.077 C 
ATOM      2  C1' PXY d   1      -0.108  -4.268   0.239  0.00  0.00     0.077 C 
ATOM      3  C1  PXY d   1      -0.109  -2.753   0.180  0.00  0.00    -0.082 A 
ATOM      4  C2  PXY d   1       0.537  -2.135  -0.795  0.00  0.00     0.003 A 
ATOM      5  C3  PXY d   1       0.572  -0.765  -0.845  0.00  0.00     0.003 A 
ATOM      6  C4  PXY d   1      -0.105  -0.021   0.083  0.00  0.00    -0.082 A 
ATOM      7  C5  PXY d   1      -0.775  -0.644   1.075  0.00  0.00     0.003 A 
ATOM      8  C6  PXY d   1      -0.765  -2.034   1.132  0.00  0.00     0.003 A 
ENDROOT
TORSDOF 0
ENDMDL
