MODEL 1
REMARK minimizedAffinity -4.34934092
REMARK minimizedRMSD -1
REMARK  0 active torsions:
REMARK  status: ('A' for Active; 'I' for Inactive)
ROOT
ATOM      1  C4' PXY d   1       0.490   2.150   0.371  0.00  0.00     0.077 C 
ATOM      2  C1' PXY d   1      -0.027  -3.606   0.252  0.00  0.00     0.077 C 
ATOM      3  C1  PXY d   1       0.098  -2.096   0.290  0.00  0.00    -0.082 A 
ATOM      4  C2  PXY d   1       0.761  -1.469  -0.668  0.00  0.00     0.003 A 
ATOM      5  C3  PXY d   1       0.911  -0.107  -0.632  0.00  0.00     0.003 A 
ATOM      6  C4  PXY d   1       0.331   0.627   0.368  0.00  0.00    -0.082 A 
ATOM      7  C5  PXY d   1      -0.356  -0.003   1.344  0.00  0.00     0.003 A 
ATOM      8  C6  PXY d   1      -0.462  -1.391   1.311  0.00  0.00     0.003 A 
ENDROOT
TORSDOF 0
ENDMDL
