MODEL 1
REMARK minimizedAffinity -4.33673096
REMARK minimizedRMSD -1
REMARK  0 active torsions:
REMARK  status: ('A' for Active; 'I' for Inactive)
ROOT
ATOM      1  C4' PXY d   1      -0.002  -4.646  -0.404  0.00  0.00     0.077 C 
ATOM      2  C1' PXY d   1      -1.047   0.975   0.448  0.00  0.00     0.077 C 
ATOM      3  C1  PXY d   1      -0.777  -0.501   0.237  0.00  0.00    -0.082 A 
ATOM      4  C2  PXY d   1       0.152  -0.880  -0.625  0.00  0.00     0.003 A 
ATOM      5  C3  PXY d   1       0.386  -2.212  -0.852  0.00  0.00     0.003 A 
ATOM      6  C4  PXY d   1      -0.301  -3.166  -0.151  0.00  0.00    -0.082 A 
ATOM      7  C5  PXY d   1      -1.244  -2.787   0.738  0.00  0.00     0.003 A 
ATOM      8  C6  PXY d   1      -1.495  -1.431   0.924  0.00  0.00     0.003 A 
ENDROOT
TORSDOF 0
ENDMDL
