MODEL 1
REMARK minimizedAffinity -4.62873888
REMARK minimizedRMSD -1
REMARK  0 active torsions:
REMARK  status: ('A' for Active; 'I' for Inactive)
ROOT
ATOM      1  C4' PXY d   1       0.031   1.870   0.278  0.00  0.00     0.077 C 
ATOM      2  C1' PXY d   1       0.064  -3.872  -0.386  0.00  0.00     0.077 C 
ATOM      3  C1  PXY d   1       0.043  -2.367  -0.207  0.00  0.00    -0.082 A 
ATOM      4  C2  PXY d   1       0.832  -1.608  -0.951  0.00  0.00     0.003 A 
ATOM      5  C3  PXY d   1       0.850  -0.248  -0.780  0.00  0.00     0.003 A 
ATOM      6  C4  PXY d   1       0.012   0.347   0.125  0.00  0.00    -0.082 A 
ATOM      7  C5  PXY d   1      -0.804  -0.419   0.880  0.00  0.00     0.003 A 
ATOM      8  C6  PXY d   1      -0.777  -1.801   0.720  0.00  0.00     0.003 A 
ENDROOT
TORSDOF 0
ENDMDL
