MODEL 1
REMARK minimizedAffinity -3.83682942
REMARK minimizedRMSD -1
REMARK  0 active torsions:
REMARK  status: ('A' for Active; 'I' for Inactive)
ROOT
ATOM      1  C4' PXY d   1       0.224   2.245  -0.397  0.00  0.00     0.077 C 
ATOM      2  C1' PXY d   1      -0.923  -3.320   0.663  0.00  0.00     0.077 C 
ATOM      3  C1  PXY d   1      -0.634  -1.858   0.389  0.00  0.00    -0.082 A 
ATOM      4  C2  PXY d   1       0.318  -1.528  -0.469  0.00  0.00     0.003 A 
ATOM      5  C3  PXY d   1       0.614  -0.210  -0.705  0.00  0.00     0.003 A 
ATOM      6  C4  PXY d   1      -0.108   0.781  -0.097  0.00  0.00    -0.082 A 
ATOM      7  C5  PXY d   1      -1.088   0.453   0.772  0.00  0.00     0.003 A 
ATOM      8  C6  PXY d   1      -1.345  -0.890   1.029  0.00  0.00     0.003 A 
ENDROOT
TORSDOF 0
ENDMDL
