MODEL 1
REMARK minimizedAffinity -3.89443707
REMARK minimizedRMSD -1
REMARK  0 active torsions:
REMARK  status: ('A' for Active; 'I' for Inactive)
ROOT
ATOM      1  C4' PXY d   1       0.259   1.409   0.068  0.00  0.00     0.077 C 
ATOM      2  C1' PXY d   1      -0.693  -4.290  -0.092  0.00  0.00     0.077 C 
ATOM      3  C1  PXY d   1      -0.454  -2.794  -0.042  0.00  0.00    -0.082 A 
ATOM      4  C2  PXY d   1       0.178  -2.199  -1.041  0.00  0.00     0.003 A 
ATOM      5  C3  PXY d   1       0.431  -0.852  -0.997  0.00  0.00     0.003 A 
ATOM      6  C4  PXY d   1      -0.014  -0.098   0.056  0.00  0.00    -0.082 A 
ATOM      7  C5  PXY d   1      -0.668  -0.696   1.074  0.00  0.00     0.003 A 
ATOM      8  C6  PXY d   1      -0.879  -2.071   1.029  0.00  0.00     0.003 A 
ENDROOT
TORSDOF 0
ENDMDL
