MODEL 1
REMARK minimizedAffinity -3.44664812
REMARK minimizedRMSD -1
REMARK  0 active torsions:
REMARK  status: ('A' for Active; 'I' for Inactive)
ROOT
ATOM      1  C4' PXY d   1       0.048  -4.006   0.636  0.00  0.00     0.077 C 
ATOM      2  C1' PXY d   1      -0.375   1.704  -0.155  0.00  0.00     0.077 C 
ATOM      3  C1  PXY d   1      -0.269   0.208   0.065  0.00  0.00    -0.082 A 
ATOM      4  C2  PXY d   1       0.560  -0.505  -0.680  0.00  0.00     0.003 A 
ATOM      5  C3  PXY d   1       0.646  -1.863  -0.517  0.00  0.00     0.003 A 
ATOM      6  C4  PXY d   1      -0.085  -2.492   0.455  0.00  0.00    -0.082 A 
ATOM      7  C5  PXY d   1      -0.926  -1.770   1.227  0.00  0.00     0.003 A 
ATOM      8  C6  PXY d   1      -1.029  -0.398   1.017  0.00  0.00     0.003 A 
ENDROOT
TORSDOF 0
ENDMDL
