MODEL 1
REMARK minimizedAffinity -4.47680426
REMARK minimizedRMSD -1
REMARK  0 active torsions:
REMARK  status: ('A' for Active; 'I' for Inactive)
ROOT
ATOM      1  C4' PXY d   1       0.769   2.128  -0.106  0.00  0.00     0.077 C 
ATOM      2  C1' PXY d   1      -0.796  -3.428   0.209  0.00  0.00     0.077 C 
ATOM      3  C1  PXY d   1      -0.377  -1.973   0.117  0.00  0.00    -0.082 A 
ATOM      4  C2  PXY d   1      -0.524  -1.182   1.167  0.00  0.00     0.003 A 
ATOM      5  C3  PXY d   1      -0.180   0.143   1.091  0.00  0.00     0.003 A 
ATOM      6  C4  PXY d   1       0.369   0.651  -0.056  0.00  0.00    -0.082 A 
ATOM      7  C5  PXY d   1       0.531  -0.152  -1.128  0.00  0.00     0.003 A 
ATOM      8  C6  PXY d   1       0.138  -1.484  -1.044  0.00  0.00     0.003 A 
ENDROOT
TORSDOF 0
ENDMDL
