MODEL 1
REMARK minimizedAffinity -4.34690285
REMARK minimizedRMSD -1
REMARK  0 active torsions:
REMARK  status: ('A' for Active; 'I' for Inactive)
ROOT
ATOM      1  C4' PXY d   1       0.038   2.265   0.004  0.00  0.00     0.077 C 
ATOM      2  C1' PXY d   1      -0.074  -3.507   0.302  0.00  0.00     0.077 C 
ATOM      3  C1  PXY d   1      -0.057  -1.993   0.228  0.00  0.00    -0.082 A 
ATOM      4  C2  PXY d   1       0.779  -1.388  -0.599  0.00  0.00     0.003 A 
ATOM      5  C3  PXY d   1       0.830  -0.019  -0.655  0.00  0.00     0.003 A 
ATOM      6  C4  PXY d   1      -0.021   0.738   0.105  0.00  0.00    -0.082 A 
ATOM      7  C5  PXY d   1      -0.884   0.128   0.944  0.00  0.00     0.003 A 
ATOM      8  C6  PXY d   1      -0.892  -1.262   1.016  0.00  0.00     0.003 A 
ENDROOT
TORSDOF 0
ENDMDL
