MODEL 1
REMARK minimizedAffinity -4.3731041
REMARK minimizedRMSD -1
REMARK  0 active torsions:
REMARK  status: ('A' for Active; 'I' for Inactive)
ROOT
ATOM      1  C4' PXY d   1      -0.057   1.872  -0.150  0.00  0.00     0.077 C 
ATOM      2  C1' PXY d   1      -0.238  -3.906  -0.158  0.00  0.00     0.077 C 
ATOM      3  C1  PXY d   1      -0.181  -2.391  -0.164  0.00  0.00    -0.082 A 
ATOM      4  C2  PXY d   1      -0.691  -1.713   0.851  0.00  0.00     0.003 A 
ATOM      5  C3  PXY d   1      -0.676  -0.342   0.847  0.00  0.00     0.003 A 
ATOM      6  C4  PXY d   1      -0.085   0.341  -0.182  0.00  0.00    -0.082 A 
ATOM      7  C5  PXY d   1       0.448  -0.344  -1.216  0.00  0.00     0.003 A 
ATOM      8  C6  PXY d   1       0.385  -1.734  -1.212  0.00  0.00     0.003 A 
ENDROOT
TORSDOF 0
ENDMDL
