MODEL 1
REMARK minimizedAffinity 4.45867682
REMARK minimizedRMSD -1
REMARK  0 active torsions:
REMARK  status: ('A' for Active; 'I' for Inactive)
ROOT
ATOM      1  C   UNL d   1       1.285  -4.784   4.447  0.00  0.00    -0.002 A 
ATOM      2  C1  UNL d   1       2.623  -5.024   4.730  0.00  0.00     0.010 A 
ATOM      3  C2  UNL d   1       3.598  -4.081   4.402  0.00  0.00     0.041 A 
ATOM      4  C3  UNL d   1       3.204  -2.880   3.779  0.00  0.00    -0.075 A 
ATOM      5  S   UNL d   1       4.224  -1.580   3.287  0.00  0.00     0.015 SA
ATOM      6  C4  UNL d   1       2.909  -0.676   2.690  0.00  0.00     0.022 A 
ATOM      7  C5  UNL d   1       1.713  -1.334   2.854  0.00  0.00     0.026 A 
ATOM      8  C6  UNL d   1       1.863  -2.615   3.485  0.00  0.00    -0.082 A 
ATOM      9  C7  UNL d   1       0.898  -3.592   3.830  0.00  0.00     0.045 A 
ENDROOT
TORSDOF 0
ENDMDL
