MODEL 1
REMARK minimizedAffinity -1.40273547
REMARK minimizedRMSD -1
REMARK  0 active torsions:
REMARK  status: ('A' for Active; 'I' for Inactive)
ROOT
ATOM      1  C   UNL d   1       1.818  -5.484   2.408  0.00  0.00    -0.002 A 
ATOM      2  C1  UNL d   1       1.407  -5.174   1.119  0.00  0.00     0.010 A 
ATOM      3  C2  UNL d   1       1.109  -3.857   0.766  0.00  0.00     0.041 A 
ATOM      4  C3  UNL d   1       1.233  -2.846   1.739  0.00  0.00    -0.075 A 
ATOM      5  S   UNL d   1       0.923  -1.162   1.535  0.00  0.00     0.015 SA
ATOM      6  C4  UNL d   1       1.330  -0.814   3.153  0.00  0.00     0.022 A 
ATOM      7  C5  UNL d   1       1.696  -1.943   3.847  0.00  0.00     0.026 A 
ATOM      8  C6  UNL d   1       1.647  -3.133   3.043  0.00  0.00    -0.082 A 
ATOM      9  C7  UNL d   1       1.941  -4.478   3.370  0.00  0.00     0.045 A 
ENDROOT
TORSDOF 0
ENDMDL
