MODEL 1
REMARK minimizedAffinity 9.22101307
REMARK minimizedRMSD -1
REMARK  0 active torsions:
REMARK  status: ('A' for Active; 'I' for Inactive)
ROOT
ATOM      1  C   UNL d   1       2.047  -2.119   2.991  0.00  0.00    -0.002 A 
ATOM      2  C1  UNL d   1       3.259  -2.310   3.638  0.00  0.00     0.010 A 
ATOM      3  C2  UNL d   1       3.432  -3.376   4.523  0.00  0.00     0.041 A 
ATOM      4  C3  UNL d   1       2.356  -4.257   4.747  0.00  0.00    -0.075 A 
ATOM      5  S   UNL d   1       2.337  -5.633   5.786  0.00  0.00     0.015 SA
ATOM      6  C4  UNL d   1       0.719  -6.000   5.395  0.00  0.00     0.022 A 
ATOM      7  C5  UNL d   1       0.191  -5.105   4.495  0.00  0.00     0.026 A 
ATOM      8  C6  UNL d   1       1.125  -4.087   4.106  0.00  0.00    -0.082 A 
ATOM      9  C7  UNL d   1       0.981  -2.996   3.215  0.00  0.00     0.045 A 
ENDROOT
TORSDOF 0
ENDMDL
