MODEL 1
REMARK minimizedAffinity 11.9076595
REMARK minimizedRMSD -1
REMARK  0 active torsions:
REMARK  status: ('A' for Active; 'I' for Inactive)
ROOT
ATOM      1  C   UNL d   1       3.032   2.102   2.832  0.00  0.00    -0.002 A 
ATOM      2  C1  UNL d   1       2.823   2.228   1.466  0.00  0.00     0.010 A 
ATOM      3  C2  UNL d   1       2.268   1.178   0.732  0.00  0.00     0.041 A 
ATOM      4  C3  UNL d   1       1.922  -0.013   1.401  0.00  0.00    -0.075 A 
ATOM      5  S   UNL d   1       1.229  -1.431   0.707  0.00  0.00     0.015 SA
ATOM      6  C4  UNL d   1       1.194  -2.238   2.208  0.00  0.00     0.022 A 
ATOM      7  C5  UNL d   1       1.695  -1.459   3.224  0.00  0.00     0.026 A 
ATOM      8  C6  UNL d   1       2.123  -0.164   2.776  0.00  0.00    -0.082 A 
ATOM      9  C7  UNL d   1       2.688   0.919   3.492  0.00  0.00     0.045 A 
ENDROOT
TORSDOF 0
ENDMDL
