MODEL 1
REMARK minimizedAffinity 8.62598228
REMARK minimizedRMSD -1
REMARK  0 active torsions:
REMARK  status: ('A' for Active; 'I' for Inactive)
ROOT
ATOM      1  C   UNL d   1       0.675  -2.335   1.527  0.00  0.00    -0.002 A 
ATOM      2  C1  UNL d   1       1.177  -1.214   2.175  0.00  0.00     0.010 A 
ATOM      3  C2  UNL d   1       2.083  -1.350   3.228  0.00  0.00     0.041 A 
ATOM      4  C3  UNL d   1       2.482  -2.642   3.623  0.00  0.00    -0.075 A 
ATOM      5  S   UNL d   1       3.581  -3.050   4.886  0.00  0.00     0.015 SA
ATOM      6  C4  UNL d   1       3.411  -4.721   4.595  0.00  0.00     0.022 A 
ATOM      7  C5  UNL d   1       2.541  -4.979   3.563  0.00  0.00     0.026 A 
ATOM      8  C6  UNL d   1       1.991  -3.785   2.985  0.00  0.00    -0.082 A 
ATOM      9  C7  UNL d   1       1.073  -3.615   1.921  0.00  0.00     0.045 A 
ENDROOT
TORSDOF 0
ENDMDL
