MODEL 1
REMARK minimizedAffinity 8.72161293
REMARK minimizedRMSD -1
REMARK  0 active torsions:
REMARK  status: ('A' for Active; 'I' for Inactive)
ROOT
ATOM      1  C   UNL d   1       1.407  -1.539   4.505  0.00  0.00    -0.002 A 
ATOM      2  C1  UNL d   1       1.814  -1.393   3.186  0.00  0.00     0.010 A 
ATOM      3  C2  UNL d   1       3.153  -1.570   2.832  0.00  0.00     0.041 A 
ATOM      4  C3  UNL d   1       4.085  -1.900   3.835  0.00  0.00    -0.075 A 
ATOM      5  S   UNL d   1       5.777  -2.165   3.635  0.00  0.00     0.015 SA
ATOM      6  C4  UNL d   1       6.000  -2.479   5.295  0.00  0.00     0.022 A 
ATOM      7  C5  UNL d   1       4.823  -2.388   6.000  0.00  0.00     0.026 A 
ATOM      8  C6  UNL d   1       3.700  -2.053   5.170  0.00  0.00    -0.082 A 
ATOM      9  C7  UNL d   1       2.335  -1.867   5.497  0.00  0.00     0.045 A 
ENDROOT
TORSDOF 0
ENDMDL
