MODEL 1
REMARK minimizedAffinity -5.44216442
REMARK minimizedRMSD -1
REMARK  1 active torsions:
REMARK  status: ('A' for Active; 'I' for Inactive)
REMARK    1  A    between atoms: C3_4  and  O_7 
ROOT
ATOM      1  C   UNL d   1       1.920  -1.366   2.533  0.00  0.00    -0.033 A 
ATOM      2  C1  UNL d   1       2.545  -1.409   1.285  0.00  0.00     0.039 A 
ATOM      3  C2  UNL d   1       1.866  -0.969   0.147  0.00  0.00    -0.080 A 
ATOM      4  C3  UNL d   1       0.566  -0.488   0.270  0.00  0.00     0.150 A 
ATOM      5  C4  UNL d   1      -0.061  -0.438   1.511  0.00  0.00    -0.007 A 
ATOM      6  C5  UNL d   1       0.617  -0.880   2.646  0.00  0.00     0.039 A 
ENDROOT
BRANCH   4   7
ATOM      7  O   UNL d   1      -0.138  -0.051  -0.813  0.00  0.00    -0.526 OA
ATOM      8  H5  UNL d   1       0.411  -0.171  -1.606  0.00  0.00     0.418 HD
ENDBRANCH   4   7
TORSDOF 1
ENDMDL
