MODEL 1
REMARK minimizedAffinity -4.56343555
REMARK minimizedRMSD -1
REMARK  1 active torsions:
REMARK  status: ('A' for Active; 'I' for Inactive)
REMARK    1  A    between atoms: C3_4  and  O_7 
ROOT
ATOM      1  C   UNL d   1       1.459  -0.719   2.719  0.00  0.00    -0.033 A 
ATOM      2  C1  UNL d   1       2.264  -0.427   1.617  0.00  0.00     0.039 A 
ATOM      3  C2  UNL d   1       1.682  -0.076   0.398  0.00  0.00    -0.080 A 
ATOM      4  C3  UNL d   1       0.295  -0.019   0.294  0.00  0.00     0.150 A 
ATOM      5  C4  UNL d   1      -0.514  -0.305   1.389  0.00  0.00    -0.007 A 
ATOM      6  C5  UNL d   1       0.069  -0.657   2.606  0.00  0.00     0.039 A 
ENDROOT
BRANCH   4   7
ATOM      7  O   UNL d   1      -0.320   0.314  -0.876  0.00  0.00    -0.526 OA
ATOM      8  H5  UNL d   1       0.363   0.457  -1.552  0.00  0.00     0.418 HD
ENDBRANCH   4   7
TORSDOF 1
ENDMDL
