MODEL 1
REMARK minimizedAffinity -4.90198469
REMARK minimizedRMSD -1
REMARK  1 active torsions:
REMARK  status: ('A' for Active; 'I' for Inactive)
REMARK    1  A    between atoms: C3_4  and  O_7 
ROOT
ATOM      1  C   UNL d   1       2.175  -1.524   2.430  0.00  0.00    -0.033 A 
ATOM      2  C1  UNL d   1       2.638  -1.878   1.161  0.00  0.00     0.039 A 
ATOM      3  C2  UNL d   1       2.032  -1.345   0.021  0.00  0.00    -0.080 A 
ATOM      4  C3  UNL d   1       0.966  -0.461   0.164  0.00  0.00     0.150 A 
ATOM      5  C4  UNL d   1       0.502  -0.102   1.425  0.00  0.00    -0.007 A 
ATOM      6  C5  UNL d   1       1.108  -0.635   2.562  0.00  0.00     0.039 A 
ENDROOT
BRANCH   4   7
ATOM      7  O   UNL d   1       0.340   0.080  -0.919  0.00  0.00    -0.526 OA
ATOM      8  H5  UNL d   1       0.748  -0.281  -1.723  0.00  0.00     0.418 HD
ENDBRANCH   4   7
TORSDOF 1
ENDMDL
