MODEL 1
REMARK minimizedAffinity -4.93453693
REMARK minimizedRMSD -1
REMARK  1 active torsions:
REMARK  status: ('A' for Active; 'I' for Inactive)
REMARK    1  A    between atoms: C3_4  and  O_7 
ROOT
ATOM      1  C   UNL d   1       2.276  -1.453   2.497  0.00  0.00    -0.033 A 
ATOM      2  C1  UNL d   1       1.322  -0.579   3.022  0.00  0.00     0.039 A 
ATOM      3  C2  UNL d   1       0.465   0.117   2.167  0.00  0.00    -0.080 A 
ATOM      4  C3  UNL d   1       0.571  -0.071   0.792  0.00  0.00     0.150 A 
ATOM      5  C4  UNL d   1       1.516  -0.943   0.262  0.00  0.00    -0.007 A 
ATOM      6  C5  UNL d   1       2.372  -1.636   1.117  0.00  0.00     0.039 A 
ENDROOT
BRANCH   4   7
ATOM      7  O   UNL d   1      -0.241   0.589  -0.082  0.00  0.00    -0.526 OA
ATOM      8  H5  UNL d   1      -0.825   1.178   0.425  0.00  0.00     0.418 HD
ENDBRANCH   4   7
TORSDOF 1
ENDMDL
