MODEL 1
REMARK minimizedAffinity -3.90606666
REMARK minimizedRMSD -1
REMARK  1 active torsions:
REMARK  status: ('A' for Active; 'I' for Inactive)
REMARK    1  A    between atoms: C3_4  and  O_7 
ROOT
ATOM      1  C   UNL d   1       1.521  -1.305   2.765  0.00  0.00    -0.033 A 
ATOM      2  C1  UNL d   1       2.242  -1.609   1.608  0.00  0.00     0.039 A 
ATOM      3  C2  UNL d   1       1.789  -1.164   0.365  0.00  0.00    -0.080 A 
ATOM      4  C3  UNL d   1       0.617  -0.415   0.292  0.00  0.00     0.150 A 
ATOM      5  C4  UNL d   1      -0.103  -0.105   1.441  0.00  0.00    -0.007 A 
ATOM      6  C5  UNL d   1       0.350  -0.552   2.682  0.00  0.00     0.039 A 
ENDROOT
BRANCH   4   7
ATOM      7  O   UNL d   1       0.134   0.037  -0.899  0.00  0.00    -0.526 OA
ATOM      8  H5  UNL d   1       0.719  -0.277  -1.609  0.00  0.00     0.418 HD
ENDBRANCH   4   7
TORSDOF 1
ENDMDL
