MODEL 1
REMARK minimizedAffinity -5.35806084
REMARK minimizedRMSD -1
REMARK  1 active torsions:
REMARK  status: ('A' for Active; 'I' for Inactive)
REMARK    1  A    between atoms: C3_4  and  O_7 
ROOT
ATOM      1  C   UNL d   1       1.295  -0.840  -0.735  0.00  0.00    -0.033 A 
ATOM      2  C1  UNL d   1       2.375  -1.409  -0.058  0.00  0.00     0.039 A 
ATOM      3  C2  UNL d   1       2.464  -1.303   1.332  0.00  0.00    -0.080 A 
ATOM      4  C3  UNL d   1       1.468  -0.629   2.031  0.00  0.00     0.150 A 
ATOM      5  C4  UNL d   1       0.386  -0.063   1.363  0.00  0.00    -0.007 A 
ATOM      6  C5  UNL d   1       0.300  -0.168  -0.025  0.00  0.00     0.039 A 
ENDROOT
BRANCH   4   7
ATOM      7  O   UNL d   1       1.514  -0.496   3.387  0.00  0.00    -0.526 OA
ATOM      8  H5  UNL d   1       2.331  -0.911   3.709  0.00  0.00     0.418 HD
ENDBRANCH   4   7
TORSDOF 1
ENDMDL
