MODEL 1
REMARK minimizedAffinity -4.97524691
REMARK minimizedRMSD -1
REMARK  1 active torsions:
REMARK  status: ('A' for Active; 'I' for Inactive)
REMARK    1  A    between atoms: C3_4  and  O_7 
ROOT
ATOM      1  C   UNL d   1       0.523  -0.218   2.502  0.00  0.00    -0.033 A 
ATOM      2  C1  UNL d   1       0.337   0.118   1.160  0.00  0.00     0.039 A 
ATOM      3  C2  UNL d   1       1.129  -0.473   0.173  0.00  0.00    -0.080 A 
ATOM      4  C3  UNL d   1       2.101  -1.398   0.542  0.00  0.00     0.150 A 
ATOM      5  C4  UNL d   1       2.290  -1.741   1.877  0.00  0.00    -0.007 A 
ATOM      6  C5  UNL d   1       1.499  -1.149   2.860  0.00  0.00     0.039 A 
ENDROOT
BRANCH   4   7
ATOM      7  O   UNL d   1       2.902  -1.998  -0.385  0.00  0.00    -0.526 OA
ATOM      8  H5  UNL d   1       2.677  -1.643  -1.261  0.00  0.00     0.418 HD
ENDBRANCH   4   7
TORSDOF 1
ENDMDL
