MODEL 1
REMARK minimizedAffinity -5.14929724
REMARK minimizedRMSD -1
REMARK  1 active torsions:
REMARK  status: ('A' for Active; 'I' for Inactive)
REMARK    1  A    between atoms: C3_4  and  O_7 
ROOT
ATOM      1  C   UNL d   1       0.641  -0.647  -0.598  0.00  0.00    -0.033 A 
ATOM      2  C1  UNL d   1       1.813  -1.269  -0.164  0.00  0.00     0.039 A 
ATOM      3  C2  UNL d   1       2.024  -1.491   1.198  0.00  0.00    -0.080 A 
ATOM      4  C3  UNL d   1       1.056  -1.089   2.114  0.00  0.00     0.150 A 
ATOM      5  C4  UNL d   1      -0.116  -0.473   1.688  0.00  0.00    -0.007 A 
ATOM      6  C5  UNL d   1      -0.324  -0.251   0.328  0.00  0.00     0.039 A 
ENDROOT
BRANCH   4   7
ATOM      7  O   UNL d   1       1.220  -1.281   3.454  0.00  0.00    -0.526 OA
ATOM      8  H5  UNL d   1       2.088  -1.691   3.603  0.00  0.00     0.418 HD
ENDBRANCH   4   7
TORSDOF 1
ENDMDL
