MODEL 1
REMARK minimizedAffinity -5.40213013
REMARK minimizedRMSD -1
REMARK  1 active torsions:
REMARK  status: ('A' for Active; 'I' for Inactive)
REMARK    1  A    between atoms: C3_4  and  O_7 
ROOT
ATOM      1  C   UNL d   1       1.961  -1.367   2.931  0.00  0.00    -0.033 A 
ATOM      2  C1  UNL d   1       2.338  -1.814   1.663  0.00  0.00     0.039 A 
ATOM      3  C2  UNL d   1       1.664  -1.354   0.530  0.00  0.00    -0.080 A 
ATOM      4  C3  UNL d   1       0.618  -0.448   0.678  0.00  0.00     0.150 A 
ATOM      5  C4  UNL d   1       0.240   0.005   1.938  0.00  0.00    -0.007 A 
ATOM      6  C5  UNL d   1       0.913  -0.456   3.068  0.00  0.00     0.039 A 
ENDROOT
BRANCH   4   7
ATOM      7  O   UNL d   1      -0.072   0.026  -0.398  0.00  0.00    -0.526 OA
ATOM      8  H5  UNL d   1       0.281  -0.396  -1.200  0.00  0.00     0.418 HD
ENDBRANCH   4   7
TORSDOF 1
ENDMDL
