MODEL 1
REMARK minimizedAffinity -4.6297946
REMARK minimizedRMSD -1
REMARK  1 active torsions:
REMARK  status: ('A' for Active; 'I' for Inactive)
REMARK    1  A    between atoms: C3_4  and  O_7 
ROOT
ATOM      1  C   UNL d   1      -1.065   0.187   1.577  0.00  0.00    -0.033 A 
ATOM      2  C1  UNL d   1      -0.340  -0.214   2.701  0.00  0.00     0.039 A 
ATOM      3  C2  UNL d   1       0.914  -0.810   2.549  0.00  0.00    -0.080 A 
ATOM      4  C3  UNL d   1       1.430  -0.999   1.270  0.00  0.00     0.150 A 
ATOM      5  C4  UNL d   1       0.715  -0.598   0.146  0.00  0.00    -0.007 A 
ATOM      6  C5  UNL d   1      -0.537  -0.004   0.300  0.00  0.00     0.039 A 
ENDROOT
BRANCH   4   7
ATOM      7  O   UNL d   1       2.647  -1.580   1.071  0.00  0.00    -0.526 OA
ATOM      8  H5  UNL d   1       3.013  -1.831   1.936  0.00  0.00     0.418 HD
ENDBRANCH   4   7
TORSDOF 1
ENDMDL
