MODEL 1
REMARK minimizedAffinity -2.86936212
REMARK minimizedRMSD -1
REMARK  0 active torsions:
REMARK  status: ('A' for Active; 'I' for Inactive)
ROOT
ATOM      1  C   UNL d   1       0.212   0.035  -1.467  0.00  0.00     0.078 C 
ATOM      2  C1  UNL d   1      -0.028  -0.006   0.013  0.00  0.00    -0.077 A 
ATOM      3  C2  UNL d   1       0.805   0.689   0.898  0.00  0.00    -0.001 A 
ATOM      4  C3  UNL d   1       0.576   0.634   2.274  0.00  0.00     0.003 A 
ATOM      5  C4  UNL d   1      -0.485  -0.116   2.777  0.00  0.00    -0.005 A 
ATOM      6  C5  UNL d   1      -1.318  -0.813   1.904  0.00  0.00     0.003 A 
ATOM      7  C6  UNL d   1      -1.091  -0.759   0.528  0.00  0.00    -0.001 A 
ENDROOT
TORSDOF 0
ENDMDL
