MODEL 1
REMARK minimizedAffinity -5.30193806
REMARK minimizedRMSD -1
REMARK  0 active torsions:
REMARK  status: ('A' for Active; 'I' for Inactive)
ROOT
ATOM      1  C   UNL d   1       0.707   2.504   4.139  0.00  0.00     0.078 C 
ATOM      2  C1  UNL d   1      -0.034   1.397   3.451  0.00  0.00    -0.077 A 
ATOM      3  C2  UNL d   1       0.590   0.606   2.479  0.00  0.00    -0.001 A 
ATOM      4  C3  UNL d   1      -0.115  -0.415   1.840  0.00  0.00     0.003 A 
ATOM      5  C4  UNL d   1      -1.448  -0.654   2.165  0.00  0.00    -0.005 A 
ATOM      6  C5  UNL d   1      -2.079   0.129   3.130  0.00  0.00     0.003 A 
ATOM      7  C6  UNL d   1      -1.376   1.150   3.770  0.00  0.00    -0.001 A 
ENDROOT
TORSDOF 0
ENDMDL
