MODEL 1
REMARK minimizedAffinity -5.84815788
REMARK minimizedRMSD -1
REMARK  0 active torsions:
REMARK  status: ('A' for Active; 'I' for Inactive)
ROOT
ATOM      1  C   UNL d   1      -0.514  -0.102  -1.173  0.00  0.00     0.078 C 
ATOM      2  C1  UNL d   1      -1.010  -0.117   0.242  0.00  0.00    -0.077 A 
ATOM      3  C2  UNL d   1      -2.357   0.125   0.537  0.00  0.00    -0.001 A 
ATOM      4  C3  UNL d   1      -2.802   0.118   1.860  0.00  0.00     0.003 A 
ATOM      5  C4  UNL d   1      -1.907  -0.129   2.898  0.00  0.00    -0.005 A 
ATOM      6  C5  UNL d   1      -0.564  -0.368   2.615  0.00  0.00     0.003 A 
ATOM      7  C6  UNL d   1      -0.116  -0.361   1.293  0.00  0.00    -0.001 A 
ENDROOT
TORSDOF 0
ENDMDL
