MODEL 1
REMARK minimizedAffinity -4.16681957
REMARK minimizedRMSD -1
REMARK  0 active torsions:
REMARK  status: ('A' for Active; 'I' for Inactive)
ROOT
ATOM      1  C   UNL d   1      -0.673  -0.672   2.826  0.00  0.00     0.078 C 
ATOM      2  C1  UNL d   1      -0.293  -0.118   1.485  0.00  0.00    -0.077 A 
ATOM      3  C2  UNL d   1      -1.176  -0.184   0.401  0.00  0.00    -0.001 A 
ATOM      4  C3  UNL d   1      -0.805   0.327  -0.844  0.00  0.00     0.003 A 
ATOM      5  C4  UNL d   1       0.450   0.906  -1.017  0.00  0.00    -0.005 A 
ATOM      6  C5  UNL d   1       1.337   0.974   0.056  0.00  0.00     0.003 A 
ATOM      7  C6  UNL d   1       0.968   0.464   1.301  0.00  0.00    -0.001 A 
ENDROOT
TORSDOF 0
ENDMDL
