MODEL 1
REMARK minimizedAffinity -2.82407022
REMARK minimizedRMSD -1
REMARK  0 active torsions:
REMARK  status: ('A' for Active; 'I' for Inactive)
ROOT
ATOM      1  C   UNL d   1      -1.201  -0.617   3.020  0.00  0.00     0.078 C 
ATOM      2  C1  UNL d   1      -1.027  -0.429   1.542  0.00  0.00    -0.077 A 
ATOM      3  C2  UNL d   1       0.245  -0.445   0.958  0.00  0.00    -0.001 A 
ATOM      4  C3  UNL d   1       0.393  -0.258  -0.417  0.00  0.00     0.003 A 
ATOM      5  C4  UNL d   1      -0.727  -0.053  -1.220  0.00  0.00    -0.005 A 
ATOM      6  C5  UNL d   1      -1.997  -0.033  -0.647  0.00  0.00     0.003 A 
ATOM      7  C6  UNL d   1      -2.147  -0.219   0.728  0.00  0.00    -0.001 A 
ENDROOT
TORSDOF 0
ENDMDL
