MODEL 1
REMARK minimizedAffinity -1.06433749
REMARK minimizedRMSD -1
REMARK  0 active torsions:
REMARK  status: ('A' for Active; 'I' for Inactive)
ROOT
ATOM      1  C   UNL d   1      -0.718  -0.563   3.049  0.00  0.00     0.078 C 
ATOM      2  C1  UNL d   1      -0.874  -0.418   1.565  0.00  0.00    -0.077 A 
ATOM      3  C2  UNL d   1       0.222  -0.569   0.706  0.00  0.00    -0.001 A 
ATOM      4  C3  UNL d   1       0.063  -0.423  -0.673  0.00  0.00     0.003 A 
ATOM      5  C4  UNL d   1      -1.189  -0.123  -1.205  0.00  0.00    -0.005 A 
ATOM      6  C5  UNL d   1      -2.285   0.031  -0.359  0.00  0.00     0.003 A 
ATOM      7  C6  UNL d   1      -2.128  -0.116   1.021  0.00  0.00    -0.001 A 
ENDROOT
TORSDOF 0
ENDMDL
