MODEL 1
REMARK minimizedAffinity -4.8253231
REMARK minimizedRMSD -1
REMARK  0 active torsions:
REMARK  status: ('A' for Active; 'I' for Inactive)
ROOT
ATOM      1  C   UNL d   1      -1.017   0.406  -1.237  0.00  0.00     0.078 C 
ATOM      2  C1  UNL d   1      -0.784  -0.010   0.184  0.00  0.00    -0.077 A 
ATOM      3  C2  UNL d   1      -1.809  -0.591   0.942  0.00  0.00    -0.001 A 
ATOM      4  C3  UNL d   1      -1.581  -0.965   2.268  0.00  0.00     0.003 A 
ATOM      5  C4  UNL d   1      -0.330  -0.760   2.847  0.00  0.00    -0.005 A 
ATOM      6  C5  UNL d   1       0.694  -0.181   2.102  0.00  0.00     0.003 A 
ATOM      7  C6  UNL d   1       0.469   0.193   0.776  0.00  0.00    -0.001 A 
ENDROOT
TORSDOF 0
ENDMDL
