MODEL 1
REMARK minimizedAffinity -5.24858999
REMARK minimizedRMSD -1
REMARK  0 active torsions:
REMARK  status: ('A' for Active; 'I' for Inactive)
ROOT
ATOM      1  C   UNL d   1       0.018   0.492  -1.021  0.00  0.00     0.078 C 
ATOM      2  C1  UNL d   1      -0.161   0.144   0.427  0.00  0.00    -0.077 A 
ATOM      3  C2  UNL d   1       0.895   0.276   1.336  0.00  0.00    -0.001 A 
ATOM      4  C3  UNL d   1       0.717  -0.061   2.679  0.00  0.00     0.003 A 
ATOM      5  C4  UNL d   1      -0.516  -0.533   3.124  0.00  0.00    -0.005 A 
ATOM      6  C5  UNL d   1      -1.573  -0.670   2.226  0.00  0.00     0.003 A 
ATOM      7  C6  UNL d   1      -1.396  -0.334   0.883  0.00  0.00    -0.001 A 
ENDROOT
TORSDOF 0
ENDMDL
