MODEL 1
REMARK minimizedAffinity -2.49008918
REMARK minimizedRMSD -1
REMARK  0 active torsions:
REMARK  status: ('A' for Active; 'I' for Inactive)
ROOT
ATOM      1  C   UNL d   1      -0.667  -1.128   3.059  0.00  0.00     0.078 C 
ATOM      2  C1  UNL d   1      -0.371  -0.469   1.745  0.00  0.00    -0.077 A 
ATOM      3  C2  UNL d   1      -1.317  -0.461   0.712  0.00  0.00    -0.001 A 
ATOM      4  C3  UNL d   1      -1.024   0.148  -0.509  0.00  0.00     0.003 A 
ATOM      5  C4  UNL d   1       0.215   0.752  -0.710  0.00  0.00    -0.005 A 
ATOM      6  C5  UNL d   1       1.164   0.747   0.310  0.00  0.00     0.003 A 
ATOM      7  C6  UNL d   1       0.873   0.139   1.532  0.00  0.00    -0.001 A 
ENDROOT
TORSDOF 0
ENDMDL
