MODEL 1
REMARK minimizedAffinity 1.54388404
REMARK minimizedRMSD -1
REMARK  0 active torsions:
REMARK  status: ('A' for Active; 'I' for Inactive)
ROOT
ATOM      1  C   UNL d   1       3.128  -1.092   2.799  0.00  0.00     0.078 C 
ATOM      2  C1  UNL d   1       1.689  -0.774   2.522  0.00  0.00    -0.077 A 
ATOM      3  C2  UNL d   1       1.299   0.509   2.118  0.00  0.00    -0.001 A 
ATOM      4  C3  UNL d   1      -0.045   0.794   1.872  0.00  0.00     0.003 A 
ATOM      5  C4  UNL d   1      -1.011  -0.199   2.030  0.00  0.00    -0.005 A 
ATOM      6  C5  UNL d   1      -0.633  -1.477   2.434  0.00  0.00     0.003 A 
ATOM      7  C6  UNL d   1       0.711  -1.764   2.679  0.00  0.00    -0.001 A 
ENDROOT
TORSDOF 0
ENDMDL
