MODEL 1
REMARK minimizedAffinity -5.75271368
REMARK minimizedRMSD -1
REMARK  0 active torsions:
REMARK  status: ('A' for Active; 'I' for Inactive)
ROOT
ATOM      1  C   UNL d   1      -0.067   0.327  -0.641  0.00  0.00     0.078 C 
ATOM      2  C1  UNL d   1      -0.704   0.103   0.697  0.00  0.00    -0.077 A 
ATOM      3  C2  UNL d   1      -2.094   0.172   0.855  0.00  0.00    -0.001 A 
ATOM      4  C3  UNL d   1      -2.673  -0.030   2.109  0.00  0.00     0.003 A 
ATOM      5  C4  UNL d   1      -1.870  -0.301   3.215  0.00  0.00    -0.005 A 
ATOM      6  C5  UNL d   1      -0.486  -0.369   3.068  0.00  0.00     0.003 A 
ATOM      7  C6  UNL d   1       0.095  -0.168   1.815  0.00  0.00    -0.001 A 
ENDROOT
TORSDOF 0
ENDMDL
