MODEL 1
REMARK minimizedAffinity -5.32942963
REMARK minimizedRMSD -1
REMARK  0 active torsions:
REMARK  status: ('A' for Active; 'I' for Inactive)
ROOT
ATOM      1  C   UNL d   1       4.338   0.675  -3.691  0.00  0.00     0.078 C 
ATOM      2  C1  UNL d   1       3.062  -0.112  -3.652  0.00  0.00    -0.077 A 
ATOM      3  C2  UNL d   1       1.853   0.492  -3.285  0.00  0.00    -0.001 A 
ATOM      4  C3  UNL d   1       0.675  -0.255  -3.243  0.00  0.00     0.003 A 
ATOM      5  C4  UNL d   1       0.695  -1.611  -3.566  0.00  0.00    -0.005 A 
ATOM      6  C5  UNL d   1       1.893  -2.221  -3.930  0.00  0.00     0.003 A 
ATOM      7  C6  UNL d   1       3.072  -1.475  -3.972  0.00  0.00    -0.001 A 
ENDROOT
TORSDOF 0
ENDMDL
