MODEL 1
REMARK minimizedAffinity -0.220140085
REMARK minimizedRMSD -1
REMARK  0 active torsions:
REMARK  status: ('A' for Active; 'I' for Inactive)
ROOT
ATOM      1  C   UNL d   1      -0.625  -0.754  -1.200  0.00  0.00     0.078 C 
ATOM      2  C1  UNL d   1      -0.104  -0.354   0.148  0.00  0.00    -0.077 A 
ATOM      3  C2  UNL d   1      -0.912   0.339   1.057  0.00  0.00    -0.001 A 
ATOM      4  C3  UNL d   1      -0.410   0.714   2.304  0.00  0.00     0.003 A 
ATOM      5  C4  UNL d   1       0.902   0.400   2.654  0.00  0.00    -0.005 A 
ATOM      6  C5  UNL d   1       1.714  -0.289   1.755  0.00  0.00     0.003 A 
ATOM      7  C6  UNL d   1       1.214  -0.664   0.507  0.00  0.00    -0.001 A 
ENDROOT
TORSDOF 0
ENDMDL
