MODEL 1
REMARK minimizedAffinity 0.229676932
REMARK minimizedRMSD -1
REMARK  0 active torsions:
REMARK  status: ('A' for Active; 'I' for Inactive)
ROOT
ATOM      1  C   UNL d   1      -2.201  -0.033   2.415  0.00  0.00     0.078 C 
ATOM      2  C1  UNL d   1      -0.702  -0.094   2.409  0.00  0.00    -0.077 A 
ATOM      3  C2  UNL d   1       0.058   0.906   1.790  0.00  0.00    -0.001 A 
ATOM      4  C3  UNL d   1       1.452   0.831   1.784  0.00  0.00     0.003 A 
ATOM      5  C4  UNL d   1       2.097  -0.242   2.394  0.00  0.00    -0.005 A 
ATOM      6  C5  UNL d   1       1.349  -1.243   3.010  0.00  0.00     0.003 A 
ATOM      7  C6  UNL d   1      -0.044  -1.170   3.017  0.00  0.00    -0.001 A 
ENDROOT
TORSDOF 0
ENDMDL
