MODEL 1
REMARK minimizedAffinity -0.958847642
REMARK minimizedRMSD -1
REMARK  0 active torsions:
REMARK  status: ('A' for Active; 'I' for Inactive)
ROOT
ATOM      1  C   UNL d   1       1.409   2.262   4.063  0.00  0.00     0.078 C 
ATOM      2  C1  UNL d   1       0.822   1.525   2.896  0.00  0.00    -0.077 A 
ATOM      3  C2  UNL d   1       1.241   1.796   1.588  0.00  0.00    -0.001 A 
ATOM      4  C3  UNL d   1       0.679   1.110   0.510  0.00  0.00     0.003 A 
ATOM      5  C4  UNL d   1      -0.305   0.148   0.730  0.00  0.00    -0.005 A 
ATOM      6  C5  UNL d   1      -0.730  -0.127   2.028  0.00  0.00     0.003 A 
ATOM      7  C6  UNL d   1      -0.169   0.559   3.107  0.00  0.00    -0.001 A 
ENDROOT
TORSDOF 0
ENDMDL
