MODEL 1
REMARK minimizedAffinity -2.0304935
REMARK minimizedRMSD -1
REMARK  0 active torsions:
REMARK  status: ('A' for Active; 'I' for Inactive)
ROOT
ATOM      1  C   UNL d   1      -3.074   0.360   1.879  0.00  0.00     0.078 C 
ATOM      2  C1  UNL d   1      -1.635   0.038   2.149  0.00  0.00    -0.077 A 
ATOM      3  C2  UNL d   1      -0.612   0.897   1.729  0.00  0.00    -0.001 A 
ATOM      4  C3  UNL d   1       0.724   0.580   1.979  0.00  0.00     0.003 A 
ATOM      5  C4  UNL d   1       1.050  -0.598   2.648  0.00  0.00    -0.005 A 
ATOM      6  C5  UNL d   1       0.040  -1.461   3.068  0.00  0.00     0.003 A 
ATOM      7  C6  UNL d   1      -1.297  -1.145   2.819  0.00  0.00    -0.001 A 
ENDROOT
TORSDOF 0
ENDMDL
