MODEL 1
REMARK minimizedAffinity 1.31930184
REMARK minimizedRMSD -1
REMARK  0 active torsions:
REMARK  status: ('A' for Active; 'I' for Inactive)
ROOT
ATOM      1  C   UNL d   1      -2.731   0.752   1.890  0.00  0.00     0.078 C 
ATOM      2  C1  UNL d   1      -1.334   0.227   2.028  0.00  0.00    -0.077 A 
ATOM      3  C2  UNL d   1      -0.937  -0.948   1.377  0.00  0.00    -0.001 A 
ATOM      4  C3  UNL d   1       0.364  -1.431   1.522  0.00  0.00     0.003 A 
ATOM      5  C4  UNL d   1       1.280  -0.746   2.319  0.00  0.00    -0.005 A 
ATOM      6  C5  UNL d   1       0.894   0.423   2.972  0.00  0.00     0.003 A 
ATOM      7  C6  UNL d   1      -0.407   0.907   2.828  0.00  0.00    -0.001 A 
ENDROOT
TORSDOF 0
ENDMDL
