MODEL 1
REMARK minimizedAffinity -0.174233735
REMARK minimizedRMSD -1
REMARK  0 active torsions:
REMARK  status: ('A' for Active; 'I' for Inactive)
ROOT
ATOM      1  C   UNL d   1      -3.435   0.925   1.886  0.00  0.00     0.078 C 
ATOM      2  C1  UNL d   1      -2.115   0.216   1.839  0.00  0.00    -0.077 A 
ATOM      3  C2  UNL d   1      -1.932  -0.914   1.032  0.00  0.00    -0.001 A 
ATOM      4  C3  UNL d   1      -0.700  -1.571   1.006  0.00  0.00     0.003 A 
ATOM      5  C4  UNL d   1       0.357  -1.106   1.785  0.00  0.00    -0.005 A 
ATOM      6  C5  UNL d   1       0.184   0.016   2.593  0.00  0.00     0.003 A 
ATOM      7  C6  UNL d   1      -1.047   0.674   2.621  0.00  0.00    -0.001 A 
ENDROOT
TORSDOF 0
ENDMDL
