MODEL 1
REMARK minimizedAffinity 12.5481329
REMARK minimizedRMSD -1
REMARK  0 active torsions:
REMARK  status: ('A' for Active; 'I' for Inactive)
ROOT
ATOM      1  O1  BZF d   1      -3.342   1.410  -3.948  0.00  0.00    -0.204 OA
ATOM      2  C2  BZF d   1      -3.570   0.883  -5.205  0.00  0.00     0.174 A 
ATOM      3  C3  BZF d   1      -4.189   1.783  -5.996  0.00  0.00    -0.012 A 
ATOM      4  C3A BZF d   1      -4.275   2.977  -5.212  0.00  0.00    -0.107 A 
ATOM      5  C4  BZF d   1      -4.774   4.225  -5.453  0.00  0.00     0.055 A 
ATOM      6  C5  BZF d   1      -4.770   5.143  -4.452  0.00  0.00    -0.016 A 
ATOM      7  C6  BZF d   1      -4.280   4.846  -3.197  0.00  0.00     0.022 A 
ATOM      8  C7  BZF d   1      -3.770   3.623  -2.911  0.00  0.00     0.029 A 
ATOM      9  C7A BZF d   1      -3.743   2.703  -3.930  0.00  0.00     0.058 A 
ENDROOT
TORSDOF 0
ENDMDL
