MODEL 1
REMARK minimizedAffinity 5.18359947
REMARK minimizedRMSD -1
REMARK  0 active torsions:
REMARK  status: ('A' for Active; 'I' for Inactive)
ROOT
ATOM      1  O1  BZF d   1      -4.375  -3.756  -6.000  0.00  0.00    -0.204 OA
ATOM      2  C2  BZF d   1      -5.091  -4.937  -5.998  0.00  0.00     0.174 A 
ATOM      3  C3  BZF d   1      -4.260  -6.000  -6.000  0.00  0.00    -0.012 A 
ATOM      4  C3A BZF d   1      -2.943  -5.447  -5.910  0.00  0.00    -0.107 A 
ATOM      5  C4  BZF d   1      -1.695  -6.000  -5.854  0.00  0.00     0.055 A 
ATOM      6  C5  BZF d   1      -0.611  -5.181  -5.845  0.00  0.00    -0.016 A 
ATOM      7  C6  BZF d   1      -0.737  -3.808  -5.895  0.00  0.00     0.022 A 
ATOM      8  C7  BZF d   1      -1.954  -3.214  -5.945  0.00  0.00     0.029 A 
ATOM      9  C7A BZF d   1      -3.053  -4.038  -5.922  0.00  0.00     0.058 A 
ENDROOT
TORSDOF 0
ENDMDL
