MODEL 1
REMARK minimizedAffinity 4.55751371
REMARK minimizedRMSD -1
REMARK  0 active torsions:
REMARK  status: ('A' for Active; 'I' for Inactive)
ROOT
ATOM      1  O1  BZF d   1      -0.593  -1.457  -0.098  0.00  0.00    -0.204 OA
ATOM      2  C2  BZF d   1       0.090  -2.596  -0.476  0.00  0.00     0.174 A 
ATOM      3  C3  BZF d   1       0.668  -2.429  -1.683  0.00  0.00    -0.012 A 
ATOM      4  C3A BZF d   1       0.401  -1.070  -2.043  0.00  0.00    -0.107 A 
ATOM      5  C4  BZF d   1       0.729  -0.304  -3.125  0.00  0.00     0.055 A 
ATOM      6  C5  BZF d   1       0.251   0.966  -3.205  0.00  0.00    -0.016 A 
ATOM      7  C6  BZF d   1      -0.561   1.498  -2.225  0.00  0.00     0.022 A 
ATOM      8  C7  BZF d   1      -0.910   0.778  -1.131  0.00  0.00     0.029 A 
ATOM      9  C7A BZF d   1      -0.401  -0.494  -1.031  0.00  0.00     0.058 A 
ENDROOT
TORSDOF 0
ENDMDL
