MODEL 1
REMARK minimizedAffinity 2.68986106
REMARK minimizedRMSD -1
REMARK  0 active torsions:
REMARK  status: ('A' for Active; 'I' for Inactive)
ROOT
ATOM      1  O1  BZF d   1       3.971  -1.344  -2.078  0.00  0.00    -0.204 OA
ATOM      2  C2  BZF d   1       2.731  -1.818  -1.697  0.00  0.00     0.174 A 
ATOM      3  C3  BZF d   1       2.351  -2.848  -2.480  0.00  0.00    -0.012 A 
ATOM      4  C3A BZF d   1       3.460  -3.088  -3.351  0.00  0.00    -0.107 A 
ATOM      5  C4  BZF d   1       3.695  -3.994  -4.346  0.00  0.00     0.055 A 
ATOM      6  C5  BZF d   1       4.852  -3.914  -5.053  0.00  0.00    -0.016 A 
ATOM      7  C6  BZF d   1       5.794  -2.939  -4.796  0.00  0.00     0.022 A 
ATOM      8  C7  BZF d   1       5.609  -2.021  -3.816  0.00  0.00     0.029 A 
ATOM      9  C7A BZF d   1       4.455  -2.120  -3.078  0.00  0.00     0.058 A 
ENDROOT
TORSDOF 0
ENDMDL
