MODEL 1
REMARK minimizedAffinity 8.75666332
REMARK minimizedRMSD -1
REMARK  0 active torsions:
REMARK  status: ('A' for Active; 'I' for Inactive)
ROOT
ATOM      1  O1  BZF d   1       2.431  -0.989  -4.483  0.00  0.00    -0.204 OA
ATOM      2  C2  BZF d   1       1.732  -0.938  -3.292  0.00  0.00     0.174 A 
ATOM      3  C3  BZF d   1       2.490  -1.391  -2.273  0.00  0.00    -0.012 A 
ATOM      4  C3A BZF d   1       3.772  -1.661  -2.848  0.00  0.00    -0.107 A 
ATOM      5  C4  BZF d   1       4.953  -2.119  -2.337  0.00  0.00     0.055 A 
ATOM      6  C5  BZF d   1       5.995  -2.342  -3.181  0.00  0.00    -0.016 A 
ATOM      7  C6  BZF d   1       5.890  -2.124  -4.539  0.00  0.00     0.022 A 
ATOM      8  C7  BZF d   1       4.740  -1.665  -5.091  0.00  0.00     0.029 A 
ATOM      9  C7A BZF d   1       3.696  -1.407  -4.237  0.00  0.00     0.058 A 
ENDROOT
TORSDOF 0
ENDMDL
