MODEL 1
REMARK minimizedAffinity 8.19433117
REMARK minimizedRMSD -1
REMARK  0 active torsions:
REMARK  status: ('A' for Active; 'I' for Inactive)
ROOT
ATOM      1  O1  BZF d   1       0.219   3.254  -1.779  0.00  0.00    -0.204 OA
ATOM      2  C2  BZF d   1       0.471   3.494  -0.442  0.00  0.00     0.174 A 
ATOM      3  C3  BZF d   1      -0.595   4.072   0.149  0.00  0.00    -0.012 A 
ATOM      4  C3A BZF d   1      -1.607   4.117  -0.861  0.00  0.00    -0.107 A 
ATOM      5  C4  BZF d   1      -2.897   4.565  -0.879  0.00  0.00     0.055 A 
ATOM      6  C5  BZF d   1      -3.592   4.532  -2.046  0.00  0.00    -0.016 A 
ATOM      7  C6  BZF d   1      -3.027   4.063  -3.214  0.00  0.00     0.022 A 
ATOM      8  C7  BZF d   1      -1.752   3.603  -3.245  0.00  0.00     0.029 A 
ATOM      9  C7A BZF d   1      -1.059   3.604  -2.060  0.00  0.00     0.058 A 
ENDROOT
TORSDOF 0
ENDMDL
