MODEL 1
REMARK minimizedAffinity -5.80644703
REMARK minimizedRMSD -1
REMARK  0 active torsions:
REMARK  status: ('A' for Active; 'I' for Inactive)
ROOT
ATOM      1  O1  BZF d   1      -0.600   2.996   1.125  0.00  0.00    -0.204 OA
ATOM      2  C2  BZF d   1      -0.352   3.011   2.484  0.00  0.00     0.174 A 
ATOM      3  C3  BZF d   1       0.358   1.925   2.852  0.00  0.00    -0.012 A 
ATOM      4  C3A BZF d   1       0.647   1.233   1.634  0.00  0.00    -0.107 A 
ATOM      5  C4  BZF d   1       1.335   0.090   1.344  0.00  0.00     0.055 A 
ATOM      6  C5  BZF d   1       1.369  -0.353   0.060  0.00  0.00    -0.016 A 
ATOM      7  C6  BZF d   1       0.723   0.319  -0.957  0.00  0.00     0.022 A 
ATOM      8  C7  BZF d   1       0.031   1.460  -0.719  0.00  0.00     0.029 A 
ATOM      9  C7A BZF d   1       0.022   1.927   0.572  0.00  0.00     0.058 A 
ENDROOT
TORSDOF 0
ENDMDL
