MODEL 1
REMARK minimizedAffinity -2.93744445
REMARK minimizedRMSD -1
REMARK  0 active torsions:
REMARK  status: ('A' for Active; 'I' for Inactive)
ROOT
ATOM      1  O1  BZF d   1       0.402   1.684   3.607  0.00  0.00    -0.204 OA
ATOM      2  C2  BZF d   1       0.837   0.521   4.212  0.00  0.00     0.174 A 
ATOM      3  C3  BZF d   1       1.258  -0.369   3.290  0.00  0.00    -0.012 A 
ATOM      4  C3A BZF d   1       1.160   0.314   2.036  0.00  0.00    -0.107 A 
ATOM      5  C4  BZF d   1       1.449  -0.040   0.749  0.00  0.00     0.055 A 
ATOM      6  C5  BZF d   1       1.171   0.833  -0.254  0.00  0.00    -0.016 A 
ATOM      7  C6  BZF d   1       0.601   2.065  -0.008  0.00  0.00     0.022 A 
ATOM      8  C7  BZF d   1       0.301   2.462   1.253  0.00  0.00     0.029 A 
ATOM      9  C7A BZF d   1       0.611   1.595   2.272  0.00  0.00     0.058 A 
ENDROOT
TORSDOF 0
ENDMDL
