MODEL 1
REMARK minimizedAffinity 10.0070629
REMARK minimizedRMSD -1
REMARK  0 active torsions:
REMARK  status: ('A' for Active; 'I' for Inactive)
ROOT
ATOM      1  N1  IND d   1       1.964   1.664   0.124  0.00  0.00    -0.196 N 
ATOM      2  C2  IND d   1       0.759   2.286   0.297  0.00  0.00     0.054 A 
ATOM      3  C3  IND d   1      -0.254   1.425   0.052  0.00  0.00    -0.031 A 
ATOM      4  C4  IND d   1      -0.166  -1.076  -0.549  0.00  0.00     0.051 A 
ATOM      5  C5  IND d   1       0.709  -2.081  -0.855  0.00  0.00    -0.031 A 
ATOM      6  C6  IND d   1       2.075  -1.885  -0.847  0.00  0.00     0.015 A 
ATOM      7  C7  IND d   1       2.619  -0.675  -0.521  0.00  0.00    -0.016 A 
ATOM      8  C8  IND d   1       1.733   0.349  -0.217  0.00  0.00    -0.047 A 
ATOM      9  C9  IND d   1       0.345   0.168  -0.264  0.00  0.00    -0.096 A 
ATOM     10  HN1 IND d   1       2.736   2.032   0.212  0.00  0.00     0.298 HD
ENDROOT
TORSDOF 0
ENDMDL
