MODEL 1
REMARK minimizedAffinity 0.461318463
REMARK minimizedRMSD -1
REMARK  0 active torsions:
REMARK  status: ('A' for Active; 'I' for Inactive)
ROOT
ATOM      1  N1  IND d   1       3.461   1.016  -0.523  0.00  0.00    -0.196 N 
ATOM      2  C2  IND d   1       4.710   0.550  -0.825  0.00  0.00     0.054 A 
ATOM      3  C3  IND d   1       4.694  -0.797  -0.941  0.00  0.00    -0.031 A 
ATOM      4  C4  IND d   1       2.710  -2.429  -0.778  0.00  0.00     0.051 A 
ATOM      5  C5  IND d   1       1.376  -2.477  -0.482  0.00  0.00    -0.031 A 
ATOM      6  C6  IND d   1       0.654  -1.340  -0.181  0.00  0.00     0.015 A 
ATOM      7  C7  IND d   1       1.239  -0.106  -0.176  0.00  0.00    -0.016 A 
ATOM      8  C8  IND d   1       2.595  -0.054  -0.470  0.00  0.00    -0.047 A 
ATOM      9  C9  IND d   1       3.342  -1.209  -0.734  0.00  0.00    -0.096 A 
ATOM     10  HN1 IND d   1       3.252   1.839  -0.390  0.00  0.00     0.298 HD
ENDROOT
TORSDOF 0
ENDMDL
