MODEL 1
REMARK minimizedAffinity 4.80401373
REMARK minimizedRMSD -1
REMARK  0 active torsions:
REMARK  status: ('A' for Active; 'I' for Inactive)
ROOT
ATOM      1  N1  IND d   1       1.676  -3.773   5.346  0.00  0.00    -0.196 N 
ATOM      2  C2  IND d   1       2.340  -4.962   5.230  0.00  0.00     0.054 A 
ATOM      3  C3  IND d   1       1.487  -5.997   5.400  0.00  0.00    -0.031 A 
ATOM      4  C4  IND d   1      -1.060  -5.971   5.777  0.00  0.00     0.051 A 
ATOM      5  C5  IND d   1      -2.108  -5.122   5.992  0.00  0.00    -0.031 A 
ATOM      6  C6  IND d   1      -1.947  -3.751   5.999  0.00  0.00     0.015 A 
ATOM      7  C7  IND d   1      -0.727  -3.177   5.780  0.00  0.00    -0.016 A 
ATOM      8  C8  IND d   1       0.342  -4.037   5.569  0.00  0.00    -0.047 A 
ATOM      9  C9  IND d   1       0.192  -5.429   5.603  0.00  0.00    -0.096 A 
ATOM     10  HN1 IND d   1       2.031  -2.993   5.289  0.00  0.00     0.298 HD
ENDROOT
TORSDOF 0
ENDMDL
