MODEL 1
REMARK minimizedAffinity -4.26382732
REMARK minimizedRMSD -1
REMARK  0 active torsions:
REMARK  status: ('A' for Active; 'I' for Inactive)
ROOT
ATOM      1  N1  IND d   1       1.198   1.292   0.315  0.00  0.00    -0.196 N 
ATOM      2  C2  IND d   1      -0.045   1.701  -0.078  0.00  0.00     0.054 A 
ATOM      3  C3  IND d   1      -0.734   0.667  -0.611  0.00  0.00    -0.031 A 
ATOM      4  C4  IND d   1      -0.053  -1.805  -0.844  0.00  0.00     0.051 A 
ATOM      5  C5  IND d   1       1.003  -2.653  -0.660  0.00  0.00    -0.031 A 
ATOM      6  C6  IND d   1       2.201  -2.222  -0.128  0.00  0.00     0.015 A 
ATOM      7  C7  IND d   1       2.385  -0.922   0.252  0.00  0.00    -0.016 A 
ATOM      8  C8  IND d   1       1.317  -0.056   0.060  0.00  0.00    -0.047 A 
ATOM      9  C9  IND d   1       0.114  -0.479  -0.519  0.00  0.00    -0.096 A 
ATOM     10  HN1 IND d   1       1.804   1.793   0.663  0.00  0.00     0.298 HD
ENDROOT
TORSDOF 0
ENDMDL
