MODEL 1
REMARK minimizedAffinity 3.0142293
REMARK minimizedRMSD -1
REMARK  0 active torsions:
REMARK  status: ('A' for Active; 'I' for Inactive)
ROOT
ATOM      1  N1  IND d   1       2.014  -2.443  -0.861  0.00  0.00    -0.196 N 
ATOM      2  C2  IND d   1       3.165  -1.899  -0.363  0.00  0.00     0.054 A 
ATOM      3  C3  IND d   1       2.952  -0.622   0.026  0.00  0.00    -0.031 A 
ATOM      4  C4  IND d   1       0.769   0.744   0.031  0.00  0.00     0.051 A 
ATOM      5  C5  IND d   1      -0.538   0.686  -0.363  0.00  0.00    -0.031 A 
ATOM      6  C6  IND d   1      -1.074  -0.441  -0.952  0.00  0.00     0.015 A 
ATOM      7  C7  IND d   1      -0.321  -1.562  -1.160  0.00  0.00    -0.016 A 
ATOM      8  C8  IND d   1       1.009  -1.504  -0.768  0.00  0.00    -0.047 A 
ATOM      9  C9  IND d   1       1.569  -0.349  -0.208  0.00  0.00    -0.096 A 
ATOM     10  HN1 IND d   1       1.931  -3.238  -1.178  0.00  0.00     0.298 HD
ENDROOT
TORSDOF 0
ENDMDL
