MODEL 1
REMARK minimizedAffinity 12.7860756
REMARK minimizedRMSD -1
REMARK  0 active torsions:
REMARK  status: ('A' for Active; 'I' for Inactive)
ROOT
ATOM      1  N1  IND d   1      -0.990  -0.034   0.440  0.00  0.00    -0.196 N 
ATOM      2  C2  IND d   1      -0.616  -0.528  -0.778  0.00  0.00     0.054 A 
ATOM      3  C3  IND d   1      -1.704  -0.764  -1.544  0.00  0.00    -0.031 A 
ATOM      4  C4  IND d   1      -4.189  -0.317  -1.038  0.00  0.00     0.051 A 
ATOM      5  C5  IND d   1      -5.028   0.095  -0.041  0.00  0.00    -0.031 A 
ATOM      6  C6  IND d   1      -4.554   0.495   1.192  0.00  0.00     0.015 A 
ATOM      7  C7  IND d   1      -3.216   0.510   1.471  0.00  0.00    -0.016 A 
ATOM      8  C8  IND d   1      -2.362   0.086   0.463  0.00  0.00    -0.047 A 
ATOM      9  C9  IND d   1      -2.840  -0.362  -0.776  0.00  0.00    -0.096 A 
ATOM     10  HN1 IND d   1      -0.457   0.169   1.085  0.00  0.00     0.298 HD
ENDROOT
TORSDOF 0
ENDMDL
