MODEL 1
REMARK minimizedAffinity 8.13107777
REMARK minimizedRMSD -1
REMARK  0 active torsions:
REMARK  status: ('A' for Active; 'I' for Inactive)
ROOT
ATOM      1  N1  IND d   1       1.128  -2.388   5.897  0.00  0.00    -0.196 N 
ATOM      2  C2  IND d   1       0.095  -1.493   5.845  0.00  0.00     0.054 A 
ATOM      3  C3  IND d   1      -1.090  -2.144   5.820  0.00  0.00    -0.031 A 
ATOM      4  C4  IND d   1      -1.572  -4.669   5.958  0.00  0.00     0.051 A 
ATOM      5  C5  IND d   1      -0.948  -5.885   5.980  0.00  0.00    -0.031 A 
ATOM      6  C6  IND d   1       0.427  -6.000   5.979  0.00  0.00     0.015 A 
ATOM      7  C7  IND d   1       1.233  -4.897   5.966  0.00  0.00    -0.016 A 
ATOM      8  C8  IND d   1       0.604  -3.661   5.936  0.00  0.00    -0.047 A 
ATOM      9  C9  IND d   1      -0.791  -3.539   5.895  0.00  0.00    -0.096 A 
ATOM     10  HN1 IND d   1       1.964  -2.188   5.903  0.00  0.00     0.298 HD
ENDROOT
TORSDOF 0
ENDMDL
