MODEL 1
REMARK minimizedAffinity -0.972544849
REMARK minimizedRMSD -1
REMARK  0 active torsions:
REMARK  status: ('A' for Active; 'I' for Inactive)
ROOT
ATOM      1  N1  IND d   1       1.644   2.096   0.195  0.00  0.00    -0.196 N 
ATOM      2  C2  IND d   1       0.324   2.434   0.082  0.00  0.00     0.054 A 
ATOM      3  C3  IND d   1      -0.427   1.330  -0.136  0.00  0.00    -0.031 A 
ATOM      4  C4  IND d   1       0.289  -1.140  -0.243  0.00  0.00     0.051 A 
ATOM      5  C5  IND d   1       1.395  -1.942  -0.232  0.00  0.00    -0.031 A 
ATOM      6  C6  IND d   1       2.667  -1.429  -0.072  0.00  0.00     0.015 A 
ATOM      7  C7  IND d   1       2.878  -0.090   0.095  0.00  0.00    -0.016 A 
ATOM      8  C8  IND d   1       1.758   0.728   0.077  0.00  0.00    -0.047 A 
ATOM      9  C9  IND d   1       0.469   0.218  -0.127  0.00  0.00    -0.096 A 
ATOM     10  HN1 IND d   1       2.293   2.646   0.319  0.00  0.00     0.298 HD
ENDROOT
TORSDOF 0
ENDMDL
