MODEL 1
REMARK minimizedAffinity 12.6042852
REMARK minimizedRMSD -1
REMARK  0 active torsions:
REMARK  status: ('A' for Active; 'I' for Inactive)
ROOT
ATOM      1  N1  IND d   1       1.540  -2.180   5.186  0.00  0.00    -0.196 N 
ATOM      2  C2  IND d   1       0.869  -3.000   4.321  0.00  0.00     0.054 A 
ATOM      3  C3  IND d   1       0.144  -2.268   3.446  0.00  0.00    -0.031 A 
ATOM      4  C4  IND d   1      -0.009   0.289   3.185  0.00  0.00     0.051 A 
ATOM      5  C5  IND d   1       0.397   1.457   3.767  0.00  0.00    -0.031 A 
ATOM      6  C6  IND d   1       1.223   1.473   4.872  0.00  0.00     0.015 A 
ATOM      7  C7  IND d   1       1.686   0.316   5.432  0.00  0.00    -0.016 A 
ATOM      8  C8  IND d   1       1.271  -0.872   4.848  0.00  0.00    -0.047 A 
ATOM      9  C9  IND d   1       0.398  -0.896   3.753  0.00  0.00    -0.096 A 
ATOM     10  HN1 IND d   1       2.046  -2.438   5.831  0.00  0.00     0.298 HD
ENDROOT
TORSDOF 0
ENDMDL
