MODEL 1
REMARK minimizedAffinity 11.7531605
REMARK minimizedRMSD -1
REMARK  0 active torsions:
REMARK  status: ('A' for Active; 'I' for Inactive)
ROOT
ATOM      1  N1  IND d   1       1.106  -3.441   0.351  0.00  0.00    -0.196 N 
ATOM      2  C2  IND d   1       1.696  -2.318  -0.160  0.00  0.00     0.054 A 
ATOM      3  C3  IND d   1       1.184  -2.030  -1.377  0.00  0.00    -0.031 A 
ATOM      4  C4  IND d   1      -0.700  -3.206  -2.679  0.00  0.00     0.051 A 
ATOM      5  C5  IND d   1      -1.519  -4.299  -2.636  0.00  0.00    -0.031 A 
ATOM      6  C6  IND d   1      -1.507  -5.178  -1.573  0.00  0.00     0.015 A 
ATOM      7  C7  IND d   1      -0.679  -4.989  -0.502  0.00  0.00    -0.016 A 
ATOM      8  C8  IND d   1       0.159  -3.885  -0.546  0.00  0.00    -0.047 A 
ATOM      9  C9  IND d   1       0.181  -3.012  -1.642  0.00  0.00    -0.096 A 
ATOM     10  HN1 IND d   1       1.296  -3.808   1.105  0.00  0.00     0.298 HD
ENDROOT
TORSDOF 0
ENDMDL
