MODEL 1
REMARK minimizedAffinity -4.61607218
REMARK minimizedRMSD -1
REMARK  0 active torsions:
REMARK  status: ('A' for Active; 'I' for Inactive)
ROOT
ATOM      1  C   UNL d   1       2.257  -2.075   2.165  0.00  0.00     0.020 A 
ATOM      2  C1  UNL d   1       2.669  -2.054   0.834  0.00  0.00     0.020 A 
ATOM      3  C2  UNL d   1       1.911  -1.375  -0.122  0.00  0.00     0.034 A 
ATOM      4  C3  UNL d   1       0.736  -0.713   0.252  0.00  0.00     0.017 A 
ATOM      5  C4  UNL d   1       0.323  -0.734   1.589  0.00  0.00     0.017 A 
ATOM      6  C5  UNL d   1       1.086  -1.416   2.542  0.00  0.00     0.034 A 
ATOM      7 Cl   UNL d   1      -1.116   0.060   2.127  0.00  0.00    -0.070 Cl
ATOM      8 Cl1  UNL d   1      -0.152   0.107  -0.982  0.00  0.00    -0.070 Cl
ENDROOT
TORSDOF 0
ENDMDL
