MODEL 1
REMARK minimizedAffinity -5.87805939
REMARK minimizedRMSD -1
REMARK  0 active torsions:
REMARK  status: ('A' for Active; 'I' for Inactive)
ROOT
ATOM      1  C   UNL d   1       2.434  -1.592   2.450  0.00  0.00     0.020 A 
ATOM      2  C1  UNL d   1       3.156  -1.904   1.298  0.00  0.00     0.020 A 
ATOM      3  C2  UNL d   1       2.589  -1.693   0.040  0.00  0.00     0.034 A 
ATOM      4  C3  UNL d   1       1.296  -1.167  -0.070  0.00  0.00     0.017 A 
ATOM      5  C4  UNL d   1       0.573  -0.854   1.086  0.00  0.00     0.017 A 
ATOM      6  C5  UNL d   1       1.146  -1.067   2.344  0.00  0.00     0.034 A 
ATOM      7 Cl   UNL d   1      -1.027  -0.202   1.030  0.00  0.00    -0.070 Cl
ATOM      8 Cl1  UNL d   1       0.657  -0.932  -1.658  0.00  0.00    -0.070 Cl
ENDROOT
TORSDOF 0
ENDMDL
