MODEL 1
REMARK minimizedAffinity -3.87461019
REMARK minimizedRMSD -1
REMARK  0 active torsions:
REMARK  status: ('A' for Active; 'I' for Inactive)
ROOT
ATOM      1  C   UNL d   1       0.062  -1.015   2.931  0.00  0.00     0.020 A 
ATOM      2  C1  UNL d   1      -1.088  -0.485   2.347  0.00  0.00     0.020 A 
ATOM      3  C2  UNL d   1      -1.118  -0.226   0.975  0.00  0.00     0.034 A 
ATOM      4  C3  UNL d   1       0.003  -0.496   0.182  0.00  0.00     0.017 A 
ATOM      5  C4  UNL d   1       1.157  -1.028   0.770  0.00  0.00     0.017 A 
ATOM      6  C5  UNL d   1       1.182  -1.286   2.144  0.00  0.00     0.034 A 
ATOM      7 Cl   UNL d   1       2.580  -1.388  -0.143  0.00  0.00    -0.070 Cl
ATOM      8 Cl1  UNL d   1      -0.105  -0.151  -1.507  0.00  0.00    -0.070 Cl
ENDROOT
TORSDOF 0
ENDMDL
