MODEL 1
REMARK minimizedAffinity -4.4292202
REMARK minimizedRMSD -1
REMARK  0 active torsions:
REMARK  status: ('A' for Active; 'I' for Inactive)
ROOT
ATOM      1  C   UNL d   1       1.239  -1.283   3.134  0.00  0.00     0.020 A 
ATOM      2  C1  UNL d   1       2.039  -1.009   2.025  0.00  0.00     0.020 A 
ATOM      3  C2  UNL d   1       1.479  -0.420   0.889  0.00  0.00     0.034 A 
ATOM      4  C3  UNL d   1       0.116  -0.103   0.860  0.00  0.00     0.017 A 
ATOM      5  C4  UNL d   1      -0.686  -0.379   1.974  0.00  0.00     0.017 A 
ATOM      6  C5  UNL d   1      -0.120  -0.968   3.109  0.00  0.00     0.034 A 
ATOM      7 Cl   UNL d   1      -2.375  -0.016   2.012  0.00  0.00    -0.070 Cl
ATOM      8 Cl1  UNL d   1      -0.509   0.624  -0.577  0.00  0.00    -0.070 Cl
ENDROOT
TORSDOF 0
ENDMDL
