MODEL 1
REMARK minimizedAffinity 0.745342255
REMARK minimizedRMSD -1
REMARK  0 active torsions:
REMARK  status: ('A' for Active; 'I' for Inactive)
ROOT
ATOM      1  C   UNL d   1      -2.586   2.244  -1.826  0.00  0.00     0.020 A 
ATOM      2  C1  UNL d   1      -2.146   3.407  -2.457  0.00  0.00     0.020 A 
ATOM      3  C2  UNL d   1      -0.907   3.426  -3.101  0.00  0.00     0.034 A 
ATOM      4  C3  UNL d   1      -0.104   2.280  -3.116  0.00  0.00     0.017 A 
ATOM      5  C4  UNL d   1      -0.547   1.113  -2.483  0.00  0.00     0.017 A 
ATOM      6  C5  UNL d   1      -1.788   1.099  -1.840  0.00  0.00     0.034 A 
ATOM      7 Cl   UNL d   1       0.388  -0.341  -2.460  0.00  0.00    -0.070 Cl
ATOM      8 Cl1  UNL d   1       1.416   2.375  -3.932  0.00  0.00    -0.070 Cl
ENDROOT
TORSDOF 0
ENDMDL
