MODEL 1
REMARK minimizedAffinity -4.32495356
REMARK minimizedRMSD -1
REMARK  0 active torsions:
REMARK  status: ('A' for Active; 'I' for Inactive)
ROOT
ATOM      1  C   UNL d   1       2.438  -1.075   1.526  0.00  0.00     0.020 A 
ATOM      2  C1  UNL d   1       1.619  -1.339   2.623  0.00  0.00     0.020 A 
ATOM      3  C2  UNL d   1       0.263  -1.011   2.578  0.00  0.00     0.034 A 
ATOM      4  C3  UNL d   1      -0.280  -0.416   1.433  0.00  0.00     0.017 A 
ATOM      5  C4  UNL d   1       0.543  -0.151   0.332  0.00  0.00     0.017 A 
ATOM      6  C5  UNL d   1       1.900  -0.482   0.382  0.00  0.00     0.034 A 
ATOM      7 Cl   UNL d   1      -0.054   0.581  -1.116  0.00  0.00    -0.070 Cl
ATOM      8 Cl1  UNL d   1      -1.965  -0.037   1.446  0.00  0.00    -0.070 Cl
ENDROOT
TORSDOF 0
ENDMDL
