MODEL 1
REMARK minimizedAffinity -5.63801622
REMARK minimizedRMSD -1
REMARK  0 active torsions:
REMARK  status: ('A' for Active; 'I' for Inactive)
ROOT
ATOM      1  C   UNL d   1       1.112  -0.724   2.671  0.00  0.00     0.020 A 
ATOM      2  C1  UNL d   1       2.098  -1.636   2.298  0.00  0.00     0.020 A 
ATOM      3  C2  UNL d   1       2.351  -1.876   0.946  0.00  0.00     0.034 A 
ATOM      4  C3  UNL d   1       1.616  -1.204  -0.038  0.00  0.00     0.017 A 
ATOM      5  C4  UNL d   1       0.626  -0.289   0.338  0.00  0.00     0.017 A 
ATOM      6  C5  UNL d   1       0.377  -0.052   1.693  0.00  0.00     0.034 A 
ATOM      7 Cl   UNL d   1      -0.321   0.578  -0.819  0.00  0.00    -0.070 Cl
ATOM      8 Cl1  UNL d   1       1.983  -1.550  -1.691  0.00  0.00    -0.070 Cl
ENDROOT
TORSDOF 0
ENDMDL
