MODEL 1
REMARK minimizedAffinity -2.93729734
REMARK minimizedRMSD -1
REMARK  0 active torsions:
REMARK  status: ('A' for Active; 'I' for Inactive)
ROOT
ATOM      1  C   UNL d   1       1.169  -1.593   3.223  0.00  0.00     0.020 A 
ATOM      2  C1  UNL d   1      -0.041  -0.932   3.013  0.00  0.00     0.020 A 
ATOM      3  C2  UNL d   1      -0.362  -0.453   1.741  0.00  0.00     0.034 A 
ATOM      4  C3  UNL d   1       0.527  -0.634   0.675  0.00  0.00     0.017 A 
ATOM      5  C4  UNL d   1       1.740  -1.298   0.888  0.00  0.00     0.017 A 
ATOM      6  C5  UNL d   1       2.057  -1.776   2.163  0.00  0.00     0.034 A 
ATOM      7 Cl   UNL d   1       2.887  -1.560  -0.378  0.00  0.00    -0.070 Cl
ATOM      8 Cl1  UNL d   1       0.064  -0.016  -0.871  0.00  0.00    -0.070 Cl
ENDROOT
TORSDOF 0
ENDMDL
