MODEL 1
REMARK minimizedAffinity -1.21012282
REMARK minimizedRMSD -1
REMARK  0 active torsions:
REMARK  status: ('A' for Active; 'I' for Inactive)
ROOT
ATOM      1  C   UNL d   1      -1.540  -0.073   0.985  0.00  0.00     0.020 A 
ATOM      2  C1  UNL d   1      -1.074   0.175  -0.305  0.00  0.00     0.020 A 
ATOM      3  C2  UNL d   1       0.146  -0.363  -0.722  0.00  0.00     0.034 A 
ATOM      4  C3  UNL d   1       0.904  -1.150   0.152  0.00  0.00     0.017 A 
ATOM      5  C4  UNL d   1       0.435  -1.398   1.447  0.00  0.00     0.017 A 
ATOM      6  C5  UNL d   1      -0.787  -0.858   1.860  0.00  0.00     0.034 A 
ATOM      7 Cl   UNL d   1       1.314  -2.360   2.582  0.00  0.00    -0.070 Cl
ATOM      8 Cl1  UNL d   1       2.402  -1.783  -0.431  0.00  0.00    -0.070 Cl
ENDROOT
TORSDOF 0
ENDMDL
