MODEL 1
REMARK minimizedAffinity -1.54492235
REMARK minimizedRMSD -1
REMARK  1 active torsions:
REMARK  status: ('A' for Active; 'I' for Inactive)
REMARK    1  A    between atoms: N_2  and  C1_3 
ROOT
ATOM      1  C1  UNL d   1      -0.132   1.677  -0.338  0.00  0.00     0.143 A 
ATOM      2  C2  UNL d   1       0.271   0.338  -0.358  0.00  0.00    -0.057 A 
ATOM      3  C3  UNL d   1       0.751  -0.294   0.796  0.00  0.00     0.033 A 
ATOM      4  C4  UNL d   1       0.864   0.415   1.988  0.00  0.00    -0.042 A 
ATOM      5  C5  UNL d   1       0.493   1.754   2.025  0.00  0.00     0.033 A 
ATOM      6  C6  UNL d   1       0.008   2.377   0.871  0.00  0.00    -0.057 A 
ENDROOT
BRANCH   1   7
ATOM      7  N   UNL d   1      -0.524   2.389  -1.475  0.00  0.00    -0.732 N 
ATOM      8  C   UNL d   1      -0.951   1.692  -2.669  0.00  0.00     0.284 C 
ATOM      9  H3  UNL d   1      -1.086   3.206  -1.247  0.00  0.00     0.395 HD
ENDBRANCH   1   7
TORSDOF 1
ENDMDL
