MODEL 1
REMARK minimizedAffinity 1.76869118
REMARK minimizedRMSD -1
REMARK  1 active torsions:
REMARK  status: ('A' for Active; 'I' for Inactive)
REMARK    1  A    between atoms: N_2  and  C1_3 
ROOT
ATOM      1  C1  UNL d   1      -5.318   4.120  -2.299  0.00  0.00     0.143 A 
ATOM      2  C2  UNL d   1      -6.000   2.977  -1.865  0.00  0.00    -0.057 A 
ATOM      3  C3  UNL d   1      -5.329   1.938  -1.209  0.00  0.00     0.033 A 
ATOM      4  C4  UNL d   1      -3.956   2.010  -1.000  0.00  0.00    -0.042 A 
ATOM      5  C5  UNL d   1      -3.254   3.125  -1.445  0.00  0.00     0.033 A 
ATOM      6  C6  UNL d   1      -3.931   4.163  -2.094  0.00  0.00    -0.057 A 
ENDROOT
BRANCH   1   7
ATOM      7  N   UNL d   1      -5.911   5.143  -3.044  0.00  0.00    -0.732 N 
ATOM      8  C   UNL d   1      -5.959   5.069  -4.488  0.00  0.00     0.284 C 
ATOM      9  H3  UNL d   1      -6.766   5.489  -2.616  0.00  0.00     0.395 HD
ENDBRANCH   1   7
TORSDOF 1
ENDMDL
