MODEL 1
REMARK minimizedAffinity 8.68311691
REMARK minimizedRMSD -1
REMARK  1 active torsions:
REMARK  status: ('A' for Active; 'I' for Inactive)
REMARK    1  A    between atoms: N_2  and  C1_3 
ROOT
ATOM      1  C1  UNL d   1      -4.892  -0.878   4.203  0.00  0.00     0.143 A 
ATOM      2  C2  UNL d   1      -4.929  -1.217   5.560  0.00  0.00    -0.057 A 
ATOM      3  C3  UNL d   1      -5.463  -2.438   5.989  0.00  0.00     0.033 A 
ATOM      4  C4  UNL d   1      -5.998  -3.332   5.067  0.00  0.00    -0.042 A 
ATOM      5  C5  UNL d   1      -5.995  -3.005   3.716  0.00  0.00     0.033 A 
ATOM      6  C6  UNL d   1      -5.454  -1.787   3.293  0.00  0.00    -0.057 A 
ENDROOT
BRANCH   1   7
ATOM      7  N   UNL d   1      -4.465   0.363   3.723  0.00  0.00    -0.732 N 
ATOM      8  C   UNL d   1      -3.439   0.445   2.705  0.00  0.00     0.284 C 
ATOM      9  H3  UNL d   1      -5.235   1.014   3.590  0.00  0.00     0.395 HD
ENDBRANCH   1   7
TORSDOF 1
ENDMDL
