MODEL 1
REMARK minimizedAffinity 13.8724957
REMARK minimizedRMSD -1
REMARK  1 active torsions:
REMARK  status: ('A' for Active; 'I' for Inactive)
REMARK    1  A    between atoms: N_2  and  C1_3 
ROOT
ATOM      1  C1  UNL d   1       1.244   2.220   2.655  0.00  0.00     0.143 A 
ATOM      2  C2  UNL d   1      -0.108   1.937   2.879  0.00  0.00    -0.057 A 
ATOM      3  C3  UNL d   1      -0.586   0.621   2.871  0.00  0.00     0.033 A 
ATOM      4  C4  UNL d   1       0.278  -0.437   2.611  0.00  0.00    -0.042 A 
ATOM      5  C5  UNL d   1       1.621  -0.178   2.361  0.00  0.00     0.033 A 
ATOM      6  C6  UNL d   1       2.093   1.138   2.377  0.00  0.00    -0.057 A 
ENDROOT
BRANCH   1   7
ATOM      7  N   UNL d   1       1.761   3.513   2.552  0.00  0.00    -0.732 N 
ATOM      8  C   UNL d   1       1.492   4.324   1.384  0.00  0.00     0.284 C 
ATOM      9  H3  UNL d   1       1.712   4.022   3.432  0.00  0.00     0.395 HD
ENDBRANCH   1   7
TORSDOF 1
ENDMDL
