MODEL 1
REMARK minimizedAffinity 3.04324651
REMARK minimizedRMSD -1
REMARK  1 active torsions:
REMARK  status: ('A' for Active; 'I' for Inactive)
REMARK    1  A    between atoms: N_2  and  C1_3 
ROOT
ATOM      1  C1  UNL d   1       0.377   1.753   2.186  0.00  0.00     0.143 A 
ATOM      2  C2  UNL d   1       0.706   3.112   2.181  0.00  0.00    -0.057 A 
ATOM      3  C3  UNL d   1       0.642   3.871   1.006  0.00  0.00     0.033 A 
ATOM      4  C4  UNL d   1       0.274   3.273  -0.195  0.00  0.00    -0.042 A 
ATOM      5  C5  UNL d   1      -0.032   1.917  -0.219  0.00  0.00     0.033 A 
ATOM      6  C6  UNL d   1       0.027   1.167   0.959  0.00  0.00    -0.057 A 
ENDROOT
BRANCH   1   7
ATOM      7  N   UNL d   1       0.516   0.923   3.301  0.00  0.00    -0.732 N 
ATOM      8  C   UNL d   1       0.555  -0.516   3.149  0.00  0.00     0.284 C 
ATOM      9  H3  UNL d   1       1.184   1.288   3.976  0.00  0.00     0.395 HD
ENDBRANCH   1   7
TORSDOF 1
ENDMDL
