MODEL 1
REMARK minimizedAffinity 6.10432243
REMARK minimizedRMSD -1
REMARK  1 active torsions:
REMARK  status: ('A' for Active; 'I' for Inactive)
REMARK    1  A    between atoms: N_2  and  C1_3 
ROOT
ATOM      1  C1  UNL d   1       0.768   2.147   2.859  0.00  0.00     0.143 A 
ATOM      2  C2  UNL d   1       0.415   2.897   1.732  0.00  0.00    -0.057 A 
ATOM      3  C3  UNL d   1       1.069   4.096   1.423  0.00  0.00     0.033 A 
ATOM      4  C4  UNL d   1       2.071   4.583   2.256  0.00  0.00    -0.042 A 
ATOM      5  C5  UNL d   1       2.421   3.867   3.396  0.00  0.00     0.033 A 
ATOM      6  C6  UNL d   1       1.769   2.667   3.695  0.00  0.00    -0.057 A 
ENDROOT
BRANCH   1   7
ATOM      7  N   UNL d   1       0.089   0.999   3.273  0.00  0.00    -0.732 N 
ATOM      8  C   UNL d   1       0.763  -0.282   3.313  0.00  0.00     0.284 C 
ATOM      9  H3  UNL d   1      -0.520   1.173   4.069  0.00  0.00     0.395 HD
ENDBRANCH   1   7
TORSDOF 1
ENDMDL
