MODEL 1
REMARK minimizedAffinity -2.29296947
REMARK minimizedRMSD -1
REMARK  1 active torsions:
REMARK  status: ('A' for Active; 'I' for Inactive)
REMARK    1  A    between atoms: N_2  and  C1_3 
ROOT
ATOM      1  C1  UNL d   1       0.395   2.985   0.284  0.00  0.00     0.143 A 
ATOM      2  C2  UNL d   1       0.281   1.741  -0.345  0.00  0.00    -0.057 A 
ATOM      3  C3  UNL d   1       0.189   0.557   0.398  0.00  0.00     0.033 A 
ATOM      4  C4  UNL d   1       0.239   0.596   1.788  0.00  0.00    -0.042 A 
ATOM      5  C5  UNL d   1       0.378   1.819   2.433  0.00  0.00     0.033 A 
ATOM      6  C6  UNL d   1       0.462   2.998   1.686  0.00  0.00    -0.057 A 
ENDROOT
BRANCH   1   7
ATOM      7  N   UNL d   1       0.588   4.188  -0.400  0.00  0.00    -0.732 N 
ATOM      8  C   UNL d   1       0.046   4.375  -1.729  0.00  0.00     0.284 C 
ATOM      9  H3  UNL d   1       0.493   4.999   0.206  0.00  0.00     0.395 HD
ENDBRANCH   1   7
TORSDOF 1
ENDMDL
