MODEL 1
REMARK minimizedAffinity -2.77149534
REMARK minimizedRMSD -1
REMARK  0 active torsions:
REMARK  status: ('A' for Active; 'I' for Inactive)
ROOT
ATOM      1  N1  IND d   1       1.430  -1.944  -0.155  0.00  0.00    -0.196 N 
ATOM      2  C2  IND d   1       0.733  -2.906   0.521  0.00  0.00     0.054 A 
ATOM      3  C3  IND d   1      -0.359  -2.368   1.110  0.00  0.00    -0.031 A 
ATOM      4  C4  IND d   1      -1.249   0.045   1.013  0.00  0.00     0.051 A 
ATOM      5  C5  IND d   1      -0.934   1.292   0.549  0.00  0.00    -0.031 A 
ATOM      6  C6  IND d   1       0.207   1.527  -0.191  0.00  0.00     0.015 A 
ATOM      7  C7  IND d   1       1.073   0.519  -0.505  0.00  0.00    -0.016 A 
ATOM      8  C8  IND d   1       0.760  -0.747  -0.030  0.00  0.00    -0.047 A 
ATOM      9  C9  IND d   1      -0.374  -0.984   0.758  0.00  0.00    -0.096 A 
ATOM     10  HN1 IND d   1       2.164  -2.066  -0.586  0.00  0.00     0.298 HD
ENDROOT
TORSDOF 0
ENDMDL
