MODEL 1
REMARK minimizedAffinity -1.67884457
REMARK minimizedRMSD -1
REMARK  0 active torsions:
REMARK  status: ('A' for Active; 'I' for Inactive)
ROOT
ATOM      1  N1  IND d   1      -0.043   1.232   0.116  0.00  0.00    -0.196 N 
ATOM      2  C2  IND d   1       0.425   1.645  -1.101  0.00  0.00     0.054 A 
ATOM      3  C3  IND d   1       0.899   0.592  -1.804  0.00  0.00    -0.031 A 
ATOM      4  C4  IND d   1       0.913  -1.909  -1.194  0.00  0.00     0.051 A 
ATOM      5  C5  IND d   1       0.626  -2.770  -0.173  0.00  0.00    -0.031 A 
ATOM      6  C6  IND d   1       0.088  -2.333   1.020  0.00  0.00     0.015 A 
ATOM      7  C7  IND d   1      -0.195  -1.013   1.233  0.00  0.00    -0.016 A 
ATOM      8  C8  IND d   1       0.102  -0.135   0.200  0.00  0.00    -0.047 A 
ATOM      9  C9  IND d   1       0.688  -0.567  -0.997  0.00  0.00    -0.096 A 
ATOM     10  HN1 IND d   1      -0.372   1.742   0.725  0.00  0.00     0.298 HD
ENDROOT
TORSDOF 0
ENDMDL
