MODEL 1
REMARK minimizedAffinity -0.572466493
REMARK minimizedRMSD -1
REMARK  0 active torsions:
REMARK  status: ('A' for Active; 'I' for Inactive)
ROOT
ATOM      1  N1  IND d   1      -0.110   1.273  -1.922  0.00  0.00    -0.196 N 
ATOM      2  C2  IND d   1       0.503   2.376  -1.397  0.00  0.00     0.054 A 
ATOM      3  C3  IND d   1       1.071   2.077  -0.207  0.00  0.00    -0.031 A 
ATOM      4  C4  IND d   1       1.204  -0.182   1.020  0.00  0.00     0.051 A 
ATOM      5  C5  IND d   1       0.761  -1.473   0.951  0.00  0.00    -0.031 A 
ATOM      6  C6  IND d   1      -0.008  -1.925  -0.102  0.00  0.00     0.015 A 
ATOM      7  C7  IND d   1      -0.355  -1.101  -1.136  0.00  0.00    -0.016 A 
ATOM      8  C8  IND d   1       0.087   0.212  -1.065  0.00  0.00    -0.047 A 
ATOM      9  C9  IND d   1       0.832   0.687   0.022  0.00  0.00    -0.096 A 
ATOM     10  HN1 IND d   1      -0.545   1.245  -2.663  0.00  0.00     0.298 HD
ENDROOT
TORSDOF 0
ENDMDL
