MODEL 1
REMARK minimizedAffinity -5.62451077
REMARK minimizedRMSD -1
REMARK  0 active torsions:
REMARK  status: ('A' for Active; 'I' for Inactive)
ROOT
ATOM      1  N1  IND d   1      -0.471   0.943   0.048  0.00  0.00    -0.196 N 
ATOM      2  C2  IND d   1       0.480   0.432  -0.789  0.00  0.00     0.054 A 
ATOM      3  C3  IND d   1       0.452  -0.920  -0.764  0.00  0.00    -0.031 A 
ATOM      4  C4  IND d   1      -1.139  -2.499   0.502  0.00  0.00     0.051 A 
ATOM      5  C5  IND d   1      -2.150  -2.499   1.421  0.00  0.00    -0.031 A 
ATOM      6  C6  IND d   1      -2.665  -1.328   1.939  0.00  0.00     0.015 A 
ATOM      7  C7  IND d   1      -2.194  -0.107   1.546  0.00  0.00    -0.016 A 
ATOM      8  C8  IND d   1      -1.163  -0.104   0.617  0.00  0.00    -0.047 A 
ATOM      9  C9  IND d   1      -0.607  -1.290   0.120  0.00  0.00    -0.096 A 
ATOM     10  HN1 IND d   1      -0.613   1.778   0.196  0.00  0.00     0.298 HD
ENDROOT
TORSDOF 0
ENDMDL
