MODEL 1
REMARK minimizedAffinity -1.3321892
REMARK minimizedRMSD -1
REMARK  0 active torsions:
REMARK  status: ('A' for Active; 'I' for Inactive)
ROOT
ATOM      1  N1  IND d   1      -0.547   0.371  -0.548  0.00  0.00    -0.196 N 
ATOM      2  C2  IND d   1       0.207  -0.085   0.497  0.00  0.00     0.054 A 
ATOM      3  C3  IND d   1       1.484   0.342   0.378  0.00  0.00    -0.031 A 
ATOM      4  C4  IND d   1       2.535   1.882  -1.398  0.00  0.00     0.051 A 
ATOM      5  C5  IND d   1       2.252   2.523  -2.572  0.00  0.00    -0.031 A 
ATOM      6  C6  IND d   1       0.995   2.480  -3.141  0.00  0.00     0.015 A 
ATOM      7  C7  IND d   1      -0.032   1.802  -2.549  0.00  0.00    -0.016 A 
ATOM      8  C8  IND d   1       0.253   1.145  -1.361  0.00  0.00    -0.047 A 
ATOM      9  C9  IND d   1       1.537   1.149  -0.800  0.00  0.00    -0.096 A 
ATOM     10  HN1 IND d   1      -1.380   0.204  -0.676  0.00  0.00     0.298 HD
ENDROOT
TORSDOF 0
ENDMDL
