MODEL 1
REMARK minimizedAffinity -1.39329529
REMARK minimizedRMSD -1
REMARK  0 active torsions:
REMARK  status: ('A' for Active; 'I' for Inactive)
ROOT
ATOM      1  N1  IND d   1      -1.565   0.615   1.483  0.00  0.00    -0.196 N 
ATOM      2  C2  IND d   1      -2.358   0.155   2.497  0.00  0.00     0.054 A 
ATOM      3  C3  IND d   1      -2.308  -1.194   2.559  0.00  0.00    -0.031 A 
ATOM      4  C4  IND d   1      -0.911  -2.845   1.162  0.00  0.00     0.051 A 
ATOM      5  C5  IND d   1      -0.062  -2.901   0.092  0.00  0.00    -0.031 A 
ATOM      6  C6  IND d   1       0.339  -1.765  -0.581  0.00  0.00     0.015 A 
ATOM      7  C7  IND d   1      -0.086  -0.524  -0.200  0.00  0.00    -0.016 A 
ATOM      8  C8  IND d   1      -0.953  -0.463   0.882  0.00  0.00    -0.047 A 
ATOM      9  C9  IND d   1      -1.398  -1.616   1.542  0.00  0.00    -0.096 A 
ATOM     10  HN1 IND d   1      -1.465   1.439   1.258  0.00  0.00     0.298 HD
ENDROOT
TORSDOF 0
ENDMDL
