MODEL 1
REMARK minimizedAffinity -3.59354734
REMARK minimizedRMSD -1
REMARK  0 active torsions:
REMARK  status: ('A' for Active; 'I' for Inactive)
ROOT
ATOM      1  N1  IND d   1      -0.003  -1.564  -1.375  0.00  0.00    -0.196 N 
ATOM      2  C2  IND d   1      -0.099  -1.915  -0.058  0.00  0.00     0.054 A 
ATOM      3  C3  IND d   1       0.100  -0.836   0.733  0.00  0.00    -0.031 A 
ATOM      4  C4  IND d   1       0.497   1.621   0.077  0.00  0.00     0.051 A 
ATOM      5  C5  IND d   1       0.702   2.427  -1.008  0.00  0.00    -0.031 A 
ATOM      6  C6  IND d   1       0.679   1.934  -2.297  0.00  0.00     0.015 A 
ATOM      7  C7  IND d   1       0.438   0.613  -2.551  0.00  0.00    -0.016 A 
ATOM      8  C8  IND d   1       0.237  -0.209  -1.451  0.00  0.00    -0.047 A 
ATOM      9  C9  IND d   1       0.301   0.277  -0.139  0.00  0.00    -0.096 A 
ATOM     10  HN1 IND d   1      -0.079  -2.098  -2.044  0.00  0.00     0.298 HD
ENDROOT
TORSDOF 0
ENDMDL
