MODEL 1
REMARK minimizedAffinity -4.74428558
REMARK minimizedRMSD -1
REMARK  0 active torsions:
REMARK  status: ('A' for Active; 'I' for Inactive)
ROOT
ATOM      1  N1  IND d   1      -2.322  -0.174   1.740  0.00  0.00    -0.196 N 
ATOM      2  C2  IND d   1      -2.318  -1.539   1.822  0.00  0.00     0.054 A 
ATOM      3  C3  IND d   1      -1.330  -2.053   1.055  0.00  0.00    -0.031 A 
ATOM      4  C4  IND d   1       0.462  -0.837  -0.336  0.00  0.00     0.051 A 
ATOM      5  C5  IND d   1       0.842   0.409  -0.750  0.00  0.00    -0.031 A 
ATOM      6  C6  IND d   1       0.176   1.547  -0.344  0.00  0.00     0.015 A 
ATOM      7  C7  IND d   1      -0.894   1.483   0.503  0.00  0.00    -0.016 A 
ATOM      8  C8  IND d   1      -1.288   0.219   0.919  0.00  0.00    -0.047 A 
ATOM      9  C9  IND d   1      -0.642  -0.943   0.477  0.00  0.00    -0.096 A 
ATOM     10  HN1 IND d   1      -2.877   0.351   2.135  0.00  0.00     0.298 HD
ENDROOT
TORSDOF 0
ENDMDL
