MODEL 1
REMARK minimizedAffinity -3.96507645
REMARK minimizedRMSD -1
REMARK  0 active torsions:
REMARK  status: ('A' for Active; 'I' for Inactive)
ROOT
ATOM      1  N1  IND d   1       0.129  -0.423   0.664  0.00  0.00    -0.196 N 
ATOM      2  C2  IND d   1       0.237  -1.589  -0.042  0.00  0.00     0.054 A 
ATOM      3  C3  IND d   1       0.393  -1.328  -1.359  0.00  0.00    -0.031 A 
ATOM      4  C4  IND d   1       0.600   0.938  -2.565  0.00  0.00     0.051 A 
ATOM      5  C5  IND d   1       0.525   2.285  -2.347  0.00  0.00    -0.031 A 
ATOM      6  C6  IND d   1       0.313   2.809  -1.088  0.00  0.00     0.015 A 
ATOM      7  C7  IND d   1       0.178   2.002   0.006  0.00  0.00    -0.016 A 
ATOM      8  C8  IND d   1       0.247   0.633  -0.213  0.00  0.00    -0.047 A 
ATOM      9  C9  IND d   1       0.419   0.094  -1.494  0.00  0.00    -0.096 A 
ATOM     10  HN1 IND d   1       0.008  -0.360   1.513  0.00  0.00     0.298 HD
ENDROOT
TORSDOF 0
ENDMDL
