MODEL 1
REMARK minimizedAffinity -0.61207819
REMARK minimizedRMSD -1
REMARK  0 active torsions:
REMARK  status: ('A' for Active; 'I' for Inactive)
ROOT
ATOM      1  N1  IND d   1       0.819  -0.250   0.979  0.00  0.00    -0.196 N 
ATOM      2  C2  IND d   1       0.560   0.741   0.074  0.00  0.00     0.054 A 
ATOM      3  C3  IND d   1      -0.662   0.566  -0.479  0.00  0.00    -0.031 A 
ATOM      4  C4  IND d   1      -2.444  -1.221   0.027  0.00  0.00     0.051 A 
ATOM      5  C5  IND d   1      -2.652  -2.361   0.752  0.00  0.00    -0.031 A 
ATOM      6  C6  IND d   1      -1.694  -2.864   1.609  0.00  0.00     0.015 A 
ATOM      7  C7  IND d   1      -0.493  -2.237   1.783  0.00  0.00    -0.016 A 
ATOM      8  C8  IND d   1      -0.276  -1.083   1.042  0.00  0.00    -0.047 A 
ATOM      9  C9  IND d   1      -1.227  -0.591   0.139  0.00  0.00    -0.096 A 
ATOM     10  HN1 IND d   1       1.545  -0.339   1.432  0.00  0.00     0.298 HD
ENDROOT
TORSDOF 0
ENDMDL
