MODEL 1
REMARK minimizedAffinity -3.62042165
REMARK minimizedRMSD -1
REMARK  0 active torsions:
REMARK  status: ('A' for Active; 'I' for Inactive)
ROOT
ATOM      1  N1  IND d   1       0.137  -2.438   1.346  0.00  0.00    -0.196 N 
ATOM      2  C2  IND d   1      -0.807  -2.954   2.189  0.00  0.00     0.054 A 
ATOM      3  C3  IND d   1      -1.786  -2.049   2.411  0.00  0.00    -0.031 A 
ATOM      4  C4  IND d   1      -2.093   0.304   1.414  0.00  0.00     0.051 A 
ATOM      5  C5  IND d   1      -1.471   1.228   0.622  0.00  0.00    -0.031 A 
ATOM      6  C6  IND d   1      -0.258   0.971   0.016  0.00  0.00     0.015 A 
ATOM      7  C7  IND d   1       0.375  -0.229   0.172  0.00  0.00    -0.016 A 
ATOM      8  C8  IND d   1      -0.250  -1.167   0.981  0.00  0.00    -0.047 A 
ATOM      9  C9  IND d   1      -1.460  -0.896   1.632  0.00  0.00    -0.096 A 
ATOM     10  HN1 IND d   1       0.852  -2.839   1.087  0.00  0.00     0.298 HD
ENDROOT
TORSDOF 0
ENDMDL
