MODEL 1
REMARK minimizedAffinity -0.815856278
REMARK minimizedRMSD -1
REMARK  0 active torsions:
REMARK  status: ('A' for Active; 'I' for Inactive)
ROOT
ATOM      1  N1  IND d   1      -0.173   0.951  -1.799  0.00  0.00    -0.196 N 
ATOM      2  C2  IND d   1       0.550   2.041  -1.401  0.00  0.00     0.054 A 
ATOM      3  C3  IND d   1       1.289   1.743  -0.310  0.00  0.00    -0.031 A 
ATOM      4  C4  IND d   1       1.545  -0.500   0.929  0.00  0.00     0.051 A 
ATOM      5  C5  IND d   1       1.056  -1.776   0.959  0.00  0.00    -0.031 A 
ATOM      6  C6  IND d   1       0.116  -2.218   0.051  0.00  0.00     0.015 A 
ATOM      7  C7  IND d   1      -0.365  -1.400  -0.932  0.00  0.00    -0.016 A 
ATOM      8  C8  IND d   1       0.124  -0.101  -0.961  0.00  0.00    -0.047 A 
ATOM      9  C9  IND d   1       1.047   0.366  -0.016  0.00  0.00    -0.096 A 
ATOM     10  HN1 IND d   1      -0.721   0.927  -2.461  0.00  0.00     0.298 HD
ENDROOT
TORSDOF 0
ENDMDL
