MODEL 1
REMARK minimizedAffinity -3.76076102
REMARK minimizedRMSD -1
REMARK  0 active torsions:
REMARK  status: ('A' for Active; 'I' for Inactive)
ROOT
ATOM      1  N1  IND d   1      -0.153   0.813  -3.889  0.00  0.00    -0.196 N 
ATOM      2  C2  IND d   1       0.455   1.994  -4.211  0.00  0.00     0.054 A 
ATOM      3  C3  IND d   1       1.096   2.502  -3.135  0.00  0.00    -0.031 A 
ATOM      4  C4  IND d   1       1.364   1.513  -0.773  0.00  0.00     0.051 A 
ATOM      5  C5  IND d   1       0.956   0.470   0.010  0.00  0.00    -0.031 A 
ATOM      6  C6  IND d   1       0.144  -0.533  -0.476  0.00  0.00     0.015 A 
ATOM      7  C7  IND d   1      -0.284  -0.537  -1.774  0.00  0.00    -0.016 A 
ATOM      8  C8  IND d   1       0.122   0.524  -2.570  0.00  0.00    -0.047 A 
ATOM      9  C9  IND d   1       0.912   1.567  -2.071  0.00  0.00    -0.096 A 
ATOM     10  HN1 IND d   1      -0.628   0.332  -4.420  0.00  0.00     0.298 HD
ENDROOT
TORSDOF 0
ENDMDL
