MODEL 1
REMARK minimizedAffinity -4.51593304
REMARK minimizedRMSD -1
REMARK  0 active torsions:
REMARK  status: ('A' for Active; 'I' for Inactive)
ROOT
ATOM      1  N1  IND d   1      -0.566  -0.581  -1.641  0.00  0.00    -0.196 N 
ATOM      2  C2  IND d   1      -0.252  -0.270  -0.348  0.00  0.00     0.054 A 
ATOM      3  C3  IND d   1       0.518   0.841  -0.305  0.00  0.00    -0.031 A 
ATOM      4  C4  IND d   1       1.296   2.366  -2.228  0.00  0.00     0.051 A 
ATOM      5  C5  IND d   1       1.290   2.470  -3.590  0.00  0.00    -0.031 A 
ATOM      6  C6  IND d   1       0.650   1.545  -4.389  0.00  0.00     0.015 A 
ATOM      7  C7  IND d   1      -0.021   0.483  -3.852  0.00  0.00    -0.016 A 
ATOM      8  C8  IND d   1      -0.011   0.370  -2.469  0.00  0.00    -0.047 A 
ATOM      9  C9  IND d   1       0.673   1.283  -1.655  0.00  0.00    -0.096 A 
ATOM     10  HN1 IND d   1      -1.031  -1.258  -1.896  0.00  0.00     0.298 HD
ENDROOT
TORSDOF 0
ENDMDL
