MODEL 1
REMARK minimizedAffinity -6.21835566
REMARK minimizedRMSD -1
REMARK  0 active torsions:
REMARK  status: ('A' for Active; 'I' for Inactive)
ROOT
ATOM      1  N1  IND d   1      -2.140   0.869   1.741  0.00  0.00    -0.196 N 
ATOM      2  C2  IND d   1      -2.809   0.048   2.605  0.00  0.00     0.054 A 
ATOM      3  C3  IND d   1      -2.286  -1.199   2.569  0.00  0.00    -0.031 A 
ATOM      4  C4  IND d   1      -0.267  -2.088   1.244  0.00  0.00     0.051 A 
ATOM      5  C5  IND d   1       0.644  -1.721   0.293  0.00  0.00    -0.031 A 
ATOM      6  C6  IND d   1       0.675  -0.445  -0.233  0.00  0.00     0.015 A 
ATOM      7  C7  IND d   1      -0.199   0.518   0.184  0.00  0.00    -0.016 A 
ATOM      8  C8  IND d   1      -1.130   0.147   1.144  0.00  0.00    -0.047 A 
ATOM      9  C9  IND d   1      -1.194  -1.157   1.650  0.00  0.00    -0.096 A 
ATOM     10  HN1 IND d   1      -2.320   1.697   1.595  0.00  0.00     0.298 HD
ENDROOT
TORSDOF 0
ENDMDL
