MODEL 1
REMARK minimizedAffinity -4.58406305
REMARK minimizedRMSD -1
REMARK  0 active torsions:
REMARK  status: ('A' for Active; 'I' for Inactive)
ROOT
ATOM      1  N1  IND d   1      -0.053   0.975  -0.119  0.00  0.00    -0.196 N 
ATOM      2  C2  IND d   1       0.962   0.276  -0.711  0.00  0.00     0.054 A 
ATOM      3  C3  IND d   1       1.006  -0.987  -0.229  0.00  0.00    -0.031 A 
ATOM      4  C4  IND d   1      -0.553  -2.149   1.458  0.00  0.00     0.051 A 
ATOM      5  C5  IND d   1      -1.603  -1.907   2.298  0.00  0.00    -0.031 A 
ATOM      6  C6  IND d   1      -2.204  -0.667   2.375  0.00  0.00     0.015 A 
ATOM      7  C7  IND d   1      -1.782   0.378   1.603  0.00  0.00    -0.016 A 
ATOM      8  C8  IND d   1      -0.712   0.137   0.754  0.00  0.00    -0.047 A 
ATOM      9  C9  IND d   1      -0.070  -1.107   0.702  0.00  0.00    -0.096 A 
ATOM     10  HN1 IND d   1      -0.247   1.799  -0.268  0.00  0.00     0.298 HD
ENDROOT
TORSDOF 0
ENDMDL
