MODEL 1
REMARK minimizedAffinity -2.45712376
REMARK minimizedRMSD -1
REMARK  0 active torsions:
REMARK  status: ('A' for Active; 'I' for Inactive)
ROOT
ATOM      1  N1  IND d   1      -0.449   1.355   0.200  0.00  0.00    -0.196 N 
ATOM      2  C2  IND d   1       0.370   1.783  -0.808  0.00  0.00     0.054 A 
ATOM      3  C3  IND d   1       1.137   0.763  -1.255  0.00  0.00    -0.031 A 
ATOM      4  C4  IND d   1       1.141  -1.712  -0.548  0.00  0.00     0.051 A 
ATOM      5  C5  IND d   1       0.593  -2.574   0.359  0.00  0.00    -0.031 A 
ATOM      6  C6  IND d   1      -0.352  -2.163   1.277  0.00  0.00     0.015 A 
ATOM      7  C7  IND d   1      -0.794  -0.871   1.314  0.00  0.00    -0.016 A 
ATOM      8  C8  IND d   1      -0.234   0.009   0.398  0.00  0.00    -0.047 A 
ATOM      9  C9  IND d   1       0.756  -0.393  -0.507  0.00  0.00    -0.096 A 
ATOM     10  HN1 IND d   1      -1.006   1.845   0.636  0.00  0.00     0.298 HD
ENDROOT
TORSDOF 0
ENDMDL
