MODEL 1
REMARK minimizedAffinity -0.811307728
REMARK minimizedRMSD -1
REMARK  0 active torsions:
REMARK  status: ('A' for Active; 'I' for Inactive)
ROOT
ATOM      1  N1  IND d   1      -0.630  -1.136   1.532  0.00  0.00    -0.196 N 
ATOM      2  C2  IND d   1      -0.053  -2.289   1.076  0.00  0.00     0.054 A 
ATOM      3  C3  IND d   1       0.697  -2.037  -0.020  0.00  0.00    -0.031 A 
ATOM      4  C4  IND d   1       1.203   0.206  -1.177  0.00  0.00     0.051 A 
ATOM      5  C5  IND d   1       0.874   1.532  -1.146  0.00  0.00    -0.031 A 
ATOM      6  C6  IND d   1       0.011   2.048  -0.199  0.00  0.00     0.015 A 
ATOM      7  C7  IND d   1      -0.547   1.254   0.762  0.00  0.00    -0.016 A 
ATOM      8  C8  IND d   1      -0.221  -0.094   0.729  0.00  0.00    -0.047 A 
ATOM      9  C9  IND d   1       0.620  -0.630  -0.255  0.00  0.00    -0.096 A 
ATOM     10  HN1 IND d   1      -1.158  -1.073   2.207  0.00  0.00     0.298 HD
ENDROOT
TORSDOF 0
ENDMDL
