MODEL 1
REMARK minimizedAffinity -3.07883215
REMARK minimizedRMSD -1
REMARK  0 active torsions:
REMARK  status: ('A' for Active; 'I' for Inactive)
ROOT
ATOM      1  N1  IND d   1      -2.225   0.746   2.092  0.00  0.00    -0.196 N 
ATOM      2  C2  IND d   1      -2.762  -0.053   3.063  0.00  0.00     0.054 A 
ATOM      3  C3  IND d   1      -2.111  -1.237   3.110  0.00  0.00    -0.031 A 
ATOM      4  C4  IND d   1      -0.072  -2.038   1.759  0.00  0.00     0.051 A 
ATOM      5  C5  IND d   1       0.749  -1.673   0.728  0.00  0.00    -0.031 A 
ATOM      6  C6  IND d   1       0.619  -0.458   0.089  0.00  0.00     0.015 A 
ATOM      7  C7  IND d   1      -0.333   0.447   0.465  0.00  0.00    -0.016 A 
ATOM      8  C8  IND d   1      -1.172   0.077   1.506  0.00  0.00    -0.047 A 
ATOM      9  C9  IND d   1      -1.073  -1.173   2.131  0.00  0.00    -0.096 A 
ATOM     10  HN1 IND d   1      -2.498   1.534   1.882  0.00  0.00     0.298 HD
ENDROOT
TORSDOF 0
ENDMDL
