MODEL 1
REMARK minimizedAffinity 13.9038944
REMARK minimizedRMSD -1
REMARK  2 active torsions:
REMARK  status: ('A' for Active; 'I' for Inactive)
REMARK    1  A    between atoms: C2'_3  and  C1'_4 
REMARK    2  A    between atoms: C1'_4  and  C1_5 
ROOT
ATOM      1  C1  I4B d   1      -0.737   0.183  -1.167  0.00  0.00    -0.075 A 
ATOM      2  C2  I4B d   1       0.627   0.331  -1.192  0.00  0.00     0.003 A 
ATOM      3  C3  I4B d   1       1.460  -0.777  -1.479  0.00  0.00     0.002 A 
ATOM      4  C4  I4B d   1       0.893  -2.019  -1.683  0.00  0.00    -0.004 A 
ATOM      5  C5  I4B d   1      -0.492  -2.163  -1.680  0.00  0.00     0.002 A 
ATOM      6  C6  I4B d   1      -1.313  -1.053  -1.432  0.00  0.00     0.003 A 
ENDROOT
BRANCH   1   7
ATOM      7  C1' I4B d   1      -1.585   1.367  -0.828  0.00  0.00     0.060 C 
BRANCH   7   8
ATOM      8  C2' I4B d   1      -0.699   2.400  -0.162  0.00  0.00    -0.013 C 
ATOM      9  C4' I4B d   1      -0.990   3.784  -0.682  0.00  0.00     0.013 C 
ATOM     10  C3' I4B d   1      -0.925   2.319   1.318  0.00  0.00     0.013 C 
ENDBRANCH   7   8
ENDBRANCH   1   7
TORSDOF 2
ENDMDL
