MODEL 1
REMARK minimizedAffinity 6.94186592
REMARK minimizedRMSD -1
REMARK  2 active torsions:
REMARK  status: ('A' for Active; 'I' for Inactive)
REMARK    1  A    between atoms: C2'_3  and  C1'_4 
REMARK    2  A    between atoms: C1'_4  and  C1_5 
ROOT
ATOM      1  C1  I4B d   1       0.614  -4.858  -5.271  0.00  0.00    -0.075 A 
ATOM      2  C2  I4B d   1      -0.031  -5.898  -4.649  0.00  0.00     0.003 A 
ATOM      3  C3  I4B d   1      -1.442  -5.999  -4.706  0.00  0.00     0.002 A 
ATOM      4  C4  I4B d   1      -2.168  -5.016  -5.349  0.00  0.00    -0.004 A 
ATOM      5  C5  I4B d   1      -1.512  -3.975  -5.998  0.00  0.00     0.002 A 
ATOM      6  C6  I4B d   1      -0.111  -3.902  -5.970  0.00  0.00     0.003 A 
ENDROOT
BRANCH   1   7
ATOM      7  C1' I4B d   1       2.103  -4.765  -5.163  0.00  0.00     0.060 C 
BRANCH   7   8
ATOM      8  C2' I4B d   1       2.451  -3.359  -4.718  0.00  0.00    -0.013 C 
ATOM      9  C4' I4B d   1       2.188  -3.173  -3.247  0.00  0.00     0.013 C 
ATOM     10  C3' I4B d   1       3.894  -3.114  -5.045  0.00  0.00     0.013 C 
ENDBRANCH   7   8
ENDBRANCH   1   7
TORSDOF 2
ENDMDL
