MODEL 1
REMARK minimizedAffinity 4.46113729
REMARK minimizedRMSD -1
REMARK  2 active torsions:
REMARK  status: ('A' for Active; 'I' for Inactive)
REMARK    1  A    between atoms: C2'_3  and  C1'_4 
REMARK    2  A    between atoms: C1'_4  and  C1_5 
ROOT
ATOM      1  C1  I4B d   1       3.935  -4.495  -2.681  0.00  0.00    -0.075 A 
ATOM      2  C2  I4B d   1       5.307  -4.516  -2.668  0.00  0.00     0.003 A 
ATOM      3  C3  I4B d   1       5.999  -5.298  -1.712  0.00  0.00     0.002 A 
ATOM      4  C4  I4B d   1       5.284  -6.000  -0.762  0.00  0.00    -0.004 A 
ATOM      5  C5  I4B d   1       3.893  -5.996  -0.792  0.00  0.00     0.002 A 
ATOM      6  C6  I4B d   1       3.213  -5.249  -1.765  0.00  0.00     0.003 A 
ENDROOT
BRANCH   1   7
ATOM      7  C1' I4B d   1       3.236  -3.632  -3.684  0.00  0.00     0.060 C 
BRANCH   7   8
ATOM      8  C2' I4B d   1       3.526  -2.186  -3.337  0.00  0.00    -0.013 C 
ATOM      9  C4' I4B d   1       3.370  -1.938  -1.859  0.00  0.00     0.013 C 
ATOM     10  C3' I4B d   1       4.918  -1.869  -3.795  0.00  0.00     0.013 C 
ENDBRANCH   7   8
ENDBRANCH   1   7
TORSDOF 2
ENDMDL
