MODEL 1
REMARK minimizedAffinity 8.30999565
REMARK minimizedRMSD -1
REMARK  2 active torsions:
REMARK  status: ('A' for Active; 'I' for Inactive)
REMARK    1  A    between atoms: C2'_3  and  C1'_4 
REMARK    2  A    between atoms: C1'_4  and  C1_5 
ROOT
ATOM      1  C1  I4B d   1       3.325  -3.680  -2.739  0.00  0.00    -0.075 A 
ATOM      2  C2  I4B d   1       2.530  -4.196  -1.746  0.00  0.00     0.003 A 
ATOM      3  C3  I4B d   1       1.984  -3.345  -0.755  0.00  0.00     0.002 A 
ATOM      4  C4  I4B d   1       2.298  -2.002  -0.765  0.00  0.00    -0.004 A 
ATOM      5  C5  I4B d   1       3.085  -1.476  -1.786  0.00  0.00     0.002 A 
ATOM      6  C6  I4B d   1       3.592  -2.318  -2.786  0.00  0.00     0.003 A 
ENDROOT
BRANCH   1   7
ATOM      7  C1' I4B d   1       3.911  -4.613  -3.751  0.00  0.00     0.060 C 
BRANCH   7   8
ATOM      8  C2' I4B d   1       5.397  -4.727  -3.475  0.00  0.00    -0.013 C 
ATOM      9  C4' I4B d   1       5.654  -5.282  -2.099  0.00  0.00     0.013 C 
ATOM     10  C3' I4B d   1       5.999  -5.602  -4.533  0.00  0.00     0.013 C 
ENDBRANCH   7   8
ENDBRANCH   1   7
TORSDOF 2
ENDMDL
