MODEL 1
REMARK minimizedAffinity -1.91070068
REMARK minimizedRMSD -1
REMARK  0 active torsions:
REMARK  status: ('A' for Active; 'I' for Inactive)
ROOT
ATOM      1  C   UNL d   1       0.360   0.377  -1.181  0.00  0.00     0.077 C 
ATOM      2  C1  UNL d   1       0.039  -0.009   0.232  0.00  0.00    -0.074 A 
ATOM      3  C2  UNL d   1      -1.284  -0.045   0.684  0.00  0.00    -0.005 A 
ATOM      4  C3  UNL d   1      -1.568  -0.414   1.999  0.00  0.00     0.006 A 
ATOM      5  C4  UNL d   1      -0.534  -0.751   2.873  0.00  0.00    -0.005 A 
ATOM      6  C5  UNL d   1       0.795  -0.722   2.438  0.00  0.00    -0.074 A 
ATOM      7  C6  UNL d   1       1.917  -1.091   3.362  0.00  0.00     0.077 C 
ATOM      8  C7  UNL d   1       1.072  -0.357   1.114  0.00  0.00    -0.001 A 
ENDROOT
TORSDOF 0
ENDMDL
