MODEL 1
REMARK minimizedAffinity -3.67867184
REMARK minimizedRMSD -1
REMARK  0 active torsions:
REMARK  status: ('A' for Active; 'I' for Inactive)
ROOT
ATOM      1  C   UNL d   1       2.030  -0.971  -1.405  0.00  0.00     0.077 C 
ATOM      2  C1  UNL d   1       1.309  -0.504  -0.175  0.00  0.00    -0.074 A 
ATOM      3  C2  UNL d   1       2.016  -0.059   0.947  0.00  0.00    -0.005 A 
ATOM      4  C3  UNL d   1       1.332   0.381   2.080  0.00  0.00     0.006 A 
ATOM      5  C4  UNL d   1      -0.063   0.380   2.103  0.00  0.00    -0.005 A 
ATOM      6  C5  UNL d   1      -0.787  -0.061   0.990  0.00  0.00    -0.074 A 
ATOM      7  C6  UNL d   1      -2.287  -0.059   0.995  0.00  0.00     0.077 C 
ATOM      8  C7  UNL d   1      -0.092  -0.495  -0.147  0.00  0.00    -0.001 A 
ENDROOT
TORSDOF 0
ENDMDL
