MODEL 1
REMARK minimizedAffinity 5.32078171
REMARK minimizedRMSD -1
REMARK  3 active torsions:
REMARK  status: ('A' for Active; 'I' for Inactive)
REMARK    1  A    between atoms: C3'_2  and  C2'_3 
REMARK    2  A    between atoms: C2'_3  and  C1'_4 
REMARK    3  A    between atoms: C1'_4  and  C1_5 
ROOT
ATOM      1  C1  N4B d   1       1.571  -2.621  -0.019  0.00  0.00    -0.075 A 
ATOM      2  C2  N4B d   1       1.693  -2.134  -1.339  0.00  0.00     0.002 A 
ATOM      3  C3  N4B d   1       1.453  -2.967  -2.404  0.00  0.00     0.002 A 
ATOM      4  C4  N4B d   1       1.111  -4.292  -2.174  0.00  0.00    -0.004 A 
ATOM      5  C5  N4B d   1       0.971  -4.748  -0.896  0.00  0.00     0.002 A 
ATOM      6  C6  N4B d   1       1.205  -3.920   0.183  0.00  0.00     0.002 A 
ENDROOT
BRANCH   1   7
ATOM      7  C1' N4B d   1       1.907  -1.771   1.175  0.00  0.00     0.057 C 
BRANCH   7   8
ATOM      8  C2' N4B d   1       1.775  -2.612   2.442  0.00  0.00     0.009 C 
BRANCH   8   9
ATOM      9  C3' N4B d   1       0.878  -1.949   3.473  0.00  0.00     0.004 C 
ATOM     10  C4' N4B d   1       0.925  -2.630   4.808  0.00  0.00     0.003 C 
ENDBRANCH   8   9
ENDBRANCH   7   8
ENDBRANCH   1   7
TORSDOF 3
ENDMDL
