MODEL 1
REMARK minimizedAffinity -2.58544278
REMARK minimizedRMSD -1
REMARK  3 active torsions:
REMARK  status: ('A' for Active; 'I' for Inactive)
REMARK    1  A    between atoms: C3'_2  and  C2'_3 
REMARK    2  A    between atoms: C2'_3  and  C1'_4 
REMARK    3  A    between atoms: C1'_4  and  C1_5 
ROOT
ATOM      1  C1  N4B d   1       2.019  -2.459   3.427  0.00  0.00    -0.075 A 
ATOM      2  C2  N4B d   1       1.305  -2.536   4.643  0.00  0.00     0.002 A 
ATOM      3  C3  N4B d   1       1.960  -2.867   5.804  0.00  0.00     0.002 A 
ATOM      4  C4  N4B d   1       3.319  -3.142   5.771  0.00  0.00    -0.004 A 
ATOM      5  C5  N4B d   1       4.006  -3.041   4.596  0.00  0.00     0.002 A 
ATOM      6  C6  N4B d   1       3.361  -2.706   3.423  0.00  0.00     0.002 A 
ENDROOT
BRANCH   1   7
ATOM      7  C1' N4B d   1       1.330  -2.186   2.118  0.00  0.00     0.057 C 
BRANCH   7   8
ATOM      8  C2' N4B d   1       1.039  -0.692   2.007  0.00  0.00     0.009 C 
BRANCH   8   9
ATOM      9  C3' N4B d   1       2.272   0.098   1.603  0.00  0.00     0.004 C 
ATOM     10  C4' N4B d   1       2.080   1.580   1.730  0.00  0.00     0.003 C 
ENDBRANCH   8   9
ENDBRANCH   7   8
ENDBRANCH   1   7
TORSDOF 3
ENDMDL
