MODEL 1
REMARK minimizedAffinity 5.89443636
REMARK minimizedRMSD -1
REMARK  3 active torsions:
REMARK  status: ('A' for Active; 'I' for Inactive)
REMARK    1  A    between atoms: C3'_2  and  C2'_3 
REMARK    2  A    between atoms: C2'_3  and  C1'_4 
REMARK    3  A    between atoms: C1'_4  and  C1_5 
ROOT
ATOM      1  C1  N4B d   1       1.118  -1.803   3.768  0.00  0.00    -0.075 A 
ATOM      2  C2  N4B d   1       1.829  -0.727   3.191  0.00  0.00     0.002 A 
ATOM      3  C3  N4B d   1       2.202  -0.781   1.870  0.00  0.00     0.002 A 
ATOM      4  C4  N4B d   1       1.894  -1.903   1.115  0.00  0.00    -0.004 A 
ATOM      5  C5  N4B d   1       1.185  -2.926   1.673  0.00  0.00     0.002 A 
ATOM      6  C6  N4B d   1       0.800  -2.884   2.998  0.00  0.00     0.002 A 
ENDROOT
BRANCH   1   7
ATOM      7  C1' N4B d   1       0.763  -1.827   5.229  0.00  0.00     0.057 C 
BRANCH   7   8
ATOM      8  C2' N4B d   1       1.403  -3.050   5.879  0.00  0.00     0.009 C 
BRANCH   8   9
ATOM      9  C3' N4B d   1       0.425  -4.207   5.999  0.00  0.00     0.004 C 
ATOM     10  C4' N4B d   1       1.104  -5.544   6.000  0.00  0.00     0.003 C 
ENDBRANCH   8   9
ENDBRANCH   7   8
ENDBRANCH   1   7
TORSDOF 3
ENDMDL
