MODEL 1
REMARK minimizedAffinity -4.06954861
REMARK minimizedRMSD -1
REMARK  2 active torsions:
REMARK  status: ('A' for Active; 'I' for Inactive)
REMARK    1  A    between atoms: C1_2  and  C2_3 
REMARK    2  A    between atoms: C2_3  and  C3_4 
ROOT
ATOM      1  C3  UNL d   1       0.443   0.151  -0.671  0.00  0.00    -0.075 A 
ATOM      2  C4  UNL d   1      -0.723   0.666  -0.086  0.00  0.00     0.002 A 
ATOM      3  C5  UNL d   1      -0.712   1.122   1.232  0.00  0.00     0.002 A 
ATOM      4  C6  UNL d   1       0.459   1.060   1.985  0.00  0.00    -0.004 A 
ATOM      5  C7  UNL d   1       1.619   0.536   1.419  0.00  0.00     0.002 A 
ATOM      6  C8  UNL d   1       1.612   0.082   0.099  0.00  0.00     0.002 A 
ENDROOT
BRANCH   1   7
ATOM      7  C2  UNL d   1       0.446  -0.317  -2.106  0.00  0.00     0.056 C 
BRANCH   7   8
ATOM      8  C1  UNL d   1       0.573   0.815  -3.131  0.00  0.00     0.007 C 
ATOM      9  C   UNL d   1       2.013   1.106  -3.529  0.00  0.00     0.009 C 
ENDBRANCH   7   8
ENDBRANCH   1   7
TORSDOF 2
ENDMDL
