MODEL 1
REMARK minimizedAffinity -4.36998987
REMARK minimizedRMSD -1
REMARK  2 active torsions:
REMARK  status: ('A' for Active; 'I' for Inactive)
REMARK    1  A    between atoms: C1_2  and  C2_3 
REMARK    2  A    between atoms: C2_3  and  C3_4 
ROOT
ATOM      1  C3  UNL d   1       0.323  -0.189  -0.035  0.00  0.00    -0.075 A 
ATOM      2  C4  UNL d   1      -1.070  -0.089   0.094  0.00  0.00     0.002 A 
ATOM      3  C5  UNL d   1      -1.635   0.662   1.126  0.00  0.00     0.002 A 
ATOM      4  C6  UNL d   1      -0.816   1.313   2.045  0.00  0.00    -0.004 A 
ATOM      5  C7  UNL d   1       0.569   1.208   1.937  0.00  0.00     0.002 A 
ATOM      6  C8  UNL d   1       1.137   0.461   0.903  0.00  0.00     0.002 A 
ENDROOT
BRANCH   1   7
ATOM      7  C2  UNL d   1       0.940  -0.976  -1.166  0.00  0.00     0.056 C 
BRANCH   7   8
ATOM      8  C1  UNL d   1       0.553  -0.472  -2.560  0.00  0.00     0.007 C 
ATOM      9  C   UNL d   1       1.683   0.264  -3.267  0.00  0.00     0.009 C 
ENDBRANCH   7   8
ENDBRANCH   1   7
TORSDOF 2
ENDMDL
