MODEL 1
REMARK minimizedAffinity -3.51099086
REMARK minimizedRMSD -1
REMARK  2 active torsions:
REMARK  status: ('A' for Active; 'I' for Inactive)
REMARK    1  A    between atoms: C1_2  and  C2_3 
REMARK    2  A    between atoms: C2_3  and  C3_4 
ROOT
ATOM      1  C3  UNL d   1       0.450  -0.528   0.669  0.00  0.00    -0.075 A 
ATOM      2  C4  UNL d   1       1.371  -0.687   1.715  0.00  0.00     0.002 A 
ATOM      3  C5  UNL d   1       1.041  -0.302   3.015  0.00  0.00     0.002 A 
ATOM      4  C6  UNL d   1      -0.208   0.254   3.283  0.00  0.00    -0.004 A 
ATOM      5  C7  UNL d   1      -1.125   0.432   2.250  0.00  0.00     0.002 A 
ATOM      6  C8  UNL d   1      -0.798   0.044   0.949  0.00  0.00     0.002 A 
ENDROOT
BRANCH   1   7
ATOM      7  C2  UNL d   1       0.790  -0.970  -0.734  0.00  0.00     0.056 C 
BRANCH   7   8
ATOM      8  C1  UNL d   1       0.491   0.081  -1.808  0.00  0.00     0.007 C 
ATOM      9  C   UNL d   1       0.607  -0.461  -3.227  0.00  0.00     0.009 C 
ENDBRANCH   7   8
ENDBRANCH   1   7
TORSDOF 2
ENDMDL
