MODEL 1
REMARK minimizedAffinity -4.4559269
REMARK minimizedRMSD -1
REMARK  2 active torsions:
REMARK  status: ('A' for Active; 'I' for Inactive)
REMARK    1  A    between atoms: C1_2  and  C2_3 
REMARK    2  A    between atoms: C2_3  and  C3_4 
ROOT
ATOM      1  C3  UNL d   1      -0.097   0.364  -0.298  0.00  0.00    -0.075 A 
ATOM      2  C4  UNL d   1      -1.481   0.242  -0.105  0.00  0.00     0.002 A 
ATOM      3  C5  UNL d   1      -2.064   0.629   1.102  0.00  0.00     0.002 A 
ATOM      4  C6  UNL d   1      -1.273   1.131   2.133  0.00  0.00    -0.004 A 
ATOM      5  C7  UNL d   1       0.105   1.241   1.958  0.00  0.00     0.002 A 
ATOM      6  C8  UNL d   1       0.691   0.859   0.750  0.00  0.00     0.002 A 
ENDROOT
BRANCH   1   7
ATOM      7  C2  UNL d   1       0.537  -0.025  -1.612  0.00  0.00     0.056 C 
BRANCH   7   8
ATOM      8  C1  UNL d   1       0.387   1.029  -2.713  0.00  0.00     0.007 C 
ATOM      9  C   UNL d   1       1.720   1.521  -3.260  0.00  0.00     0.009 C 
ENDBRANCH   7   8
ENDBRANCH   1   7
TORSDOF 2
ENDMDL
