MODEL 1
REMARK minimizedAffinity -3.58812094
REMARK minimizedRMSD -1
REMARK  2 active torsions:
REMARK  status: ('A' for Active; 'I' for Inactive)
REMARK    1  A    between atoms: C1_2  and  C2_3 
REMARK    2  A    between atoms: C2_3  and  C3_4 
ROOT
ATOM      1  C3  UNL d   1       0.590  -0.303   0.455  0.00  0.00    -0.075 A 
ATOM      2  C4  UNL d   1       1.403  -1.367   0.035  0.00  0.00     0.002 A 
ATOM      3  C5  UNL d   1       1.455  -1.730  -1.311  0.00  0.00     0.002 A 
ATOM      4  C6  UNL d   1       0.690  -1.043  -2.251  0.00  0.00    -0.004 A 
ATOM      5  C7  UNL d   1      -0.134   0.004  -1.843  0.00  0.00     0.002 A 
ATOM      6  C8  UNL d   1      -0.185   0.372  -0.498  0.00  0.00     0.002 A 
ENDROOT
BRANCH   1   7
ATOM      7  C2  UNL d   1       0.551   0.114   1.906  0.00  0.00     0.056 C 
BRANCH   7   8
ATOM      8  C1  UNL d   1      -0.728   0.855   2.307  0.00  0.00     0.007 C 
ATOM      9  C   UNL d   1      -1.694  -0.006   3.110  0.00  0.00     0.009 C 
ENDBRANCH   7   8
ENDBRANCH   1   7
TORSDOF 2
ENDMDL
