MODEL 1
REMARK minimizedAffinity 0.896874487
REMARK minimizedRMSD -1
REMARK  0 active torsions:
REMARK  status: ('A' for Active; 'I' for Inactive)
ROOT
ATOM      1  O1  BZF d   1       0.161  -0.579  -0.242  0.00  0.00    -0.204 OA
ATOM      2  C2  BZF d   1      -0.592   0.080   0.710  0.00  0.00     0.174 A 
ATOM      3  C3  BZF d   1      -0.464   1.416   0.580  0.00  0.00    -0.012 A 
ATOM      4  C3A BZF d   1       0.352   1.605  -0.580  0.00  0.00    -0.107 A 
ATOM      5  C4  BZF d   1       0.820   2.712  -1.229  0.00  0.00     0.055 A 
ATOM      6  C5  BZF d   1       1.654   2.552  -2.290  0.00  0.00    -0.016 A 
ATOM      7  C6  BZF d   1       2.046   1.303  -2.724  0.00  0.00     0.022 A 
ATOM      8  C7  BZF d   1       1.604   0.176  -2.115  0.00  0.00     0.029 A 
ATOM      9  C7A BZF d   1       0.735   0.332  -1.064  0.00  0.00     0.058 A 
ENDROOT
TORSDOF 0
ENDMDL
