MODEL 1
REMARK minimizedAffinity 1.25491631
REMARK minimizedRMSD -1
REMARK  0 active torsions:
REMARK  status: ('A' for Active; 'I' for Inactive)
ROOT
ATOM      1  O1  BZF d   1       1.930   2.711   2.034  0.00  0.00    -0.204 OA
ATOM      2  C2  BZF d   1       2.796   3.677   1.559  0.00  0.00     0.174 A 
ATOM      3  C3  BZF d   1       2.684   3.803   0.221  0.00  0.00    -0.012 A 
ATOM      4  C3A BZF d   1       1.620   2.923  -0.153  0.00  0.00    -0.107 A 
ATOM      5  C4  BZF d   1       1.027   2.619  -1.345  0.00  0.00     0.055 A 
ATOM      6  C5  BZF d   1       0.063   1.663  -1.378  0.00  0.00    -0.016 A 
ATOM      7  C6  BZF d   1      -0.330   0.988  -0.241  0.00  0.00     0.022 A 
ATOM      8  C7  BZF d   1       0.225   1.258   0.965  0.00  0.00     0.029 A 
ATOM      9  C7A BZF d   1       1.177   2.247   1.008  0.00  0.00     0.058 A 
ENDROOT
TORSDOF 0
ENDMDL
