MODEL 1
REMARK minimizedAffinity 5.53472185
REMARK minimizedRMSD -1
REMARK  0 active torsions:
REMARK  status: ('A' for Active; 'I' for Inactive)
ROOT
ATOM      1  O1  BZF d   1       2.975   2.555  -5.917  0.00  0.00    -0.204 OA
ATOM      2  C2  BZF d   1       1.687   3.047  -6.000  0.00  0.00     0.174 A 
ATOM      3  C3  BZF d   1       1.689   4.395  -5.992  0.00  0.00    -0.012 A 
ATOM      4  C3A BZF d   1       3.069   4.770  -5.991  0.00  0.00    -0.107 A 
ATOM      5  C4  BZF d   1       3.716   5.973  -6.000  0.00  0.00     0.055 A 
ATOM      6  C5  BZF d   1       5.072   5.994  -5.922  0.00  0.00    -0.016 A 
ATOM      7  C6  BZF d   1       5.813   4.834  -5.829  0.00  0.00     0.022 A 
ATOM      8  C7  BZF d   1       5.216   3.617  -5.822  0.00  0.00     0.029 A 
ATOM      9  C7A BZF d   1       3.848   3.591  -5.934  0.00  0.00     0.058 A 
ENDROOT
TORSDOF 0
ENDMDL
