MODEL 1
REMARK minimizedAffinity -0.51524359
REMARK minimizedRMSD -1
REMARK  0 active torsions:
REMARK  status: ('A' for Active; 'I' for Inactive)
ROOT
ATOM      1  O1  BZF d   1       0.455   4.870  -5.977  0.00  0.00    -0.204 OA
ATOM      2  C2  BZF d   1       1.012   3.606  -6.000  0.00  0.00     0.174 A 
ATOM      3  C3  BZF d   1       0.053   2.659  -5.957  0.00  0.00    -0.012 A 
ATOM      4  C3A BZF d   1      -1.185   3.375  -5.998  0.00  0.00    -0.107 A 
ATOM      5  C4  BZF d   1      -2.494   2.987  -6.000  0.00  0.00     0.055 A 
ATOM      6  C5  BZF d   1      -3.465   3.938  -5.971  0.00  0.00    -0.016 A 
ATOM      7  C6  BZF d   1      -3.162   5.284  -5.936  0.00  0.00     0.022 A 
ATOM      8  C7  BZF d   1      -1.878   5.717  -5.938  0.00  0.00     0.029 A 
ATOM      9  C7A BZF d   1      -0.895   4.759  -6.000  0.00  0.00     0.058 A 
ENDROOT
TORSDOF 0
ENDMDL
