MODEL 1
REMARK minimizedAffinity -1.44008422
REMARK minimizedRMSD -1
REMARK  0 active torsions:
REMARK  status: ('A' for Active; 'I' for Inactive)
ROOT
ATOM      1  O1  BZF d   1      -2.645   2.627  -5.902  0.00  0.00    -0.204 OA
ATOM      2  C2  BZF d   1      -3.410   3.776  -5.893  0.00  0.00     0.174 A 
ATOM      3  C3  BZF d   1      -2.626   4.873  -5.866  0.00  0.00    -0.012 A 
ATOM      4  C3A BZF d   1      -1.286   4.380  -5.952  0.00  0.00    -0.107 A 
ATOM      5  C4  BZF d   1      -0.063   4.986  -5.987  0.00  0.00     0.055 A 
ATOM      6  C5  BZF d   1       1.056   4.215  -5.998  0.00  0.00    -0.016 A 
ATOM      7  C6  BZF d   1       0.989   2.837  -5.971  0.00  0.00     0.022 A 
ATOM      8  C7  BZF d   1      -0.201   2.191  -5.941  0.00  0.00     0.029 A 
ATOM      9  C7A BZF d   1      -1.335   2.967  -5.963  0.00  0.00     0.058 A 
ENDROOT
TORSDOF 0
ENDMDL
