MODEL 1
REMARK minimizedAffinity 1.65302551
REMARK minimizedRMSD -1
REMARK  0 active torsions:
REMARK  status: ('A' for Active; 'I' for Inactive)
ROOT
ATOM      1  O1  BZF d   1      -1.268   2.699  -5.962  0.00  0.00    -0.204 OA
ATOM      2  C2  BZF d   1      -0.056   3.363  -5.949  0.00  0.00     0.174 A 
ATOM      3  C3  BZF d   1      -0.242   4.698  -5.999  0.00  0.00    -0.012 A 
ATOM      4  C3A BZF d   1      -1.660   4.882  -5.953  0.00  0.00    -0.107 A 
ATOM      5  C4  BZF d   1      -2.463   5.987  -5.954  0.00  0.00     0.055 A 
ATOM      6  C5  BZF d   1      -3.812   5.822  -5.975  0.00  0.00    -0.016 A 
ATOM      7  C6  BZF d   1      -4.390   4.570  -6.000  0.00  0.00     0.022 A 
ATOM      8  C7  BZF d   1      -3.635   3.445  -5.994  0.00  0.00     0.029 A 
ATOM      9  C7A BZF d   1      -2.272   3.608  -5.940  0.00  0.00     0.058 A 
ENDROOT
TORSDOF 0
ENDMDL
