MODEL 1
REMARK minimizedAffinity 1.76497924
REMARK minimizedRMSD -1
REMARK  0 active torsions:
REMARK  status: ('A' for Active; 'I' for Inactive)
ROOT
ATOM      1  O1  BZF d   1       2.110   5.857  -5.969  0.00  0.00    -0.204 OA
ATOM      2  C2  BZF d   1       3.236   5.056  -5.996  0.00  0.00     0.174 A 
ATOM      3  C3  BZF d   1       2.896   3.752  -5.958  0.00  0.00    -0.012 A 
ATOM      4  C3A BZF d   1       1.466   3.734  -5.996  0.00  0.00    -0.107 A 
ATOM      5  C4  BZF d   1       0.539   2.731  -5.999  0.00  0.00     0.055 A 
ATOM      6  C5  BZF d   1      -0.781   3.051  -5.966  0.00  0.00    -0.016 A 
ATOM      7  C6  BZF d   1      -1.209   4.362  -5.925  0.00  0.00     0.022 A 
ATOM      8  C7  BZF d   1      -0.327   5.391  -5.926  0.00  0.00     0.029 A 
ATOM      9  C7A BZF d   1       1.007   5.071  -5.992  0.00  0.00     0.058 A 
ENDROOT
TORSDOF 0
ENDMDL
