MODEL 1
REMARK minimizedAffinity -2.93195701
REMARK minimizedRMSD -1
REMARK  0 active torsions:
REMARK  status: ('A' for Active; 'I' for Inactive)
ROOT
ATOM      1  O1  BZF d   1      -3.580   3.445  -5.972  0.00  0.00    -0.204 OA
ATOM      2  C2  BZF d   1      -4.050   4.743  -5.999  0.00  0.00     0.174 A 
ATOM      3  C3  BZF d   1      -3.028   5.623  -5.954  0.00  0.00    -0.012 A 
ATOM      4  C3A BZF d   1      -1.842   4.824  -5.987  0.00  0.00    -0.107 A 
ATOM      5  C4  BZF d   1      -0.509   5.121  -5.982  0.00  0.00     0.055 A 
ATOM      6  C5  BZF d   1       0.394   4.106  -5.947  0.00  0.00    -0.016 A 
ATOM      7  C6  BZF d   1      -0.000   2.784  -5.910  0.00  0.00     0.022 A 
ATOM      8  C7  BZF d   1      -1.311   2.440  -5.918  0.00  0.00     0.029 A 
ATOM      9  C7A BZF d   1      -2.226   3.462  -5.987  0.00  0.00     0.058 A 
ENDROOT
TORSDOF 0
ENDMDL
