MODEL 1
REMARK minimizedAffinity -3.64257383
REMARK minimizedRMSD -1
REMARK  0 active torsions:
REMARK  status: ('A' for Active; 'I' for Inactive)
ROOT
ATOM      1  O1  BZF d   1      -0.166   5.588  -5.885  0.00  0.00    -0.204 OA
ATOM      2  C2  BZF d   1       0.611   4.450  -5.991  0.00  0.00     0.174 A 
ATOM      3  C3  BZF d   1      -0.160   3.343  -5.997  0.00  0.00    -0.012 A 
ATOM      4  C3A BZF d   1      -1.508   3.824  -5.982  0.00  0.00    -0.107 A 
ATOM      5  C4  BZF d   1      -2.726   3.205  -5.995  0.00  0.00     0.055 A 
ATOM      6  C5  BZF d   1      -3.851   3.960  -5.899  0.00  0.00    -0.016 A 
ATOM      7  C6  BZF d   1      -3.796   5.334  -5.784  0.00  0.00     0.022 A 
ATOM      8  C7  BZF d   1      -2.612   5.993  -5.772  0.00  0.00     0.029 A 
ATOM      9  C7A BZF d   1      -1.474   5.235  -5.902  0.00  0.00     0.058 A 
ENDROOT
TORSDOF 0
ENDMDL
