MODEL 1
REMARK minimizedAffinity -1.6980952
REMARK minimizedRMSD -1
REMARK  0 active torsions:
REMARK  status: ('A' for Active; 'I' for Inactive)
ROOT
ATOM      1  O1  BZF d   1       0.585   4.807  -5.958  0.00  0.00    -0.204 OA
ATOM      2  C2  BZF d   1       1.120   3.533  -5.950  0.00  0.00     0.174 A 
ATOM      3  C3  BZF d   1       0.144   2.604  -5.906  0.00  0.00    -0.012 A 
ATOM      4  C3A BZF d   1      -1.080   3.342  -5.979  0.00  0.00    -0.107 A 
ATOM      5  C4  BZF d   1      -2.396   2.977  -5.995  0.00  0.00     0.055 A 
ATOM      6  C5  BZF d   1      -3.350   3.945  -5.998  0.00  0.00    -0.016 A 
ATOM      7  C6  BZF d   1      -3.024   5.286  -5.981  0.00  0.00     0.022 A 
ATOM      8  C7  BZF d   1      -1.732   5.696  -5.970  0.00  0.00     0.029 A 
ATOM      9  C7A BZF d   1      -0.766   4.720  -6.000  0.00  0.00     0.058 A 
ENDROOT
TORSDOF 0
ENDMDL
