MODEL 1
REMARK minimizedAffinity 0.289221227
REMARK minimizedRMSD -1
REMARK  0 active torsions:
REMARK  status: ('A' for Active; 'I' for Inactive)
ROOT
ATOM      1  O1  BZF d   1      -3.871   4.215  -5.954  0.00  0.00    -0.204 OA
ATOM      2  C2  BZF d   1      -3.794   5.594  -5.925  0.00  0.00     0.174 A 
ATOM      3  C3  BZF d   1      -2.509   6.000  -5.870  0.00  0.00    -0.012 A 
ATOM      4  C3A BZF d   1      -1.731   4.802  -5.958  0.00  0.00    -0.107 A 
ATOM      5  C4  BZF d   1      -0.389   4.553  -5.973  0.00  0.00     0.055 A 
ATOM      6  C5  BZF d   1       0.044   3.265  -5.994  0.00  0.00    -0.016 A 
ATOM      7  C6  BZF d   1      -0.837   2.203  -5.996  0.00  0.00     0.022 A 
ATOM      8  C7  BZF d   1      -2.177   2.400  -5.988  0.00  0.00     0.029 A 
ATOM      9  C7A BZF d   1      -2.618   3.701  -6.000  0.00  0.00     0.058 A 
ENDROOT
TORSDOF 0
ENDMDL
