MODEL 1
REMARK minimizedAffinity -2.94640589
REMARK minimizedRMSD -1
REMARK  0 active torsions:
REMARK  status: ('A' for Active; 'I' for Inactive)
ROOT
ATOM      1  O1  BZF d   1      -3.767   5.363  -5.911  0.00  0.00    -0.204 OA
ATOM      2  C2  BZF d   1      -4.438   4.155  -5.913  0.00  0.00     0.174 A 
ATOM      3  C3  BZF d   1      -3.570   3.126  -5.990  0.00  0.00    -0.012 A 
ATOM      4  C3A BZF d   1      -2.271   3.725  -5.947  0.00  0.00    -0.107 A 
ATOM      5  C4  BZF d   1      -1.003   3.219  -5.971  0.00  0.00     0.055 A 
ATOM      6  C5  BZF d   1       0.050   4.078  -5.988  0.00  0.00    -0.016 A 
ATOM      7  C6  BZF d   1      -0.128   5.446  -5.986  0.00  0.00     0.022 A 
ATOM      8  C7  BZF d   1      -1.367   5.995  -5.957  0.00  0.00     0.029 A 
ATOM      9  C7A BZF d   1      -2.433   5.129  -5.907  0.00  0.00     0.058 A 
ENDROOT
TORSDOF 0
ENDMDL
