MODEL 1
REMARK minimizedAffinity 1.24859846
REMARK minimizedRMSD -1
REMARK  0 active torsions:
REMARK  status: ('A' for Active; 'I' for Inactive)
ROOT
ATOM      1  O1  BZF d   1      -3.587   5.286  -5.922  0.00  0.00    -0.204 OA
ATOM      2  C2  BZF d   1      -4.216   4.056  -5.924  0.00  0.00     0.174 A 
ATOM      3  C3  BZF d   1      -3.313   3.057  -5.997  0.00  0.00    -0.012 A 
ATOM      4  C3A BZF d   1      -2.036   3.699  -5.949  0.00  0.00    -0.107 A 
ATOM      5  C4  BZF d   1      -0.751   3.237  -5.968  0.00  0.00     0.055 A 
ATOM      6  C5  BZF d   1       0.272   4.131  -5.982  0.00  0.00    -0.016 A 
ATOM      7  C6  BZF d   1       0.047   5.492  -5.983  0.00  0.00     0.022 A 
ATOM      8  C7  BZF d   1      -1.210   5.998  -5.960  0.00  0.00     0.029 A 
ATOM      9  C7A BZF d   1      -2.245   5.097  -5.913  0.00  0.00     0.058 A 
ENDROOT
TORSDOF 0
ENDMDL
