MODEL 1
REMARK minimizedAffinity -1.9639684
REMARK minimizedRMSD -1
REMARK  0 active torsions:
REMARK  status: ('A' for Active; 'I' for Inactive)
ROOT
ATOM      1  O1  BZF d   1      -0.484   4.159  -3.894  0.00  0.00    -0.204 OA
ATOM      2  C2  BZF d   1       0.212   3.759  -5.018  0.00  0.00     0.174 A 
ATOM      3  C3  BZF d   1      -0.636   3.388  -5.999  0.00  0.00    -0.012 A 
ATOM      4  C3A BZF d   1      -1.945   3.655  -5.486  0.00  0.00    -0.107 A 
ATOM      5  C4  BZF d   1      -3.202   3.511  -6.000  0.00  0.00     0.055 A 
ATOM      6  C5  BZF d   1      -4.274   3.795  -5.213  0.00  0.00    -0.016 A 
ATOM      7  C6  BZF d   1      -4.125   4.220  -3.909  0.00  0.00     0.022 A 
ATOM      8  C7  BZF d   1      -2.897   4.383  -3.358  0.00  0.00     0.029 A 
ATOM      9  C7A BZF d   1      -1.812   4.128  -4.160  0.00  0.00     0.058 A 
ENDROOT
TORSDOF 0
ENDMDL
