MODEL 1
REMARK minimizedAffinity 1.2248019
REMARK minimizedRMSD -1
REMARK  0 active torsions:
REMARK  status: ('A' for Active; 'I' for Inactive)
ROOT
ATOM      1  O1  BZF d   1       1.250   3.508  -5.954  0.00  0.00    -0.204 OA
ATOM      2  C2  BZF d   1       1.091   2.135  -5.944  0.00  0.00     0.174 A 
ATOM      3  C3  BZF d   1      -0.216   1.805  -5.901  0.00  0.00    -0.012 A 
ATOM      4  C3A BZF d   1      -0.921   3.048  -5.976  0.00  0.00    -0.107 A 
ATOM      5  C4  BZF d   1      -2.246   3.377  -5.994  0.00  0.00     0.055 A 
ATOM      6  C5  BZF d   1      -2.602   4.688  -5.999  0.00  0.00    -0.016 A 
ATOM      7  C6  BZF d   1      -1.660   5.696  -5.983  0.00  0.00     0.022 A 
ATOM      8  C7  BZF d   1      -0.333   5.420  -5.971  0.00  0.00     0.029 A 
ATOM      9  C7A BZF d   1       0.030   4.095  -5.998  0.00  0.00     0.058 A 
ENDROOT
TORSDOF 0
ENDMDL
