MODEL 1
REMARK minimizedAffinity -2.64092135
REMARK minimizedRMSD -1
REMARK  0 active torsions:
REMARK  status: ('A' for Active; 'I' for Inactive)
ROOT
ATOM      1  O1  BZF d   1      -2.493   5.987  -5.965  0.00  0.00    -0.204 OA
ATOM      2  C2  BZF d   1      -3.780   5.483  -5.952  0.00  0.00     0.174 A 
ATOM      3  C3  BZF d   1      -3.766   4.135  -5.999  0.00  0.00    -0.012 A 
ATOM      4  C3A BZF d   1      -2.383   3.771  -5.952  0.00  0.00    -0.107 A 
ATOM      5  C4  BZF d   1      -1.727   2.573  -5.952  0.00  0.00     0.055 A 
ATOM      6  C5  BZF d   1      -0.368   2.565  -5.973  0.00  0.00    -0.016 A 
ATOM      7  C6  BZF d   1       0.365   3.733  -6.000  0.00  0.00     0.022 A 
ATOM      8  C7  BZF d   1      -0.241   4.945  -5.996  0.00  0.00     0.029 A 
ATOM      9  C7A BZF d   1      -1.613   4.957  -5.942  0.00  0.00     0.058 A 
ENDROOT
TORSDOF 0
ENDMDL
