MODEL 1
REMARK minimizedAffinity -2.13913465
REMARK minimizedRMSD -1
REMARK  0 active torsions:
REMARK  status: ('A' for Active; 'I' for Inactive)
ROOT
ATOM      1  O1  BZF d   1       0.564   4.481  -5.953  0.00  0.00    -0.204 OA
ATOM      2  C2  BZF d   1       1.093   3.204  -5.930  0.00  0.00     0.174 A 
ATOM      3  C3  BZF d   1       0.111   2.281  -5.881  0.00  0.00    -0.012 A 
ATOM      4  C3A BZF d   1      -1.109   3.023  -5.966  0.00  0.00    -0.107 A 
ATOM      5  C4  BZF d   1      -2.426   2.665  -5.983  0.00  0.00     0.055 A 
ATOM      6  C5  BZF d   1      -3.375   3.638  -6.000  0.00  0.00    -0.016 A 
ATOM      7  C6  BZF d   1      -3.042   4.977  -5.995  0.00  0.00     0.022 A 
ATOM      8  C7  BZF d   1      -1.749   5.381  -5.983  0.00  0.00     0.029 A 
ATOM      9  C7A BZF d   1      -0.787   4.400  -5.999  0.00  0.00     0.058 A 
ENDROOT
TORSDOF 0
ENDMDL
