MODEL 1
REMARK minimizedAffinity -1.72518468
REMARK minimizedRMSD -1
REMARK  0 active torsions:
REMARK  status: ('A' for Active; 'I' for Inactive)
ROOT
ATOM      1  O1  BZF d   1      -2.742   3.715  -5.961  0.00  0.00    -0.204 OA
ATOM      2  C2  BZF d   1      -3.474   4.886  -5.976  0.00  0.00     0.174 A 
ATOM      3  C3  BZF d   1      -2.660   5.960  -5.937  0.00  0.00    -0.012 A 
ATOM      4  C3A BZF d   1      -1.333   5.428  -5.990  0.00  0.00    -0.107 A 
ATOM      5  C4  BZF d   1      -0.092   5.998  -5.999  0.00  0.00     0.055 A 
ATOM      6  C5  BZF d   1       1.004   5.196  -5.981  0.00  0.00    -0.016 A 
ATOM      7  C6  BZF d   1       0.897   3.821  -5.948  0.00  0.00     0.022 A 
ATOM      8  C7  BZF d   1      -0.312   3.209  -5.942  0.00  0.00     0.029 A 
ATOM      9  C7A BZF d   1      -1.422   4.017  -5.994  0.00  0.00     0.058 A 
ENDROOT
TORSDOF 0
ENDMDL
