MODEL 1
REMARK minimizedAffinity 8.01886177
REMARK minimizedRMSD -1
REMARK  0 active torsions:
REMARK  status: ('A' for Active; 'I' for Inactive)
ROOT
ATOM      1  O1  BZF d   1       0.937   2.130   2.651  0.00  0.00    -0.204 OA
ATOM      2  C2  BZF d   1       0.081   2.226   1.571  0.00  0.00     0.174 A 
ATOM      3  C3  BZF d   1       0.661   2.904   0.560  0.00  0.00    -0.012 A 
ATOM      4  C3A BZF d   1       1.994   3.174   1.004  0.00  0.00    -0.107 A 
ATOM      5  C4  BZF d   1       3.063   3.805   0.435  0.00  0.00     0.055 A 
ATOM      6  C5  BZF d   1       4.200   3.965   1.162  0.00  0.00    -0.016 A 
ATOM      7  C6  BZF d   1       4.300   3.512   2.461  0.00  0.00     0.022 A 
ATOM      8  C7  BZF d   1       3.267   2.876   3.067  0.00  0.00     0.029 A 
ATOM      9  C7A BZF d   1       2.129   2.684   2.323  0.00  0.00     0.058 A 
ENDROOT
TORSDOF 0
ENDMDL
