MODEL 1
REMARK minimizedAffinity 0.302047789
REMARK minimizedRMSD -1
REMARK  0 active torsions:
REMARK  status: ('A' for Active; 'I' for Inactive)
ROOT
ATOM      1  C1  BNZ d   1      -4.514  -5.632  -6.000  0.00  0.00     0.000 A 
ATOM      2  C2  BNZ d   1      -5.322  -4.526  -5.999  0.00  0.00     0.000 A 
ATOM      3  C3  BNZ d   1      -4.787  -3.269  -5.997  0.00  0.00     0.000 A 
ATOM      4  C4  BNZ d   1      -3.447  -3.118  -5.954  0.00  0.00     0.000 A 
ATOM      5  C5  BNZ d   1      -2.620  -4.223  -5.945  0.00  0.00     0.000 A 
ATOM      6  C6  BNZ d   1      -3.161  -5.487  -5.987  0.00  0.00     0.000 A 
ENDROOT
TORSDOF 0
ENDMDL
