MODEL 1
REMARK minimizedAffinity 5.82182789
REMARK minimizedRMSD -1
REMARK  0 active torsions:
REMARK  status: ('A' for Active; 'I' for Inactive)
ROOT
ATOM      1  C1  BNZ d   1       2.232  -1.097  -1.881  0.00  0.00     0.000 A 
ATOM      2  C2  BNZ d   1       2.688  -2.360  -1.611  0.00  0.00     0.000 A 
ATOM      3  C3  BNZ d   1       3.446  -2.607  -0.500  0.00  0.00     0.000 A 
ATOM      4  C4  BNZ d   1       3.780  -1.587   0.315  0.00  0.00     0.000 A 
ATOM      5  C5  BNZ d   1       3.336  -0.307   0.051  0.00  0.00     0.000 A 
ATOM      6  C6  BNZ d   1       2.540  -0.068  -1.046  0.00  0.00     0.000 A 
ENDROOT
TORSDOF 0
ENDMDL
