MODEL 1
REMARK minimizedAffinity 7.16760111
REMARK minimizedRMSD -1
REMARK  0 active torsions:
REMARK  status: ('A' for Active; 'I' for Inactive)
ROOT
ATOM      1  C1  BNZ d   1       1.972  -2.735  -2.112  0.00  0.00     0.000 A 
ATOM      2  C2  BNZ d   1       2.858  -2.406  -1.121  0.00  0.00     0.000 A 
ATOM      3  C3  BNZ d   1       3.368  -3.365  -0.291  0.00  0.00     0.000 A 
ATOM      4  C4  BNZ d   1       2.962  -4.644  -0.428  0.00  0.00     0.000 A 
ATOM      5  C5  BNZ d   1       2.062  -4.990  -1.416  0.00  0.00     0.000 A 
ATOM      6  C6  BNZ d   1       1.581  -4.028  -2.275  0.00  0.00     0.000 A 
ENDROOT
TORSDOF 0
ENDMDL
