MODEL 1
REMARK minimizedAffinity 6.64056921
REMARK minimizedRMSD -1
REMARK  0 active torsions:
REMARK  status: ('A' for Active; 'I' for Inactive)
ROOT
ATOM      1  C1  BNZ d   1       2.237  -3.978  -0.393  0.00  0.00     0.000 A 
ATOM      2  C2  BNZ d   1       1.686  -4.557  -1.505  0.00  0.00     0.000 A 
ATOM      3  C3  BNZ d   1       1.404  -3.811  -2.615  0.00  0.00     0.000 A 
ATOM      4  C4  BNZ d   1       1.635  -2.483  -2.599  0.00  0.00     0.000 A 
ATOM      5  C5  BNZ d   1       2.182  -1.883  -1.482  0.00  0.00     0.000 A 
ATOM      6  C6  BNZ d   1       2.501  -2.643  -0.380  0.00  0.00     0.000 A 
ENDROOT
TORSDOF 0
ENDMDL
