MODEL 1
REMARK minimizedAffinity 9.67513847
REMARK minimizedRMSD -1
REMARK  0 active torsions:
REMARK  status: ('A' for Active; 'I' for Inactive)
ROOT
ATOM      1  C1  BNZ d   1       2.335  -3.336   0.007  0.00  0.00     0.000 A 
ATOM      2  C2  BNZ d   1       1.264  -2.598  -0.423  0.00  0.00     0.000 A 
ATOM      3  C3  BNZ d   1       1.412  -1.283  -0.764  0.00  0.00     0.000 A 
ATOM      4  C4  BNZ d   1       2.620  -0.696  -0.636  0.00  0.00     0.000 A 
ATOM      5  C5  BNZ d   1       3.707  -1.424  -0.195  0.00  0.00     0.000 A 
ATOM      6  C6  BNZ d   1       3.563  -2.758   0.110  0.00  0.00     0.000 A 
ENDROOT
TORSDOF 0
ENDMDL
