MODEL 1
REMARK minimizedAffinity 3.81250691
REMARK minimizedRMSD -1
REMARK  0 active torsions:
REMARK  status: ('A' for Active; 'I' for Inactive)
ROOT
ATOM      1  C1  BNZ d   1      -1.839  -5.167  -3.816  0.00  0.00     0.000 A 
ATOM      2  C2  BNZ d   1      -1.952  -5.987  -4.908  0.00  0.00     0.000 A 
ATOM      3  C3  BNZ d   1      -2.681  -5.603  -5.999  0.00  0.00     0.000 A 
ATOM      4  C4  BNZ d   1      -3.327  -4.420  -5.982  0.00  0.00     0.000 A 
ATOM      5  C5  BNZ d   1      -3.230  -3.586  -4.885  0.00  0.00     0.000 A 
ATOM      6  C6  BNZ d   1      -2.464  -3.959  -3.804  0.00  0.00     0.000 A 
ENDROOT
TORSDOF 0
ENDMDL
