MODEL 1
REMARK minimizedAffinity 9.3415184
REMARK minimizedRMSD -1
REMARK  0 active torsions:
REMARK  status: ('A' for Active; 'I' for Inactive)
ROOT
ATOM      1  C1  BNZ d   1      -4.705   2.760   3.987  0.00  0.00     0.000 A 
ATOM      2  C2  BNZ d   1      -3.450   2.276   3.730  0.00  0.00     0.000 A 
ATOM      3  C3  BNZ d   1      -3.279   1.078   3.094  0.00  0.00     0.000 A 
ATOM      4  C4  BNZ d   1      -4.360   0.349   2.751  0.00  0.00     0.000 A 
ATOM      5  C5  BNZ d   1      -5.632   0.819   3.012  0.00  0.00     0.000 A 
ATOM      6  C6  BNZ d   1      -5.801   2.043   3.618  0.00  0.00     0.000 A 
ENDROOT
TORSDOF 0
ENDMDL
