MODEL 1
REMARK minimizedAffinity 2.71344423
REMARK minimizedRMSD -1
REMARK  0 active torsions:
REMARK  status: ('A' for Active; 'I' for Inactive)
ROOT
ATOM      1  C1  BNZ d   1       4.259  -2.179  -0.081  0.00  0.00     0.000 A 
ATOM      2  C2  BNZ d   1       2.994  -1.950  -0.553  0.00  0.00     0.000 A 
ATOM      3  C3  BNZ d   1       2.611  -0.699  -0.950  0.00  0.00     0.000 A 
ATOM      4  C4  BNZ d   1       3.479   0.327  -0.838  0.00  0.00     0.000 A 
ATOM      5  C5  BNZ d   1       4.755   0.114  -0.356  0.00  0.00     0.000 A 
ATOM      6  C6  BNZ d   1       5.150  -1.153   0.006  0.00  0.00     0.000 A 
ENDROOT
TORSDOF 0
ENDMDL
