MODEL 1
REMARK minimizedAffinity 8.20571613
REMARK minimizedRMSD -1
REMARK  0 active torsions:
REMARK  status: ('A' for Active; 'I' for Inactive)
ROOT
ATOM      1  C1  BNZ d   1      -5.805  -2.732  -5.966  0.00  0.00     0.000 A 
ATOM      2  C2  BNZ d   1      -4.535  -2.221  -5.962  0.00  0.00     0.000 A 
ATOM      3  C3  BNZ d   1      -3.447  -3.049  -5.997  0.00  0.00     0.000 A 
ATOM      4  C4  BNZ d   1      -3.631  -4.385  -5.995  0.00  0.00     0.000 A 
ATOM      5  C5  BNZ d   1      -4.905  -4.916  -5.990  0.00  0.00     0.000 A 
ATOM      6  C6  BNZ d   1      -5.998  -4.079  -5.994  0.00  0.00     0.000 A 
ENDROOT
TORSDOF 0
ENDMDL
