MODEL 1
REMARK minimizedAffinity 4.24489164
REMARK minimizedRMSD -1
REMARK  0 active torsions:
REMARK  status: ('A' for Active; 'I' for Inactive)
ROOT
ATOM      1  C1  BNZ d   1       3.832  -4.136   0.082  0.00  0.00     0.000 A 
ATOM      2  C2  BNZ d   1       2.799  -3.258   0.271  0.00  0.00     0.000 A 
ATOM      3  C3  BNZ d   1       3.014  -2.036   0.845  0.00  0.00     0.000 A 
ATOM      4  C4  BNZ d   1       4.254  -1.711   1.266  0.00  0.00     0.000 A 
ATOM      5  C5  BNZ d   1       5.305  -2.589   1.090  0.00  0.00     0.000 A 
ATOM      6  C6  BNZ d   1       5.091  -3.802   0.476  0.00  0.00     0.000 A 
ENDROOT
TORSDOF 0
ENDMDL
