MODEL 1
REMARK minimizedAffinity 5.92640209
REMARK minimizedRMSD -1
REMARK  0 active torsions:
REMARK  status: ('A' for Active; 'I' for Inactive)
ROOT
ATOM      1  C1  BNZ d   1       1.687  -1.938  -1.956  0.00  0.00     0.000 A 
ATOM      2  C2  BNZ d   1       0.933  -2.339  -3.027  0.00  0.00     0.000 A 
ATOM      3  C3  BNZ d   1       0.039  -3.366  -2.908  0.00  0.00     0.000 A 
ATOM      4  C4  BNZ d   1      -0.072  -4.015  -1.731  0.00  0.00     0.000 A 
ATOM      5  C5  BNZ d   1       0.687  -3.628  -0.645  0.00  0.00     0.000 A 
ATOM      6  C6  BNZ d   1       1.558  -2.569  -0.757  0.00  0.00     0.000 A 
ENDROOT
TORSDOF 0
ENDMDL
