MODEL 1
REMARK minimizedAffinity 10.3612499
REMARK minimizedRMSD -1
REMARK  0 active torsions:
REMARK  status: ('A' for Active; 'I' for Inactive)
ROOT
ATOM      1  C1  BNZ d   1      -3.948  -4.827  -4.198  0.00  0.00     0.000 A 
ATOM      2  C2  BNZ d   1      -4.261  -5.978  -4.871  0.00  0.00     0.000 A 
ATOM      3  C3  BNZ d   1      -5.275  -6.000  -5.787  0.00  0.00     0.000 A 
ATOM      4  C4  BNZ d   1      -6.000  -4.882  -6.000  0.00  0.00     0.000 A 
ATOM      5  C5  BNZ d   1      -5.702  -3.717  -5.323  0.00  0.00     0.000 A 
ATOM      6  C6  BNZ d   1      -4.656  -3.689  -4.430  0.00  0.00     0.000 A 
ENDROOT
TORSDOF 0
ENDMDL
