MODEL 1
REMARK minimizedAffinity 15.4946508
REMARK minimizedRMSD -1
REMARK  0 active torsions:
REMARK  status: ('A' for Active; 'I' for Inactive)
ROOT
ATOM      1  C1  BNZ d   1      -3.687   1.212   3.316  0.00  0.00     0.000 A 
ATOM      2  C2  BNZ d   1      -4.752   2.026   3.037  0.00  0.00     0.000 A 
ATOM      3  C3  BNZ d   1      -5.270   2.853   3.995  0.00  0.00     0.000 A 
ATOM      4  C4  BNZ d   1      -4.749   2.836   5.238  0.00  0.00     0.000 A 
ATOM      5  C5  BNZ d   1      -3.680   2.014   5.537  0.00  0.00     0.000 A 
ATOM      6  C6  BNZ d   1      -3.137   1.211   4.560  0.00  0.00     0.000 A 
ENDROOT
TORSDOF 0
ENDMDL
