MODEL 1
REMARK minimizedAffinity -0.737732708
REMARK minimizedRMSD -1
REMARK  1 active torsions:
REMARK  status: ('A' for Active; 'I' for Inactive)
REMARK    1  A    between atoms: C1_2  and  C2_3 
ROOT
ATOM      1  C2  UNL d   1       0.765   1.412   0.315  0.00  0.00    -0.073 A 
ATOM      2  C3  UNL d   1      -0.126   0.941   1.285  0.00  0.00    -0.002 A 
ATOM      3  C4  UNL d   1      -1.118   0.020   0.945  0.00  0.00     0.004 A 
ATOM      4  C5  UNL d   1      -1.223  -0.445  -0.366  0.00  0.00    -0.004 A 
ATOM      5  C6  UNL d   1      -0.334   0.005  -1.348  0.00  0.00    -0.075 A 
ATOM      6  C7  UNL d   1      -0.436  -0.484  -2.763  0.00  0.00     0.076 C 
ATOM      7  C8  UNL d   1       0.656   0.932  -0.999  0.00  0.00     0.001 A 
ENDROOT
BRANCH   1   8
ATOM      8  C1  UNL d   1       1.841   2.402   0.679  0.00  0.00     0.053 C 
ATOM      9  C   UNL d   1       1.759   2.821   2.138  0.00  0.00     0.018 C 
ENDBRANCH   1   8
TORSDOF 1
ENDMDL
