MODEL 1
REMARK minimizedAffinity -5.11955786
REMARK minimizedRMSD -1
REMARK  1 active torsions:
REMARK  status: ('A' for Active; 'I' for Inactive)
REMARK    1  A    between atoms: C1_2  and  C2_3 
ROOT
ATOM      1  C2  UNL d   1      -0.065  -0.477  -0.274  0.00  0.00    -0.073 A 
ATOM      2  C3  UNL d   1      -1.233  -0.806   0.422  0.00  0.00    -0.002 A 
ATOM      3  C4  UNL d   1      -2.471  -0.774  -0.223  0.00  0.00     0.004 A 
ATOM      4  C5  UNL d   1      -2.552  -0.419  -1.570  0.00  0.00    -0.004 A 
ATOM      5  C6  UNL d   1      -1.394  -0.098  -2.285  0.00  0.00    -0.075 A 
ATOM      6  C7  UNL d   1      -1.464   0.287  -3.734  0.00  0.00     0.076 C 
ATOM      7  C8  UNL d   1      -0.155  -0.131  -1.630  0.00  0.00     0.001 A 
ENDROOT
BRANCH   1   8
ATOM      8  C1  UNL d   1       1.274  -0.517   0.416  0.00  0.00     0.053 C 
ATOM      9  C   UNL d   1       1.838   0.876   0.647  0.00  0.00     0.018 C 
ENDBRANCH   1   8
TORSDOF 1
ENDMDL
