MODEL 1
REMARK minimizedAffinity -4.63419342
REMARK minimizedRMSD -1
REMARK  1 active torsions:
REMARK  status: ('A' for Active; 'I' for Inactive)
REMARK    1  A    between atoms: C1_2  and  C2_3 
ROOT
ATOM      1  C2  UNL d   1       0.334   0.040  -0.133  0.00  0.00    -0.073 A 
ATOM      2  C3  UNL d   1      -0.186  -0.569   1.014  0.00  0.00    -0.002 A 
ATOM      3  C4  UNL d   1      -1.486  -1.076   1.016  0.00  0.00     0.004 A 
ATOM      4  C5  UNL d   1      -2.276  -0.986  -0.130  0.00  0.00    -0.004 A 
ATOM      5  C6  UNL d   1      -1.770  -0.391  -1.291  0.00  0.00    -0.075 A 
ATOM      6  C7  UNL d   1      -2.608  -0.284  -2.531  0.00  0.00     0.076 C 
ATOM      7  C8  UNL d   1      -0.465   0.118  -1.283  0.00  0.00     0.001 A 
ENDROOT
BRANCH   1   8
ATOM      8  C1  UNL d   1       1.739   0.584  -0.141  0.00  0.00     0.053 C 
ATOM      9  C   UNL d   1       1.837   1.921   0.575  0.00  0.00     0.018 C 
ENDBRANCH   1   8
TORSDOF 1
ENDMDL
