MODEL 1
REMARK minimizedAffinity -0.440079689
REMARK minimizedRMSD -1
REMARK  1 active torsions:
REMARK  status: ('A' for Active; 'I' for Inactive)
REMARK    1  A    between atoms: C1_2  and  C2_3 
ROOT
ATOM      1  C2  UNL d   1       3.217   3.302  -0.159  0.00  0.00    -0.073 A 
ATOM      2  C3  UNL d   1       3.179   3.810   1.145  0.00  0.00    -0.002 A 
ATOM      3  C4  UNL d   1       2.543   3.097   2.161  0.00  0.00     0.004 A 
ATOM      4  C5  UNL d   1       1.945   1.867   1.888  0.00  0.00    -0.004 A 
ATOM      5  C6  UNL d   1       1.983   1.336   0.594  0.00  0.00    -0.075 A 
ATOM      6  C7  UNL d   1       1.343   0.016   0.283  0.00  0.00     0.076 C 
ATOM      7  C8  UNL d   1       2.621   2.060  -0.422  0.00  0.00     0.001 A 
ENDROOT
BRANCH   1   8
ATOM      8  C1  UNL d   1       3.909   4.065  -1.258  0.00  0.00     0.053 C 
ATOM      9  C   UNL d   1       4.741   3.155  -2.148  0.00  0.00     0.018 C 
ENDBRANCH   1   8
TORSDOF 1
ENDMDL
