MODEL 1
REMARK minimizedAffinity -5.74493313
REMARK minimizedRMSD -1
REMARK  1 active torsions:
REMARK  status: ('A' for Active; 'I' for Inactive)
REMARK    1  A    between atoms: C1_2  and  C2_3 
ROOT
ATOM      1  C2  UNL d   1       0.139   0.336   0.224  0.00  0.00    -0.073 A 
ATOM      2  C3  UNL d   1       0.069   0.731  -1.117  0.00  0.00    -0.002 A 
ATOM      3  C4  UNL d   1      -1.017   0.353  -1.907  0.00  0.00     0.004 A 
ATOM      4  C5  UNL d   1      -2.047  -0.416  -1.364  0.00  0.00    -0.004 A 
ATOM      5  C6  UNL d   1      -2.000  -0.810  -0.023  0.00  0.00    -0.075 A 
ATOM      6  C7  UNL d   1      -3.098  -1.640   0.575  0.00  0.00     0.076 C 
ATOM      7  C8  UNL d   1      -0.905  -0.429   0.763  0.00  0.00     0.001 A 
ENDROOT
BRANCH   1   8
ATOM      8  C1  UNL d   1       1.307   0.747   1.083  0.00  0.00     0.053 C 
ATOM      9  C   UNL d   1       2.107   1.876   0.454  0.00  0.00     0.018 C 
ENDBRANCH   1   8
TORSDOF 1
ENDMDL
