MODEL 1
REMARK minimizedAffinity -4.21443176
REMARK minimizedRMSD -1
REMARK  1 active torsions:
REMARK  status: ('A' for Active; 'I' for Inactive)
REMARK    1  A    between atoms: C1_2  and  C2_3 
ROOT
ATOM      1  C2  UNL d   1       0.672   0.125   0.407  0.00  0.00    -0.073 A 
ATOM      2  C3  UNL d   1       0.907   0.213  -0.970  0.00  0.00    -0.002 A 
ATOM      3  C4  UNL d   1      -0.123  -0.034  -1.878  0.00  0.00     0.004 A 
ATOM      4  C5  UNL d   1      -1.399  -0.363  -1.421  0.00  0.00    -0.004 A 
ATOM      5  C6  UNL d   1      -1.657  -0.444  -0.048  0.00  0.00    -0.075 A 
ATOM      6  C7  UNL d   1      -3.023  -0.799   0.460  0.00  0.00     0.076 C 
ATOM      7  C8  UNL d   1      -0.616  -0.198   0.858  0.00  0.00     0.001 A 
ENDROOT
BRANCH   1   8
ATOM      8  C1  UNL d   1       1.780   0.396   1.391  0.00  0.00     0.053 C 
ATOM      9  C   UNL d   1       2.564   1.650   1.036  0.00  0.00     0.018 C 
ENDBRANCH   1   8
TORSDOF 1
ENDMDL
