MODEL 1
REMARK minimizedAffinity -1.62706089
REMARK minimizedRMSD -1
REMARK  1 active torsions:
REMARK  status: ('A' for Active; 'I' for Inactive)
REMARK    1  A    between atoms: C1_2  and  C2_3 
ROOT
ATOM      1  C2  UNL d   1       0.467   0.584   0.203  0.00  0.00    -0.073 A 
ATOM      2  C3  UNL d   1       1.412  -0.352   0.637  0.00  0.00    -0.002 A 
ATOM      3  C4  UNL d   1       2.675   0.066   1.058  0.00  0.00     0.004 A 
ATOM      4  C5  UNL d   1       3.003   1.422   1.057  0.00  0.00    -0.004 A 
ATOM      5  C6  UNL d   1       2.068   2.373   0.637  0.00  0.00    -0.075 A 
ATOM      6  C7  UNL d   1       2.405   3.835   0.627  0.00  0.00     0.076 C 
ATOM      7  C8  UNL d   1       0.802   1.946   0.213  0.00  0.00     0.001 A 
ENDROOT
BRANCH   1   8
ATOM      8  C1  UNL d   1      -0.901   0.138  -0.247  0.00  0.00     0.053 C 
ATOM      9  C   UNL d   1      -1.592  -0.722   0.799  0.00  0.00     0.018 C 
ENDBRANCH   1   8
TORSDOF 1
ENDMDL
