MODEL 1
REMARK minimizedAffinity -0.0267712418
REMARK minimizedRMSD -1
REMARK  0 active torsions:
REMARK  status: ('A' for Active; 'I' for Inactive)
ROOT
ATOM      1  C   UNL d   1       2.244   3.743   0.761  0.00  0.00    -0.002 A 
ATOM      2  C1  UNL d   1       1.055   4.351   1.137  0.00  0.00     0.010 A 
ATOM      3  C2  UNL d   1      -0.161   3.679   0.999  0.00  0.00     0.041 A 
ATOM      4  C3  UNL d   1      -0.161   2.372   0.474  0.00  0.00    -0.075 A 
ATOM      5  S   UNL d   1      -1.530   1.357   0.215  0.00  0.00     0.015 SA
ATOM      6  C4  UNL d   1      -0.568   0.091  -0.400  0.00  0.00     0.022 A 
ATOM      7  C5  UNL d   1       0.767   0.418  -0.415  0.00  0.00     0.026 A 
ATOM      8  C6  UNL d   1       1.023   1.738   0.089  0.00  0.00    -0.082 A 
ATOM      9  C7  UNL d   1       2.240   2.447   0.240  0.00  0.00     0.045 A 
ENDROOT
TORSDOF 0
ENDMDL
