MODEL 1
REMARK minimizedAffinity -0.952905059
REMARK minimizedRMSD -1
REMARK  0 active torsions:
REMARK  status: ('A' for Active; 'I' for Inactive)
ROOT
ATOM      1  C   UNL d   1      -3.052   0.665   2.764  0.00  0.00    -0.002 A 
ATOM      2  C1  UNL d   1      -3.477   1.594   1.825  0.00  0.00     0.010 A 
ATOM      3  C2  UNL d   1      -2.810   1.727   0.605  0.00  0.00     0.041 A 
ATOM      4  C3  UNL d   1      -1.699   0.901   0.343  0.00  0.00    -0.075 A 
ATOM      5  S   UNL d   1      -0.729   0.886  -1.082  0.00  0.00     0.015 SA
ATOM      6  C4  UNL d   1       0.272  -0.354  -0.478  0.00  0.00     0.022 A 
ATOM      7  C5  UNL d   1      -0.110  -0.758   0.779  0.00  0.00     0.026 A 
ATOM      8  C6  UNL d   1      -1.253  -0.042   1.273  0.00  0.00    -0.082 A 
ATOM      9  C7  UNL d   1      -1.950  -0.152   2.500  0.00  0.00     0.045 A 
ENDROOT
TORSDOF 0
ENDMDL
