MODEL 1
REMARK minimizedAffinity -0.520054519
REMARK minimizedRMSD -1
REMARK  0 active torsions:
REMARK  status: ('A' for Active; 'I' for Inactive)
ROOT
ATOM      1  C   UNL d   1       0.020  -2.586  -1.235  0.00  0.00    -0.002 A 
ATOM      2  C1  UNL d   1       0.113  -3.072   0.062  0.00  0.00     0.010 A 
ATOM      3  C2  UNL d   1       0.430  -2.219   1.120  0.00  0.00     0.041 A 
ATOM      4  C3  UNL d   1       0.653  -0.854   0.851  0.00  0.00    -0.075 A 
ATOM      5  S   UNL d   1       1.053   0.378   1.989  0.00  0.00     0.015 SA
ATOM      6  C4  UNL d   1       1.110   1.579   0.781  0.00  0.00     0.022 A 
ATOM      7  C5  UNL d   1       0.833   1.071  -0.465  0.00  0.00     0.026 A 
ATOM      8  C6  UNL d   1       0.564  -0.340  -0.446  0.00  0.00    -0.082 A 
ATOM      9  C7  UNL d   1       0.242  -1.231  -1.497  0.00  0.00     0.045 A 
ENDROOT
TORSDOF 0
ENDMDL
