MODEL 1
REMARK minimizedAffinity 0.0113241961
REMARK minimizedRMSD -1
REMARK  0 active torsions:
REMARK  status: ('A' for Active; 'I' for Inactive)
ROOT
ATOM      1  C   UNL d   1      -4.712   1.580   2.315  0.00  0.00    -0.002 A 
ATOM      2  C1  UNL d   1      -4.548   2.232   1.102  0.00  0.00     0.010 A 
ATOM      3  C2  UNL d   1      -3.468   1.927   0.271  0.00  0.00     0.041 A 
ATOM      4  C3  UNL d   1      -2.547   0.944   0.684  0.00  0.00    -0.075 A 
ATOM      5  S   UNL d   1      -1.149   0.405  -0.169  0.00  0.00     0.015 SA
ATOM      6  C4  UNL d   1      -0.737  -0.705   1.057  0.00  0.00     0.022 A 
ATOM      7  C5  UNL d   1      -1.633  -0.678   2.099  0.00  0.00     0.026 A 
ATOM      8  C6  UNL d   1      -2.692   0.272   1.902  0.00  0.00    -0.082 A 
ATOM      9  C7  UNL d   1      -3.797   0.605   2.721  0.00  0.00     0.045 A 
ENDROOT
TORSDOF 0
ENDMDL
