MODEL 1
REMARK minimizedAffinity 2.45741272
REMARK minimizedRMSD -1
REMARK  0 active torsions:
REMARK  status: ('A' for Active; 'I' for Inactive)
ROOT
ATOM      1  C   UNL d   1      -0.085  -0.856   1.244  0.00  0.00    -0.002 A 
ATOM      2  C1  UNL d   1       0.368  -0.079   0.187  0.00  0.00     0.010 A 
ATOM      3  C2  UNL d   1      -0.378   1.012  -0.263  0.00  0.00     0.041 A 
ATOM      4  C3  UNL d   1      -1.597   1.314   0.374  0.00  0.00    -0.075 A 
ATOM      5  S   UNL d   1      -2.678   2.602  -0.005  0.00  0.00     0.015 SA
ATOM      6  C4  UNL d   1      -3.766   2.153   1.228  0.00  0.00     0.022 A 
ATOM      7  C5  UNL d   1      -3.331   1.049   1.922  0.00  0.00     0.026 A 
ATOM      8  C6  UNL d   1      -2.074   0.547   1.442  0.00  0.00    -0.082 A 
ATOM      9  C7  UNL d   1      -1.295  -0.553   1.874  0.00  0.00     0.045 A 
ENDROOT
TORSDOF 0
ENDMDL
