MODEL 1
REMARK minimizedAffinity -1.54133785
REMARK minimizedRMSD -1
REMARK  0 active torsions:
REMARK  status: ('A' for Active; 'I' for Inactive)
ROOT
ATOM      1  C   UNL d   1      -0.325  -1.238   0.800  0.00  0.00    -0.002 A 
ATOM      2  C1  UNL d   1      -0.260  -0.558  -0.408  0.00  0.00     0.010 A 
ATOM      3  C2  UNL d   1      -1.198   0.428  -0.719  0.00  0.00     0.041 A 
ATOM      4  C3  UNL d   1      -2.212   0.723   0.214  0.00  0.00    -0.075 A 
ATOM      5  S   UNL d   1      -3.468   1.893   0.049  0.00  0.00     0.015 SA
ATOM      6  C4  UNL d   1      -4.120   1.517   1.578  0.00  0.00     0.022 A 
ATOM      7  C5  UNL d   1      -3.410   0.526   2.212  0.00  0.00     0.026 A 
ATOM      8  C6  UNL d   1      -2.298   0.052   1.437  0.00  0.00    -0.082 A 
ATOM      9  C7  UNL d   1      -1.332  -0.943   1.723  0.00  0.00     0.045 A 
ENDROOT
TORSDOF 0
ENDMDL
