MODEL 1
REMARK minimizedAffinity -3.52495313
REMARK minimizedRMSD -1
REMARK  0 active torsions:
REMARK  status: ('A' for Active; 'I' for Inactive)
ROOT
ATOM      1  C   UNL d   1       1.162  -2.962  -0.466  0.00  0.00    -0.002 A 
ATOM      2  C1  UNL d   1       0.273  -3.530   0.436  0.00  0.00     0.010 A 
ATOM      3  C2  UNL d   1      -0.729  -2.758   1.027  0.00  0.00     0.041 A 
ATOM      4  C3  UNL d   1      -0.826  -1.393   0.691  0.00  0.00    -0.075 A 
ATOM      5  S   UNL d   1      -1.974  -0.254   1.289  0.00  0.00     0.015 SA
ATOM      6  C4  UNL d   1      -1.312   1.012   0.360  0.00  0.00     0.022 A 
ATOM      7  C5  UNL d   1      -0.240   0.594  -0.393  0.00  0.00     0.026 A 
ATOM      8  C6  UNL d   1       0.057  -0.799  -0.215  0.00  0.00    -0.082 A 
ATOM      9  C7  UNL d   1       1.063  -1.608  -0.796  0.00  0.00     0.045 A 
ENDROOT
TORSDOF 0
ENDMDL
