MODEL 1
REMARK minimizedAffinity 0.938856542
REMARK minimizedRMSD -1
REMARK  0 active torsions:
REMARK  status: ('A' for Active; 'I' for Inactive)
ROOT
ATOM      1  C   UNL d   1       0.163  -0.950   0.384  0.00  0.00    -0.002 A 
ATOM      2  C1  UNL d   1      -0.512  -1.627   1.390  0.00  0.00     0.010 A 
ATOM      3  C2  UNL d   1      -1.719  -1.135   1.890  0.00  0.00     0.041 A 
ATOM      4  C3  UNL d   1      -2.243   0.058   1.356  0.00  0.00    -0.075 A 
ATOM      5  S   UNL d   1      -3.706   0.847   1.813  0.00  0.00     0.015 SA
ATOM      6  C4  UNL d   1      -3.470   2.101   0.683  0.00  0.00     0.022 A 
ATOM      7  C5  UNL d   1      -2.309   1.938  -0.034  0.00  0.00     0.026 A 
ATOM      8  C6  UNL d   1      -1.582   0.757   0.342  0.00  0.00    -0.082 A 
ATOM      9  C7  UNL d   1      -0.360   0.234  -0.144  0.00  0.00     0.045 A 
ENDROOT
TORSDOF 0
ENDMDL
