MODEL 1
REMARK minimizedAffinity 8.41605473
REMARK minimizedRMSD -1
REMARK  0 active torsions:
REMARK  status: ('A' for Active; 'I' for Inactive)
ROOT
ATOM      1  C   UNL d   1       0.018   4.613   3.475  0.00  0.00    -0.002 A 
ATOM      2  C1  UNL d   1       1.295   4.092   3.315  0.00  0.00     0.010 A 
ATOM      3  C2  UNL d   1       1.576   3.212   2.269  0.00  0.00     0.041 A 
ATOM      4  C3  UNL d   1       0.544   2.861   1.377  0.00  0.00    -0.075 A 
ATOM      5  S   UNL d   1       0.657   1.801   0.022  0.00  0.00     0.015 SA
ATOM      6  C4  UNL d   1      -0.986   2.016  -0.378  0.00  0.00     0.022 A 
ATOM      7  C5  UNL d   1      -1.620   2.871   0.491  0.00  0.00     0.026 A 
ATOM      8  C6  UNL d   1      -0.749   3.373   1.516  0.00  0.00    -0.082 A 
ATOM      9  C7  UNL d   1      -1.003   4.263   2.588  0.00  0.00     0.045 A 
ENDROOT
TORSDOF 0
ENDMDL
