MODEL 1
REMARK minimizedAffinity 10.6526947
REMARK minimizedRMSD -1
REMARK  0 active torsions:
REMARK  status: ('A' for Active; 'I' for Inactive)
ROOT
ATOM      1  C   UNL d   1       3.792   2.536  -0.477  0.00  0.00    -0.002 A 
ATOM      2  C1  UNL d   1       4.584   3.667  -0.340  0.00  0.00     0.010 A 
ATOM      3  C2  UNL d   1       4.173   4.728   0.469  0.00  0.00     0.041 A 
ATOM      4  C3  UNL d   1       2.941   4.633   1.145  0.00  0.00    -0.075 A 
ATOM      5  S   UNL d   1       2.235   5.808   2.190  0.00  0.00     0.015 SA
ATOM      6  C4  UNL d   1       0.865   4.837   2.480  0.00  0.00     0.022 A 
ATOM      7  C5  UNL d   1       0.928   3.641   1.804  0.00  0.00     0.026 A 
ATOM      8  C6  UNL d   1       2.126   3.504   1.024  0.00  0.00    -0.082 A 
ATOM      9  C7  UNL d   1       2.570   2.445   0.196  0.00  0.00     0.045 A 
ENDROOT
TORSDOF 0
ENDMDL
