MODEL 1
REMARK minimizedAffinity 8.74966908
REMARK minimizedRMSD -1
REMARK  0 active torsions:
REMARK  status: ('A' for Active; 'I' for Inactive)
ROOT
ATOM      1  C   UNL d   1      -1.196  -3.886  -5.855  0.00  0.00    -0.002 A 
ATOM      2  C1  UNL d   1      -1.056  -5.267  -5.860  0.00  0.00     0.010 A 
ATOM      3  C2  UNL d   1      -1.191  -5.998  -4.678  0.00  0.00     0.041 A 
ATOM      4  C3  UNL d   1      -1.473  -5.312  -3.480  0.00  0.00    -0.075 A 
ATOM      5  S   UNL d   1      -1.682  -5.999  -1.913  0.00  0.00     0.015 SA
ATOM      6  C4  UNL d   1      -1.963  -4.476  -1.201  0.00  0.00     0.022 A 
ATOM      7  C5  UNL d   1      -1.902  -3.457  -2.122  0.00  0.00     0.026 A 
ATOM      8  C6  UNL d   1      -1.620  -3.922  -3.451  0.00  0.00    -0.082 A 
ATOM      9  C7  UNL d   1      -1.477  -3.209  -4.665  0.00  0.00     0.045 A 
ENDROOT
TORSDOF 0
ENDMDL
