MODEL 1
REMARK minimizedAffinity 11.9867649
REMARK minimizedRMSD -1
REMARK  0 active torsions:
REMARK  status: ('A' for Active; 'I' for Inactive)
ROOT
ATOM      1  C   UNL d   1      -3.556  -4.806  -1.871  0.00  0.00    -0.002 A 
ATOM      2  C1  UNL d   1      -4.061  -3.741  -1.138  0.00  0.00     0.010 A 
ATOM      3  C2  UNL d   1      -3.247  -2.656  -0.809  0.00  0.00     0.041 A 
ATOM      4  C3  UNL d   1      -1.904  -2.657  -1.236  0.00  0.00    -0.075 A 
ATOM      5  S   UNL d   1      -0.722  -1.435  -0.951  0.00  0.00     0.015 SA
ATOM      6  C4  UNL d   1       0.481  -2.297  -1.796  0.00  0.00     0.022 A 
ATOM      7  C5  UNL d   1       0.010  -3.490  -2.290  0.00  0.00     0.026 A 
ATOM      8  C6  UNL d   1      -1.373  -3.717  -1.976  0.00  0.00    -0.082 A 
ATOM      9  C7  UNL d   1      -2.224  -4.804  -2.292  0.00  0.00     0.045 A 
ENDROOT
TORSDOF 0
ENDMDL
