MODEL 1
REMARK minimizedAffinity 13.0523205
REMARK minimizedRMSD -1
REMARK  0 active torsions:
REMARK  status: ('A' for Active; 'I' for Inactive)
ROOT
ATOM      1  C   UNL d   1      -2.685  -3.403  -1.487  0.00  0.00    -0.002 A 
ATOM      2  C1  UNL d   1      -1.606  -2.615  -1.862  0.00  0.00     0.010 A 
ATOM      3  C2  UNL d   1      -0.841  -2.944  -2.983  0.00  0.00     0.041 A 
ATOM      4  C3  UNL d   1      -1.184  -4.088  -3.730  0.00  0.00    -0.075 A 
ATOM      5  S   UNL d   1      -0.393  -4.685  -5.140  0.00  0.00     0.015 SA
ATOM      6  C4  UNL d   1      -1.469  -6.000  -5.279  0.00  0.00     0.022 A 
ATOM      7  C5  UNL d   1      -2.415  -5.999  -4.282  0.00  0.00     0.026 A 
ATOM      8  C6  UNL d   1      -2.267  -4.897  -3.373  0.00  0.00    -0.082 A 
ATOM      9  C7  UNL d   1      -3.022  -4.537  -2.231  0.00  0.00     0.045 A 
ENDROOT
TORSDOF 0
ENDMDL
