MODEL 1
REMARK minimizedAffinity 5.93638515
REMARK minimizedRMSD -1
REMARK  0 active torsions:
REMARK  status: ('A' for Active; 'I' for Inactive)
ROOT
ATOM      1  C   UNL d   1      -1.290   0.941   0.487  0.00  0.00    -0.002 A 
ATOM      2  C1  UNL d   1      -2.445   1.699   0.618  0.00  0.00     0.010 A 
ATOM      3  C2  UNL d   1      -2.454   2.849   1.410  0.00  0.00     0.041 A 
ATOM      4  C3  UNL d   1      -1.270   3.230   2.071  0.00  0.00    -0.075 A 
ATOM      5  S   UNL d   1      -1.045   4.601   3.092  0.00  0.00     0.015 SA
ATOM      6  C4  UNL d   1       0.590   4.215   3.376  0.00  0.00     0.022 A 
ATOM      7  C5  UNL d   1       0.972   3.070   2.717  0.00  0.00     0.026 A 
ATOM      8  C6  UNL d   1      -0.094   2.485   1.953  0.00  0.00    -0.082 A 
ATOM      9  C7  UNL d   1      -0.117   1.323   1.144  0.00  0.00     0.045 A 
ENDROOT
TORSDOF 0
ENDMDL
