MODEL 1
REMARK minimizedAffinity 5.49411297
REMARK minimizedRMSD -1
REMARK  0 active torsions:
REMARK  status: ('A' for Active; 'I' for Inactive)
ROOT
ATOM      1  C   UNL d   1       6.000  -2.754   6.000  0.00  0.00    -0.002 A 
ATOM      2  C1  UNL d   1       5.962  -4.141   5.999  0.00  0.00     0.010 A 
ATOM      3  C2  UNL d   1       4.846  -4.821   5.508  0.00  0.00     0.041 A 
ATOM      4  C3  UNL d   1       3.758  -4.076   5.012  0.00  0.00    -0.075 A 
ATOM      5  S   UNL d   1       2.286  -4.694   4.361  0.00  0.00     0.015 SA
ATOM      6  C4  UNL d   1       1.673  -3.131   4.067  0.00  0.00     0.022 A 
ATOM      7  C5  UNL d   1       2.556  -2.150   4.451  0.00  0.00     0.026 A 
ATOM      8  C6  UNL d   1       3.773  -2.679   5.001  0.00  0.00    -0.082 A 
ATOM      9  C7  UNL d   1       4.919  -2.018   5.506  0.00  0.00     0.045 A 
ENDROOT
TORSDOF 0
ENDMDL
