MODEL 1
REMARK minimizedAffinity 2.0665648
REMARK minimizedRMSD -1
REMARK  0 active torsions:
REMARK  status: ('A' for Active; 'I' for Inactive)
ROOT
ATOM      1  C   UNL d   1      -1.276  -1.268   2.264  0.00  0.00     0.023 A 
ATOM      2  C1  UNL d   1      -0.736  -2.532   2.024  0.00  0.00     0.003 A 
ATOM      3  C2  UNL d   1      -0.443  -2.931   0.718  0.00  0.00     0.048 A 
ATOM      4  C3  UNL d   1      -0.691  -2.061  -0.343  0.00  0.00     0.023 A 
ATOM      5  C4  UNL d   1      -1.231  -0.795  -0.107  0.00  0.00     0.048 A 
ATOM      6  C5  UNL d   1      -1.523  -0.401   1.200  0.00  0.00     0.003 A 
ATOM      7  I   UNL d   1      -0.256  -2.653  -2.287  0.00  0.00    -0.146 I 
ENDROOT
TORSDOF 0
ENDMDL
