MODEL 1
REMARK minimizedAffinity -0.574008167
REMARK minimizedRMSD -1
REMARK  0 active torsions:
REMARK  status: ('A' for Active; 'I' for Inactive)
ROOT
ATOM      1  C   UNL d   1       0.913  -2.605  -3.726  0.00  0.00     0.023 A 
ATOM      2  C1  UNL d   1       0.727  -3.763  -2.971  0.00  0.00     0.003 A 
ATOM      3  C2  UNL d   1       0.202  -3.680  -1.680  0.00  0.00     0.048 A 
ATOM      4  C3  UNL d   1      -0.137  -2.435  -1.151  0.00  0.00     0.023 A 
ATOM      5  C4  UNL d   1       0.046  -1.274  -1.903  0.00  0.00     0.048 A 
ATOM      6  C5  UNL d   1       0.573  -1.362  -3.193  0.00  0.00     0.003 A 
ATOM      7  I   UNL d   1      -0.919  -2.309   0.771  0.00  0.00    -0.146 I 
ENDROOT
TORSDOF 0
ENDMDL
