MODEL 1
REMARK minimizedAffinity 0.970637262
REMARK minimizedRMSD -1
REMARK  0 active torsions:
REMARK  status: ('A' for Active; 'I' for Inactive)
ROOT
ATOM      1  C   UNL d   1       0.354  -3.779  -1.235  0.00  0.00     0.023 A 
ATOM      2  C1  UNL d   1      -0.487  -2.670  -1.143  0.00  0.00     0.003 A 
ATOM      3  C2  UNL d   1      -0.859  -2.177   0.109  0.00  0.00     0.048 A 
ATOM      4  C3  UNL d   1      -0.385  -2.796   1.265  0.00  0.00     0.023 A 
ATOM      5  C4  UNL d   1       0.458  -3.905   1.178  0.00  0.00     0.048 A 
ATOM      6  C5  UNL d   1       0.826  -4.396  -0.077  0.00  0.00     0.003 A 
ATOM      7  I   UNL d   1      -0.936  -2.063   3.130  0.00  0.00    -0.146 I 
ENDROOT
TORSDOF 0
ENDMDL
