MODEL 1
REMARK minimizedAffinity -2.9696629
REMARK minimizedRMSD -1
REMARK  0 active torsions:
REMARK  status: ('A' for Active; 'I' for Inactive)
ROOT
ATOM      1  C   UNL d   1       0.491  -3.066  -1.930  0.00  0.00     0.023 A 
ATOM      2  C1  UNL d   1       0.469  -4.060  -0.952  0.00  0.00     0.003 A 
ATOM      3  C2  UNL d   1       0.064  -3.754   0.349  0.00  0.00     0.048 A 
ATOM      4  C3  UNL d   1      -0.319  -2.451   0.665  0.00  0.00     0.023 A 
ATOM      5  C4  UNL d   1      -0.299  -1.452  -0.310  0.00  0.00     0.048 A 
ATOM      6  C5  UNL d   1       0.108  -1.763  -1.609  0.00  0.00     0.003 A 
ATOM      7  I   UNL d   1      -0.923  -1.993   2.600  0.00  0.00    -0.146 I 
ENDROOT
TORSDOF 0
ENDMDL
