MODEL 1
REMARK minimizedAffinity 9.10135078
REMARK minimizedRMSD -1
REMARK  0 active torsions:
REMARK  status: ('A' for Active; 'I' for Inactive)
ROOT
ATOM      1  C   UNL d   1      -1.478  -3.465   1.573  0.00  0.00     0.023 A 
ATOM      2  C1  UNL d   1      -0.095  -3.281   1.596  0.00  0.00     0.003 A 
ATOM      3  C2  UNL d   1       0.581  -2.910   0.432  0.00  0.00     0.048 A 
ATOM      4  C3  UNL d   1      -0.133  -2.723  -0.752  0.00  0.00     0.023 A 
ATOM      5  C4  UNL d   1      -1.516  -2.905  -0.779  0.00  0.00     0.048 A 
ATOM      6  C5  UNL d   1      -2.187  -3.277   0.387  0.00  0.00     0.003 A 
ATOM      7  I   UNL d   1       0.870  -2.171  -2.486  0.00  0.00    -0.146 I 
ENDROOT
TORSDOF 0
ENDMDL
