MODEL 1
REMARK minimizedAffinity 2.96879554
REMARK minimizedRMSD -1
REMARK  0 active torsions:
REMARK  status: ('A' for Active; 'I' for Inactive)
ROOT
ATOM      1  C   UNL d   1      -0.007  -3.376   0.842  0.00  0.00     0.023 A 
ATOM      2  C1  UNL d   1       0.422  -4.380  -0.026  0.00  0.00     0.003 A 
ATOM      3  C2  UNL d   1       0.645  -4.090  -1.374  0.00  0.00     0.048 A 
ATOM      4  C3  UNL d   1       0.438  -2.794  -1.846  0.00  0.00     0.023 A 
ATOM      5  C4  UNL d   1       0.010  -1.787  -0.980  0.00  0.00     0.048 A 
ATOM      6  C5  UNL d   1      -0.213  -2.081   0.366  0.00  0.00     0.003 A 
ATOM      7  I   UNL d   1       0.770  -2.360  -3.851  0.00  0.00    -0.146 I 
ENDROOT
TORSDOF 0
ENDMDL
