MODEL 1
REMARK minimizedAffinity 4.46448565
REMARK minimizedRMSD -1
REMARK  0 active torsions:
REMARK  status: ('A' for Active; 'I' for Inactive)
ROOT
ATOM      1  C   UNL d   1       2.613   1.489  -1.444  0.00  0.00     0.023 A 
ATOM      2  C1  UNL d   1       2.908   0.386  -0.642  0.00  0.00     0.003 A 
ATOM      3  C2  UNL d   1       2.106  -0.755  -0.700  0.00  0.00     0.048 A 
ATOM      4  C3  UNL d   1       1.010  -0.787  -1.563  0.00  0.00     0.023 A 
ATOM      5  C4  UNL d   1       0.712   0.314  -2.367  0.00  0.00     0.048 A 
ATOM      6  C5  UNL d   1       1.516   1.453  -2.305  0.00  0.00     0.003 A 
ATOM      7  I   UNL d   1      -0.185  -2.485  -1.651  0.00  0.00    -0.146 I 
ENDROOT
TORSDOF 0
ENDMDL
