MODEL 1
REMARK minimizedAffinity 6.19375134
REMARK minimizedRMSD -1
REMARK  0 active torsions:
REMARK  status: ('A' for Active; 'I' for Inactive)
ROOT
ATOM      1  C   UNL d   1      -0.892  -1.134   1.110  0.00  0.00     0.023 A 
ATOM      2  C1  UNL d   1      -0.790  -2.513   0.926  0.00  0.00     0.003 A 
ATOM      3  C2  UNL d   1      -0.431  -3.027  -0.322  0.00  0.00     0.048 A 
ATOM      4  C3  UNL d   1      -0.176  -2.157  -1.381  0.00  0.00     0.023 A 
ATOM      5  C4  UNL d   1      -0.276  -0.776  -1.201  0.00  0.00     0.048 A 
ATOM      6  C5  UNL d   1      -0.636  -0.267   0.048  0.00  0.00     0.003 A 
ATOM      7  I   UNL d   1       0.358  -2.920  -3.239  0.00  0.00    -0.146 I 
ENDROOT
TORSDOF 0
ENDMDL
