MODEL 1
REMARK minimizedAffinity 3.09744668
REMARK minimizedRMSD -1
REMARK  0 active torsions:
REMARK  status: ('A' for Active; 'I' for Inactive)
ROOT
ATOM      1  C   UNL d   1      -0.281  -3.602  -1.722  0.00  0.00     0.023 A 
ATOM      2  C1  UNL d   1      -0.371  -3.067  -0.437  0.00  0.00     0.003 A 
ATOM      3  C2  UNL d   1       0.112  -1.783  -0.179  0.00  0.00     0.048 A 
ATOM      4  C3  UNL d   1       0.684  -1.039  -1.210  0.00  0.00     0.023 A 
ATOM      5  C4  UNL d   1       0.775  -1.570  -2.498  0.00  0.00     0.048 A 
ATOM      6  C5  UNL d   1       0.291  -2.855  -2.751  0.00  0.00     0.003 A 
ATOM      7  I   UNL d   1       1.404   0.873  -0.828  0.00  0.00    -0.146 I 
ENDROOT
TORSDOF 0
ENDMDL
