MODEL 1
REMARK minimizedAffinity 8.18740368
REMARK minimizedRMSD -1
REMARK  0 active torsions:
REMARK  status: ('A' for Active; 'I' for Inactive)
ROOT
ATOM      1  C   UNL d   1       2.862   1.305  -0.141  0.00  0.00     0.023 A 
ATOM      2  C1  UNL d   1       1.796   1.587  -0.995  0.00  0.00     0.003 A 
ATOM      3  C2  UNL d   1       1.051   0.546  -1.551  0.00  0.00     0.048 A 
ATOM      4  C3  UNL d   1       1.377  -0.776  -1.248  0.00  0.00     0.023 A 
ATOM      5  C4  UNL d   1       2.442  -1.063  -0.393  0.00  0.00     0.048 A 
ATOM      6  C5  UNL d   1       3.184  -0.018   0.160  0.00  0.00     0.003 A 
ATOM      7  I   UNL d   1       0.269  -2.328  -2.074  0.00  0.00    -0.146 I 
ENDROOT
TORSDOF 0
ENDMDL
