MODEL 1
REMARK minimizedAffinity 7.04450893
REMARK minimizedRMSD -1
REMARK  0 active torsions:
REMARK  status: ('A' for Active; 'I' for Inactive)
ROOT
ATOM      1  C   UNL d   1      -3.179   5.553  -0.140  0.00  0.00     0.023 A 
ATOM      2  C1  UNL d   1      -2.311   5.034   0.821  0.00  0.00     0.003 A 
ATOM      3  C2  UNL d   1      -2.080   3.658   0.885  0.00  0.00     0.048 A 
ATOM      4  C3  UNL d   1      -2.719   2.807  -0.017  0.00  0.00     0.023 A 
ATOM      5  C4  UNL d   1      -3.586   3.322  -0.981  0.00  0.00     0.048 A 
ATOM      6  C5  UNL d   1      -3.815   4.698  -1.040  0.00  0.00     0.003 A 
ATOM      7  I   UNL d   1      -2.376   0.759   0.076  0.00  0.00    -0.146 I 
ENDROOT
TORSDOF 0
ENDMDL
