MODEL 1
REMARK minimizedAffinity 6.90263748
REMARK minimizedRMSD -1
REMARK  0 active torsions:
REMARK  status: ('A' for Active; 'I' for Inactive)
ROOT
ATOM      1  C   UNL d   1       3.083   1.005  -0.291  0.00  0.00     0.023 A 
ATOM      2  C1  UNL d   1       3.687  -0.193  -0.675  0.00  0.00     0.003 A 
ATOM      3  C2  UNL d   1       3.031  -1.057  -1.553  0.00  0.00     0.048 A 
ATOM      4  C3  UNL d   1       1.771  -0.718  -2.044  0.00  0.00     0.023 A 
ATOM      5  C4  UNL d   1       1.163   0.479  -1.664  0.00  0.00     0.048 A 
ATOM      6  C5  UNL d   1       1.823   1.340  -0.785  0.00  0.00     0.003 A 
ATOM      7  I   UNL d   1       0.792  -2.004  -3.352  0.00  0.00    -0.146 I 
ENDROOT
TORSDOF 0
ENDMDL
