MODEL 1
REMARK minimizedAffinity 8.63961315
REMARK minimizedRMSD -1
REMARK  0 active torsions:
REMARK  status: ('A' for Active; 'I' for Inactive)
ROOT
ATOM      1  C   UNL d   1      -0.493  -2.969  -3.062  0.00  0.00     0.023 A 
ATOM      2  C1  UNL d   1       0.274  -2.177  -3.916  0.00  0.00     0.003 A 
ATOM      3  C2  UNL d   1       1.018  -1.113  -3.402  0.00  0.00     0.048 A 
ATOM      4  C3  UNL d   1       0.991  -0.847  -2.034  0.00  0.00     0.023 A 
ATOM      5  C4  UNL d   1       0.225  -1.638  -1.175  0.00  0.00     0.048 A 
ATOM      6  C5  UNL d   1      -0.518  -2.700  -1.693  0.00  0.00     0.003 A 
ATOM      7  I   UNL d   1       2.098   0.736  -1.267  0.00  0.00    -0.146 I 
ENDROOT
TORSDOF 0
ENDMDL
