MODEL 1
REMARK minimizedAffinity 2.29878402
REMARK minimizedRMSD -1
REMARK  0 active torsions:
REMARK  status: ('A' for Active; 'I' for Inactive)
ROOT
ATOM      1  C   UNL d   1      -0.940  -1.637   1.962  0.00  0.00     0.023 A 
ATOM      2  C1  UNL d   1      -0.698  -3.006   1.855  0.00  0.00     0.003 A 
ATOM      3  C2  UNL d   1      -1.030  -3.686   0.681  0.00  0.00     0.048 A 
ATOM      4  C3  UNL d   1      -1.602  -2.989  -0.383  0.00  0.00     0.023 A 
ATOM      5  C4  UNL d   1      -1.845  -1.619  -0.281  0.00  0.00     0.048 A 
ATOM      6  C5  UNL d   1      -1.513  -0.944   0.896  0.00  0.00     0.003 A 
ATOM      7  I   UNL d   1      -2.096  -3.998  -2.131  0.00  0.00    -0.146 I 
ENDROOT
TORSDOF 0
ENDMDL
