MODEL 1
REMARK minimizedAffinity 16.3006096
REMARK minimizedRMSD -1
REMARK  0 active torsions:
REMARK  status: ('A' for Active; 'I' for Inactive)
ROOT
ATOM      1  C   UNL d   1       1.733   1.018  -1.592  0.00  0.00     0.023 A 
ATOM      2  C1  UNL d   1       2.867   1.352  -0.851  0.00  0.00     0.003 A 
ATOM      3  C2  UNL d   1       3.509   0.382  -0.080  0.00  0.00     0.048 A 
ATOM      4  C3  UNL d   1       3.014  -0.921  -0.054  0.00  0.00     0.023 A 
ATOM      5  C4  UNL d   1       1.880  -1.260  -0.795  0.00  0.00     0.048 A 
ATOM      6  C5  UNL d   1       1.240  -0.287  -1.564  0.00  0.00     0.003 A 
ATOM      7  I   UNL d   1       3.968  -2.367   1.093  0.00  0.00    -0.146 I 
ENDROOT
TORSDOF 0
ENDMDL
