MODEL 1
REMARK minimizedAffinity 1.22241771
REMARK minimizedRMSD -1
REMARK  0 active torsions:
REMARK  status: ('A' for Active; 'I' for Inactive)
ROOT
ATOM      1  C   UNL d   1      -3.825   5.998  -0.322  0.00  0.00     0.023 A 
ATOM      2  C1  UNL d   1      -2.996   5.631   0.738  0.00  0.00     0.003 A 
ATOM      3  C2  UNL d   1      -2.277   4.435   0.682  0.00  0.00     0.048 A 
ATOM      4  C3  UNL d   1      -2.391   3.611  -0.437  0.00  0.00     0.023 A 
ATOM      5  C4  UNL d   1      -3.219   3.975  -1.501  0.00  0.00     0.048 A 
ATOM      6  C5  UNL d   1      -3.936   5.171  -1.440  0.00  0.00     0.003 A 
ATOM      7  I   UNL d   1      -1.322   1.831  -0.522  0.00  0.00    -0.146 I 
ENDROOT
TORSDOF 0
ENDMDL
