MODEL 1
REMARK minimizedAffinity 5.83789825
REMARK minimizedRMSD -1
REMARK  0 active torsions:
REMARK  status: ('A' for Active; 'I' for Inactive)
ROOT
ATOM      1  C   UNL d   1       2.632   0.870  -1.191  0.00  0.00     0.023 A 
ATOM      2  C1  UNL d   1       2.963  -0.389  -0.689  0.00  0.00     0.003 A 
ATOM      3  C2  UNL d   1       2.158  -1.492  -0.981  0.00  0.00     0.048 A 
ATOM      4  C3  UNL d   1       1.024  -1.329  -1.775  0.00  0.00     0.023 A 
ATOM      5  C4  UNL d   1       0.689  -0.071  -2.280  0.00  0.00     0.048 A 
ATOM      6  C5  UNL d   1       1.497   1.029  -1.985  0.00  0.00     0.003 A 
ATOM      7  I   UNL d   1      -0.176  -2.969  -2.210  0.00  0.00    -0.146 I 
ENDROOT
TORSDOF 0
ENDMDL
