MODEL 1
REMARK minimizedAffinity 5.34947634
REMARK minimizedRMSD -1
REMARK  0 active torsions:
REMARK  status: ('A' for Active; 'I' for Inactive)
ROOT
ATOM      1  C1  BNZ d   1       3.746   2.966  -4.595  0.00  0.00     0.000 A 
ATOM      2  C2  BNZ d   1       2.636   2.744  -3.826  0.00  0.00     0.000 A 
ATOM      3  C3  BNZ d   1       2.352   3.549  -2.758  0.00  0.00     0.000 A 
ATOM      4  C4  BNZ d   1       3.199   4.548  -2.437  0.00  0.00     0.000 A 
ATOM      5  C5  BNZ d   1       4.328   4.778  -3.198  0.00  0.00     0.000 A 
ATOM      6  C6  BNZ d   1       4.590   3.991  -4.295  0.00  0.00     0.000 A 
ENDROOT
TORSDOF 0
ENDMDL
