MODEL 1
REMARK minimizedAffinity 7.15539646
REMARK minimizedRMSD -1
REMARK  0 active torsions:
REMARK  status: ('A' for Active; 'I' for Inactive)
ROOT
ATOM      1  C1  BNZ d   1      -0.123  -1.768   2.140  0.00  0.00     0.000 A 
ATOM      2  C2  BNZ d   1      -1.032  -0.776   2.395  0.00  0.00     0.000 A 
ATOM      3  C3  BNZ d   1      -0.884   0.047   3.476  0.00  0.00     0.000 A 
ATOM      4  C4  BNZ d   1       0.148  -0.148   4.322  0.00  0.00     0.000 A 
ATOM      5  C5  BNZ d   1       1.067  -1.150   4.084  0.00  0.00     0.000 A 
ATOM      6  C6  BNZ d   1       0.937  -1.952   2.973  0.00  0.00     0.000 A 
ENDROOT
TORSDOF 0
ENDMDL
