MODEL 1
REMARK minimizedAffinity 6.49257421
REMARK minimizedRMSD -1
REMARK  0 active torsions:
REMARK  status: ('A' for Active; 'I' for Inactive)
ROOT
ATOM      1  C1  BNZ d   1       4.105   0.661   2.521  0.00  0.00     0.000 A 
ATOM      2  C2  BNZ d   1       3.135  -0.040   1.855  0.00  0.00     0.000 A 
ATOM      3  C3  BNZ d   1       2.470   0.517   0.799  0.00  0.00     0.000 A 
ATOM      4  C4  BNZ d   1       2.746   1.786   0.436  0.00  0.00     0.000 A 
ATOM      5  C5  BNZ d   1       3.714   2.509   1.104  0.00  0.00     0.000 A 
ATOM      6  C6  BNZ d   1       4.409   1.932   2.142  0.00  0.00     0.000 A 
ENDROOT
TORSDOF 0
ENDMDL
