MODEL 1
REMARK minimizedAffinity -3.18371844
REMARK minimizedRMSD -1
REMARK  0 active torsions:
REMARK  status: ('A' for Active; 'I' for Inactive)
ROOT
ATOM      1  C1  BNZ d   1       6.000  -3.873  -1.202  0.00  0.00     0.000 A 
ATOM      2  C2  BNZ d   1       4.938  -3.016  -1.086  0.00  0.00     0.000 A 
ATOM      3  C3  BNZ d   1       3.693  -3.483  -0.770  0.00  0.00     0.000 A 
ATOM      4  C4  BNZ d   1       3.503  -4.809  -0.610  0.00  0.00     0.000 A 
ATOM      5  C5  BNZ d   1       4.562  -5.686  -0.733  0.00  0.00     0.000 A 
ATOM      6  C6  BNZ d   1       5.821  -5.208  -1.012  0.00  0.00     0.000 A 
ENDROOT
TORSDOF 0
ENDMDL
