MODEL 1
REMARK minimizedAffinity 4.20099592
REMARK minimizedRMSD -1
REMARK  0 active torsions:
REMARK  status: ('A' for Active; 'I' for Inactive)
ROOT
ATOM      1  C1  BNZ d   1      -4.080   1.492   5.532  0.00  0.00     0.000 A 
ATOM      2  C2  BNZ d   1      -2.764   1.117   5.495  0.00  0.00     0.000 A 
ATOM      3  C3  BNZ d   1      -2.206   0.634   4.344  0.00  0.00     0.000 A 
ATOM      4  C4  BNZ d   1      -2.973   0.490   3.245  0.00  0.00     0.000 A 
ATOM      5  C5  BNZ d   1      -4.305   0.856   3.269  0.00  0.00     0.000 A 
ATOM      6  C6  BNZ d   1      -4.853   1.377   4.418  0.00  0.00     0.000 A 
ENDROOT
TORSDOF 0
ENDMDL
