MODEL 1
REMARK minimizedAffinity 9.2369175
REMARK minimizedRMSD -1
REMARK  0 active torsions:
REMARK  status: ('A' for Active; 'I' for Inactive)
ROOT
ATOM      1  C1  BNZ d   1      -0.631  -0.178   2.788  0.00  0.00     0.000 A 
ATOM      2  C2  BNZ d   1      -0.608  -1.289   1.988  0.00  0.00     0.000 A 
ATOM      3  C3  BNZ d   1      -1.690  -1.624   1.224  0.00  0.00     0.000 A 
ATOM      4  C4  BNZ d   1      -2.808  -0.872   1.291  0.00  0.00     0.000 A 
ATOM      5  C5  BNZ d   1      -2.850   0.246   2.100  0.00  0.00     0.000 A 
ATOM      6  C6  BNZ d   1      -1.745   0.602   2.838  0.00  0.00     0.000 A 
ENDROOT
TORSDOF 0
ENDMDL
