MODEL 1
REMARK minimizedAffinity 8.10610867
REMARK minimizedRMSD -1
REMARK  0 active torsions:
REMARK  status: ('A' for Active; 'I' for Inactive)
ROOT
ATOM      1  C1  BNZ d   1       2.805   3.656  -2.468  0.00  0.00     0.000 A 
ATOM      2  C2  BNZ d   1       2.781   4.976  -2.102  0.00  0.00     0.000 A 
ATOM      3  C3  BNZ d   1       1.599   5.605  -1.825  0.00  0.00     0.000 A 
ATOM      4  C4  BNZ d   1       0.441   4.926  -1.954  0.00  0.00     0.000 A 
ATOM      5  C5  BNZ d   1       0.448   3.597  -2.331  0.00  0.00     0.000 A 
ATOM      6  C6  BNZ d   1       1.642   2.957  -2.571  0.00  0.00     0.000 A 
ENDROOT
TORSDOF 0
ENDMDL
