MODEL 1
REMARK minimizedAffinity 12.9355011
REMARK minimizedRMSD -1
REMARK  0 active torsions:
REMARK  status: ('A' for Active; 'I' for Inactive)
ROOT
ATOM      1  C1  BNZ d   1      -5.465  -0.100  -3.204  0.00  0.00     0.000 A 
ATOM      2  C2  BNZ d   1      -5.999   1.152  -3.052  0.00  0.00     0.000 A 
ATOM      3  C3  BNZ d   1      -5.997   1.770  -1.832  0.00  0.00     0.000 A 
ATOM      4  C4  BNZ d   1      -5.499   1.120  -0.760  0.00  0.00     0.000 A 
ATOM      5  C5  BNZ d   1      -4.966  -0.147  -0.896  0.00  0.00     0.000 A 
ATOM      6  C6  BNZ d   1      -4.934  -0.750  -2.133  0.00  0.00     0.000 A 
ENDROOT
TORSDOF 0
ENDMDL
