MODEL 1
REMARK minimizedAffinity 5.94824648
REMARK minimizedRMSD -1
REMARK  0 active torsions:
REMARK  status: ('A' for Active; 'I' for Inactive)
ROOT
ATOM      1  C1  BNZ d   1       2.029   4.013  -2.251  0.00  0.00     0.000 A 
ATOM      2  C2  BNZ d   1       1.374   5.210  -2.142  0.00  0.00     0.000 A 
ATOM      3  C3  BNZ d   1       0.093   5.351  -2.598  0.00  0.00     0.000 A 
ATOM      4  C4  BNZ d   1      -0.516   4.308  -3.198  0.00  0.00     0.000 A 
ATOM      5  C5  BNZ d   1       0.135   3.097  -3.324  0.00  0.00     0.000 A 
ATOM      6  C6  BNZ d   1       1.410   2.947  -2.829  0.00  0.00     0.000 A 
ENDROOT
TORSDOF 0
ENDMDL
