MODEL 1
REMARK minimizedAffinity 9.40676403
REMARK minimizedRMSD -1
REMARK  0 active torsions:
REMARK  status: ('A' for Active; 'I' for Inactive)
ROOT
ATOM      1  C1  BNZ d   1       0.501   2.356  -2.617  0.00  0.00     0.000 A 
ATOM      2  C2  BNZ d   1       0.463   1.572  -1.495  0.00  0.00     0.000 A 
ATOM      3  C3  BNZ d   1       1.616   1.211  -0.854  0.00  0.00     0.000 A 
ATOM      4  C4  BNZ d   1       2.804   1.601  -1.357  0.00  0.00     0.000 A 
ATOM      5  C5  BNZ d   1       2.860   2.384  -2.493  0.00  0.00     0.000 A 
ATOM      6  C6  BNZ d   1       1.696   2.777  -3.114  0.00  0.00     0.000 A 
ENDROOT
TORSDOF 0
ENDMDL
