MODEL 1
REMARK minimizedAffinity 9.61763573
REMARK minimizedRMSD -1
REMARK  0 active torsions:
REMARK  status: ('A' for Active; 'I' for Inactive)
ROOT
ATOM      1  C1  BNZ d   1       5.963   4.996  -3.811  0.00  0.00     0.000 A 
ATOM      2  C2  BNZ d   1       5.529   4.206  -4.843  0.00  0.00     0.000 A 
ATOM      3  C3  BNZ d   1       4.343   3.534  -4.759  0.00  0.00     0.000 A 
ATOM      4  C4  BNZ d   1       3.611   3.619  -3.629  0.00  0.00     0.000 A 
ATOM      5  C5  BNZ d   1       4.039   4.403  -2.576  0.00  0.00     0.000 A 
ATOM      6  C6  BNZ d   1       5.215   5.109  -2.680  0.00  0.00     0.000 A 
ENDROOT
TORSDOF 0
ENDMDL
