MODEL 1
REMARK minimizedAffinity 9.0599699
REMARK minimizedRMSD -1
REMARK  0 active torsions:
REMARK  status: ('A' for Active; 'I' for Inactive)
ROOT
ATOM      1  C1  BNZ d   1       6.000   3.616  -0.226  0.00  0.00     0.000 A 
ATOM      2  C2  BNZ d   1       5.999   4.792   0.475  0.00  0.00     0.000 A 
ATOM      3  C3  BNZ d   1       5.759   5.982  -0.154  0.00  0.00     0.000 A 
ATOM      4  C4  BNZ d   1       5.559   5.999  -1.487  0.00  0.00     0.000 A 
ATOM      5  C5  BNZ d   1       5.565   4.822  -2.210  0.00  0.00     0.000 A 
ATOM      6  C6  BNZ d   1       5.769   3.622  -1.568  0.00  0.00     0.000 A 
ENDROOT
TORSDOF 0
ENDMDL
