MODEL 1
REMARK minimizedAffinity 4.4351263
REMARK minimizedRMSD -1
REMARK  0 active torsions:
REMARK  status: ('A' for Active; 'I' for Inactive)
ROOT
ATOM      1  C1  BNZ d   1      -1.811   0.337   4.370  0.00  0.00     0.000 A 
ATOM      2  C2  BNZ d   1      -1.209  -0.619   3.596  0.00  0.00     0.000 A 
ATOM      3  C3  BNZ d   1      -1.654  -0.878   2.330  0.00  0.00     0.000 A 
ATOM      4  C4  BNZ d   1      -2.725  -0.210   1.855  0.00  0.00     0.000 A 
ATOM      5  C5  BNZ d   1      -3.349   0.750   2.626  0.00  0.00     0.000 A 
ATOM      6  C6  BNZ d   1      -2.874   1.036   3.885  0.00  0.00     0.000 A 
ENDROOT
TORSDOF 0
ENDMDL
