MODEL 1
REMARK minimizedAffinity 2.29905438
REMARK minimizedRMSD -1
REMARK  0 active torsions:
REMARK  status: ('A' for Active; 'I' for Inactive)
ROOT
ATOM      1  C1  BNZ d   1      -3.093   1.424   4.814  0.00  0.00     0.000 A 
ATOM      2  C2  BNZ d   1      -2.666   0.867   3.638  0.00  0.00     0.000 A 
ATOM      3  C3  BNZ d   1      -1.751  -0.148   3.636  0.00  0.00     0.000 A 
ATOM      4  C4  BNZ d   1      -1.234  -0.577   4.806  0.00  0.00     0.000 A 
ATOM      5  C5  BNZ d   1      -1.647  -0.019   5.999  0.00  0.00     0.000 A 
ATOM      6  C6  BNZ d   1      -2.598   0.976   6.000  0.00  0.00     0.000 A 
ENDROOT
TORSDOF 0
ENDMDL
