MODEL 1
REMARK minimizedAffinity 4.82616043
REMARK minimizedRMSD -1
REMARK  0 active torsions:
REMARK  status: ('A' for Active; 'I' for Inactive)
ROOT
ATOM      1  C1  BNZ d   1      -5.617  -0.916  -0.586  0.00  0.00     0.000 A 
ATOM      2  C2  BNZ d   1      -5.254  -0.006   0.371  0.00  0.00     0.000 A 
ATOM      3  C3  BNZ d   1      -5.280   1.335   0.108  0.00  0.00     0.000 A 
ATOM      4  C4  BNZ d   1      -5.630   1.763  -1.122  0.00  0.00     0.000 A 
ATOM      5  C5  BNZ d   1      -5.990   0.857  -2.101  0.00  0.00     0.000 A 
ATOM      6  C6  BNZ d   1      -6.000  -0.490  -1.820  0.00  0.00     0.000 A 
ENDROOT
TORSDOF 0
ENDMDL
