MODEL 1
REMARK minimizedAffinity 2.13003492
REMARK minimizedRMSD -1
REMARK  0 active torsions:
REMARK  status: ('A' for Active; 'I' for Inactive)
ROOT
ATOM      1  C   UNL d   1       3.198  -1.578  -2.483  0.00  0.00     0.172 C 
ATOM      2  N   UNL d   1       4.028  -2.418  -3.313  0.00  0.00    -0.070 N 
ATOM      3  C1  UNL d   1       5.367  -2.645  -3.134  0.00  0.00    -0.004 A 
ATOM      4  C2  UNL d   1       5.788  -3.498  -4.130  0.00  0.00    -0.047 A 
ATOM      5  C3  UNL d   1       4.664  -3.794  -4.938  0.00  0.00    -0.047 A 
ATOM      6  C4  UNL d   1       3.588  -3.112  -4.410  0.00  0.00    -0.004 A 
ENDROOT
TORSDOF 0
ENDMDL
