MODEL 1
REMARK minimizedAffinity 10.5386124
REMARK minimizedRMSD -1
REMARK  0 active torsions:
REMARK  status: ('A' for Active; 'I' for Inactive)
ROOT
ATOM      1  C   UNL d   1       0.199   1.712   1.136  0.00  0.00     0.172 C 
ATOM      2  N   UNL d   1      -0.106   2.455  -0.064  0.00  0.00    -0.070 N 
ATOM      3  C1  UNL d   1      -0.671   1.940  -1.200  0.00  0.00    -0.004 A 
ATOM      4  C2  UNL d   1      -0.799   2.966  -2.111  0.00  0.00    -0.047 A 
ATOM      5  C3  UNL d   1      -0.292   4.139  -1.501  0.00  0.00    -0.047 A 
ATOM      6  C4  UNL d   1       0.130   3.793  -0.234  0.00  0.00    -0.004 A 
ENDROOT
TORSDOF 0
ENDMDL
