MODEL 1
REMARK minimizedAffinity 6.35667038
REMARK minimizedRMSD -1
REMARK  0 active torsions:
REMARK  status: ('A' for Active; 'I' for Inactive)
ROOT
ATOM      1  C   UNL d   1       2.061  -2.190   4.124  0.00  0.00     0.172 C 
ATOM      2  N   UNL d   1       1.132  -1.110   4.354  0.00  0.00    -0.070 N 
ATOM      3  C1  UNL d   1       1.025   0.026   3.597  0.00  0.00    -0.004 A 
ATOM      4  C2  UNL d   1       0.025   0.803   4.141  0.00  0.00    -0.047 A 
ATOM      5  C3  UNL d   1      -0.486   0.111   5.264  0.00  0.00    -0.047 A 
ATOM      6  C4  UNL d   1       0.217  -1.070   5.373  0.00  0.00    -0.004 A 
ENDROOT
TORSDOF 0
ENDMDL
