MODEL 1
REMARK minimizedAffinity 4.83798456
REMARK minimizedRMSD -1
REMARK  0 active torsions:
REMARK  status: ('A' for Active; 'I' for Inactive)
ROOT
ATOM      1  C   UNL d   1      -4.125   6.000  -6.000  0.00  0.00     0.172 C 
ATOM      2  N   UNL d   1      -4.241   5.166  -4.827  0.00  0.00    -0.070 N 
ATOM      3  C1  UNL d   1      -4.044   3.812  -4.787  0.00  0.00    -0.004 A 
ATOM      4  C2  UNL d   1      -4.249   3.393  -3.490  0.00  0.00    -0.047 A 
ATOM      5  C3  UNL d   1      -4.583   4.535  -2.724  0.00  0.00    -0.047 A 
ATOM      6  C4  UNL d   1      -4.571   5.619  -3.577  0.00  0.00    -0.004 A 
ENDROOT
TORSDOF 0
ENDMDL
