MODEL 1
REMARK minimizedAffinity 3.4205935
REMARK minimizedRMSD -1
REMARK  0 active torsions:
REMARK  status: ('A' for Active; 'I' for Inactive)
ROOT
ATOM      1  C   UNL d   1      -0.758  -2.458  -5.327  0.00  0.00     0.172 C 
ATOM      2  N   UNL d   1      -1.327  -3.777  -5.480  0.00  0.00    -0.070 N 
ATOM      3  C1  UNL d   1      -0.719  -4.953  -5.134  0.00  0.00    -0.004 A 
ATOM      4  C2  UNL d   1      -1.585  -5.982  -5.436  0.00  0.00    -0.047 A 
ATOM      5  C3  UNL d   1      -2.754  -5.403  -5.984  0.00  0.00    -0.047 A 
ATOM      6  C4  UNL d   1      -2.568  -4.036  -6.000  0.00  0.00    -0.004 A 
ENDROOT
TORSDOF 0
ENDMDL
