MODEL 1
REMARK minimizedAffinity 7.52901554
REMARK minimizedRMSD -1
REMARK  0 active torsions:
REMARK  status: ('A' for Active; 'I' for Inactive)
ROOT
ATOM      1  C   UNL d   1      -5.999  -3.706   5.965  0.00  0.00     0.172 C 
ATOM      2  N   UNL d   1      -5.704  -2.449   5.318  0.00  0.00    -0.070 N 
ATOM      3  C1  UNL d   1      -5.092  -2.301   4.103  0.00  0.00    -0.004 A 
ATOM      4  C2  UNL d   1      -4.995  -0.952   3.840  0.00  0.00    -0.047 A 
ATOM      5  C3  UNL d   1      -5.569  -0.265   4.936  0.00  0.00    -0.047 A 
ATOM      6  C4  UNL d   1      -6.000  -1.215   5.836  0.00  0.00    -0.004 A 
ENDROOT
TORSDOF 0
ENDMDL
