MODEL 1
REMARK minimizedAffinity 2.06433296
REMARK minimizedRMSD -1
REMARK  0 active torsions:
REMARK  status: ('A' for Active; 'I' for Inactive)
ROOT
ATOM      1  C   UNL d   1       2.264  -3.732  -1.907  0.00  0.00     0.172 C 
ATOM      2  N   UNL d   1       1.395  -4.402  -0.968  0.00  0.00    -0.070 N 
ATOM      3  C1  UNL d   1       0.791  -3.822   0.115  0.00  0.00    -0.004 A 
ATOM      4  C2  UNL d   1       0.049  -4.792   0.754  0.00  0.00    -0.047 A 
ATOM      5  C3  UNL d   1       0.214  -5.997   0.030  0.00  0.00    -0.047 A 
ATOM      6  C4  UNL d   1       1.052  -5.727  -1.031  0.00  0.00    -0.004 A 
ENDROOT
TORSDOF 0
ENDMDL
