MODEL 1
REMARK minimizedAffinity 0.842348754
REMARK minimizedRMSD -1
REMARK  0 active torsions:
REMARK  status: ('A' for Active; 'I' for Inactive)
ROOT
ATOM      1  C2' OXE d   1       2.222  -2.254   5.151  0.00  0.00     0.078 C 
ATOM      2  C1' OXE d   1       2.393  -4.656   3.707  0.00  0.00     0.078 C 
ATOM      3  C1  OXE d   1       1.882  -3.435   2.984  0.00  0.00    -0.078 A 
ATOM      4  C2  OXE d   1       1.758  -2.275   3.711  0.00  0.00    -0.078 A 
ATOM      5  C3  OXE d   1       1.343  -1.107   3.079  0.00  0.00     0.003 A 
ATOM      6  C4  OXE d   1       0.906  -1.137   1.749  0.00  0.00    -0.002 A 
ATOM      7  C5  OXE d   1       0.987  -2.317   1.002  0.00  0.00    -0.002 A 
ATOM      8  C6  OXE d   1       1.511  -3.462   1.591  0.00  0.00     0.003 A 
ENDROOT
TORSDOF 0
ENDMDL
