MODEL 1
REMARK minimizedAffinity 12.5632362
REMARK minimizedRMSD -1
REMARK  0 active torsions:
REMARK  status: ('A' for Active; 'I' for Inactive)
ROOT
ATOM      1  C2' OXE d   1      -2.608   1.057   0.360  0.00  0.00     0.078 C 
ATOM      2  C1' OXE d   1      -3.972   1.496  -2.054  0.00  0.00     0.078 C 
ATOM      3  C1  OXE d   1      -4.457   2.230  -0.829  0.00  0.00    -0.078 A 
ATOM      4  C2  OXE d   1      -3.813   1.974   0.357  0.00  0.00    -0.078 A 
ATOM      5  C3  OXE d   1      -4.184   2.665   1.507  0.00  0.00     0.003 A 
ATOM      6  C4  OXE d   1      -5.305   3.504   1.499  0.00  0.00    -0.002 A 
ATOM      7  C5  OXE d   1      -6.000   3.748   0.309  0.00  0.00    -0.002 A 
ATOM      8  C6  OXE d   1      -5.563   3.154  -0.870  0.00  0.00     0.003 A 
ENDROOT
TORSDOF 0
ENDMDL
