MODEL 1
REMARK minimizedAffinity 6.95760679
REMARK minimizedRMSD -1
REMARK  0 active torsions:
REMARK  status: ('A' for Active; 'I' for Inactive)
ROOT
ATOM      1  C2' OXE d   1       0.764  -4.864  -1.125  0.00  0.00     0.078 C 
ATOM      2  C1' OXE d   1       1.465  -2.417  -2.308  0.00  0.00     0.078 C 
ATOM      3  C1  OXE d   1       1.632  -2.550  -0.815  0.00  0.00    -0.078 A 
ATOM      4  C2  OXE d   1       1.242  -3.735  -0.238  0.00  0.00    -0.078 A 
ATOM      5  C3  OXE d   1       1.426  -3.930   1.127  0.00  0.00     0.003 A 
ATOM      6  C4  OXE d   1       1.860  -2.877   1.942  0.00  0.00    -0.002 A 
ATOM      7  C5  OXE d   1       2.225  -1.648   1.380  0.00  0.00    -0.002 A 
ATOM      8  C6  OXE d   1       2.157  -1.483   0.001  0.00  0.00     0.003 A 
ENDROOT
TORSDOF 0
ENDMDL
