MODEL 1
REMARK minimizedAffinity -2.53203964
REMARK minimizedRMSD -1
REMARK  0 active torsions:
REMARK  status: ('A' for Active; 'I' for Inactive)
ROOT
ATOM      1  C2' OXE d   1       0.656  -5.925   4.038  0.00  0.00     0.078 C 
ATOM      2  C1' OXE d   1       1.741  -5.978   1.449  0.00  0.00     0.078 C 
ATOM      3  C1  OXE d   1       1.372  -4.635   2.030  0.00  0.00    -0.078 A 
ATOM      4  C2  OXE d   1       0.798  -4.623   3.279  0.00  0.00    -0.078 A 
ATOM      5  C3  OXE d   1       0.490  -3.408   3.884  0.00  0.00     0.003 A 
ATOM      6  C4  OXE d   1       0.615  -2.209   3.171  0.00  0.00    -0.002 A 
ATOM      7  C5  OXE d   1       1.161  -2.203   1.883  0.00  0.00    -0.002 A 
ATOM      8  C6  OXE d   1       1.583  -3.401   1.316  0.00  0.00     0.003 A 
ENDROOT
TORSDOF 0
ENDMDL
