MODEL 1
REMARK minimizedAffinity 1.00619256
REMARK minimizedRMSD -1
REMARK  0 active torsions:
REMARK  status: ('A' for Active; 'I' for Inactive)
ROOT
ATOM      1  C2' OXE d   1      -5.888  -2.074  -5.833  0.00  0.00     0.078 C 
ATOM      2  C1' OXE d   1      -4.912  -2.276  -3.209  0.00  0.00     0.078 C 
ATOM      3  C1  OXE d   1      -5.158  -3.556  -3.969  0.00  0.00    -0.078 A 
ATOM      4  C2  OXE d   1      -5.680  -3.449  -5.235  0.00  0.00    -0.078 A 
ATOM      5  C3  OXE d   1      -5.875  -4.596  -6.000  0.00  0.00     0.003 A 
ATOM      6  C4  OXE d   1      -5.689  -5.864  -5.435  0.00  0.00    -0.002 A 
ATOM      7  C5  OXE d   1      -5.196  -5.996  -4.133  0.00  0.00    -0.002 A 
ATOM      8  C6  OXE d   1      -4.886  -4.854  -3.403  0.00  0.00     0.003 A 
ENDROOT
TORSDOF 0
ENDMDL
