MODEL 1
REMARK minimizedAffinity 6.30150366
REMARK minimizedRMSD -1
REMARK  0 active torsions:
REMARK  status: ('A' for Active; 'I' for Inactive)
ROOT
ATOM      1  C2' OXE d   1       0.607  -2.753   4.358  0.00  0.00     0.078 C 
ATOM      2  C1' OXE d   1       1.294  -3.435   1.723  0.00  0.00     0.078 C 
ATOM      3  C1  OXE d   1       1.525  -2.011   2.164  0.00  0.00    -0.078 A 
ATOM      4  C2  OXE d   1       1.142  -1.675   3.440  0.00  0.00    -0.078 A 
ATOM      5  C3  OXE d   1       1.383  -0.390   3.916  0.00  0.00     0.003 A 
ATOM      6  C4  OXE d   1       1.870   0.604   3.058  0.00  0.00    -0.002 A 
ATOM      7  C5  OXE d   1       2.228   0.293   1.742  0.00  0.00    -0.002 A 
ATOM      8  C6  OXE d   1       2.102  -1.017   1.294  0.00  0.00     0.003 A 
ENDROOT
TORSDOF 0
ENDMDL
