MODEL 1
REMARK minimizedAffinity -1.58766472
REMARK minimizedRMSD -1
REMARK  0 active torsions:
REMARK  status: ('A' for Active; 'I' for Inactive)
ROOT
ATOM      1  C2' OXE d   1      -5.562   1.143   1.421  0.00  0.00     0.078 C 
ATOM      2  C1' OXE d   1      -2.925   2.011   1.005  0.00  0.00     0.078 C 
ATOM      3  C1  OXE d   1      -3.768   1.713  -0.210  0.00  0.00    -0.078 A 
ATOM      4  C2  OXE d   1      -5.042   1.244   0.004  0.00  0.00    -0.078 A 
ATOM      5  C3  OXE d   1      -5.879   1.005  -1.082  0.00  0.00     0.003 A 
ATOM      6  C4  OXE d   1      -5.387   1.092  -2.390  0.00  0.00    -0.002 A 
ATOM      7  C5  OXE d   1      -4.079   1.529  -2.629  0.00  0.00    -0.002 A 
ATOM      8  C6  OXE d   1      -3.272   1.884  -1.553  0.00  0.00     0.003 A 
ENDROOT
TORSDOF 0
ENDMDL
