MODEL 1
REMARK minimizedAffinity 12.1155109
REMARK minimizedRMSD -1
REMARK  0 active torsions:
REMARK  status: ('A' for Active; 'I' for Inactive)
ROOT
ATOM      1  C2' OXE d   1       1.360  -2.500   4.047  0.00  0.00     0.078 C 
ATOM      2  C1' OXE d   1       0.487  -1.575   1.545  0.00  0.00     0.078 C 
ATOM      3  C1  OXE d   1       0.968  -3.002   1.639  0.00  0.00    -0.078 A 
ATOM      4  C2  OXE d   1       1.437  -3.432   2.857  0.00  0.00    -0.078 A 
ATOM      5  C3  OXE d   1       1.841  -4.755   3.012  0.00  0.00     0.003 A 
ATOM      6  C4  OXE d   1       1.918  -5.607   1.903  0.00  0.00    -0.002 A 
ATOM      7  C5  OXE d   1       1.483  -5.177   0.645  0.00  0.00    -0.002 A 
ATOM      8  C6  OXE d   1       0.966  -3.893   0.505  0.00  0.00     0.003 A 
ENDROOT
TORSDOF 0
ENDMDL
