MODEL 1
REMARK minimizedAffinity 5.33922672
REMARK minimizedRMSD -1
REMARK  0 active torsions:
REMARK  status: ('A' for Active; 'I' for Inactive)
ROOT
ATOM      1  C2' OXE d   1       4.995   5.852  -0.633  0.00  0.00     0.078 C 
ATOM      2  C1' OXE d   1       2.433   5.849  -1.781  0.00  0.00     0.078 C 
ATOM      3  C1  OXE d   1       3.620   5.884  -2.711  0.00  0.00    -0.078 A 
ATOM      4  C2  OXE d   1       4.869   5.932  -2.139  0.00  0.00    -0.078 A 
ATOM      5  C3  OXE d   1       5.999   5.910  -2.951  0.00  0.00     0.003 A 
ATOM      6  C4  OXE d   1       5.874   5.995  -4.343  0.00  0.00    -0.002 A 
ATOM      7  C5  OXE d   1       4.611   5.987  -4.944  0.00  0.00    -0.002 A 
ATOM      8  C6  OXE d   1       3.477   5.889  -4.145  0.00  0.00     0.003 A 
ENDROOT
TORSDOF 0
ENDMDL
