MODEL 1
REMARK minimizedAffinity 15.2546577
REMARK minimizedRMSD -1
REMARK  0 active torsions:
REMARK  status: ('A' for Active; 'I' for Inactive)
ROOT
ATOM      1  C2' OXE d   1       3.316  -3.935   5.634  0.00  0.00     0.078 C 
ATOM      2  C1' OXE d   1       4.978  -3.259   3.475  0.00  0.00     0.078 C 
ATOM      3  C1  OXE d   1       3.520  -2.883   3.386  0.00  0.00    -0.078 A 
ATOM      4  C2  OXE d   1       2.705  -3.259   4.426  0.00  0.00    -0.078 A 
ATOM      5  C3  OXE d   1       1.363  -2.888   4.420  0.00  0.00     0.003 A 
ATOM      6  C4  OXE d   1       0.804  -2.272   3.294  0.00  0.00    -0.002 A 
ATOM      7  C5  OXE d   1       1.608  -1.915   2.206  0.00  0.00    -0.002 A 
ATOM      8  C6  OXE d   1       2.973  -2.175   2.254  0.00  0.00     0.003 A 
ENDROOT
TORSDOF 0
ENDMDL
