MODEL 1
REMARK minimizedAffinity 8.75212574
REMARK minimizedRMSD -1
REMARK  0 active torsions:
REMARK  status: ('A' for Active; 'I' for Inactive)
ROOT
ATOM      1  C2' OXE d   1      -6.000   4.153  -0.026  0.00  0.00     0.078 C 
ATOM      2  C1' OXE d   1      -5.586   4.384   2.741  0.00  0.00     0.078 C 
ATOM      3  C1  OXE d   1      -4.438   3.891   1.897  0.00  0.00    -0.078 A 
ATOM      4  C2  OXE d   1      -4.664   3.736   0.550  0.00  0.00    -0.078 A 
ATOM      5  C3  OXE d   1      -3.622   3.336  -0.283  0.00  0.00     0.003 A 
ATOM      6  C4  OXE d   1      -2.393   2.943   0.259  0.00  0.00    -0.002 A 
ATOM      7  C5  OXE d   1      -2.154   3.055   1.633  0.00  0.00    -0.002 A 
ATOM      8  C6  OXE d   1      -3.150   3.566   2.458  0.00  0.00     0.003 A 
ENDROOT
TORSDOF 0
ENDMDL
