MODEL 1
REMARK minimizedAffinity -5.38590527
REMARK minimizedRMSD -1
REMARK  1 active torsions:
REMARK  status: ('A' for Active; 'I' for Inactive)
REMARK    1  A    between atoms: C3_4  and  O_7 
ROOT
ATOM      1  C   UNL d   1      -4.441  -1.455  -5.998  0.00  0.00    -0.033 A 
ATOM      2  C1  UNL d   1      -4.480  -0.163  -5.472  0.00  0.00     0.039 A 
ATOM      3  C2  UNL d   1      -3.600   0.205  -4.453  0.00  0.00    -0.080 A 
ATOM      4  C3  UNL d   1      -2.685  -0.727  -3.971  0.00  0.00     0.150 A 
ATOM      5  C4  UNL d   1      -2.637  -2.015  -4.494  0.00  0.00    -0.007 A 
ATOM      6  C5  UNL d   1      -3.518  -2.381  -5.510  0.00  0.00     0.039 A 
ENDROOT
BRANCH   4   7
ATOM      7  O   UNL d   1      -1.808  -0.416  -2.974  0.00  0.00    -0.526 OA
ATOM      8  H5  UNL d   1      -1.976   0.499  -2.691  0.00  0.00     0.418 HD
ENDBRANCH   4   7
TORSDOF 1
ENDMDL
