MODEL 1
REMARK minimizedAffinity -2.31078148
REMARK minimizedRMSD -1
REMARK  1 active torsions:
REMARK  status: ('A' for Active; 'I' for Inactive)
REMARK    1  A    between atoms: C3_4  and  O_7 
ROOT
ATOM      1  C   UNL d   1      -5.102   0.703  -5.958  0.00  0.00    -0.033 A 
ATOM      2  C1  UNL d   1      -5.863   0.422  -4.821  0.00  0.00     0.039 A 
ATOM      3  C2  UNL d   1      -5.275  -0.214  -3.725  0.00  0.00    -0.080 A 
ATOM      4  C3  UNL d   1      -3.928  -0.561  -3.779  0.00  0.00     0.150 A 
ATOM      5  C4  UNL d   1      -3.164  -0.281  -4.906  0.00  0.00    -0.007 A 
ATOM      6  C5  UNL d   1      -3.752   0.353  -6.000  0.00  0.00     0.039 A 
ENDROOT
BRANCH   4   7
ATOM      7  O   UNL d   1      -3.312  -1.187  -2.736  0.00  0.00    -0.526 OA
ATOM      8  H5  UNL d   1      -3.971  -1.343  -2.038  0.00  0.00     0.418 HD
ENDBRANCH   4   7
TORSDOF 1
ENDMDL
