MODEL 1
REMARK minimizedAffinity -1.55442405
REMARK minimizedRMSD -1
REMARK  1 active torsions:
REMARK  status: ('A' for Active; 'I' for Inactive)
REMARK    1  A    between atoms: C3_4  and  O_7 
ROOT
ATOM      1  C   UNL d   1       5.262  -5.128   5.957  0.00  0.00    -0.033 A 
ATOM      2  C1  UNL d   1       5.254  -3.732   6.000  0.00  0.00     0.039 A 
ATOM      3  C2  UNL d   1       4.683  -3.003   4.955  0.00  0.00    -0.080 A 
ATOM      4  C3  UNL d   1       4.124  -3.680   3.875  0.00  0.00     0.150 A 
ATOM      5  C4  UNL d   1       4.125  -5.071   3.827  0.00  0.00    -0.007 A 
ATOM      6  C5  UNL d   1       4.696  -5.797   4.871  0.00  0.00     0.039 A 
ENDROOT
BRANCH   4   7
ATOM      7  O   UNL d   1       3.560  -3.012   2.829  0.00  0.00    -0.526 OA
ATOM      8  H5  UNL d   1       3.658  -2.058   2.985  0.00  0.00     0.418 HD
ENDBRANCH   4   7
TORSDOF 1
ENDMDL
