MODEL 1
REMARK minimizedAffinity -3.2784164
REMARK minimizedRMSD -1
REMARK  1 active torsions:
REMARK  status: ('A' for Active; 'I' for Inactive)
REMARK    1  A    between atoms: C3_4  and  O_7 
ROOT
ATOM      1  C   UNL d   1      -4.752   0.300  -5.887  0.00  0.00    -0.033 A 
ATOM      2  C1  UNL d   1      -3.487  -0.276  -5.751  0.00  0.00     0.039 A 
ATOM      3  C2  UNL d   1      -3.074  -0.773  -4.514  0.00  0.00    -0.080 A 
ATOM      4  C3  UNL d   1      -3.934  -0.690  -3.422  0.00  0.00     0.150 A 
ATOM      5  C4  UNL d   1      -5.197  -0.121  -3.551  0.00  0.00    -0.007 A 
ATOM      6  C5  UNL d   1      -5.607   0.376  -4.787  0.00  0.00     0.039 A 
ENDROOT
BRANCH   4   7
ATOM      7  O   UNL d   1      -3.573  -1.157  -2.194  0.00  0.00    -0.526 OA
ATOM      8  H5  UNL d   1      -2.664  -1.497  -2.248  0.00  0.00     0.418 HD
ENDBRANCH   4   7
TORSDOF 1
ENDMDL
