MODEL 1
REMARK minimizedAffinity 1.71237278
REMARK minimizedRMSD -1
REMARK  1 active torsions:
REMARK  status: ('A' for Active; 'I' for Inactive)
REMARK    1  A    between atoms: C3_4  and  O_7 
ROOT
ATOM      1  C   UNL d   1      -4.141   0.556  -4.966  0.00  0.00    -0.033 A 
ATOM      2  C1  UNL d   1      -3.441  -0.652  -4.983  0.00  0.00     0.039 A 
ATOM      3  C2  UNL d   1      -3.431  -1.471  -3.853  0.00  0.00    -0.080 A 
ATOM      4  C3  UNL d   1      -4.123  -1.071  -2.713  0.00  0.00     0.150 A 
ATOM      5  C4  UNL d   1      -4.826   0.129  -2.690  0.00  0.00    -0.007 A 
ATOM      6  C5  UNL d   1      -4.834   0.946  -3.820  0.00  0.00     0.039 A 
ENDROOT
BRANCH   4   7
ATOM      7  O   UNL d   1      -4.138  -1.834  -1.584  0.00  0.00    -0.526 OA
ATOM      8  H5  UNL d   1      -3.587  -2.620  -1.736  0.00  0.00     0.418 HD
ENDBRANCH   4   7
TORSDOF 1
ENDMDL
