MODEL 1
REMARK minimizedAffinity -1.53990626
REMARK minimizedRMSD -1
REMARK  0 active torsions:
REMARK  status: ('A' for Active; 'I' for Inactive)
ROOT
ATOM      1  C   UNL d   1      -0.554  -2.636  -0.921  0.00  0.00     0.124 A 
ATOM      2  C1  UNL d   1      -0.225  -1.795  -1.974  0.00  0.00     0.062 A 
ATOM      3  C2  UNL d   1      -0.028  -0.435  -1.749  0.00  0.00     0.162 A 
ATOM      4  C3  UNL d   1      -0.159   0.091  -0.464  0.00  0.00    -0.034 A 
ATOM      5  C4  UNL d   1      -0.492  -0.762   0.590  0.00  0.00     0.162 A 
ATOM      6  C5  UNL d   1      -0.688  -2.119   0.360  0.00  0.00     0.062 A 
ATOM      7  F   UNL d   1      -1.007  -2.931   1.378  0.00  0.00    -0.097 F 
ATOM      8  F1  UNL d   1      -0.626  -0.289   1.838  0.00  0.00    -0.096 F 
ATOM      9  I   UNL d   1       0.134   2.123  -0.122  0.00  0.00    -0.060 I 
ATOM     10  F2  UNL d   1       0.290   0.355  -2.785  0.00  0.00    -0.096 F 
ATOM     11  F3  UNL d   1      -0.096  -2.292  -3.213  0.00  0.00    -0.097 F 
ATOM     12  F4  UNL d   1      -0.744  -3.944  -1.141  0.00  0.00    -0.092 F 
ENDROOT
TORSDOF 0
ENDMDL
