MODEL 1
REMARK minimizedAffinity 1.70136654
REMARK minimizedRMSD -1
REMARK  0 active torsions:
REMARK  status: ('A' for Active; 'I' for Inactive)
ROOT
ATOM      1  C   UNL d   1      -0.732  -1.513   0.074  0.00  0.00     0.124 A 
ATOM      2  C1  UNL d   1      -0.339  -1.159   1.357  0.00  0.00     0.062 A 
ATOM      3  C2  UNL d   1       0.402   0.001   1.567  0.00  0.00     0.162 A 
ATOM      4  C3  UNL d   1       0.753   0.816   0.491  0.00  0.00    -0.034 A 
ATOM      5  C4  UNL d   1       0.355   0.453  -0.796  0.00  0.00     0.162 A 
ATOM      6  C5  UNL d   1      -0.385  -0.707  -1.001  0.00  0.00     0.062 A 
ATOM      7  F   UNL d   1      -0.764  -1.048  -2.241  0.00  0.00    -0.097 F 
ATOM      8  F1  UNL d   1       0.675   1.214  -1.853  0.00  0.00    -0.096 F 
ATOM      9  I   UNL d   1       1.860   2.551   0.801  0.00  0.00    -0.060 I 
ATOM     10  F2  UNL d   1       0.768   0.319   2.818  0.00  0.00    -0.096 F 
ATOM     11  F3  UNL d   1      -0.672  -1.936   2.398  0.00  0.00    -0.097 F 
ATOM     12  F4  UNL d   1      -1.443  -2.630  -0.125  0.00  0.00    -0.092 F 
ENDROOT
TORSDOF 0
ENDMDL
