MODEL 1
REMARK minimizedAffinity 0.249646336
REMARK minimizedRMSD -1
REMARK  0 active torsions:
REMARK  status: ('A' for Active; 'I' for Inactive)
ROOT
ATOM      1  C   UNL d   1      -0.194  -0.983   1.165  0.00  0.00     0.124 A 
ATOM      2  C1  UNL d   1       0.837  -0.344   1.839  0.00  0.00     0.062 A 
ATOM      3  C2  UNL d   1       1.273   0.911   1.423  0.00  0.00     0.162 A 
ATOM      4  C3  UNL d   1       0.677   1.536   0.328  0.00  0.00    -0.034 A 
ATOM      5  C4  UNL d   1      -0.359   0.886  -0.346  0.00  0.00     0.162 A 
ATOM      6  C5  UNL d   1      -0.791  -0.368   0.073  0.00  0.00     0.062 A 
ATOM      7  F   UNL d   1      -1.787  -0.984  -0.579  0.00  0.00    -0.097 F 
ATOM      8  F1  UNL d   1      -0.954   1.458  -1.403  0.00  0.00    -0.096 F 
ATOM      9  I   UNL d   1       1.326   3.412  -0.297  0.00  0.00    -0.060 I 
ATOM     10  F2  UNL d   1       2.271   1.506   2.094  0.00  0.00    -0.096 F 
ATOM     11  F3  UNL d   1       1.415  -0.936   2.893  0.00  0.00    -0.097 F 
ATOM     12  F4  UNL d   1      -0.611  -2.191   1.566  0.00  0.00    -0.092 F 
ENDROOT
TORSDOF 0
ENDMDL
