MODEL 1
REMARK minimizedAffinity -2.55730176
REMARK minimizedRMSD -1
REMARK  0 active torsions:
REMARK  status: ('A' for Active; 'I' for Inactive)
ROOT
ATOM      1  C   UNL d   1      -0.051  -1.197  -1.883  0.00  0.00     0.124 A 
ATOM      2  C1  UNL d   1      -0.509  -2.228  -1.075  0.00  0.00     0.062 A 
ATOM      3  C2  UNL d   1      -1.001  -1.955   0.198  0.00  0.00     0.162 A 
ATOM      4  C3  UNL d   1      -1.038  -0.643   0.672  0.00  0.00    -0.034 A 
ATOM      5  C4  UNL d   1      -0.574   0.389  -0.146  0.00  0.00     0.162 A 
ATOM      6  C5  UNL d   1      -0.084   0.111  -1.418  0.00  0.00     0.062 A 
ATOM      7  F   UNL d   1       0.358   1.109  -2.197  0.00  0.00    -0.097 F 
ATOM      8  F1  UNL d   1      -0.596   1.661   0.278  0.00  0.00    -0.096 F 
ATOM      9  I   UNL d   1      -1.772  -0.231   2.575  0.00  0.00    -0.060 I 
ATOM     10  F2  UNL d   1      -1.437  -2.971   0.957  0.00  0.00    -0.096 F 
ATOM     11  F3  UNL d   1      -0.478  -3.492  -1.522  0.00  0.00    -0.097 F 
ATOM     12  F4  UNL d   1       0.422  -1.462  -3.107  0.00  0.00    -0.092 F 
ENDROOT
TORSDOF 0
ENDMDL
