MODEL 1
REMARK minimizedAffinity -0.130763635
REMARK minimizedRMSD -1
REMARK  0 active torsions:
REMARK  status: ('A' for Active; 'I' for Inactive)
ROOT
ATOM      1  C   UNL d   1       0.027  -1.844  -0.296  0.00  0.00     0.124 A 
ATOM      2  C1  UNL d   1       0.352  -1.475   1.003  0.00  0.00     0.062 A 
ATOM      3  C2  UNL d   1       0.802  -0.186   1.272  0.00  0.00     0.162 A 
ATOM      4  C3  UNL d   1       0.931   0.745   0.241  0.00  0.00    -0.034 A 
ATOM      5  C4  UNL d   1       0.604   0.366  -1.063  0.00  0.00     0.162 A 
ATOM      6  C5  UNL d   1       0.154  -0.924  -1.327  0.00  0.00     0.062 A 
ATOM      7  F   UNL d   1      -0.159  -1.279  -2.581  0.00  0.00    -0.097 F 
ATOM      8  F1  UNL d   1       0.715   1.235  -2.078  0.00  0.00    -0.096 F 
ATOM      9  I   UNL d   1       1.604   2.673   0.639  0.00  0.00    -0.060 I 
ATOM     10  F2  UNL d   1       1.108   0.143   2.536  0.00  0.00    -0.096 F 
ATOM     11  F3  UNL d   1       0.231  -2.362   2.000  0.00  0.00    -0.097 F 
ATOM     12  F4  UNL d   1      -0.405  -3.085  -0.552  0.00  0.00    -0.092 F 
ENDROOT
TORSDOF 0
ENDMDL
