MODEL 1
REMARK minimizedAffinity 0.496273786
REMARK minimizedRMSD -1
REMARK  0 active torsions:
REMARK  status: ('A' for Active; 'I' for Inactive)
ROOT
ATOM      1  C   UNL d   1       1.038   1.146   1.677  0.00  0.00     0.124 A 
ATOM      2  C1  UNL d   1       0.485   0.149   2.468  0.00  0.00     0.062 A 
ATOM      3  C2  UNL d   1      -0.383  -0.786   1.911  0.00  0.00     0.162 A 
ATOM      4  C3  UNL d   1      -0.703  -0.728   0.555  0.00  0.00    -0.034 A 
ATOM      5  C4  UNL d   1      -0.144   0.278  -0.234  0.00  0.00     0.162 A 
ATOM      6  C5  UNL d   1       0.723   1.210   0.327  0.00  0.00     0.062 A 
ATOM      7  F   UNL d   1       1.256   2.173  -0.439  0.00  0.00    -0.097 F 
ATOM      8  F1  UNL d   1      -0.430   0.363  -1.542  0.00  0.00    -0.096 F 
ATOM      9  I   UNL d   1      -2.001  -2.124  -0.282  0.00  0.00    -0.060 I 
ATOM     10  F2  UNL d   1      -0.903  -1.739   2.699  0.00  0.00    -0.096 F 
ATOM     11  F3  UNL d   1       0.786   0.086   3.773  0.00  0.00    -0.097 F 
ATOM     12  F4  UNL d   1       1.872   2.045   2.216  0.00  0.00    -0.092 F 
ENDROOT
TORSDOF 0
ENDMDL
