MODEL 1
REMARK minimizedAffinity -2.64657712
REMARK minimizedRMSD -1
REMARK  0 active torsions:
REMARK  status: ('A' for Active; 'I' for Inactive)
ROOT
ATOM      1  C   UNL d   1      -0.794  -2.346  -0.839  0.00  0.00     0.124 A 
ATOM      2  C1  UNL d   1      -0.906  -1.935   0.482  0.00  0.00     0.062 A 
ATOM      3  C2  UNL d   1      -0.686  -0.603   0.822  0.00  0.00     0.162 A 
ATOM      4  C3  UNL d   1      -0.352   0.328  -0.160  0.00  0.00    -0.034 A 
ATOM      5  C4  UNL d   1      -0.240  -0.092  -1.487  0.00  0.00     0.162 A 
ATOM      6  C5  UNL d   1      -0.461  -1.424  -1.822  0.00  0.00     0.062 A 
ATOM      7  F   UNL d   1      -0.351  -1.819  -3.099  0.00  0.00    -0.097 F 
ATOM      8  F1  UNL d   1       0.080   0.777  -2.457  0.00  0.00    -0.096 F 
ATOM      9  I   UNL d   1      -0.023   2.320   0.344  0.00  0.00    -0.060 I 
ATOM     10  F2  UNL d   1      -0.802  -0.235   2.107  0.00  0.00    -0.096 F 
ATOM     11  F3  UNL d   1      -1.227  -2.823   1.434  0.00  0.00    -0.097 F 
ATOM     12  F4  UNL d   1      -1.005  -3.628  -1.163  0.00  0.00    -0.092 F 
ENDROOT
TORSDOF 0
ENDMDL
