MODEL 1
REMARK minimizedAffinity 1.75550747
REMARK minimizedRMSD -1
REMARK  0 active torsions:
REMARK  status: ('A' for Active; 'I' for Inactive)
ROOT
ATOM      1  C   UNL d   1      -0.535  -2.026  -0.877  0.00  0.00     0.124 A 
ATOM      2  C1  UNL d   1      -0.905  -1.587   0.386  0.00  0.00     0.062 A 
ATOM      3  C2  UNL d   1      -0.802  -0.239   0.717  0.00  0.00     0.162 A 
ATOM      4  C3  UNL d   1      -0.328   0.681  -0.219  0.00  0.00    -0.034 A 
ATOM      5  C4  UNL d   1       0.044   0.231  -1.487  0.00  0.00     0.162 A 
ATOM      6  C5  UNL d   1      -0.061  -1.117  -1.812  0.00  0.00     0.062 A 
ATOM      7  F   UNL d   1       0.297  -1.540  -3.034  0.00  0.00    -0.097 F 
ATOM      8  F1  UNL d   1       0.504   1.088  -2.410  0.00  0.00    -0.096 F 
ATOM      9  I   UNL d   1      -0.172   2.697   0.272  0.00  0.00    -0.060 I 
ATOM     10  F2  UNL d   1      -1.167   0.157   1.945  0.00  0.00    -0.096 F 
ATOM     11  F3  UNL d   1      -1.362  -2.464   1.292  0.00  0.00    -0.097 F 
ATOM     12  F4  UNL d   1      -0.634  -3.324  -1.192  0.00  0.00    -0.092 F 
ENDROOT
TORSDOF 0
ENDMDL
