MODEL 1
REMARK minimizedAffinity 4.73191595
REMARK minimizedRMSD -1
REMARK  0 active torsions:
REMARK  status: ('A' for Active; 'I' for Inactive)
ROOT
ATOM      1  C   UNL d   1      -0.014  -0.785  -1.546  0.00  0.00     0.124 A 
ATOM      2  C1  UNL d   1       0.050  -0.945  -0.169  0.00  0.00     0.062 A 
ATOM      3  C2  UNL d   1       0.197   0.165   0.659  0.00  0.00     0.162 A 
ATOM      4  C3  UNL d   1       0.280   1.445   0.111  0.00  0.00    -0.034 A 
ATOM      5  C4  UNL d   1       0.217   1.598  -1.275  0.00  0.00     0.162 A 
ATOM      6  C5  UNL d   1       0.070   0.486  -2.098  0.00  0.00     0.062 A 
ATOM      7  F   UNL d   1       0.009   0.643  -3.428  0.00  0.00    -0.097 F 
ATOM      8  F1  UNL d   1       0.294   2.814  -1.835  0.00  0.00    -0.096 F 
ATOM      9  I   UNL d   1       0.500   3.106   1.345  0.00  0.00    -0.060 I 
ATOM     10  F2  UNL d   1       0.255  -0.020   1.986  0.00  0.00    -0.096 F 
ATOM     11  F3  UNL d   1      -0.030  -2.171   0.366  0.00  0.00    -0.097 F 
ATOM     12  F4  UNL d   1      -0.154  -1.854  -2.340  0.00  0.00    -0.092 F 
ENDROOT
TORSDOF 0
ENDMDL
