MODEL 1
REMARK minimizedAffinity -0.936001718
REMARK minimizedRMSD -1
REMARK  0 active torsions:
REMARK  status: ('A' for Active; 'I' for Inactive)
ROOT
ATOM      1  C   UNL d   1      -1.251  -0.552   0.803  0.00  0.00     0.124 A 
ATOM      2  C1  UNL d   1      -1.022  -1.911   0.638  0.00  0.00     0.062 A 
ATOM      3  C2  UNL d   1      -0.558  -2.399  -0.580  0.00  0.00     0.162 A 
ATOM      4  C3  UNL d   1      -0.319  -1.528  -1.643  0.00  0.00    -0.034 A 
ATOM      5  C4  UNL d   1      -0.554  -0.162  -1.470  0.00  0.00     0.162 A 
ATOM      6  C5  UNL d   1      -1.017   0.321  -0.250  0.00  0.00     0.062 A 
ATOM      7  F   UNL d   1      -1.239   1.634  -0.093  0.00  0.00    -0.097 F 
ATOM      8  F1  UNL d   1      -0.335   0.703  -2.471  0.00  0.00    -0.096 F 
ATOM      9  I   UNL d   1       0.374  -2.254  -3.466  0.00  0.00    -0.060 I 
ATOM     10  F2  UNL d   1      -0.344  -3.717  -0.712  0.00  0.00    -0.096 F 
ATOM     11  F3  UNL d   1      -1.248  -2.756   1.654  0.00  0.00    -0.097 F 
ATOM     12  F4  UNL d   1      -1.699  -0.085   1.976  0.00  0.00    -0.092 F 
ENDROOT
TORSDOF 0
ENDMDL
