MODEL 1
REMARK minimizedAffinity -0.0718296394
REMARK minimizedRMSD -1
REMARK  0 active torsions:
REMARK  status: ('A' for Active; 'I' for Inactive)
ROOT
ATOM      1  C   UNL d   1      -0.465  -2.161  -0.501  0.00  0.00     0.124 A 
ATOM      2  C1  UNL d   1       0.106  -1.300  -1.428  0.00  0.00     0.062 A 
ATOM      3  C2  UNL d   1       0.319   0.037  -1.104  0.00  0.00     0.162 A 
ATOM      4  C3  UNL d   1      -0.039   0.521   0.154  0.00  0.00    -0.034 A 
ATOM      5  C4  UNL d   1      -0.613  -0.351   1.081  0.00  0.00     0.162 A 
ATOM      6  C5  UNL d   1      -0.824  -1.686   0.752  0.00  0.00     0.062 A 
ATOM      7  F   UNL d   1      -1.375  -2.516   1.649  0.00  0.00    -0.097 F 
ATOM      8  F1  UNL d   1      -0.969   0.082   2.300  0.00  0.00    -0.096 F 
ATOM      9  I   UNL d   1       0.278   2.519   0.643  0.00  0.00    -0.060 I 
ATOM     10  F2  UNL d   1       0.872   0.846  -2.019  0.00  0.00    -0.096 F 
ATOM     11  F3  UNL d   1       0.453  -1.757  -2.640  0.00  0.00    -0.097 F 
ATOM     12  F4  UNL d   1      -0.669  -3.447  -0.816  0.00  0.00    -0.092 F 
ENDROOT
TORSDOF 0
ENDMDL
