MODEL 1
REMARK minimizedAffinity -3.54639745
REMARK minimizedRMSD -1
REMARK  0 active torsions:
REMARK  status: ('A' for Active; 'I' for Inactive)
ROOT
ATOM      1  C   UNL d   1      -0.675  -2.105  -0.570  0.00  0.00     0.124 A 
ATOM      2  C1  UNL d   1      -0.312  -1.256  -1.606  0.00  0.00     0.062 A 
ATOM      3  C2  UNL d   1       0.177   0.018  -1.329  0.00  0.00     0.162 A 
ATOM      4  C3  UNL d   1       0.307   0.450  -0.009  0.00  0.00    -0.034 A 
ATOM      5  C4  UNL d   1      -0.061  -0.410   1.028  0.00  0.00     0.162 A 
ATOM      6  C5  UNL d   1      -0.549  -1.681   0.746  0.00  0.00     0.062 A 
ATOM      7  F   UNL d   1      -0.899  -2.500   1.748  0.00  0.00    -0.097 F 
ATOM      8  F1  UNL d   1       0.052  -0.026   2.308  0.00  0.00    -0.096 F 
ATOM      9  I   UNL d   1       1.038   2.353   0.409  0.00  0.00    -0.060 I 
ATOM     10  F2  UNL d   1       0.520   0.817  -2.350  0.00  0.00    -0.096 F 
ATOM     11  F3  UNL d   1      -0.434  -1.662  -2.878  0.00  0.00    -0.097 F 
ATOM     12  F4  UNL d   1      -1.147  -3.329  -0.839  0.00  0.00    -0.092 F 
ENDROOT
TORSDOF 0
ENDMDL
