MODEL 1
REMARK minimizedAffinity 0.151468053
REMARK minimizedRMSD -1
REMARK  0 active torsions:
REMARK  status: ('A' for Active; 'I' for Inactive)
ROOT
ATOM      1  C   UNL d   1      -0.118  -1.768  -0.363  0.00  0.00     0.124 A 
ATOM      2  C1  UNL d   1      -0.238  -0.787  -1.338  0.00  0.00     0.062 A 
ATOM      3  C2  UNL d   1      -0.074   0.554  -1.004  0.00  0.00     0.162 A 
ATOM      4  C3  UNL d   1       0.213   0.923   0.310  0.00  0.00    -0.034 A 
ATOM      5  C4  UNL d   1       0.331  -0.069   1.285  0.00  0.00     0.162 A 
ATOM      6  C5  UNL d   1       0.166  -1.409   0.947  0.00  0.00     0.062 A 
ATOM      7  F   UNL d   1       0.282  -2.355   1.889  0.00  0.00    -0.097 F 
ATOM      8  F1  UNL d   1       0.606   0.250   2.558  0.00  0.00    -0.096 F 
ATOM      9  I   UNL d   1       0.459   2.928   0.813  0.00  0.00    -0.060 I 
ATOM     10  F2  UNL d   1      -0.195   1.481  -1.966  0.00  0.00    -0.096 F 
ATOM     11  F3  UNL d   1      -0.514  -1.132  -2.604  0.00  0.00    -0.097 F 
ATOM     12  F4  UNL d   1      -0.278  -3.058  -0.686  0.00  0.00    -0.092 F 
ENDROOT
TORSDOF 0
ENDMDL
