MODEL 1
REMARK minimizedAffinity -0.370927334
REMARK minimizedRMSD -1
REMARK  0 active torsions:
REMARK  status: ('A' for Active; 'I' for Inactive)
ROOT
ATOM      1  C   UNL d   1      -0.297  -2.335  -0.472  0.00  0.00     0.124 A 
ATOM      2  C1  UNL d   1      -0.272  -1.938   0.858  0.00  0.00     0.062 A 
ATOM      3  C2  UNL d   1      -0.141  -0.591   1.183  0.00  0.00     0.162 A 
ATOM      4  C3  UNL d   1      -0.037   0.370   0.177  0.00  0.00    -0.034 A 
ATOM      5  C4  UNL d   1      -0.062  -0.038  -1.158  0.00  0.00     0.162 A 
ATOM      6  C5  UNL d   1      -0.192  -1.386  -1.478  0.00  0.00     0.062 A 
ATOM      7  F   UNL d   1      -0.217  -1.768  -2.763  0.00  0.00    -0.097 F 
ATOM      8  F1  UNL d   1       0.037   0.859  -2.151  0.00  0.00    -0.096 F 
ATOM      9  I   UNL d   1       0.159   2.385   0.659  0.00  0.00    -0.060 I 
ATOM     10  F2  UNL d   1      -0.120  -0.235   2.476  0.00  0.00    -0.096 F 
ATOM     11  F3  UNL d   1      -0.372  -2.853   1.832  0.00  0.00    -0.097 F 
ATOM     12  F4  UNL d   1      -0.422  -3.632  -0.782  0.00  0.00    -0.092 F 
ENDROOT
TORSDOF 0
ENDMDL
