MODEL 1
REMARK minimizedAffinity -0.957470298
REMARK minimizedRMSD -1
REMARK  0 active torsions:
REMARK  status: ('A' for Active; 'I' for Inactive)
ROOT
ATOM      1  C   UNL d   1      -0.429  -0.696   1.850  0.00  0.00     0.124 A 
ATOM      2  C1  UNL d   1       0.174   0.199   2.723  0.00  0.00     0.062 A 
ATOM      3  C2  UNL d   1       0.642   1.424   2.256  0.00  0.00     0.162 A 
ATOM      4  C3  UNL d   1       0.509   1.761   0.910  0.00  0.00    -0.034 A 
ATOM      5  C4  UNL d   1      -0.097   0.856   0.038  0.00  0.00     0.162 A 
ATOM      6  C5  UNL d   1      -0.564  -0.367   0.509  0.00  0.00     0.062 A 
ATOM      7  F   UNL d   1      -1.146  -1.230  -0.336  0.00  0.00    -0.097 F 
ATOM      8  F1  UNL d   1      -0.241   1.149  -1.263  0.00  0.00    -0.096 F 
ATOM      9  I   UNL d   1       1.209   3.592   0.208  0.00  0.00    -0.060 I 
ATOM     10  F2  UNL d   1       1.221   2.269   3.123  0.00  0.00    -0.096 F 
ATOM     11  F3  UNL d   1       0.306  -0.117   4.019  0.00  0.00    -0.097 F 
ATOM     12  F4  UNL d   1      -0.879  -1.874   2.301  0.00  0.00    -0.092 F 
ENDROOT
TORSDOF 0
ENDMDL
