MODEL 1
REMARK minimizedAffinity -2.8538754
REMARK minimizedRMSD -1
REMARK  0 active torsions:
REMARK  status: ('A' for Active; 'I' for Inactive)
ROOT
ATOM      1  C1  BNZ d   1       5.972   1.217   4.637  0.00  0.00     0.000 A 
ATOM      2  C2  BNZ d   1       5.998   0.396   5.733  0.00  0.00     0.000 A 
ATOM      3  C3  BNZ d   1       5.998  -0.963   5.589  0.00  0.00     0.000 A 
ATOM      4  C4  BNZ d   1       5.933  -1.499   4.353  0.00  0.00     0.000 A 
ATOM      5  C5  BNZ d   1       5.896  -0.685   3.239  0.00  0.00     0.000 A 
ATOM      6  C6  BNZ d   1       5.935   0.683   3.386  0.00  0.00     0.000 A 
ENDROOT
TORSDOF 0
ENDMDL
