MODEL 1
REMARK minimizedAffinity -1.64794457
REMARK minimizedRMSD -1
REMARK  0 active torsions:
REMARK  status: ('A' for Active; 'I' for Inactive)
ROOT
ATOM      1  C1  BNZ d   1       5.991   3.730   3.016  0.00  0.00     0.000 A 
ATOM      2  C2  BNZ d   1       5.993   3.745   1.647  0.00  0.00     0.000 A 
ATOM      3  C3  BNZ d   1       5.691   4.887   0.959  0.00  0.00     0.000 A 
ATOM      4  C4  BNZ d   1       5.348   6.000   1.639  0.00  0.00     0.000 A 
ATOM      5  C5  BNZ d   1       5.333   5.998   3.020  0.00  0.00     0.000 A 
ATOM      6  C6  BNZ d   1       5.675   4.858   3.710  0.00  0.00     0.000 A 
ENDROOT
TORSDOF 0
ENDMDL
