MODEL 1
REMARK minimizedAffinity 7.97873926
REMARK minimizedRMSD -1
REMARK  0 active torsions:
REMARK  status: ('A' for Active; 'I' for Inactive)
ROOT
ATOM      1  C1  BNZ d   1       4.140   0.372   2.262  0.00  0.00     0.000 A 
ATOM      2  C2  BNZ d   1       4.159  -0.685   3.131  0.00  0.00     0.000 A 
ATOM      3  C3  BNZ d   1       5.077  -0.745   4.142  0.00  0.00     0.000 A 
ATOM      4  C4  BNZ d   1       6.000   0.232   4.258  0.00  0.00     0.000 A 
ATOM      5  C5  BNZ d   1       6.000   1.301   3.383  0.00  0.00     0.000 A 
ATOM      6  C6  BNZ d   1       5.049   1.377   2.391  0.00  0.00     0.000 A 
ENDROOT
TORSDOF 0
ENDMDL
