MODEL 1
REMARK minimizedAffinity 2.41029763
REMARK minimizedRMSD -1
REMARK  0 active torsions:
REMARK  status: ('A' for Active; 'I' for Inactive)
ROOT
ATOM      1  C1  BNZ d   1       5.079   5.275   0.792  0.00  0.00     0.000 A 
ATOM      2  C2  BNZ d   1       5.995   5.998   1.508  0.00  0.00     0.000 A 
ATOM      3  C3  BNZ d   1       5.999   5.964   2.875  0.00  0.00     0.000 A 
ATOM      4  C4  BNZ d   1       5.063   5.241   3.523  0.00  0.00     0.000 A 
ATOM      5  C5  BNZ d   1       4.127   4.515   2.815  0.00  0.00     0.000 A 
ATOM      6  C6  BNZ d   1       4.150   4.520   1.439  0.00  0.00     0.000 A 
ENDROOT
TORSDOF 0
ENDMDL
