MODEL 1
REMARK minimizedAffinity -1.99436784
REMARK minimizedRMSD -1
REMARK  0 active torsions:
REMARK  status: ('A' for Active; 'I' for Inactive)
ROOT
ATOM      1  C1  BNZ d   1       5.992   0.243   5.942  0.00  0.00     0.000 A 
ATOM      2  C2  BNZ d   1       5.999   1.096   4.871  0.00  0.00     0.000 A 
ATOM      3  C3  BNZ d   1       5.981   0.614   3.592  0.00  0.00     0.000 A 
ATOM      4  C4  BNZ d   1       5.997  -0.719   3.386  0.00  0.00     0.000 A 
ATOM      5  C5  BNZ d   1       6.000  -1.592   4.455  0.00  0.00     0.000 A 
ATOM      6  C6  BNZ d   1       5.979  -1.103   5.741  0.00  0.00     0.000 A 
ENDROOT
TORSDOF 0
ENDMDL
