MODEL 1
REMARK minimizedAffinity -0.594884932
REMARK minimizedRMSD -1
REMARK  0 active torsions:
REMARK  status: ('A' for Active; 'I' for Inactive)
ROOT
ATOM      1  C1  BNZ d   1       6.000   0.036   3.442  0.00  0.00     0.000 A 
ATOM      2  C2  BNZ d   1       5.996   0.873   2.358  0.00  0.00     0.000 A 
ATOM      3  C3  BNZ d   1       5.996   2.230   2.522  0.00  0.00     0.000 A 
ATOM      4  C4  BNZ d   1       5.959   2.748   3.767  0.00  0.00     0.000 A 
ATOM      5  C5  BNZ d   1       5.954   1.917   4.870  0.00  0.00     0.000 A 
ATOM      6  C6  BNZ d   1       5.993   0.552   4.701  0.00  0.00     0.000 A 
ENDROOT
TORSDOF 0
ENDMDL
