MODEL 1
REMARK minimizedAffinity -2.32516217
REMARK minimizedRMSD -1
REMARK  0 active torsions:
REMARK  status: ('A' for Active; 'I' for Inactive)
ROOT
ATOM      1  C1  BNZ d   1       5.664   2.888   3.674  0.00  0.00     0.000 A 
ATOM      2  C2  BNZ d   1       6.000   1.563   3.590  0.00  0.00     0.000 A 
ATOM      3  C3  BNZ d   1       5.985   0.766   4.701  0.00  0.00     0.000 A 
ATOM      4  C4  BNZ d   1       5.674   1.303   5.898  0.00  0.00     0.000 A 
ATOM      5  C5  BNZ d   1       5.341   2.639   6.000  0.00  0.00     0.000 A 
ATOM      6  C6  BNZ d   1       5.319   3.429   4.874  0.00  0.00     0.000 A 
ENDROOT
TORSDOF 0
ENDMDL
