MODEL 1
REMARK minimizedAffinity -3.12583971
REMARK minimizedRMSD -1
REMARK  0 active torsions:
REMARK  status: ('A' for Active; 'I' for Inactive)
ROOT
ATOM      1  C1  BNZ d   1       5.668   0.187   5.681  0.00  0.00     0.000 A 
ATOM      2  C2  BNZ d   1       5.632   1.531   5.945  0.00  0.00     0.000 A 
ATOM      3  C3  BNZ d   1       5.669   2.445   4.929  0.00  0.00     0.000 A 
ATOM      4  C4  BNZ d   1       5.783   2.017   3.656  0.00  0.00     0.000 A 
ATOM      5  C5  BNZ d   1       5.830   0.666   3.374  0.00  0.00     0.000 A 
ATOM      6  C6  BNZ d   1       5.753  -0.252   4.396  0.00  0.00     0.000 A 
ENDROOT
TORSDOF 0
ENDMDL
