MODEL 1
REMARK minimizedAffinity 1.97765553
REMARK minimizedRMSD -1
REMARK  0 active torsions:
REMARK  status: ('A' for Active; 'I' for Inactive)
ROOT
ATOM      1  C1  BNZ d   1       5.656   1.559   3.373  0.00  0.00     0.000 A 
ATOM      2  C2  BNZ d   1       5.287   0.529   2.548  0.00  0.00     0.000 A 
ATOM      3  C3  BNZ d   1       5.248  -0.757   3.009  0.00  0.00     0.000 A 
ATOM      4  C4  BNZ d   1       5.616  -1.018   4.280  0.00  0.00     0.000 A 
ATOM      5  C5  BNZ d   1       6.000   0.008   5.121  0.00  0.00     0.000 A 
ATOM      6  C6  BNZ d   1       6.000   1.307   4.665  0.00  0.00     0.000 A 
ENDROOT
TORSDOF 0
ENDMDL
