MODEL 1
REMARK minimizedAffinity 6.23950911
REMARK minimizedRMSD -1
REMARK  0 active torsions:
REMARK  status: ('A' for Active; 'I' for Inactive)
ROOT
ATOM      1  C1  BNZ d   1       6.000   3.209   3.369  0.00  0.00     0.000 A 
ATOM      2  C2  BNZ d   1       6.000   1.840   3.406  0.00  0.00     0.000 A 
ATOM      3  C3  BNZ d   1       4.873   1.149   3.756  0.00  0.00     0.000 A 
ATOM      4  C4  BNZ d   1       3.761   1.828   4.106  0.00  0.00     0.000 A 
ATOM      5  C5  BNZ d   1       3.748   3.208   4.082  0.00  0.00     0.000 A 
ATOM      6  C6  BNZ d   1       4.872   3.899   3.692  0.00  0.00     0.000 A 
ENDROOT
TORSDOF 0
ENDMDL
