MODEL 1
REMARK minimizedAffinity -0.90403831
REMARK minimizedRMSD -1
REMARK  0 active torsions:
REMARK  status: ('A' for Active; 'I' for Inactive)
ROOT
ATOM      1  C1  BNZ d   1       6.000   3.360   2.975  0.00  0.00     0.000 A 
ATOM      2  C2  BNZ d   1       5.981   2.103   3.520  0.00  0.00     0.000 A 
ATOM      3  C3  BNZ d   1       5.947   1.929   4.875  0.00  0.00     0.000 A 
ATOM      4  C4  BNZ d   1       5.972   3.008   5.683  0.00  0.00     0.000 A 
ATOM      5  C5  BNZ d   1       6.000   4.281   5.149  0.00  0.00     0.000 A 
ATOM      6  C6  BNZ d   1       5.995   4.454   3.784  0.00  0.00     0.000 A 
ENDROOT
TORSDOF 0
ENDMDL
