MODEL 1
REMARK minimizedAffinity -3.25873852
REMARK minimizedRMSD -1
REMARK  0 active torsions:
REMARK  status: ('A' for Active; 'I' for Inactive)
ROOT
ATOM      1  C1  BNZ d   1       5.724   1.779   5.107  0.00  0.00     0.000 A 
ATOM      2  C2  BNZ d   1       5.947   1.625   3.765  0.00  0.00     0.000 A 
ATOM      3  C3  BNZ d   1       5.870   0.392   3.180  0.00  0.00     0.000 A 
ATOM      4  C4  BNZ d   1       5.610  -0.689   3.943  0.00  0.00     0.000 A 
ATOM      5  C5  BNZ d   1       5.392  -0.552   5.299  0.00  0.00     0.000 A 
ATOM      6  C6  BNZ d   1       5.431   0.696   5.878  0.00  0.00     0.000 A 
ENDROOT
TORSDOF 0
ENDMDL
