MODEL 1
REMARK minimizedAffinity -3.11346674
REMARK minimizedRMSD -1
REMARK  0 active torsions:
REMARK  status: ('A' for Active; 'I' for Inactive)
ROOT
ATOM      1  C1  BNZ d   1       5.707   1.729   4.597  0.00  0.00     0.000 A 
ATOM      2  C2  BNZ d   1       5.628   1.048   3.412  0.00  0.00     0.000 A 
ATOM      3  C3  BNZ d   1       5.709  -0.317   3.382  0.00  0.00     0.000 A 
ATOM      4  C4  BNZ d   1       5.908  -0.994   4.531  0.00  0.00     0.000 A 
ATOM      5  C5  BNZ d   1       5.999  -0.321   5.733  0.00  0.00     0.000 A 
ATOM      6  C6  BNZ d   1       5.878   1.049   5.764  0.00  0.00     0.000 A 
ENDROOT
TORSDOF 0
ENDMDL
