MODEL 1
REMARK minimizedAffinity -2.2287631
REMARK minimizedRMSD -1
REMARK  0 active torsions:
REMARK  status: ('A' for Active; 'I' for Inactive)
ROOT
ATOM      1  C1  BNZ d   1       5.992   0.128   4.058  0.00  0.00     0.000 A 
ATOM      2  C2  BNZ d   1       6.000   0.929   2.946  0.00  0.00     0.000 A 
ATOM      3  C3  BNZ d   1       5.471   2.189   2.988  0.00  0.00     0.000 A 
ATOM      4  C4  BNZ d   1       4.900   2.631   4.126  0.00  0.00     0.000 A 
ATOM      5  C5  BNZ d   1       4.876   1.833   5.252  0.00  0.00     0.000 A 
ATOM      6  C6  BNZ d   1       5.444   0.580   5.218  0.00  0.00     0.000 A 
ENDROOT
TORSDOF 0
ENDMDL
