MODEL 1
REMARK minimizedAffinity -1.99200666
REMARK minimizedRMSD -1
REMARK  0 active torsions:
REMARK  status: ('A' for Active; 'I' for Inactive)
ROOT
ATOM      1  C1  BNZ d   1       5.931   0.600   5.409  0.00  0.00     0.000 A 
ATOM      2  C2  BNZ d   1       6.000   1.854   5.954  0.00  0.00     0.000 A 
ATOM      3  C3  BNZ d   1       5.644   2.955   5.226  0.00  0.00     0.000 A 
ATOM      4  C4  BNZ d   1       5.258   2.804   3.942  0.00  0.00     0.000 A 
ATOM      5  C5  BNZ d   1       5.191   1.547   3.375  0.00  0.00     0.000 A 
ATOM      6  C6  BNZ d   1       5.513   0.438   4.124  0.00  0.00     0.000 A 
ENDROOT
TORSDOF 0
ENDMDL
