MODEL 1
REMARK minimizedAffinity -0.861647069
REMARK minimizedRMSD -1
REMARK  0 active torsions:
REMARK  status: ('A' for Active; 'I' for Inactive)
ROOT
ATOM      1  C1  BNZ d   1       5.950  -0.521   4.872  0.00  0.00     0.000 A 
ATOM      2  C2  BNZ d   1       5.945   0.076   3.639  0.00  0.00     0.000 A 
ATOM      3  C3  BNZ d   1       5.990   1.437   3.521  0.00  0.00     0.000 A 
ATOM      4  C4  BNZ d   1       6.000   2.199   4.633  0.00  0.00     0.000 A 
ATOM      5  C5  BNZ d   1       5.996   1.613   5.883  0.00  0.00     0.000 A 
ATOM      6  C6  BNZ d   1       5.990   0.242   5.998  0.00  0.00     0.000 A 
ENDROOT
TORSDOF 0
ENDMDL
