MODEL 1
REMARK minimizedAffinity -2.29693103
REMARK minimizedRMSD -1
REMARK  0 active torsions:
REMARK  status: ('A' for Active; 'I' for Inactive)
ROOT
ATOM      1  C   UNL d   1       4.001   5.590  -1.922  0.00  0.00    -0.002 A 
ATOM      2  C1  UNL d   1       5.306   5.999  -2.152  0.00  0.00     0.010 A 
ATOM      3  C2  UNL d   1       5.998   5.566  -3.285  0.00  0.00     0.041 A 
ATOM      4  C3  UNL d   1       5.348   4.706  -4.193  0.00  0.00    -0.075 A 
ATOM      5  S   UNL d   1       5.997   4.049  -5.648  0.00  0.00     0.015 SA
ATOM      6  C4  UNL d   1       4.556   3.209  -5.999  0.00  0.00     0.022 A 
ATOM      7  C5  UNL d   1       3.593   3.414  -5.040  0.00  0.00     0.026 A 
ATOM      8  C6  UNL d   1       4.033   4.281  -3.983  0.00  0.00    -0.082 A 
ATOM      9  C7  UNL d   1       3.359   4.737  -2.825  0.00  0.00     0.045 A 
ENDROOT
TORSDOF 0
ENDMDL
