MODEL 1
REMARK minimizedAffinity -5.4952817
REMARK minimizedRMSD -1
REMARK  0 active torsions:
REMARK  status: ('A' for Active; 'I' for Inactive)
ROOT
ATOM      1  C   UNL d   1       3.875   3.061  -5.914  0.00  0.00    -0.002 A 
ATOM      2  C1  UNL d   1       5.262   3.072  -5.956  0.00  0.00     0.010 A 
ATOM      3  C2  UNL d   1       5.997   3.730  -4.968  0.00  0.00     0.041 A 
ATOM      4  C3  UNL d   1       5.309   4.381  -3.926  0.00  0.00    -0.075 A 
ATOM      5  S   UNL d   1       6.000   5.250  -2.607  0.00  0.00     0.015 SA
ATOM      6  C4  UNL d   1       4.470   5.627  -1.956  0.00  0.00     0.022 A 
ATOM      7  C5  UNL d   1       3.446   5.110  -2.714  0.00  0.00     0.026 A 
ATOM      8  C6  UNL d   1       3.912   4.384  -3.861  0.00  0.00    -0.082 A 
ATOM      9  C7  UNL d   1       3.195   3.709  -4.878  0.00  0.00     0.045 A 
ENDROOT
TORSDOF 0
ENDMDL
