MODEL 1
REMARK minimizedAffinity 8.23381042
REMARK minimizedRMSD -1
REMARK  0 active torsions:
REMARK  status: ('A' for Active; 'I' for Inactive)
ROOT
ATOM      1  C   UNL d   1       1.659  -2.956  -4.739  0.00  0.00    -0.002 A 
ATOM      2  C1  UNL d   1       1.269  -2.332  -3.563  0.00  0.00     0.010 A 
ATOM      3  C2  UNL d   1       2.208  -2.025  -2.576  0.00  0.00     0.041 A 
ATOM      4  C3  UNL d   1       3.559  -2.358  -2.795  0.00  0.00    -0.075 A 
ATOM      5  S   UNL d   1       4.884  -2.078  -1.728  0.00  0.00     0.015 SA
ATOM      6  C4  UNL d   1       6.000  -2.779  -2.809  0.00  0.00     0.022 A 
ATOM      7  C5  UNL d   1       5.393  -3.221  -3.961  0.00  0.00     0.026 A 
ATOM      8  C6  UNL d   1       3.977  -2.985  -3.972  0.00  0.00    -0.082 A 
ATOM      9  C7  UNL d   1       3.000  -3.284  -4.952  0.00  0.00     0.045 A 
ENDROOT
TORSDOF 0
ENDMDL
