MODEL 1
REMARK minimizedAffinity 4.02603006
REMARK minimizedRMSD -1
REMARK  0 active torsions:
REMARK  status: ('A' for Active; 'I' for Inactive)
ROOT
ATOM      1  C   UNL d   1       2.259  -0.208  -1.006  0.00  0.00    -0.002 A 
ATOM      2  C1  UNL d   1       3.144  -0.930  -1.794  0.00  0.00     0.010 A 
ATOM      3  C2  UNL d   1       2.696  -2.011  -2.557  0.00  0.00     0.041 A 
ATOM      4  C3  UNL d   1       1.331  -2.355  -2.517  0.00  0.00    -0.075 A 
ATOM      5  S   UNL d   1       0.556  -3.638  -3.368  0.00  0.00     0.015 SA
ATOM      6  C4  UNL d   1      -0.968  -3.257  -2.707  0.00  0.00     0.022 A 
ATOM      7  C5  UNL d   1      -0.906  -2.180  -1.855  0.00  0.00     0.026 A 
ATOM      8  C6  UNL d   1       0.420  -1.642  -1.732  0.00  0.00    -0.082 A 
ATOM      9  C7  UNL d   1       0.905  -0.552  -0.969  0.00  0.00     0.045 A 
ENDROOT
TORSDOF 0
ENDMDL
