MODEL 1
REMARK minimizedAffinity 12.1743803
REMARK minimizedRMSD -1
REMARK  0 active torsions:
REMARK  status: ('A' for Active; 'I' for Inactive)
ROOT
ATOM      1  C   UNL d   1      -1.285  -2.627  -2.938  0.00  0.00    -0.002 A 
ATOM      2  C1  UNL d   1      -0.167  -2.399  -2.149  0.00  0.00     0.010 A 
ATOM      3  C2  UNL d   1       1.104  -2.767  -2.594  0.00  0.00     0.041 A 
ATOM      4  C3  UNL d   1       1.234  -3.373  -3.859  0.00  0.00    -0.075 A 
ATOM      5  S   UNL d   1       2.690  -3.908  -4.612  0.00  0.00     0.015 SA
ATOM      6  C4  UNL d   1       1.862  -4.450  -5.999  0.00  0.00     0.022 A 
ATOM      7  C5  UNL d   1       0.507  -4.237  -5.907  0.00  0.00     0.026 A 
ATOM      8  C6  UNL d   1       0.123  -3.612  -4.673  0.00  0.00    -0.082 A 
ATOM      9  C7  UNL d   1      -1.152  -3.228  -4.193  0.00  0.00     0.045 A 
ENDROOT
TORSDOF 0
ENDMDL
