MODEL 1
REMARK minimizedAffinity 1.68769169
REMARK minimizedRMSD -1
REMARK  0 active torsions:
REMARK  status: ('A' for Active; 'I' for Inactive)
ROOT
ATOM      1  C   UNL d   1       4.075   3.149  -5.681  0.00  0.00    -0.002 A 
ATOM      2  C1  UNL d   1       5.332   3.645  -5.995  0.00  0.00     0.010 A 
ATOM      3  C2  UNL d   1       5.998   4.501  -5.116  0.00  0.00     0.041 A 
ATOM      4  C3  UNL d   1       5.374   4.852  -3.902  0.00  0.00    -0.075 A 
ATOM      5  S   UNL d   1       6.000   5.884  -2.672  0.00  0.00     0.015 SA
ATOM      6  C4  UNL d   1       4.613   5.690  -1.699  0.00  0.00     0.022 A 
ATOM      7  C5  UNL d   1       3.686   4.861  -2.284  0.00  0.00     0.026 A 
ATOM      8  C6  UNL d   1       4.109   4.364  -3.563  0.00  0.00    -0.082 A 
ATOM      9  C7  UNL d   1       3.459   3.499  -4.477  0.00  0.00     0.045 A 
ENDROOT
TORSDOF 0
ENDMDL
