MODEL 1
REMARK minimizedAffinity 7.92797327
REMARK minimizedRMSD -1
REMARK  0 active torsions:
REMARK  status: ('A' for Active; 'I' for Inactive)
ROOT
ATOM      1  C   UNL d   1       1.882   4.584  -3.791  0.00  0.00    -0.002 A 
ATOM      2  C1  UNL d   1       2.608   5.252  -4.767  0.00  0.00     0.010 A 
ATOM      3  C2  UNL d   1       3.894   5.725  -4.496  0.00  0.00     0.041 A 
ATOM      4  C3  UNL d   1       4.443   5.511  -3.217  0.00  0.00    -0.075 A 
ATOM      5  S   UNL d   1       6.000   6.000  -2.659  0.00  0.00     0.015 SA
ATOM      6  C4  UNL d   1       5.737   5.332  -1.113  0.00  0.00     0.022 A 
ATOM      7  C5  UNL d   1       4.498   4.747  -1.007  0.00  0.00     0.026 A 
ATOM      8  C6  UNL d   1       3.732   4.840  -2.218  0.00  0.00    -0.082 A 
ATOM      9  C7  UNL d   1       2.430   4.374  -2.523  0.00  0.00     0.045 A 
ENDROOT
TORSDOF 0
ENDMDL
