MODEL 1
REMARK minimizedAffinity 13.8598022
REMARK minimizedRMSD -1
REMARK  0 active torsions:
REMARK  status: ('A' for Active; 'I' for Inactive)
ROOT
ATOM      1  C   UNL d   1       3.879   2.288  -4.486  0.00  0.00    -0.002 A 
ATOM      2  C1  UNL d   1       5.266   2.262  -4.497  0.00  0.00     0.010 A 
ATOM      3  C2  UNL d   1       5.999   3.171  -3.732  0.00  0.00     0.041 A 
ATOM      4  C3  UNL d   1       5.308   4.115  -2.947  0.00  0.00    -0.075 A 
ATOM      5  S   UNL d   1       5.997   5.325  -1.930  0.00  0.00     0.015 SA
ATOM      6  C4  UNL d   1       4.466   5.904  -1.456  0.00  0.00     0.022 A 
ATOM      7  C5  UNL d   1       3.443   5.203  -2.050  0.00  0.00     0.026 A 
ATOM      8  C6  UNL d   1       3.912   4.160  -2.919  0.00  0.00    -0.082 A 
ATOM      9  C7  UNL d   1       3.197   3.225  -3.706  0.00  0.00     0.045 A 
ENDROOT
TORSDOF 0
ENDMDL
