MODEL 1
REMARK minimizedAffinity 18.5694752
REMARK minimizedRMSD -1
REMARK  0 active torsions:
REMARK  status: ('A' for Active; 'I' for Inactive)
ROOT
ATOM      1  C   UNL d   1       2.533  -1.422   4.933  0.00  0.00    -0.002 A 
ATOM      2  C1  UNL d   1       2.811  -1.429   3.573  0.00  0.00     0.010 A 
ATOM      3  C2  UNL d   1       3.811  -2.256   3.058  0.00  0.00     0.041 A 
ATOM      4  C3  UNL d   1       4.532  -3.085   3.940  0.00  0.00    -0.075 A 
ATOM      5  S   UNL d   1       5.799  -4.181   3.535  0.00  0.00     0.015 SA
ATOM      6  C4  UNL d   1       6.000  -4.666   5.156  0.00  0.00     0.022 A 
ATOM      7  C5  UNL d   1       5.129  -4.018   6.000  0.00  0.00     0.026 A 
ATOM      8  C6  UNL d   1       4.269  -3.096   5.313  0.00  0.00    -0.082 A 
ATOM      9  C7  UNL d   1       3.249  -2.245   5.805  0.00  0.00     0.045 A 
ENDROOT
TORSDOF 0
ENDMDL
