MODEL 1
REMARK minimizedAffinity 11.6564798
REMARK minimizedRMSD -1
REMARK  0 active torsions:
REMARK  status: ('A' for Active; 'I' for Inactive)
ROOT
ATOM      1  C   UNL d   1       5.624   1.301  -4.771  0.00  0.00    -0.002 A 
ATOM      2  C1  UNL d   1       4.309   1.505  -5.165  0.00  0.00     0.010 A 
ATOM      3  C2  UNL d   1       3.345   0.516  -4.961  0.00  0.00     0.041 A 
ATOM      4  C3  UNL d   1       3.727  -0.693  -4.347  0.00  0.00    -0.075 A 
ATOM      5  S   UNL d   1       2.717  -2.045  -3.995  0.00  0.00     0.015 SA
ATOM      6  C4  UNL d   1       4.008  -2.926  -3.314  0.00  0.00     0.022 A 
ATOM      7  C5  UNL d   1       5.187  -2.220  -3.346  0.00  0.00     0.026 A 
ATOM      8  C6  UNL d   1       5.045  -0.922  -3.941  0.00  0.00    -0.082 A 
ATOM      9  C7  UNL d   1       6.000   0.100  -4.163  0.00  0.00     0.045 A 
ENDROOT
TORSDOF 0
ENDMDL
