MODEL 1
REMARK minimizedAffinity 13.0791979
REMARK minimizedRMSD -1
REMARK  0 active torsions:
REMARK  status: ('A' for Active; 'I' for Inactive)
ROOT
ATOM      1  C   UNL d   1      -3.013  -3.192   2.141  0.00  0.00    -0.002 A 
ATOM      2  C1  UNL d   1      -4.234  -3.120   1.485  0.00  0.00     0.010 A 
ATOM      3  C2  UNL d   1      -4.295  -2.775   0.134  0.00  0.00     0.041 A 
ATOM      4  C3  UNL d   1      -3.096  -2.503  -0.555  0.00  0.00    -0.075 A 
ATOM      5  S   UNL d   1      -2.927  -2.062  -2.213  0.00  0.00     0.015 SA
ATOM      6  C4  UNL d   1      -1.230  -1.959  -2.090  0.00  0.00     0.022 A 
ATOM      7  C5  UNL d   1      -0.787  -2.251  -0.821  0.00  0.00     0.026 A 
ATOM      8  C6  UNL d   1      -1.855  -2.570   0.084  0.00  0.00    -0.082 A 
ATOM      9  C7  UNL d   1      -1.827  -2.921   1.455  0.00  0.00     0.045 A 
ENDROOT
TORSDOF 0
ENDMDL
