MODEL 1
REMARK minimizedAffinity 20.2198601
REMARK minimizedRMSD -1
REMARK  0 active torsions:
REMARK  status: ('A' for Active; 'I' for Inactive)
ROOT
ATOM      1  C   UNL d   1      -2.112  -1.079   1.506  0.00  0.00    -0.002 A 
ATOM      2  C1  UNL d   1      -1.460  -2.161   2.080  0.00  0.00     0.010 A 
ATOM      3  C2  UNL d   1      -1.292  -2.236   3.464  0.00  0.00     0.041 A 
ATOM      4  C3  UNL d   1      -1.798  -1.197   4.270  0.00  0.00    -0.075 A 
ATOM      5  S   UNL d   1      -1.710  -1.076   5.987  0.00  0.00     0.015 SA
ATOM      6  C4  UNL d   1      -2.537   0.414   6.000  0.00  0.00     0.022 A 
ATOM      7  C5  UNL d   1      -2.879   0.824   4.733  0.00  0.00     0.026 A 
ATOM      8  C6  UNL d   1      -2.459  -0.097   3.715  0.00  0.00    -0.082 A 
ATOM      9  C7  UNL d   1      -2.612  -0.049   2.308  0.00  0.00     0.045 A 
ENDROOT
TORSDOF 0
ENDMDL
