MODEL 1
REMARK minimizedAffinity -4.67564964
REMARK minimizedRMSD -1
REMARK  1 active torsions:
REMARK  status: ('A' for Active; 'I' for Inactive)
REMARK    1  A    between atoms: C1_2  and  C2_3 
ROOT
ATOM      1  C2  UNL d   1      -0.927  -0.681   0.384  0.00  0.00    -0.076 A 
ATOM      2  C3  UNL d   1      -0.153  -1.336   1.358  0.00  0.00     0.004 A 
ATOM      3  C4  UNL d   1      -0.578  -2.537   1.923  0.00  0.00    -0.003 A 
ATOM      4  C5  UNL d   1      -1.784  -3.103   1.523  0.00  0.00     0.000 A 
ATOM      5  C6  UNL d   1      -2.555  -2.476   0.545  0.00  0.00     0.000 A 
ATOM      6  C7  UNL d   1      -2.134  -1.273  -0.047  0.00  0.00    -0.073 A 
ATOM      7  C8  UNL d   1      -3.008  -0.637  -1.092  0.00  0.00     0.078 C 
ENDROOT
BRANCH   1   8
ATOM      8  C1  UNL d   1      -0.428   0.633  -0.174  0.00  0.00     0.053 C 
ATOM      9  C   UNL d   1       0.675   1.246   0.675  0.00  0.00     0.018 C 
ENDBRANCH   1   8
TORSDOF 1
ENDMDL
