MODEL 1
REMARK minimizedAffinity -2.17710161
REMARK minimizedRMSD -1
REMARK  1 active torsions:
REMARK  status: ('A' for Active; 'I' for Inactive)
REMARK    1  A    between atoms: C1_2  and  C2_3 
ROOT
ATOM      1  C2  UNL d   1      -1.490  -0.879   0.625  0.00  0.00    -0.076 A 
ATOM      2  C3  UNL d   1      -2.643  -0.778  -0.173  0.00  0.00     0.004 A 
ATOM      3  C4  UNL d   1      -3.546  -1.835  -0.266  0.00  0.00    -0.003 A 
ATOM      4  C5  UNL d   1      -3.312  -3.011   0.438  0.00  0.00     0.000 A 
ATOM      5  C6  UNL d   1      -2.182  -3.122   1.248  0.00  0.00     0.000 A 
ATOM      6  C7  UNL d   1      -1.270  -2.059   1.366  0.00  0.00    -0.073 A 
ATOM      7  C8  UNL d   1      -0.066  -2.236   2.250  0.00  0.00     0.078 C 
ENDROOT
BRANCH   1   8
ATOM      8  C1  UNL d   1      -0.532   0.291   0.666  0.00  0.00     0.053 C 
ATOM      9  C   UNL d   1       0.465   0.267  -0.482  0.00  0.00     0.018 C 
ENDBRANCH   1   8
TORSDOF 1
ENDMDL
