MODEL 1
REMARK minimizedAffinity -4.93421173
REMARK minimizedRMSD -1
REMARK  1 active torsions:
REMARK  status: ('A' for Active; 'I' for Inactive)
REMARK    1  A    between atoms: C1_2  and  C2_3 
ROOT
ATOM      1  C2  UNL d   1      -0.920  -1.365   0.320  0.00  0.00    -0.076 A 
ATOM      2  C3  UNL d   1      -2.223  -1.653  -0.120  0.00  0.00     0.004 A 
ATOM      3  C4  UNL d   1      -2.783  -0.973  -1.201  0.00  0.00    -0.003 A 
ATOM      4  C5  UNL d   1      -2.047   0.006  -1.859  0.00  0.00     0.000 A 
ATOM      5  C6  UNL d   1      -0.746   0.293  -1.448  0.00  0.00     0.000 A 
ATOM      6  C7  UNL d   1      -0.161  -0.395  -0.370  0.00  0.00    -0.073 A 
ATOM      7  C8  UNL d   1       1.243  -0.042   0.035  0.00  0.00     0.078 C 
ENDROOT
BRANCH   1   8
ATOM      8  C1  UNL d   1      -0.376  -2.116   1.514  0.00  0.00     0.053 C 
ATOM      9  C   UNL d   1      -1.339  -3.178   2.022  0.00  0.00     0.018 C 
ENDBRANCH   1   8
TORSDOF 1
ENDMDL
