MODEL 1
REMARK minimizedAffinity -5.4748888
REMARK minimizedRMSD -1
REMARK  1 active torsions:
REMARK  status: ('A' for Active; 'I' for Inactive)
REMARK    1  A    between atoms: C1_2  and  C2_3 
ROOT
ATOM      1  C2  UNL d   1      -1.040  -0.543   0.334  0.00  0.00    -0.076 A 
ATOM      2  C3  UNL d   1      -2.345  -0.388  -0.165  0.00  0.00     0.004 A 
ATOM      3  C4  UNL d   1      -3.326  -1.348   0.081  0.00  0.00    -0.003 A 
ATOM      4  C5  UNL d   1      -3.018  -2.477   0.831  0.00  0.00     0.000 A 
ATOM      5  C6  UNL d   1      -1.733  -2.638   1.349  0.00  0.00     0.000 A 
ATOM      6  C7  UNL d   1      -0.737  -1.673   1.124  0.00  0.00    -0.073 A 
ATOM      7  C8  UNL d   1       0.633  -1.900   1.702  0.00  0.00     0.078 C 
ENDROOT
BRANCH   1   8
ATOM      8  C1  UNL d   1      -0.011   0.517   0.012  0.00  0.00     0.053 C 
ATOM      9  C   UNL d   1       0.594   0.340  -1.372  0.00  0.00     0.018 C 
ENDBRANCH   1   8
TORSDOF 1
ENDMDL
