MODEL 1
REMARK minimizedAffinity -3.95111036
REMARK minimizedRMSD -1
REMARK  1 active torsions:
REMARK  status: ('A' for Active; 'I' for Inactive)
REMARK    1  A    between atoms: C1_2  and  C2_3 
ROOT
ATOM      1  C2  UNL d   1      -0.148  -0.226  -0.145  0.00  0.00    -0.076 A 
ATOM      2  C3  UNL d   1      -1.036  -0.473   0.917  0.00  0.00     0.004 A 
ATOM      3  C4  UNL d   1      -2.406  -0.594   0.694  0.00  0.00    -0.003 A 
ATOM      4  C5  UNL d   1      -2.912  -0.470  -0.596  0.00  0.00     0.000 A 
ATOM      5  C6  UNL d   1      -2.044  -0.243  -1.664  0.00  0.00     0.000 A 
ATOM      6  C7  UNL d   1      -0.658  -0.134  -1.458  0.00  0.00    -0.073 A 
ATOM      7  C8  UNL d   1       0.231   0.117  -2.645  0.00  0.00     0.078 C 
ENDROOT
BRANCH   1   8
ATOM      8  C1  UNL d   1       1.325  -0.077   0.162  0.00  0.00     0.053 C 
ATOM      9  C   UNL d   1       1.726   1.369   0.407  0.00  0.00     0.018 C 
ENDBRANCH   1   8
TORSDOF 1
ENDMDL
