MODEL 1
REMARK minimizedAffinity -3.09984183
REMARK minimizedRMSD -1
REMARK  1 active torsions:
REMARK  status: ('A' for Active; 'I' for Inactive)
REMARK    1  A    between atoms: C1_2  and  C2_3 
ROOT
ATOM      1  C2  UNL d   1       0.785   1.282   0.495  0.00  0.00    -0.076 A 
ATOM      2  C3  UNL d   1      -0.205   2.234   0.191  0.00  0.00     0.004 A 
ATOM      3  C4  UNL d   1      -1.389   1.861  -0.442  0.00  0.00    -0.003 A 
ATOM      4  C5  UNL d   1      -1.603   0.529  -0.782  0.00  0.00     0.000 A 
ATOM      5  C6  UNL d   1      -0.640  -0.431  -0.473  0.00  0.00     0.000 A 
ATOM      6  C7  UNL d   1       0.552  -0.074   0.180  0.00  0.00    -0.073 A 
ATOM      7  C8  UNL d   1       1.558  -1.150   0.484  0.00  0.00     0.078 C 
ENDROOT
BRANCH   1   8
ATOM      8  C1  UNL d   1       2.060   1.750   1.158  0.00  0.00     0.053 C 
ATOM      9  C   UNL d   1       2.205   3.263   1.141  0.00  0.00     0.018 C 
ENDBRANCH   1   8
TORSDOF 1
ENDMDL
