MODEL 1
REMARK minimizedAffinity -3.92473245
REMARK minimizedRMSD -1
REMARK  1 active torsions:
REMARK  status: ('A' for Active; 'I' for Inactive)
REMARK    1  A    between atoms: C1_2  and  C2_3 
ROOT
ATOM      1  C2  UNL d   1      -0.316  -0.548  -0.117  0.00  0.00    -0.076 A 
ATOM      2  C3  UNL d   1      -0.654   0.407  -1.091  0.00  0.00     0.004 A 
ATOM      3  C4  UNL d   1      -1.900   0.384  -1.717  0.00  0.00    -0.003 A 
ATOM      4  C5  UNL d   1      -2.828  -0.595  -1.377  0.00  0.00     0.000 A 
ATOM      5  C6  UNL d   1      -2.516  -1.539  -0.400  0.00  0.00     0.000 A 
ATOM      6  C7  UNL d   1      -1.271  -1.520   0.252  0.00  0.00    -0.073 A 
ATOM      7  C8  UNL d   1      -0.986  -2.567   1.293  0.00  0.00     0.078 C 
ENDROOT
BRANCH   1   8
ATOM      8  C1  UNL d   1       1.059  -0.490   0.508  0.00  0.00     0.053 C 
ATOM      9  C   UNL d   1       1.560   0.935   0.682  0.00  0.00     0.018 C 
ENDBRANCH   1   8
TORSDOF 1
ENDMDL
