MODEL 1
REMARK minimizedAffinity -4.96800184
REMARK minimizedRMSD -1
REMARK  1 active torsions:
REMARK  status: ('A' for Active; 'I' for Inactive)
REMARK    1  A    between atoms: C1_2  and  C2_3 
ROOT
ATOM      1  C2  UNL d   1      -0.020  -0.496   0.038  0.00  0.00    -0.076 A 
ATOM      2  C3  UNL d   1      -0.733  -1.063   1.109  0.00  0.00     0.004 A 
ATOM      3  C4  UNL d   1      -2.094  -1.342   0.997  0.00  0.00    -0.003 A 
ATOM      4  C5  UNL d   1      -2.764  -1.060  -0.188  0.00  0.00     0.000 A 
ATOM      5  C6  UNL d   1      -2.069  -0.515  -1.267  0.00  0.00     0.000 A 
ATOM      6  C7  UNL d   1      -0.693  -0.242  -1.176  0.00  0.00    -0.073 A 
ATOM      7  C8  UNL d   1       0.005   0.352  -2.369  0.00  0.00     0.078 C 
ENDROOT
BRANCH   1   8
ATOM      8  C1  UNL d   1       1.449  -0.190   0.227  0.00  0.00     0.053 C 
ATOM      9  C   UNL d   1       1.682   1.001   1.144  0.00  0.00     0.018 C 
ENDBRANCH   1   8
TORSDOF 1
ENDMDL
