MODEL 1
REMARK minimizedAffinity -0.622846246
REMARK minimizedRMSD -1
REMARK  1 active torsions:
REMARK  status: ('A' for Active; 'I' for Inactive)
REMARK    1  A    between atoms: C1_2  and  C2_3 
ROOT
ATOM      1  C2  UNL d   1      -1.118  -0.548  -0.350  0.00  0.00    -0.076 A 
ATOM      2  C3  UNL d   1      -0.550   0.492  -1.105  0.00  0.00     0.004 A 
ATOM      3  C4  UNL d   1       0.674   1.054  -0.745  0.00  0.00    -0.003 A 
ATOM      4  C5  UNL d   1       1.350   0.585   0.376  0.00  0.00     0.000 A 
ATOM      5  C6  UNL d   1       0.809  -0.459   1.127  0.00  0.00     0.000 A 
ATOM      6  C7  UNL d   1      -0.416  -1.048   0.768  0.00  0.00    -0.073 A 
ATOM      7  C8  UNL d   1      -0.955  -2.166   1.617  0.00  0.00     0.078 C 
ENDROOT
BRANCH   1   8
ATOM      8  C1  UNL d   1      -2.461  -1.100  -0.773  0.00  0.00     0.053 C 
ATOM      9  C   UNL d   1      -2.435  -1.683  -2.177  0.00  0.00     0.018 C 
ENDBRANCH   1   8
TORSDOF 1
ENDMDL
