MODEL 1
REMARK minimizedAffinity -5.51754618
REMARK minimizedRMSD -1
REMARK  1 active torsions:
REMARK  status: ('A' for Active; 'I' for Inactive)
REMARK    1  A    between atoms: C1_2  and  C2_3 
ROOT
ATOM      1  C2  UNL d   1      -1.128  -1.055   0.873  0.00  0.00    -0.076 A 
ATOM      2  C3  UNL d   1       0.239  -0.746   0.763  0.00  0.00     0.004 A 
ATOM      3  C4  UNL d   1       0.694   0.166  -0.188  0.00  0.00    -0.003 A 
ATOM      4  C5  UNL d   1      -0.211   0.784  -1.044  0.00  0.00     0.000 A 
ATOM      5  C6  UNL d   1      -1.572   0.503  -0.937  0.00  0.00     0.000 A 
ATOM      6  C7  UNL d   1      -2.050  -0.402   0.027  0.00  0.00    -0.073 A 
ATOM      7  C8  UNL d   1      -3.528  -0.672   0.094  0.00  0.00     0.078 C 
ENDROOT
BRANCH   1   8
ATOM      8  C1  UNL d   1      -1.560  -2.072   1.906  0.00  0.00     0.053 C 
ATOM      9  C   UNL d   1      -1.986  -3.391   1.281  0.00  0.00     0.018 C 
ENDBRANCH   1   8
TORSDOF 1
ENDMDL
