MODEL 1
REMARK minimizedAffinity 17.4889088
REMARK minimizedRMSD -1
REMARK  1 active torsions:
REMARK  status: ('A' for Active; 'I' for Inactive)
REMARK    1  A    between atoms: C1_2  and  C2_3 
ROOT
ATOM      1  C2  UNL d   1      -1.013  -1.736  -1.204  0.00  0.00    -0.073 A 
ATOM      2  C3  UNL d   1      -2.083  -1.126  -0.540  0.00  0.00    -0.002 A 
ATOM      3  C4  UNL d   1      -2.623  -1.707   0.608  0.00  0.00     0.004 A 
ATOM      4  C5  UNL d   1      -2.096  -2.898   1.107  0.00  0.00    -0.004 A 
ATOM      5  C6  UNL d   1      -1.019  -3.516   0.465  0.00  0.00    -0.075 A 
ATOM      6  C7  UNL d   1      -0.442  -4.799   0.987  0.00  0.00     0.076 C 
ATOM      7  C8  UNL d   1      -0.484  -2.928  -0.689  0.00  0.00     0.001 A 
ENDROOT
BRANCH   1   8
ATOM      8  C1  UNL d   1      -0.422  -1.109  -2.440  0.00  0.00     0.053 C 
ATOM      9  C   UNL d   1      -1.400  -1.111  -3.604  0.00  0.00     0.018 C 
ENDBRANCH   1   8
TORSDOF 1
ENDMDL
