MODEL 1
REMARK minimizedAffinity 12.435914
REMARK minimizedRMSD -1
REMARK  1 active torsions:
REMARK  status: ('A' for Active; 'I' for Inactive)
REMARK    1  A    between atoms: C1_2  and  C2_3 
ROOT
ATOM      1  C2  UNL d   1       0.441  -2.834   1.904  0.00  0.00    -0.073 A 
ATOM      2  C3  UNL d   1       1.781  -2.445   1.798  0.00  0.00    -0.002 A 
ATOM      3  C4  UNL d   1       2.442  -1.887   2.893  0.00  0.00     0.004 A 
ATOM      4  C5  UNL d   1       1.773  -1.718   4.105  0.00  0.00    -0.004 A 
ATOM      5  C6  UNL d   1       0.437  -2.111   4.234  0.00  0.00    -0.075 A 
ATOM      6  C7  UNL d   1      -0.297  -1.934   5.531  0.00  0.00     0.076 C 
ATOM      7  C8  UNL d   1      -0.220  -2.669   3.130  0.00  0.00     0.001 A 
ENDROOT
BRANCH   1   8
ATOM      8  C1  UNL d   1      -0.275  -3.443   0.726  0.00  0.00     0.053 C 
ATOM      9  C   UNL d   1      -0.969  -2.392  -0.125  0.00  0.00     0.018 C 
ENDBRANCH   1   8
TORSDOF 1
ENDMDL
