MODEL 1
REMARK minimizedAffinity 10.9290781
REMARK minimizedRMSD -1
REMARK  1 active torsions:
REMARK  status: ('A' for Active; 'I' for Inactive)
REMARK    1  A    between atoms: C1_2  and  C2_3 
ROOT
ATOM      1  C2  UNL d   1      -0.906  -1.337  -1.231  0.00  0.00    -0.073 A 
ATOM      2  C3  UNL d   1      -2.036  -0.809  -0.597  0.00  0.00    -0.002 A 
ATOM      3  C4  UNL d   1      -2.647  -1.503   0.448  0.00  0.00     0.004 A 
ATOM      4  C5  UNL d   1      -2.131  -2.726   0.875  0.00  0.00    -0.004 A 
ATOM      5  C6  UNL d   1      -0.995  -3.265   0.261  0.00  0.00    -0.075 A 
ATOM      6  C7  UNL d   1      -0.428  -4.581   0.707  0.00  0.00     0.076 C 
ATOM      7  C8  UNL d   1      -0.389  -2.563  -0.789  0.00  0.00     0.001 A 
ENDROOT
BRANCH   1   8
ATOM      8  C1  UNL d   1      -0.239  -0.588  -2.356  0.00  0.00     0.053 C 
ATOM      9  C   UNL d   1       0.846   0.351  -1.852  0.00  0.00     0.018 C 
ENDBRANCH   1   8
TORSDOF 1
ENDMDL
