MODEL 1
REMARK minimizedAffinity 12.2747545
REMARK minimizedRMSD -1
REMARK  1 active torsions:
REMARK  status: ('A' for Active; 'I' for Inactive)
REMARK    1  A    between atoms: C1_2  and  C2_3 
ROOT
ATOM      1  C2  UNL d   1      -1.619  -3.371   0.076  0.00  0.00    -0.073 A 
ATOM      2  C3  UNL d   1      -2.708  -3.053   0.895  0.00  0.00    -0.002 A 
ATOM      3  C4  UNL d   1      -3.544  -1.982   0.574  0.00  0.00     0.004 A 
ATOM      4  C5  UNL d   1      -3.304  -1.224  -0.571  0.00  0.00    -0.004 A 
ATOM      5  C6  UNL d   1      -2.227  -1.533  -1.409  0.00  0.00    -0.075 A 
ATOM      6  C7  UNL d   1      -1.954  -0.726  -2.644  0.00  0.00     0.076 C 
ATOM      7  C8  UNL d   1      -1.392  -2.608  -1.079  0.00  0.00     0.001 A 
ENDROOT
BRANCH   1   8
ATOM      8  C1  UNL d   1      -0.718  -4.530   0.415  0.00  0.00     0.053 C 
ATOM      9  C   UNL d   1      -0.562  -4.710   1.917  0.00  0.00     0.018 C 
ENDBRANCH   1   8
TORSDOF 1
ENDMDL
