MODEL 1
REMARK minimizedAffinity 22.3596611
REMARK minimizedRMSD -1
REMARK  1 active torsions:
REMARK  status: ('A' for Active; 'I' for Inactive)
REMARK    1  A    between atoms: C1_2  and  C2_3 
ROOT
ATOM      1  C2  UNL d   1      -2.573  -0.582  -2.719  0.00  0.00    -0.073 A 
ATOM      2  C3  UNL d   1      -1.319  -1.082  -3.089  0.00  0.00    -0.002 A 
ATOM      3  C4  UNL d   1      -0.548  -1.800  -2.173  0.00  0.00     0.004 A 
ATOM      4  C5  UNL d   1      -1.024  -2.030  -0.883  0.00  0.00    -0.004 A 
ATOM      5  C6  UNL d   1      -2.279  -1.548  -0.498  0.00  0.00    -0.075 A 
ATOM      6  C7  UNL d   1      -2.805  -1.786   0.887  0.00  0.00     0.076 C 
ATOM      7  C8  UNL d   1      -3.047  -0.827  -1.422  0.00  0.00     0.001 A 
ENDROOT
BRANCH   1   8
ATOM      8  C1  UNL d   1      -3.412   0.187  -3.706  0.00  0.00     0.053 C 
ATOM      9  C   UNL d   1      -2.685   1.411  -4.240  0.00  0.00     0.018 C 
ENDBRANCH   1   8
TORSDOF 1
ENDMDL
