MODEL 1
REMARK minimizedAffinity 18.1623592
REMARK minimizedRMSD -1
REMARK  1 active torsions:
REMARK  status: ('A' for Active; 'I' for Inactive)
REMARK    1  A    between atoms: C1_2  and  C2_3 
ROOT
ATOM      1  C2  UNL d   1      -0.653  -3.235  -0.165  0.00  0.00    -0.073 A 
ATOM      2  C3  UNL d   1      -0.921  -4.052  -1.270  0.00  0.00    -0.002 A 
ATOM      3  C4  UNL d   1      -0.690  -5.426  -1.203  0.00  0.00     0.004 A 
ATOM      4  C5  UNL d   1      -0.196  -5.999  -0.031  0.00  0.00    -0.004 A 
ATOM      5  C6  UNL d   1       0.066  -5.202   1.088  0.00  0.00    -0.075 A 
ATOM      6  C7  UNL d   1       0.599  -5.802   2.355  0.00  0.00     0.076 C 
ATOM      7  C8  UNL d   1      -0.166  -3.822   1.012  0.00  0.00     0.001 A 
ENDROOT
BRANCH   1   8
ATOM      8  C1  UNL d   1      -0.907  -1.752  -0.230  0.00  0.00     0.053 C 
ATOM      9  C   UNL d   1      -1.844  -1.383  -1.370  0.00  0.00     0.018 C 
ENDBRANCH   1   8
TORSDOF 1
ENDMDL
