MODEL 1
REMARK minimizedAffinity 16.3861961
REMARK minimizedRMSD -1
REMARK  1 active torsions:
REMARK  status: ('A' for Active; 'I' for Inactive)
REMARK    1  A    between atoms: C1_2  and  C2_3 
ROOT
ATOM      1  C2  UNL d   1      -0.975  -1.400   5.357  0.00  0.00    -0.073 A 
ATOM      2  C3  UNL d   1      -1.489  -1.905   4.157  0.00  0.00    -0.002 A 
ATOM      3  C4  UNL d   1      -2.602  -1.309   3.562  0.00  0.00     0.004 A 
ATOM      4  C5  UNL d   1      -3.207  -0.201   4.155  0.00  0.00    -0.004 A 
ATOM      5  C6  UNL d   1      -2.700   0.325   5.348  0.00  0.00    -0.075 A 
ATOM      6  C7  UNL d   1      -3.340   1.515   6.000  0.00  0.00     0.076 C 
ATOM      7  C8  UNL d   1      -1.584  -0.280   5.941  0.00  0.00     0.001 A 
ENDROOT
BRANCH   1   8
ATOM      8  C1  UNL d   1       0.230  -2.036   6.000  0.00  0.00     0.053 C 
ATOM      9  C   UNL d   1       1.436  -1.110   5.992  0.00  0.00     0.018 C 
ENDBRANCH   1   8
TORSDOF 1
ENDMDL
