MODEL 1
REMARK minimizedAffinity 11.6964121
REMARK minimizedRMSD -1
REMARK  1 active torsions:
REMARK  status: ('A' for Active; 'I' for Inactive)
REMARK    1  A    between atoms: C1_2  and  C2_3 
ROOT
ATOM      1  C2  UNL d   1       3.935   1.990   2.922  0.00  0.00    -0.073 A 
ATOM      2  C3  UNL d   1       5.032   1.130   3.045  0.00  0.00    -0.002 A 
ATOM      3  C4  UNL d   1       5.917   1.266   4.116  0.00  0.00     0.004 A 
ATOM      4  C5  UNL d   1       5.710   2.256   5.076  0.00  0.00    -0.004 A 
ATOM      5  C6  UNL d   1       4.613   3.118   4.977  0.00  0.00    -0.075 A 
ATOM      6  C7  UNL d   1       4.378   4.189   6.000  0.00  0.00     0.076 C 
ATOM      7  C8  UNL d   1       3.731   2.977   3.897  0.00  0.00     0.001 A 
ENDROOT
BRANCH   1   8
ATOM      8  C1  UNL d   1       2.974   1.844   1.771  0.00  0.00     0.053 C 
ATOM      9  C   UNL d   1       3.462   2.566   0.525  0.00  0.00     0.018 C 
ENDBRANCH   1   8
TORSDOF 1
ENDMDL
