MODEL 1
REMARK minimizedAffinity -6.28975534
REMARK minimizedRMSD -1
REMARK  0 active torsions:
REMARK  status: ('A' for Active; 'I' for Inactive)
ROOT
ATOM      1  O1  BZF d   1       0.234   0.878  -1.402  0.00  0.00    -0.204 OA
ATOM      2  C2  BZF d   1       0.708  -0.389  -1.121  0.00  0.00     0.174 A 
ATOM      3  C3  BZF d   1       0.639  -0.643   0.201  0.00  0.00    -0.012 A 
ATOM      4  C3A BZF d   1       0.002   0.503   0.773  0.00  0.00    -0.107 A 
ATOM      5  C4  BZF d   1      -0.362   0.838   2.046  0.00  0.00     0.055 A 
ATOM      6  C5  BZF d   1      -0.899   2.064   2.278  0.00  0.00    -0.016 A 
ATOM      7  C6  BZF d   1      -1.082   2.981   1.263  0.00  0.00     0.022 A 
ATOM      8  C7  BZF d   1      -0.742   2.692  -0.016  0.00  0.00     0.029 A 
ATOM      9  C7A BZF d   1      -0.229   1.441  -0.260  0.00  0.00     0.058 A 
ENDROOT
TORSDOF 0
ENDMDL
