MODEL 1
REMARK minimizedAffinity -2.30523443
REMARK minimizedRMSD -1
REMARK  0 active torsions:
REMARK  status: ('A' for Active; 'I' for Inactive)
ROOT
ATOM      1  O1  BZF d   1      -0.785  -0.135  -1.144  0.00  0.00    -0.204 OA
ATOM      2  C2  BZF d   1       0.001  -1.263  -1.278  0.00  0.00     0.174 A 
ATOM      3  C3  BZF d   1       0.816  -1.407  -0.213  0.00  0.00    -0.012 A 
ATOM      4  C3A BZF d   1       0.455  -0.351   0.683  0.00  0.00    -0.107 A 
ATOM      5  C4  BZF d   1       0.898   0.024   1.919  0.00  0.00     0.055 A 
ATOM      6  C5  BZF d   1       0.388   1.146   2.491  0.00  0.00    -0.016 A 
ATOM      7  C6  BZF d   1      -0.561   1.919   1.854  0.00  0.00     0.022 A 
ATOM      8  C7  BZF d   1      -1.034   1.585   0.629  0.00  0.00     0.029 A 
ATOM      9  C7A BZF d   1      -0.545   0.433   0.062  0.00  0.00     0.058 A 
ENDROOT
TORSDOF 0
ENDMDL
