MODEL 1
REMARK minimizedAffinity -3.43764067
REMARK minimizedRMSD -1
REMARK  0 active torsions:
REMARK  status: ('A' for Active; 'I' for Inactive)
ROOT
ATOM      1  O1  BZF d   1       1.424  -0.863   0.390  0.00  0.00    -0.204 OA
ATOM      2  C2  BZF d   1       0.708  -0.948  -0.788  0.00  0.00     0.174 A 
ATOM      3  C3  BZF d   1      -0.348  -0.110  -0.767  0.00  0.00    -0.012 A 
ATOM      4  C3A BZF d   1      -0.236   0.607   0.467  0.00  0.00    -0.107 A 
ATOM      5  C4  BZF d   1      -0.980   1.590   1.053  0.00  0.00     0.055 A 
ATOM      6  C5  BZF d   1      -0.642   2.023   2.296  0.00  0.00    -0.016 A 
ATOM      7  C6  BZF d   1       0.429   1.491   2.983  0.00  0.00     0.022 A 
ATOM      8  C7  BZF d   1       1.201   0.518   2.441  0.00  0.00     0.029 A 
ATOM      9  C7A BZF d   1       0.881   0.101   1.171  0.00  0.00     0.058 A 
ENDROOT
TORSDOF 0
ENDMDL
