MODEL 1
REMARK minimizedAffinity -0.63808924
REMARK minimizedRMSD -1
REMARK  0 active torsions:
REMARK  status: ('A' for Active; 'I' for Inactive)
ROOT
ATOM      1  O1  BZF d   1       0.643   0.303  -0.854  0.00  0.00    -0.204 OA
ATOM      2  C2  BZF d   1       0.619  -1.079  -0.853  0.00  0.00     0.174 A 
ATOM      3  C3  BZF d   1       0.435  -1.553   0.396  0.00  0.00    -0.012 A 
ATOM      4  C3A BZF d   1       0.246  -0.395   1.214  0.00  0.00    -0.107 A 
ATOM      5  C4  BZF d   1       0.002  -0.216   2.546  0.00  0.00     0.055 A 
ATOM      6  C5  BZF d   1      -0.059   1.047   3.042  0.00  0.00    -0.016 A 
ATOM      7  C6  BZF d   1       0.124   2.153   2.238  0.00  0.00     0.022 A 
ATOM      8  C7  BZF d   1       0.363   2.026   0.910  0.00  0.00     0.029 A 
ATOM      9  C7A BZF d   1       0.392   0.751   0.399  0.00  0.00     0.058 A 
ENDROOT
TORSDOF 0
ENDMDL
