MODEL 1
REMARK minimizedAffinity -5.6137743
REMARK minimizedRMSD -1
REMARK  0 active torsions:
REMARK  status: ('A' for Active; 'I' for Inactive)
ROOT
ATOM      1  O1  BZF d   1      -0.309   0.275  -1.880  0.00  0.00    -0.204 OA
ATOM      2  C2  BZF d   1       0.360  -0.927  -1.748  0.00  0.00     0.174 A 
ATOM      3  C3  BZF d   1       0.626  -1.187  -0.452  0.00  0.00    -0.012 A 
ATOM      4  C3A BZF d   1       0.009  -0.123   0.279  0.00  0.00    -0.107 A 
ATOM      5  C4  BZF d   1      -0.088   0.168   1.610  0.00  0.00     0.055 A 
ATOM      6  C5  BZF d   1      -0.696   1.323   1.990  0.00  0.00    -0.016 A 
ATOM      7  C6  BZF d   1      -1.212   2.210   1.068  0.00  0.00     0.022 A 
ATOM      8  C7  BZF d   1      -1.143   1.962  -0.262  0.00  0.00     0.029 A 
ATOM      9  C7A BZF d   1      -0.559   0.780  -0.649  0.00  0.00     0.058 A 
ENDROOT
TORSDOF 0
ENDMDL
