MODEL 1
REMARK minimizedAffinity 5.79019356
REMARK minimizedRMSD -1
REMARK  0 active torsions:
REMARK  status: ('A' for Active; 'I' for Inactive)
ROOT
ATOM      1  O1  BZF d   1       5.080  -0.358  -1.973  0.00  0.00    -0.204 OA
ATOM      2  C2  BZF d   1       6.000  -1.352  -2.246  0.00  0.00     0.174 A 
ATOM      3  C3  BZF d   1       5.715  -2.472  -1.551  0.00  0.00    -0.012 A 
ATOM      4  C3A BZF d   1       4.491  -2.188  -0.866  0.00  0.00    -0.107 A 
ATOM      5  C4  BZF d   1       3.695  -2.914  -0.027  0.00  0.00     0.055 A 
ATOM      6  C5  BZF d   1       2.607  -2.320   0.529  0.00  0.00    -0.016 A 
ATOM      7  C6  BZF d   1       2.289  -1.002   0.274  0.00  0.00     0.022 A 
ATOM      8  C7  BZF d   1       3.046  -0.244  -0.555  0.00  0.00     0.029 A 
ATOM      9  C7A BZF d   1       4.128  -0.851  -1.145  0.00  0.00     0.058 A 
ENDROOT
TORSDOF 0
ENDMDL
