MODEL 1
REMARK minimizedAffinity 2.73148584
REMARK minimizedRMSD -1
REMARK  0 active torsions:
REMARK  status: ('A' for Active; 'I' for Inactive)
ROOT
ATOM      1  C   UNL d   1      -0.771   0.770   1.484  0.00  0.00    -0.002 A 
ATOM      2  C1  UNL d   1      -0.935  -0.608   1.453  0.00  0.00     0.010 A 
ATOM      3  C2  UNL d   1      -0.599  -1.337   0.311  0.00  0.00     0.041 A 
ATOM      4  C3  UNL d   1      -0.089  -0.653  -0.810  0.00  0.00    -0.075 A 
ATOM      5  S   UNL d   1       0.391  -1.339  -2.316  0.00  0.00     0.015 SA
ATOM      6  C4  UNL d   1       0.826   0.180  -2.955  0.00  0.00     0.022 A 
ATOM      7  C5  UNL d   1       0.616   1.197  -2.054  0.00  0.00     0.026 A 
ATOM      8  C6  UNL d   1       0.086   0.734  -0.802  0.00  0.00    -0.082 A 
ATOM      9  C7  UNL d   1      -0.265   1.445   0.370  0.00  0.00     0.045 A 
ENDROOT
TORSDOF 0
ENDMDL
