MODEL 1
REMARK minimizedAffinity -1.68370485
REMARK minimizedRMSD -1
REMARK  0 active torsions:
REMARK  status: ('A' for Active; 'I' for Inactive)
ROOT
ATOM      1  C   UNL d   1       2.656   3.405   1.621  0.00  0.00    -0.002 A 
ATOM      2  C1  UNL d   1       2.325   4.147   0.496  0.00  0.00     0.010 A 
ATOM      3  C2  UNL d   1       1.578   3.575  -0.536  0.00  0.00     0.041 A 
ATOM      4  C3  UNL d   1       1.164   2.234  -0.417  0.00  0.00    -0.075 A 
ATOM      5  S   UNL d   1       0.241   1.326  -1.554  0.00  0.00     0.015 SA
ATOM      6  C4  UNL d   1       0.264  -0.067  -0.573  0.00  0.00     0.022 A 
ATOM      7  C5  UNL d   1       0.955   0.138   0.598  0.00  0.00     0.026 A 
ATOM      8  C6  UNL d   1       1.485   1.468   0.708  0.00  0.00    -0.082 A 
ATOM      9  C7  UNL d   1       2.244   2.075   1.737  0.00  0.00     0.045 A 
ENDROOT
TORSDOF 0
ENDMDL
