MODEL 1
REMARK minimizedAffinity -2.72307515
REMARK minimizedRMSD -1
REMARK  0 active torsions:
REMARK  status: ('A' for Active; 'I' for Inactive)
ROOT
ATOM      1  C   UNL d   1      -0.075  -2.895   0.422  0.00  0.00    -0.002 A 
ATOM      2  C1  UNL d   1       1.108  -2.538  -0.209  0.00  0.00     0.010 A 
ATOM      3  C2  UNL d   1       1.420  -1.195  -0.427  0.00  0.00     0.041 A 
ATOM      4  C3  UNL d   1       0.515  -0.206   0.007  0.00  0.00    -0.075 A 
ATOM      5  S   UNL d   1       0.688   1.502  -0.150  0.00  0.00     0.015 SA
ATOM      6  C4  UNL d   1      -0.804   1.799   0.618  0.00  0.00     0.022 A 
ATOM      7  C5  UNL d   1      -1.432   0.634   0.992  0.00  0.00     0.026 A 
ATOM      8  C6  UNL d   1      -0.682  -0.540   0.647  0.00  0.00    -0.082 A 
ATOM      9  C7  UNL d   1      -0.970  -1.911   0.852  0.00  0.00     0.045 A 
ENDROOT
TORSDOF 0
ENDMDL
