MODEL 1
REMARK minimizedAffinity -0.41091004
REMARK minimizedRMSD -1
REMARK  0 active torsions:
REMARK  status: ('A' for Active; 'I' for Inactive)
ROOT
ATOM      1  C   UNL d   1       0.390  -1.783   0.050  0.00  0.00    -0.002 A 
ATOM      2  C1  UNL d   1       0.764  -1.687  -1.283  0.00  0.00     0.010 A 
ATOM      3  C2  UNL d   1       0.880  -0.440  -1.900  0.00  0.00     0.041 A 
ATOM      4  C3  UNL d   1       0.612   0.721  -1.148  0.00  0.00    -0.075 A 
ATOM      5  S   UNL d   1       0.690   2.354  -1.694  0.00  0.00     0.015 SA
ATOM      6  C4  UNL d   1       0.228   2.964  -0.171  0.00  0.00     0.022 A 
ATOM      7  C5  UNL d   1       0.016   1.959   0.744  0.00  0.00     0.026 A 
ATOM      8  C6  UNL d   1       0.234   0.650   0.196  0.00  0.00    -0.082 A 
ATOM      9  C7  UNL d   1       0.124  -0.629   0.793  0.00  0.00     0.045 A 
ENDROOT
TORSDOF 0
ENDMDL
