MODEL 1
REMARK minimizedAffinity -3.40148973
REMARK minimizedRMSD -1
REMARK  0 active torsions:
REMARK  status: ('A' for Active; 'I' for Inactive)
ROOT
ATOM      1  C   UNL d   1       0.740  -3.158  -0.323  0.00  0.00    -0.002 A 
ATOM      2  C1  UNL d   1      -0.371  -3.371   0.482  0.00  0.00     0.010 A 
ATOM      3  C2  UNL d   1      -1.179  -2.302   0.874  0.00  0.00     0.041 A 
ATOM      4  C3  UNL d   1      -0.851  -1.004   0.438  0.00  0.00    -0.075 A 
ATOM      5  S   UNL d   1      -1.697   0.456   0.792  0.00  0.00     0.015 SA
ATOM      6  C4  UNL d   1      -0.605   1.397  -0.118  0.00  0.00     0.022 A 
ATOM      7  C5  UNL d   1       0.387   0.633  -0.684  0.00  0.00     0.026 A 
ATOM      8  C6  UNL d   1       0.261  -0.764  -0.374  0.00  0.00    -0.082 A 
ATOM      9  C7  UNL d   1       1.062  -1.868  -0.754  0.00  0.00     0.045 A 
ENDROOT
TORSDOF 0
ENDMDL
