MODEL 1
REMARK minimizedAffinity -2.29982424
REMARK minimizedRMSD -1
REMARK  0 active torsions:
REMARK  status: ('A' for Active; 'I' for Inactive)
ROOT
ATOM      1  C   UNL d   1       2.084   3.633   1.708  0.00  0.00    -0.002 A 
ATOM      2  C1  UNL d   1       1.963   4.326   0.512  0.00  0.00     0.010 A 
ATOM      3  C2  UNL d   1       1.300   3.754  -0.576  0.00  0.00     0.041 A 
ATOM      4  C3  UNL d   1       0.753   2.463  -0.439  0.00  0.00    -0.075 A 
ATOM      5  S   UNL d   1      -0.103   1.565  -1.635  0.00  0.00     0.015 SA
ATOM      6  C4  UNL d   1      -0.329   0.241  -0.586  0.00  0.00     0.022 A 
ATOM      7  C5  UNL d   1       0.229   0.462   0.651  0.00  0.00     0.026 A 
ATOM      8  C6  UNL d   1       0.861   1.746   0.756  0.00  0.00    -0.082 A 
ATOM      9  C7  UNL d   1       1.540   2.353   1.840  0.00  0.00     0.045 A 
ENDROOT
TORSDOF 0
ENDMDL
