MODEL 1
REMARK minimizedAffinity -5.37505865
REMARK minimizedRMSD -1
REMARK  0 active torsions:
REMARK  status: ('A' for Active; 'I' for Inactive)
ROOT
ATOM      1  C   UNL d   1       0.196  -3.513   0.188  0.00  0.00    -0.002 A 
ATOM      2  C1  UNL d   1       0.617  -3.421  -1.131  0.00  0.00     0.010 A 
ATOM      3  C2  UNL d   1       0.696  -2.180  -1.766  0.00  0.00     0.041 A 
ATOM      4  C3  UNL d   1       0.342  -1.022  -1.046  0.00  0.00    -0.075 A 
ATOM      5  S   UNL d   1       0.362   0.604  -1.617  0.00  0.00     0.015 SA
ATOM      6  C4  UNL d   1      -0.188   1.215  -0.124  0.00  0.00     0.022 A 
ATOM      7  C5  UNL d   1      -0.387   0.216   0.800  0.00  0.00     0.026 A 
ATOM      8  C6  UNL d   1      -0.084  -1.089   0.284  0.00  0.00    -0.082 A 
ATOM      9  C7  UNL d   1      -0.154  -2.362   0.899  0.00  0.00     0.045 A 
ENDROOT
TORSDOF 0
ENDMDL
