MODEL 1
REMARK minimizedAffinity -3.01320577
REMARK minimizedRMSD -1
REMARK  0 active torsions:
REMARK  status: ('A' for Active; 'I' for Inactive)
ROOT
ATOM      1  C   UNL d   1      -0.351  -2.720   0.981  0.00  0.00    -0.002 A 
ATOM      2  C1  UNL d   1      -1.049  -1.668   1.557  0.00  0.00     0.010 A 
ATOM      3  C2  UNL d   1      -1.012  -0.394   0.986  0.00  0.00     0.041 A 
ATOM      4  C3  UNL d   1      -0.257  -0.194  -0.187  0.00  0.00    -0.075 A 
ATOM      5  S   UNL d   1      -0.067   1.278  -1.063  0.00  0.00     0.015 SA
ATOM      6  C4  UNL d   1       0.944   0.545  -2.222  0.00  0.00     0.022 A 
ATOM      7  C5  UNL d   1       1.143  -0.790  -1.963  0.00  0.00     0.026 A 
ATOM      8  C6  UNL d   1       0.453  -1.239  -0.786  0.00  0.00    -0.082 A 
ATOM      9  C7  UNL d   1       0.397  -2.518  -0.182  0.00  0.00     0.045 A 
ENDROOT
TORSDOF 0
ENDMDL
