MODEL 1
REMARK minimizedAffinity -0.370879292
REMARK minimizedRMSD -1
REMARK  0 active torsions:
REMARK  status: ('A' for Active; 'I' for Inactive)
ROOT
ATOM      1  C   UNL d   1       1.819   4.039   0.853  0.00  0.00    -0.002 A 
ATOM      2  C1  UNL d   1       0.544   4.200   1.378  0.00  0.00     0.010 A 
ATOM      3  C2  UNL d   1      -0.419   3.202   1.222  0.00  0.00     0.041 A 
ATOM      4  C3  UNL d   1      -0.077   2.027   0.524  0.00  0.00    -0.075 A 
ATOM      5  S   UNL d   1      -1.093   0.670   0.211  0.00  0.00     0.015 SA
ATOM      6  C4  UNL d   1       0.140  -0.156  -0.626  0.00  0.00     0.022 A 
ATOM      7  C5  UNL d   1       1.306   0.572  -0.675  0.00  0.00     0.026 A 
ATOM      8  C6  UNL d   1       1.200   1.841  -0.013  0.00  0.00    -0.082 A 
ATOM      9  C7  UNL d   1       2.155   2.872   0.161  0.00  0.00     0.045 A 
ENDROOT
TORSDOF 0
ENDMDL
