MODEL 1
REMARK minimizedAffinity -2.24152446
REMARK minimizedRMSD -1
REMARK  0 active torsions:
REMARK  status: ('A' for Active; 'I' for Inactive)
ROOT
ATOM      1  C   UNL d   1       0.795   2.677   0.212  0.00  0.00    -0.002 A 
ATOM      2  C1  UNL d   1       1.864   2.758   1.092  0.00  0.00     0.010 A 
ATOM      3  C2  UNL d   1       1.769   3.520   2.258  0.00  0.00     0.041 A 
ATOM      4  C3  UNL d   1       0.568   4.205   2.528  0.00  0.00    -0.075 A 
ATOM      5  S   UNL d   1       0.222   5.197   3.895  0.00  0.00     0.015 SA
ATOM      6  C4  UNL d   1      -1.354   5.537   3.343  0.00  0.00     0.022 A 
ATOM      7  C5  UNL d   1      -1.627   4.917   2.147  0.00  0.00     0.026 A 
ATOM      8  C6  UNL d   1      -0.524   4.138   1.658  0.00  0.00    -0.082 A 
ATOM      9  C7  UNL d   1      -0.395   3.358   0.483  0.00  0.00     0.045 A 
ENDROOT
TORSDOF 0
ENDMDL
