MODEL 1
REMARK minimizedAffinity -3.67934155
REMARK minimizedRMSD -1
REMARK  0 active torsions:
REMARK  status: ('A' for Active; 'I' for Inactive)
ROOT
ATOM      1  C   UNL d   1      -0.061   5.377   3.654  0.00  0.00    -0.002 A 
ATOM      2  C1  UNL d   1      -1.159   4.650   3.218  0.00  0.00     0.010 A 
ATOM      3  C2  UNL d   1      -1.050   3.782   2.130  0.00  0.00     0.041 A 
ATOM      4  C3  UNL d   1       0.195   3.654   1.483  0.00  0.00    -0.075 A 
ATOM      5  S   UNL d   1       0.564   2.650   0.130  0.00  0.00     0.015 SA
ATOM      6  C4  UNL d   1       2.190   3.162   0.101  0.00  0.00     0.022 A 
ATOM      7  C5  UNL d   1       2.461   4.076   1.091  0.00  0.00     0.026 A 
ATOM      8  C6  UNL d   1       1.316   4.374   1.904  0.00  0.00    -0.082 A 
ATOM      9  C7  UNL d   1       1.172   5.247   3.009  0.00  0.00     0.045 A 
ENDROOT
TORSDOF 0
ENDMDL
