MODEL 1
REMARK minimizedAffinity -3.64823389
REMARK minimizedRMSD -1
REMARK  0 active torsions:
REMARK  status: ('A' for Active; 'I' for Inactive)
ROOT
ATOM      1  C   UNL d   1       0.422  -3.542  -0.510  0.00  0.00    -0.002 A 
ATOM      2  C1  UNL d   1       0.566  -3.225  -1.853  0.00  0.00     0.010 A 
ATOM      3  C2  UNL d   1       0.469  -1.901  -2.285  0.00  0.00     0.041 A 
ATOM      4  C3  UNL d   1       0.225  -0.890  -1.335  0.00  0.00    -0.075 A 
ATOM      5  S   UNL d   1       0.069   0.801  -1.632  0.00  0.00     0.015 SA
ATOM      6  C4  UNL d   1      -0.191   1.143   0.017  0.00  0.00     0.022 A 
ATOM      7  C5  UNL d   1      -0.163   0.006   0.790  0.00  0.00     0.026 A 
ATOM      8  C6  UNL d   1       0.078  -1.184   0.024  0.00  0.00    -0.082 A 
ATOM      9  C7  UNL d   1       0.180  -2.537   0.430  0.00  0.00     0.045 A 
ENDROOT
TORSDOF 0
ENDMDL
