MODEL 1
REMARK minimizedAffinity -1.48959553
REMARK minimizedRMSD -1
REMARK  0 active torsions:
REMARK  status: ('A' for Active; 'I' for Inactive)
ROOT
ATOM      1  C   UNL d   1       0.414   1.955   0.147  0.00  0.00    -0.002 A 
ATOM      2  C1  UNL d   1       1.697   2.478   0.238  0.00  0.00     0.010 A 
ATOM      3  C2  UNL d   1       1.915   3.727   0.823  0.00  0.00     0.041 A 
ATOM      4  C3  UNL d   1       0.812   4.448   1.322  0.00  0.00    -0.075 A 
ATOM      5  S   UNL d   1       0.839   5.996   2.080  0.00  0.00     0.015 SA
ATOM      6  C4  UNL d   1      -0.851   6.000   2.302  0.00  0.00     0.022 A 
ATOM      7  C5  UNL d   1      -1.437   4.855   1.816  0.00  0.00     0.026 A 
ATOM      8  C6  UNL d   1      -0.489   3.942   1.243  0.00  0.00    -0.082 A 
ATOM      9  C7  UNL d   1      -0.677   2.673   0.643  0.00  0.00     0.045 A 
ENDROOT
TORSDOF 0
ENDMDL
