MODEL 1
REMARK minimizedAffinity -4.72338533
REMARK minimizedRMSD -1
REMARK  0 active torsions:
REMARK  status: ('A' for Active; 'I' for Inactive)
ROOT
ATOM      1  C4' PXY d   1      -2.891   1.637   3.329  0.00  0.00     0.077 C 
ATOM      2  C1' PXY d   1       0.633  -1.214  -0.258  0.00  0.00     0.077 C 
ATOM      3  C1  PXY d   1      -0.298  -0.463   0.672  0.00  0.00    -0.082 A 
ATOM      4  C2  PXY d   1       0.136  -0.079   1.862  0.00  0.00     0.003 A 
ATOM      5  C3  PXY d   1      -0.703   0.574   2.728  0.00  0.00     0.003 A 
ATOM      6  C4  PXY d   1      -1.983   0.884   2.353  0.00  0.00    -0.082 A 
ATOM      7  C5  PXY d   1      -2.429   0.505   1.137  0.00  0.00     0.003 A 
ATOM      8  C6  PXY d   1      -1.575  -0.193   0.288  0.00  0.00     0.003 A 
ENDROOT
TORSDOF 0
ENDMDL
