MODEL 1
REMARK minimizedAffinity -4.86796856
REMARK minimizedRMSD -1
REMARK  0 active torsions:
REMARK  status: ('A' for Active; 'I' for Inactive)
ROOT
ATOM      1  C4' PXY d   1       0.444   1.676  -1.282  0.00  0.00     0.077 C 
ATOM      2  C1' PXY d   1      -2.156  -0.074   3.576  0.00  0.00     0.077 C 
ATOM      3  C1  PXY d   1      -1.472   0.397   2.307  0.00  0.00    -0.082 A 
ATOM      4  C2  PXY d   1      -1.712  -0.227   1.165  0.00  0.00     0.003 A 
ATOM      5  C3  PXY d   1      -1.078   0.166   0.014  0.00  0.00     0.003 A 
ATOM      6  C4  PXY d   1      -0.231   1.241   0.022  0.00  0.00    -0.082 A 
ATOM      7  C5  PXY d   1       0.011   1.889   1.181  0.00  0.00     0.003 A 
ATOM      8  C6  PXY d   1      -0.611   1.449   2.346  0.00  0.00     0.003 A 
ENDROOT
TORSDOF 0
ENDMDL
