MODEL 1
REMARK minimizedAffinity -2.82675791
REMARK minimizedRMSD -1
REMARK  0 active torsions:
REMARK  status: ('A' for Active; 'I' for Inactive)
ROOT
ATOM      1  C4' PXY d   1       1.531   1.504  -3.288  0.00  0.00     0.077 C 
ATOM      2  C1' PXY d   1       0.094  -2.175   0.932  0.00  0.00     0.077 C 
ATOM      3  C1  PXY d   1       0.482  -1.216  -0.176  0.00  0.00    -0.082 A 
ATOM      4  C2  PXY d   1      -0.136  -0.051  -0.279  0.00  0.00     0.003 A 
ATOM      5  C3  PXY d   1       0.180   0.815  -1.294  0.00  0.00     0.003 A 
ATOM      6  C4  PXY d   1       1.178   0.508  -2.180  0.00  0.00    -0.082 A 
ATOM      7  C5  PXY d   1       1.821  -0.674  -2.075  0.00  0.00     0.003 A 
ATOM      8  C6  PXY d   1       1.456  -1.557  -1.063  0.00  0.00     0.003 A 
ENDROOT
TORSDOF 0
ENDMDL
