MODEL 1
REMARK minimizedAffinity -3.00252557
REMARK minimizedRMSD -1
REMARK  0 active torsions:
REMARK  status: ('A' for Active; 'I' for Inactive)
ROOT
ATOM      1  C4' PXY d   1      -1.741   0.294   2.277  0.00  0.00     0.077 C 
ATOM      2  C1' PXY d   1       1.878  -1.140  -1.996  0.00  0.00     0.077 C 
ATOM      3  C1  PXY d   1       0.930  -0.752  -0.879  0.00  0.00    -0.082 A 
ATOM      4  C2  PXY d   1       0.778  -1.557   0.160  0.00  0.00     0.003 A 
ATOM      5  C3  PXY d   1      -0.099  -1.236   1.164  0.00  0.00     0.003 A 
ATOM      6  C4  PXY d   1      -0.788  -0.053   1.130  0.00  0.00    -0.082 A 
ATOM      7  C5  PXY d   1      -0.630   0.779   0.079  0.00  0.00     0.003 A 
ATOM      8  C6  PXY d   1       0.234   0.416  -0.950  0.00  0.00     0.003 A 
ENDROOT
TORSDOF 0
ENDMDL
