MODEL 1
REMARK minimizedAffinity -2.15674925
REMARK minimizedRMSD -1
REMARK  0 active torsions:
REMARK  status: ('A' for Active; 'I' for Inactive)
ROOT
ATOM      1  C4' PXY d   1       1.721  -1.519  -1.200  0.00  0.00     0.077 C 
ATOM      2  C1' PXY d   1      -2.312   1.104   2.005  0.00  0.00     0.077 C 
ATOM      3  C1  PXY d   1      -1.254   0.407   1.173  0.00  0.00    -0.082 A 
ATOM      4  C2  PXY d   1      -0.526   1.108   0.319  0.00  0.00     0.003 A 
ATOM      5  C3  PXY d   1       0.413   0.488  -0.464  0.00  0.00     0.003 A 
ATOM      6  C4  PXY d   1       0.647  -0.855  -0.333  0.00  0.00    -0.082 A 
ATOM      7  C5  PXY d   1      -0.083  -1.575   0.544  0.00  0.00     0.003 A 
ATOM      8  C6  PXY d   1      -1.060  -0.934   1.300  0.00  0.00     0.003 A 
ENDROOT
TORSDOF 0
ENDMDL
