MODEL 1
REMARK minimizedAffinity -4.50061226
REMARK minimizedRMSD -1
REMARK  0 active torsions:
REMARK  status: ('A' for Active; 'I' for Inactive)
ROOT
ATOM      1  C4' PXY d   1       0.098  -2.678   0.858  0.00  0.00     0.077 C 
ATOM      2  C1' PXY d   1       1.518   1.799  -2.512  0.00  0.00     0.077 C 
ATOM      3  C1  PXY d   1       1.138   0.633  -1.621  0.00  0.00    -0.082 A 
ATOM      4  C2  PXY d   1       1.915  -0.437  -1.577  0.00  0.00     0.003 A 
ATOM      5  C3  PXY d   1       1.571  -1.514  -0.801  0.00  0.00     0.003 A 
ATOM      6  C4  PXY d   1       0.446  -1.473  -0.021  0.00  0.00    -0.082 A 
ATOM      7  C5  PXY d   1      -0.346  -0.381  -0.051  0.00  0.00     0.003 A 
ATOM      8  C6  PXY d   1      -0.000   0.685  -0.877  0.00  0.00     0.003 A 
ENDROOT
TORSDOF 0
ENDMDL
