MODEL 1
REMARK minimizedAffinity -3.34791231
REMARK minimizedRMSD -1
REMARK  0 active torsions:
REMARK  status: ('A' for Active; 'I' for Inactive)
ROOT
ATOM      1  C4' PXY d   1      -0.362   2.053  -1.157  0.00  0.00     0.077 C 
ATOM      2  C1' PXY d   1      -1.393   0.383   4.280  0.00  0.00     0.077 C 
ATOM      3  C1  PXY d   1      -1.124   0.833   2.857  0.00  0.00    -0.082 A 
ATOM      4  C2  PXY d   1      -1.376   0.011   1.852  0.00  0.00     0.003 A 
ATOM      5  C3  PXY d   1      -1.108   0.390   0.562  0.00  0.00     0.003 A 
ATOM      6  C4  PXY d   1      -0.627   1.644   0.294  0.00  0.00    -0.082 A 
ATOM      7  C5  PXY d   1      -0.378   2.493   1.314  0.00  0.00     0.003 A 
ATOM      8  C6  PXY d   1      -0.617   2.074   2.619  0.00  0.00     0.003 A 
ENDROOT
TORSDOF 0
ENDMDL
