MODEL 1
REMARK minimizedAffinity -1.47395968
REMARK minimizedRMSD -1
REMARK  0 active torsions:
REMARK  status: ('A' for Active; 'I' for Inactive)
ROOT
ATOM      1  C4' PXY d   1      -1.465   1.194   2.783  0.00  0.00     0.077 C 
ATOM      2  C1' PXY d   1       1.330  -1.917  -1.208  0.00  0.00     0.077 C 
ATOM      3  C1  PXY d   1       0.595  -1.092  -0.170  0.00  0.00    -0.082 A 
ATOM      4  C2  PXY d   1       0.801  -1.324   1.116  0.00  0.00     0.003 A 
ATOM      5  C3  PXY d   1       0.121  -0.609   2.068  0.00  0.00     0.003 A 
ATOM      6  C4  PXY d   1      -0.738   0.391   1.700  0.00  0.00    -0.082 A 
ATOM      7  C5  PXY d   1      -0.946   0.642   0.390  0.00  0.00     0.003 A 
ATOM      8  C6  PXY d   1      -0.277  -0.123  -0.561  0.00  0.00     0.003 A 
ENDROOT
TORSDOF 0
ENDMDL
