MODEL 1
REMARK minimizedAffinity -4.57386255
REMARK minimizedRMSD -1
REMARK  0 active torsions:
REMARK  status: ('A' for Active; 'I' for Inactive)
ROOT
ATOM      1  C4' PXY d   1      -2.202   0.213   1.764  0.00  0.00     0.077 C 
ATOM      2  C1' PXY d   1       2.438  -1.000  -1.464  0.00  0.00     0.077 C 
ATOM      3  C1  PXY d   1       1.223  -0.669  -0.619  0.00  0.00    -0.082 A 
ATOM      4  C2  PXY d   1       0.766  -1.560   0.245  0.00  0.00     0.003 A 
ATOM      5  C3  PXY d   1      -0.350  -1.290   0.995  0.00  0.00     0.003 A 
ATOM      6  C4  PXY d   1      -0.973  -0.075   0.896  0.00  0.00    -0.082 A 
ATOM      7  C5  PXY d   1      -0.506   0.844   0.024  0.00  0.00     0.003 A 
ATOM      8  C6  PXY d   1       0.604   0.534  -0.757  0.00  0.00     0.003 A 
ENDROOT
TORSDOF 0
ENDMDL
