MODEL 1
REMARK minimizedAffinity -4.85643148
REMARK minimizedRMSD -1
REMARK  0 active torsions:
REMARK  status: ('A' for Active; 'I' for Inactive)
ROOT
ATOM      1  C4' PXY d   1      -1.609   0.118   1.002  0.00  0.00     0.077 C 
ATOM      2  C1' PXY d   1       2.957  -1.021  -2.355  0.00  0.00     0.077 C 
ATOM      3  C1  PXY d   1       1.757  -0.735  -1.473  0.00  0.00    -0.082 A 
ATOM      4  C2  PXY d   1       1.113   0.414  -1.597  0.00  0.00     0.003 A 
ATOM      5  C3  PXY d   1       0.046   0.702  -0.786  0.00  0.00     0.003 A 
ATOM      6  C4  PXY d   1      -0.399  -0.217   0.126  0.00  0.00    -0.082 A 
ATOM      7  C5  PXY d   1       0.246  -1.396   0.252  0.00  0.00     0.003 A 
ATOM      8  C6  PXY d   1       1.353  -1.652  -0.553  0.00  0.00     0.003 A 
ENDROOT
TORSDOF 0
ENDMDL
