MODEL 1
REMARK minimizedAffinity -1.8226279
REMARK minimizedRMSD -1
REMARK  0 active torsions:
REMARK  status: ('A' for Active; 'I' for Inactive)
ROOT
ATOM      1  C4' PXY d   1      -1.779   1.010   2.573  0.00  0.00     0.077 C 
ATOM      2  C1' PXY d   1       1.610  -1.446  -1.414  0.00  0.00     0.077 C 
ATOM      3  C1  PXY d   1       0.721  -0.791  -0.375  0.00  0.00    -0.082 A 
ATOM      4  C2  PXY d   1       0.671  -1.288   0.850  0.00  0.00     0.003 A 
ATOM      5  C3  PXY d   1      -0.152  -0.727   1.793  0.00  0.00     0.003 A 
ATOM      6  C4  PXY d   1      -0.889   0.387   1.495  0.00  0.00    -0.082 A 
ATOM      7  C5  PXY d   1      -0.835   0.907   0.250  0.00  0.00     0.003 A 
ATOM      8  C6  PXY d   1      -0.025   0.298  -0.705  0.00  0.00     0.003 A 
ENDROOT
TORSDOF 0
ENDMDL
