MODEL 1
REMARK minimizedAffinity -0.428070307
REMARK minimizedRMSD -1
REMARK  0 active torsions:
REMARK  status: ('A' for Active; 'I' for Inactive)
ROOT
ATOM      1  C4' PXY d   1      -1.900   1.656   2.922  0.00  0.00     0.077 C 
ATOM      2  C1' PXY d   1       0.627  -1.630  -1.106  0.00  0.00     0.077 C 
ATOM      3  C1  PXY d   1      -0.041  -0.761  -0.059  0.00  0.00    -0.082 A 
ATOM      4  C2  PXY d   1       0.483  -0.678   1.153  0.00  0.00     0.003 A 
ATOM      5  C3  PXY d   1      -0.126   0.078   2.121  0.00  0.00     0.003 A 
ATOM      6  C4  PXY d   1      -1.254   0.798   1.831  0.00  0.00    -0.082 A 
ATOM      7  C5  PXY d   1      -1.788   0.728   0.593  0.00  0.00     0.003 A 
ATOM      8  C6  PXY d   1      -1.177  -0.078  -0.364  0.00  0.00     0.003 A 
ENDROOT
TORSDOF 0
ENDMDL
