MODEL 1
REMARK minimizedAffinity -3.38507724
REMARK minimizedRMSD -1
REMARK  0 active torsions:
REMARK  status: ('A' for Active; 'I' for Inactive)
ROOT
ATOM      1  C4' PXY d   1      -3.226   2.862   2.274  0.00  0.00     0.077 C 
ATOM      2  C1' PXY d   1       0.397  -1.370   0.730  0.00  0.00     0.077 C 
ATOM      3  C1  PXY d   1      -0.554  -0.265   1.147  0.00  0.00    -0.082 A 
ATOM      4  C2  PXY d   1      -1.306   0.330   0.235  0.00  0.00     0.003 A 
ATOM      5  C3  PXY d   1      -2.147   1.353   0.590  0.00  0.00     0.003 A 
ATOM      6  C4  PXY d   1      -2.259   1.735   1.900  0.00  0.00    -0.082 A 
ATOM      7  C5  PXY d   1      -1.503   1.126   2.838  0.00  0.00     0.003 A 
ATOM      8  C6  PXY d   1      -0.625   0.118   2.451  0.00  0.00     0.003 A 
ENDROOT
TORSDOF 0
ENDMDL
