MODEL 1
REMARK minimizedAffinity -1.10410011
REMARK minimizedRMSD -1
REMARK  0 active torsions:
REMARK  status: ('A' for Active; 'I' for Inactive)
ROOT
ATOM      1  C4' PXY d   1       0.604  -2.086   0.834  0.00  0.00     0.077 C 
ATOM      2  C1' PXY d   1       1.722   1.002  -3.923  0.00  0.00     0.077 C 
ATOM      3  C1  PXY d   1       1.433   0.181  -2.682  0.00  0.00    -0.082 A 
ATOM      4  C2  PXY d   1       0.568   0.631  -1.788  0.00  0.00     0.003 A 
ATOM      5  C3  PXY d   1       0.318  -0.083  -0.644  0.00  0.00     0.003 A 
ATOM      6  C4  PXY d   1       0.920  -1.295  -0.439  0.00  0.00    -0.082 A 
ATOM      7  C5  PXY d   1       1.796  -1.766  -1.352  0.00  0.00     0.003 A 
ATOM      8  C6  PXY d   1       2.067  -1.007  -2.486  0.00  0.00     0.003 A 
ENDROOT
TORSDOF 0
ENDMDL
