MODEL 1
REMARK minimizedAffinity -2.14947653
REMARK minimizedRMSD -1
REMARK  0 active torsions:
REMARK  status: ('A' for Active; 'I' for Inactive)
ROOT
ATOM      1  C4' PXY d   1      -2.583   0.060   1.717  0.00  0.00     0.077 C 
ATOM      2  C1' PXY d   1       2.035  -1.274  -1.494  0.00  0.00     0.077 C 
ATOM      3  C1  PXY d   1       0.829  -0.913  -0.650  0.00  0.00    -0.082 A 
ATOM      4  C2  PXY d   1       0.150  -1.868  -0.036  0.00  0.00     0.003 A 
ATOM      5  C3  PXY d   1      -0.963  -1.561   0.705  0.00  0.00     0.003 A 
ATOM      6  C4  PXY d   1      -1.353  -0.258   0.863  0.00  0.00    -0.082 A 
ATOM      7  C5  PXY d   1      -0.659   0.723   0.248  0.00  0.00     0.003 A 
ATOM      8  C6  PXY d   1       0.443   0.387  -0.533  0.00  0.00     0.003 A 
ENDROOT
TORSDOF 0
ENDMDL
