MODEL 1
REMARK minimizedAffinity -1.49171495
REMARK minimizedRMSD -1
REMARK  0 active torsions:
REMARK  status: ('A' for Active; 'I' for Inactive)
ROOT
ATOM      1  C4' PXY d   1      -1.968   1.988   3.820  0.00  0.00     0.077 C 
ATOM      2  C1' PXY d   1      -0.186  -1.028  -0.779  0.00  0.00     0.077 C 
ATOM      3  C1  PXY d   1      -0.665  -0.235   0.421  0.00  0.00    -0.082 A 
ATOM      4  C2  PXY d   1       0.219   0.347   1.215  0.00  0.00     0.003 A 
ATOM      5  C3  PXY d   1      -0.196   1.041   2.323  0.00  0.00     0.003 A 
ATOM      6  C4  PXY d   1      -1.530   1.185   2.591  0.00  0.00    -0.082 A 
ATOM      7  C5  PXY d   1      -2.439   0.603   1.780  0.00  0.00     0.003 A 
ATOM      8  C6  PXY d   1      -1.996  -0.131   0.683  0.00  0.00     0.003 A 
ENDROOT
TORSDOF 0
ENDMDL
