MODEL 1
REMARK minimizedAffinity -5.20862007
REMARK minimizedRMSD -1
REMARK  0 active torsions:
REMARK  status: ('A' for Active; 'I' for Inactive)
ROOT
ATOM      1  C4' PXY d   1       1.101   1.969  -2.623  0.00  0.00     0.077 C 
ATOM      2  C1' PXY d   1       0.254  -2.580   0.842  0.00  0.00     0.077 C 
ATOM      3  C1  PXY d   1       0.489  -1.390  -0.068  0.00  0.00    -0.082 A 
ATOM      4  C2  PXY d   1      -0.333  -0.355  -0.015  0.00  0.00     0.003 A 
ATOM      5  C3  PXY d   1      -0.154   0.716  -0.853  0.00  0.00     0.003 A 
ATOM      6  C4  PXY d   1       0.908   0.750  -1.716  0.00  0.00    -0.082 A 
ATOM      7  C5  PXY d   1       1.757  -0.298  -1.768  0.00  0.00     0.003 A 
ATOM      8  C6  PXY d   1       1.534  -1.393  -0.938  0.00  0.00     0.003 A 
ENDROOT
TORSDOF 0
ENDMDL
