MODEL 1
REMARK minimizedAffinity 1.35053515
REMARK minimizedRMSD -1
REMARK  0 active torsions:
REMARK  status: ('A' for Active; 'I' for Inactive)
ROOT
ATOM      1  C4' PXY d   1       1.720  -0.358  -1.491  0.00  0.00     0.077 C 
ATOM      2  C1' PXY d   1      -2.616   0.723   2.176  0.00  0.00     0.077 C 
ATOM      3  C1  PXY d   1      -1.484   0.448   1.206  0.00  0.00    -0.082 A 
ATOM      4  C2  PXY d   1      -0.840  -0.707   1.262  0.00  0.00     0.003 A 
ATOM      5  C3  PXY d   1       0.207  -0.959   0.414  0.00  0.00     0.003 A 
ATOM      6  C4  PXY d   1       0.564  -0.041  -0.538  0.00  0.00    -0.082 A 
ATOM      7  C5  PXY d   1      -0.095   1.135  -0.608  0.00  0.00     0.003 A 
ATOM      8  C6  PXY d   1      -1.128   1.388   0.289  0.00  0.00     0.003 A 
ENDROOT
TORSDOF 0
ENDMDL
