MODEL 1
REMARK minimizedAffinity -1.60363173
REMARK minimizedRMSD -1
REMARK  0 active torsions:
REMARK  status: ('A' for Active; 'I' for Inactive)
ROOT
ATOM      1  C4' PXY d   1       1.215   2.212  -3.150  0.00  0.00     0.077 C 
ATOM      2  C1' PXY d   1       0.357  -2.254   0.419  0.00  0.00     0.077 C 
ATOM      3  C1  PXY d   1       0.570  -1.078  -0.514  0.00  0.00    -0.082 A 
ATOM      4  C2  PXY d   1       1.429  -1.185  -1.515  0.00  0.00     0.003 A 
ATOM      5  C3  PXY d   1       1.658  -0.121  -2.349  0.00  0.00     0.003 A 
ATOM      6  C4  PXY d   1       0.961   1.047  -2.189  0.00  0.00    -0.082 A 
ATOM      7  C5  PXY d   1       0.076   1.160  -1.176  0.00  0.00     0.003 A 
ATOM      8  C6  PXY d   1      -0.111   0.082  -0.315  0.00  0.00     0.003 A 
ENDROOT
TORSDOF 0
ENDMDL
