MODEL 1
REMARK minimizedAffinity -4.46401739
REMARK minimizedRMSD -1
REMARK  0 active torsions:
REMARK  status: ('A' for Active; 'I' for Inactive)
ROOT
ATOM      1  C4' PXY d   1       2.460  -1.146  -1.672  0.00  0.00     0.077 C 
ATOM      2  C1' PXY d   1      -1.969   0.983   1.371  0.00  0.00     0.077 C 
ATOM      3  C1  PXY d   1      -0.807   0.436   0.567  0.00  0.00    -0.082 A 
ATOM      4  C2  PXY d   1      -0.684  -0.871   0.400  0.00  0.00     0.003 A 
ATOM      5  C3  PXY d   1       0.379  -1.384  -0.298  0.00  0.00     0.003 A 
ATOM      6  C4  PXY d   1       1.297  -0.548  -0.876  0.00  0.00    -0.082 A 
ATOM      7  C5  PXY d   1       1.173   0.786  -0.719  0.00  0.00     0.003 A 
ATOM      8  C6  PXY d   1       0.110   1.286   0.028  0.00  0.00     0.003 A 
ENDROOT
TORSDOF 0
ENDMDL
