MODEL 1
REMARK minimizedAffinity 6.76850843
REMARK minimizedRMSD -1
REMARK  2 active torsions:
REMARK  status: ('A' for Active; 'I' for Inactive)
REMARK    1  A    between atoms: C2'_3  and  C1'_4 
REMARK    2  A    between atoms: C1'_4  and  C1_5 
ROOT
ATOM      1  C1  I4B d   1      -0.004   2.349   0.838  0.00  0.00    -0.075 A 
ATOM      2  C2  I4B d   1      -0.676   1.737  -0.191  0.00  0.00     0.003 A 
ATOM      3  C3  I4B d   1      -0.956   2.448  -1.383  0.00  0.00     0.002 A 
ATOM      4  C4  I4B d   1      -0.592   3.775  -1.483  0.00  0.00    -0.004 A 
ATOM      5  C5  I4B d   1       0.110   4.387  -0.449  0.00  0.00     0.002 A 
ATOM      6  C6  I4B d   1       0.417   3.666   0.714  0.00  0.00     0.003 A 
ENDROOT
BRANCH   1   7
ATOM      7  C1' I4B d   1       0.246   1.578   2.095  0.00  0.00     0.060 C 
BRANCH   7   8
ATOM      8  C2' I4B d   1       0.256   0.104   1.745  0.00  0.00    -0.013 C 
ATOM      9  C4' I4B d   1       1.608  -0.328   1.241  0.00  0.00     0.013 C 
ATOM     10  C3' I4B d   1      -0.136  -0.666   2.971  0.00  0.00     0.013 C 
ENDBRANCH   7   8
ENDBRANCH   1   7
TORSDOF 2
ENDMDL
