MODEL 1
REMARK minimizedAffinity 3.1315372
REMARK minimizedRMSD -1
REMARK  2 active torsions:
REMARK  status: ('A' for Active; 'I' for Inactive)
REMARK    1  A    between atoms: C2'_3  and  C1'_4 
REMARK    2  A    between atoms: C1'_4  and  C1_5 
ROOT
ATOM      1  C1  I4B d   1       0.159   2.327   2.753  0.00  0.00    -0.075 A 
ATOM      2  C2  I4B d   1       1.337   3.030   2.721  0.00  0.00     0.003 A 
ATOM      3  C3  I4B d   1       1.487   4.131   1.844  0.00  0.00     0.002 A 
ATOM      4  C4  I4B d   1       0.457   4.462   0.987  0.00  0.00    -0.004 A 
ATOM      5  C5  I4B d   1      -0.745   3.763   1.037  0.00  0.00     0.002 A 
ATOM      6  C6  I4B d   1      -0.900   2.696   1.934  0.00  0.00     0.003 A 
ENDROOT
BRANCH   1   7
ATOM      7  C1' I4B d   1       0.047   1.149   3.668  0.00  0.00     0.060 C 
BRANCH   7   8
ATOM      8  C2' I4B d   1       0.524  -0.075   2.913  0.00  0.00    -0.013 C 
ATOM      9  C4' I4B d   1       1.599   0.282   1.920  0.00  0.00     0.013 C 
ATOM     10  C3' I4B d   1       1.023  -1.072   3.916  0.00  0.00     0.013 C 
ENDBRANCH   7   8
ENDBRANCH   1   7
TORSDOF 2
ENDMDL
