MODEL 1
REMARK minimizedAffinity 7.38126135
REMARK minimizedRMSD -1
REMARK  2 active torsions:
REMARK  status: ('A' for Active; 'I' for Inactive)
REMARK    1  A    between atoms: C2'_3  and  C1'_4 
REMARK    2  A    between atoms: C1'_4  and  C1_5 
ROOT
ATOM      1  C1  I4B d   1      -0.926  -1.455  -2.418  0.00  0.00    -0.075 A 
ATOM      2  C2  I4B d   1      -0.088  -0.745  -1.595  0.00  0.00     0.003 A 
ATOM      3  C3  I4B d   1       0.509   0.456  -2.049  0.00  0.00     0.002 A 
ATOM      4  C4  I4B d   1       0.281   0.881  -3.342  0.00  0.00    -0.004 A 
ATOM      5  C5  I4B d   1      -0.588   0.173  -4.168  0.00  0.00     0.002 A 
ATOM      6  C6  I4B d   1      -1.205  -0.996  -3.699  0.00  0.00     0.003 A 
ENDROOT
BRANCH   1   7
ATOM      7  C1' I4B d   1      -1.513  -2.737  -1.918  0.00  0.00     0.060 C 
BRANCH   7   8
ATOM      8  C2' I4B d   1      -0.500  -3.838  -2.158  0.00  0.00    -0.013 C 
ATOM      9  C4' I4B d   1      -0.675  -4.963  -1.172  0.00  0.00     0.013 C 
ATOM     10  C3' I4B d   1      -0.669  -4.323  -3.568  0.00  0.00     0.013 C 
ENDBRANCH   7   8
ENDBRANCH   1   7
TORSDOF 2
ENDMDL
