MODEL 1
REMARK minimizedAffinity 2.8674562
REMARK minimizedRMSD -1
REMARK  2 active torsions:
REMARK  status: ('A' for Active; 'I' for Inactive)
REMARK    1  A    between atoms: C2'_3  and  C1'_4 
REMARK    2  A    between atoms: C1'_4  and  C1_5 
ROOT
ATOM      1  C1  I4B d   1       0.156   0.714  -0.325  0.00  0.00    -0.075 A 
ATOM      2  C2  I4B d   1       0.112   2.072  -0.130  0.00  0.00     0.003 A 
ATOM      3  C3  I4B d   1       0.200   2.607   1.178  0.00  0.00     0.002 A 
ATOM      4  C4  I4B d   1       0.281   1.752   2.258  0.00  0.00    -0.004 A 
ATOM      5  C5  I4B d   1       0.349   0.377   2.056  0.00  0.00     0.002 A 
ATOM      6  C6  I4B d   1       0.299  -0.146   0.756  0.00  0.00     0.003 A 
ENDROOT
BRANCH   1   7
ATOM      7  C1' I4B d   1       0.027   0.182  -1.717  0.00  0.00     0.060 C 
BRANCH   7   8
ATOM      8  C2' I4B d   1      -1.379  -0.357  -1.882  0.00  0.00    -0.013 C 
ATOM      9  C4' I4B d   1      -2.175   0.483  -2.846  0.00  0.00     0.013 C 
ATOM     10  C3' I4B d   1      -1.278  -1.776  -2.356  0.00  0.00     0.013 C 
ENDBRANCH   7   8
ENDBRANCH   1   7
TORSDOF 2
ENDMDL
