MODEL 1
REMARK minimizedAffinity -0.166918442
REMARK minimizedRMSD -1
REMARK  2 active torsions:
REMARK  status: ('A' for Active; 'I' for Inactive)
REMARK    1  A    between atoms: C2'_3  and  C1'_4 
REMARK    2  A    between atoms: C1'_4  and  C1_5 
ROOT
ATOM      1  C1  I4B d   1       0.429   1.227   0.873  0.00  0.00    -0.075 A 
ATOM      2  C2  I4B d   1       0.755   0.837   2.148  0.00  0.00     0.003 A 
ATOM      3  C3  I4B d   1       1.633  -0.254   2.357  0.00  0.00     0.002 A 
ATOM      4  C4  I4B d   1       2.118  -0.954   1.271  0.00  0.00    -0.004 A 
ATOM      5  C5  I4B d   1       1.805  -0.542  -0.021  0.00  0.00     0.002 A 
ATOM      6  C6  I4B d   1       0.965   0.563  -0.222  0.00  0.00     0.003 A 
ENDROOT
BRANCH   1   7
ATOM      7  C1' I4B d   1      -0.526   2.363   0.689  0.00  0.00     0.060 C 
BRANCH   7   8
ATOM      8  C2' I4B d   1       0.026   3.563   1.432  0.00  0.00    -0.013 C 
ATOM      9  C4' I4B d   1       0.983   4.344   0.570  0.00  0.00     0.013 C 
ATOM     10  C3' I4B d   1      -1.131   4.413   1.864  0.00  0.00     0.013 C 
ENDBRANCH   7   8
ENDBRANCH   1   7
TORSDOF 2
ENDMDL
