MODEL 1
REMARK minimizedAffinity -5.0830493
REMARK minimizedRMSD -1
REMARK  0 active torsions:
REMARK  status: ('A' for Active; 'I' for Inactive)
ROOT
ATOM      1  C   UNL d   1      -2.204   2.099  -3.023  0.00  0.00     0.077 C 
ATOM      2  C1  UNL d   1      -1.847   1.222  -1.859  0.00  0.00    -0.074 A 
ATOM      3  C2  UNL d   1      -2.811   0.420  -1.240  0.00  0.00    -0.005 A 
ATOM      4  C3  UNL d   1      -2.462  -0.397  -0.165  0.00  0.00     0.006 A 
ATOM      5  C4  UNL d   1      -1.146  -0.421   0.300  0.00  0.00    -0.005 A 
ATOM      6  C5  UNL d   1      -0.168   0.373  -0.307  0.00  0.00    -0.074 A 
ATOM      7  C6  UNL d   1       1.252   0.352   0.175  0.00  0.00     0.077 C 
ATOM      8  C7  UNL d   1      -0.526   1.187  -1.391  0.00  0.00    -0.001 A 
ENDROOT
TORSDOF 0
ENDMDL
