MODEL 1
REMARK minimizedAffinity -6.1286459
REMARK minimizedRMSD -1
REMARK  0 active torsions:
REMARK  status: ('A' for Active; 'I' for Inactive)
ROOT
ATOM      1  C   UNL d   1       1.390  -3.034   1.122  0.00  0.00     0.077 C 
ATOM      2  C1  UNL d   1       0.891  -1.708   0.631  0.00  0.00    -0.074 A 
ATOM      3  C2  UNL d   1       1.638  -0.951  -0.277  0.00  0.00    -0.005 A 
ATOM      4  C3  UNL d   1       1.156   0.276  -0.733  0.00  0.00     0.006 A 
ATOM      5  C4  UNL d   1      -0.075   0.757  -0.287  0.00  0.00    -0.005 A 
ATOM      6  C5  UNL d   1      -0.837   0.013   0.620  0.00  0.00    -0.074 A 
ATOM      7  C6  UNL d   1      -2.167   0.511   1.102  0.00  0.00     0.077 C 
ATOM      8  C7  UNL d   1      -0.349  -1.222   1.068  0.00  0.00    -0.001 A 
ENDROOT
TORSDOF 0
ENDMDL
