MODEL 1
REMARK minimizedAffinity -2.60532665
REMARK minimizedRMSD -1
REMARK  0 active torsions:
REMARK  status: ('A' for Active; 'I' for Inactive)
ROOT
ATOM      1  C   UNL d   1      -1.052   2.164  -2.566  0.00  0.00     0.077 C 
ATOM      2  C1  UNL d   1      -0.932   1.247  -1.385  0.00  0.00    -0.074 A 
ATOM      3  C2  UNL d   1      -2.043   0.954  -0.587  0.00  0.00    -0.005 A 
ATOM      4  C3  UNL d   1      -1.918   0.092   0.502  0.00  0.00     0.006 A 
ATOM      5  C4  UNL d   1      -0.684  -0.484   0.805  0.00  0.00    -0.005 A 
ATOM      6  C5  UNL d   1       0.438  -0.203   0.018  0.00  0.00    -0.074 A 
ATOM      7  C6  UNL d   1       1.770  -0.821   0.324  0.00  0.00     0.077 C 
ATOM      8  C7  UNL d   1       0.303   0.659  -1.079  0.00  0.00    -0.001 A 
ENDROOT
TORSDOF 0
ENDMDL
