MODEL 1
REMARK minimizedAffinity -4.29267263
REMARK minimizedRMSD -1
REMARK  0 active torsions:
REMARK  status: ('A' for Active; 'I' for Inactive)
ROOT
ATOM      1  C   UNL d   1      -0.965   1.981  -1.591  0.00  0.00     0.077 C 
ATOM      2  C1  UNL d   1      -0.656   1.110  -0.409  0.00  0.00    -0.074 A 
ATOM      3  C2  UNL d   1      -1.502   1.083   0.705  0.00  0.00    -0.005 A 
ATOM      4  C3  UNL d   1      -1.206   0.261   1.792  0.00  0.00     0.006 A 
ATOM      5  C4  UNL d   1      -0.064  -0.540   1.777  0.00  0.00    -0.005 A 
ATOM      6  C5  UNL d   1       0.793  -0.527   0.672  0.00  0.00    -0.074 A 
ATOM      7  C6  UNL d   1       2.019  -1.390   0.636  0.00  0.00     0.077 C 
ATOM      8  C7  UNL d   1       0.485   0.296  -0.420  0.00  0.00    -0.001 A 
ENDROOT
TORSDOF 0
ENDMDL
