MODEL 1
REMARK minimizedAffinity 0.0864392743
REMARK minimizedRMSD -1
REMARK  0 active torsions:
REMARK  status: ('A' for Active; 'I' for Inactive)
ROOT
ATOM      1  C   UNL d   1      -1.485  -0.320   1.824  0.00  0.00     0.077 C 
ATOM      2  C1  UNL d   1      -0.602   0.122   0.695  0.00  0.00    -0.074 A 
ATOM      3  C2  UNL d   1       0.749  -0.241   0.656  0.00  0.00    -0.005 A 
ATOM      4  C3  UNL d   1       1.556   0.169  -0.405  0.00  0.00     0.006 A 
ATOM      5  C4  UNL d   1       1.022   0.944  -1.436  0.00  0.00    -0.005 A 
ATOM      6  C5  UNL d   1      -0.326   1.315  -1.414  0.00  0.00    -0.074 A 
ATOM      7  C6  UNL d   1      -0.918   2.139  -2.518  0.00  0.00     0.077 C 
ATOM      8  C7  UNL d   1      -1.132   0.893  -0.348  0.00  0.00    -0.001 A 
ENDROOT
TORSDOF 0
ENDMDL
