MODEL 1
REMARK minimizedAffinity -1.36238241
REMARK minimizedRMSD -1
REMARK  0 active torsions:
REMARK  status: ('A' for Active; 'I' for Inactive)
ROOT
ATOM      1  C   UNL d   1      -1.871   2.004  -3.128  0.00  0.00     0.077 C 
ATOM      2  C1  UNL d   1      -1.426   1.284  -1.890  0.00  0.00    -0.074 A 
ATOM      3  C2  UNL d   1      -2.286   0.408  -1.219  0.00  0.00    -0.005 A 
ATOM      4  C3  UNL d   1      -1.854  -0.261  -0.074  0.00  0.00     0.006 A 
ATOM      5  C4  UNL d   1      -0.561  -0.063   0.411  0.00  0.00    -0.005 A 
ATOM      6  C5  UNL d   1       0.313   0.809  -0.247  0.00  0.00    -0.074 A 
ATOM      7  C6  UNL d   1       1.709   1.026   0.255  0.00  0.00     0.077 C 
ATOM      8  C7  UNL d   1      -0.126   1.472  -1.401  0.00  0.00    -0.001 A 
ENDROOT
TORSDOF 0
ENDMDL
