MODEL 1
REMARK minimizedAffinity -3.25322676
REMARK minimizedRMSD -1
REMARK  0 active torsions:
REMARK  status: ('A' for Active; 'I' for Inactive)
ROOT
ATOM      1  C   UNL d   1      -1.098   2.151  -1.992  0.00  0.00     0.077 C 
ATOM      2  C1  UNL d   1      -0.544   1.224  -0.951  0.00  0.00    -0.074 A 
ATOM      3  C2  UNL d   1       0.816   0.901  -0.927  0.00  0.00    -0.005 A 
ATOM      4  C3  UNL d   1       1.319   0.045   0.052  0.00  0.00     0.006 A 
ATOM      5  C4  UNL d   1       0.467  -0.496   1.017  0.00  0.00    -0.005 A 
ATOM      6  C5  UNL d   1      -0.896  -0.184   1.009  0.00  0.00    -0.074 A 
ATOM      7  C6  UNL d   1      -1.823  -0.749   2.044  0.00  0.00     0.077 C 
ATOM      8  C7  UNL d   1      -1.392   0.683   0.025  0.00  0.00    -0.001 A 
ENDROOT
TORSDOF 0
ENDMDL
