MODEL 1
REMARK minimizedAffinity -3.0372076
REMARK minimizedRMSD -1
REMARK  0 active torsions:
REMARK  status: ('A' for Active; 'I' for Inactive)
ROOT
ATOM      1  C   UNL d   1      -1.798  -0.133   2.281  0.00  0.00     0.077 C 
ATOM      2  C1  UNL d   1      -0.647  -0.038   1.324  0.00  0.00    -0.074 A 
ATOM      3  C2  UNL d   1      -0.544   1.031   0.428  0.00  0.00    -0.005 A 
ATOM      4  C3  UNL d   1       0.537   1.112  -0.449  0.00  0.00     0.006 A 
ATOM      5  C4  UNL d   1       1.525   0.126  -0.439  0.00  0.00    -0.005 A 
ATOM      6  C5  UNL d   1       1.439  -0.950   0.450  0.00  0.00    -0.074 A 
ATOM      7  C6  UNL d   1       2.497  -2.013   0.480  0.00  0.00     0.077 C 
ATOM      8  C7  UNL d   1       0.353  -1.020   1.333  0.00  0.00    -0.001 A 
ENDROOT
TORSDOF 0
ENDMDL
