MODEL 1
REMARK minimizedAffinity -0.298862129
REMARK minimizedRMSD -1
REMARK  0 active torsions:
REMARK  status: ('A' for Active; 'I' for Inactive)
ROOT
ATOM      1  C   UNL d   1      -1.759   0.751  -2.490  0.00  0.00     0.077 C 
ATOM      2  C1  UNL d   1      -0.984   0.465  -1.238  0.00  0.00    -0.074 A 
ATOM      3  C2  UNL d   1       0.407   0.607  -1.205  0.00  0.00    -0.005 A 
ATOM      4  C3  UNL d   1       1.113   0.347  -0.030  0.00  0.00     0.006 A 
ATOM      5  C4  UNL d   1       0.436  -0.058   1.121  0.00  0.00    -0.005 A 
ATOM      6  C5  UNL d   1      -0.955  -0.205   1.107  0.00  0.00    -0.074 A 
ATOM      7  C6  UNL d   1      -1.698  -0.630   2.338  0.00  0.00     0.077 C 
ATOM      8  C7  UNL d   1      -1.658   0.065  -0.075  0.00  0.00    -0.001 A 
ENDROOT
TORSDOF 0
ENDMDL
