MODEL 1
REMARK minimizedAffinity -3.18832922
REMARK minimizedRMSD -1
REMARK  0 active torsions:
REMARK  status: ('A' for Active; 'I' for Inactive)
ROOT
ATOM      1  C   UNL d   1      -2.071  -1.157   0.361  0.00  0.00     0.077 C 
ATOM      2  C1  UNL d   1      -0.703  -0.632   0.043  0.00  0.00    -0.074 A 
ATOM      3  C2  UNL d   1      -0.537   0.501  -0.760  0.00  0.00    -0.005 A 
ATOM      4  C3  UNL d   1       0.742   0.983  -1.040  0.00  0.00     0.006 A 
ATOM      5  C4  UNL d   1       1.865   0.338  -0.521  0.00  0.00    -0.005 A 
ATOM      6  C5  UNL d   1       1.718  -0.796   0.284  0.00  0.00    -0.074 A 
ATOM      7  C6  UNL d   1       2.915  -1.495   0.858  0.00  0.00     0.077 C 
ATOM      8  C7  UNL d   1       0.430  -1.270   0.567  0.00  0.00    -0.001 A 
ENDROOT
TORSDOF 0
ENDMDL
