MODEL 1
REMARK minimizedAffinity 1.534356
REMARK minimizedRMSD -1
REMARK  0 active torsions:
REMARK  status: ('A' for Active; 'I' for Inactive)
ROOT
ATOM      1  C   UNL d   1      -1.710  -0.430  -1.716  0.00  0.00     0.077 C 
ATOM      2  C1  UNL d   1      -0.398   0.063  -1.182  0.00  0.00    -0.074 A 
ATOM      3  C2  UNL d   1       0.125   1.296  -1.584  0.00  0.00    -0.005 A 
ATOM      4  C3  UNL d   1       1.342   1.745  -1.072  0.00  0.00     0.006 A 
ATOM      5  C4  UNL d   1       2.047   0.967  -0.153  0.00  0.00    -0.005 A 
ATOM      6  C5  UNL d   1       1.539  -0.268   0.262  0.00  0.00    -0.074 A 
ATOM      7  C6  UNL d   1       2.280  -1.112   1.257  0.00  0.00     0.077 C 
ATOM      8  C7  UNL d   1       0.312  -0.710  -0.252  0.00  0.00    -0.001 A 
ENDROOT
TORSDOF 0
ENDMDL
