MODEL 1
REMARK minimizedAffinity -6.21723986
REMARK minimizedRMSD -1
REMARK  0 active torsions:
REMARK  status: ('A' for Active; 'I' for Inactive)
ROOT
ATOM      1  C   UNL d   1      -0.743   0.675  -0.419  0.00  0.00     0.077 C 
ATOM      2  C1  UNL d   1      -0.188  -0.528   0.284  0.00  0.00    -0.074 A 
ATOM      3  C2  UNL d   1       1.111  -0.977   0.024  0.00  0.00    -0.005 A 
ATOM      4  C3  UNL d   1       1.617  -2.092   0.693  0.00  0.00     0.006 A 
ATOM      5  C4  UNL d   1       0.831  -2.768   1.626  0.00  0.00    -0.005 A 
ATOM      6  C5  UNL d   1      -0.470  -2.333   1.900  0.00  0.00    -0.074 A 
ATOM      7  C6  UNL d   1      -1.325  -3.043   2.908  0.00  0.00     0.077 C 
ATOM      8  C7  UNL d   1      -0.969  -1.208   1.229  0.00  0.00    -0.001 A 
ENDROOT
TORSDOF 0
ENDMDL
