MODEL 1
REMARK minimizedAffinity -5.2183094
REMARK minimizedRMSD -1
REMARK  0 active torsions:
REMARK  status: ('A' for Active; 'I' for Inactive)
ROOT
ATOM      1  C   UNL d   1      -1.828   0.653   0.072  0.00  0.00     0.077 C 
ATOM      2  C1  UNL d   1      -0.605  -0.149   0.404  0.00  0.00    -0.074 A 
ATOM      3  C2  UNL d   1       0.544  -0.071  -0.389  0.00  0.00    -0.005 A 
ATOM      4  C3  UNL d   1       1.677  -0.816  -0.062  0.00  0.00     0.006 A 
ATOM      5  C4  UNL d   1       1.672  -1.646   1.060  0.00  0.00    -0.005 A 
ATOM      6  C5  UNL d   1       0.533  -1.737   1.865  0.00  0.00    -0.074 A 
ATOM      7  C6  UNL d   1       0.514  -2.616   3.080  0.00  0.00     0.077 C 
ATOM      8  C7  UNL d   1      -0.599  -0.979   1.534  0.00  0.00    -0.001 A 
ENDROOT
TORSDOF 0
ENDMDL
