MODEL 1
REMARK minimizedAffinity -0.466073662
REMARK minimizedRMSD -1
REMARK  0 active torsions:
REMARK  status: ('A' for Active; 'I' for Inactive)
ROOT
ATOM      1  C   UNL d   1      -0.623   0.732  -0.706  0.00  0.00     0.077 C 
ATOM      2  C1  UNL d   1      -0.602   0.024   0.616  0.00  0.00    -0.074 A 
ATOM      3  C2  UNL d   1      -1.766  -0.110   1.379  0.00  0.00    -0.005 A 
ATOM      4  C3  UNL d   1      -1.733  -0.780   2.602  0.00  0.00     0.006 A 
ATOM      5  C4  UNL d   1      -0.537  -1.322   3.074  0.00  0.00    -0.005 A 
ATOM      6  C5  UNL d   1       0.638  -1.198   2.325  0.00  0.00    -0.074 A 
ATOM      7  C6  UNL d   1       1.930  -1.783   2.813  0.00  0.00     0.077 C 
ATOM      8  C7  UNL d   1       0.594  -0.530   1.093  0.00  0.00    -0.001 A 
ENDROOT
TORSDOF 0
ENDMDL
