MODEL 1
REMARK minimizedAffinity -3.73915291
REMARK minimizedRMSD -1
REMARK  0 active torsions:
REMARK  status: ('A' for Active; 'I' for Inactive)
ROOT
ATOM      1  C   UNL d   1      -2.068  -0.064   1.930  0.00  0.00     0.077 C 
ATOM      2  C1  UNL d   1      -0.921   0.136   0.985  0.00  0.00    -0.074 A 
ATOM      3  C2  UNL d   1      -0.944   1.160   0.032  0.00  0.00    -0.005 A 
ATOM      4  C3  UNL d   1       0.135   1.339  -0.834  0.00  0.00     0.006 A 
ATOM      5  C4  UNL d   1       1.245   0.498  -0.756  0.00  0.00    -0.005 A 
ATOM      6  C5  UNL d   1       1.287  -0.531   0.190  0.00  0.00    -0.074 A 
ATOM      7  C6  UNL d   1       2.477  -1.438   0.294  0.00  0.00     0.077 C 
ATOM      8  C7  UNL d   1       0.202  -0.700   1.062  0.00  0.00    -0.001 A 
ENDROOT
TORSDOF 0
ENDMDL
