MODEL 1
REMARK minimizedAffinity -5.09615803
REMARK minimizedRMSD -1
REMARK  0 active torsions:
REMARK  status: ('A' for Active; 'I' for Inactive)
ROOT
ATOM      1  C   UNL d   1      -2.278   1.597  -3.549  0.00  0.00     0.077 C 
ATOM      2  C1  UNL d   1      -2.087   0.916  -2.227  0.00  0.00    -0.074 A 
ATOM      3  C2  UNL d   1      -3.104   0.136  -1.667  0.00  0.00    -0.005 A 
ATOM      4  C3  UNL d   1      -2.909  -0.499  -0.441  0.00  0.00     0.006 A 
ATOM      5  C4  UNL d   1      -1.697  -0.360   0.238  0.00  0.00    -0.005 A 
ATOM      6  C5  UNL d   1      -0.669   0.416  -0.307  0.00  0.00    -0.074 A 
ATOM      7  C6  UNL d   1       0.643   0.568   0.405  0.00  0.00     0.077 C 
ATOM      8  C7  UNL d   1      -0.870   1.045  -1.543  0.00  0.00    -0.001 A 
ENDROOT
TORSDOF 0
ENDMDL
