MODEL 1
REMARK minimizedAffinity -2.92867708
REMARK minimizedRMSD -1
REMARK  0 active torsions:
REMARK  status: ('A' for Active; 'I' for Inactive)
ROOT
ATOM      1  C   UNL d   1      -1.177   0.012   1.418  0.00  0.00     0.077 C 
ATOM      2  C1  UNL d   1      -1.748   0.375   0.080  0.00  0.00    -0.074 A 
ATOM      3  C2  UNL d   1      -2.889  -0.266  -0.414  0.00  0.00    -0.005 A 
ATOM      4  C3  UNL d   1      -3.414   0.090  -1.656  0.00  0.00     0.006 A 
ATOM      5  C4  UNL d   1      -2.805   1.089  -2.416  0.00  0.00    -0.005 A 
ATOM      6  C5  UNL d   1      -1.664   1.742  -1.939  0.00  0.00    -0.074 A 
ATOM      7  C6  UNL d   1      -1.003   2.825  -2.739  0.00  0.00     0.077 C 
ATOM      8  C7  UNL d   1      -1.146   1.384  -0.686  0.00  0.00    -0.001 A 
ENDROOT
TORSDOF 0
ENDMDL
