MODEL 1
REMARK minimizedAffinity -5.61048794
REMARK minimizedRMSD -1
REMARK  0 active torsions:
REMARK  status: ('A' for Active; 'I' for Inactive)
ROOT
ATOM      1  C   UNL d   1       0.509   0.608  -0.860  0.00  0.00     0.077 C 
ATOM      2  C1  UNL d   1       0.157  -0.269   0.305  0.00  0.00    -0.074 A 
ATOM      3  C2  UNL d   1      -1.048  -0.100   0.993  0.00  0.00    -0.005 A 
ATOM      4  C3  UNL d   1      -1.366  -0.930   2.069  0.00  0.00     0.006 A 
ATOM      5  C4  UNL d   1      -0.483  -1.934   2.466  0.00  0.00    -0.005 A 
ATOM      6  C5  UNL d   1       0.727  -2.118   1.789  0.00  0.00    -0.074 A 
ATOM      7  C6  UNL d   1       1.683  -3.200   2.197  0.00  0.00     0.077 C 
ATOM      8  C7  UNL d   1       1.036  -1.286   0.705  0.00  0.00    -0.001 A 
ENDROOT
TORSDOF 0
ENDMDL
