MODEL 1
REMARK minimizedAffinity -2.45882416
REMARK minimizedRMSD -1
REMARK  0 active torsions:
REMARK  status: ('A' for Active; 'I' for Inactive)
ROOT
ATOM      1  C   UNL d   1      -0.784   0.105   2.853  0.00  0.00     0.020 A 
ATOM      2  C1  UNL d   1      -0.864   1.488   2.690  0.00  0.00     0.020 A 
ATOM      3  C2  UNL d   1      -0.492   2.070   1.477  0.00  0.00     0.034 A 
ATOM      4  C3  UNL d   1      -0.040   1.270   0.421  0.00  0.00     0.017 A 
ATOM      5  C4  UNL d   1       0.039  -0.117   0.586  0.00  0.00     0.017 A 
ATOM      6  C5  UNL d   1      -0.334  -0.695   1.803  0.00  0.00     0.034 A 
ATOM      7 Cl   UNL d   1       0.588  -1.170  -0.671  0.00  0.00    -0.070 Cl
ATOM      8 Cl1  UNL d   1       0.403   2.058  -1.052  0.00  0.00    -0.070 Cl
ENDROOT
TORSDOF 0
ENDMDL
