MODEL 1
REMARK minimizedAffinity -1.55145419
REMARK minimizedRMSD -1
REMARK  0 active torsions:
REMARK  status: ('A' for Active; 'I' for Inactive)
ROOT
ATOM      1  C   UNL d   1       0.096  -0.825  -0.755  0.00  0.00     0.020 A 
ATOM      2  C1  UNL d   1      -0.503   0.428  -0.867  0.00  0.00     0.020 A 
ATOM      3  C2  UNL d   1      -0.672   1.225   0.268  0.00  0.00     0.034 A 
ATOM      4  C3  UNL d   1      -0.241   0.769   1.518  0.00  0.00     0.017 A 
ATOM      5  C4  UNL d   1       0.361  -0.490   1.630  0.00  0.00     0.017 A 
ATOM      6  C5  UNL d   1       0.528  -1.283   0.490  0.00  0.00     0.034 A 
ATOM      7 Cl   UNL d   1       0.919  -1.121   3.139  0.00  0.00    -0.070 Cl
ATOM      8 Cl1  UNL d   1      -0.481   1.807   2.879  0.00  0.00    -0.070 Cl
ENDROOT
TORSDOF 0
ENDMDL
