MODEL 1
REMARK minimizedAffinity -3.40271044
REMARK minimizedRMSD -1
REMARK  0 active torsions:
REMARK  status: ('A' for Active; 'I' for Inactive)
ROOT
ATOM      1  C   UNL d   1      -1.809   1.680   1.533  0.00  0.00     0.020 A 
ATOM      2  C1  UNL d   1      -1.804   1.606   0.141  0.00  0.00     0.020 A 
ATOM      3  C2  UNL d   1      -0.882   0.785  -0.512  0.00  0.00     0.034 A 
ATOM      4  C3  UNL d   1       0.039   0.035   0.228  0.00  0.00     0.017 A 
ATOM      5  C4  UNL d   1       0.034   0.109   1.625  0.00  0.00     0.017 A 
ATOM      6  C5  UNL d   1      -0.892   0.933   2.274  0.00  0.00     0.034 A 
ATOM      7 Cl   UNL d   1       1.140  -0.787   2.606  0.00  0.00    -0.070 Cl
ATOM      8 Cl1  UNL d   1       1.151  -0.959  -0.645  0.00  0.00    -0.070 Cl
ENDROOT
TORSDOF 0
ENDMDL
