MODEL 1
REMARK minimizedAffinity -1.12809074
REMARK minimizedRMSD -1
REMARK  0 active torsions:
REMARK  status: ('A' for Active; 'I' for Inactive)
ROOT
ATOM      1  C   UNL d   1      -1.250   1.464   2.397  0.00  0.00     0.020 A 
ATOM      2  C1  UNL d   1      -0.914   0.128   2.614  0.00  0.00     0.020 A 
ATOM      3  C2  UNL d   1      -0.262  -0.598   1.616  0.00  0.00     0.034 A 
ATOM      4  C3  UNL d   1       0.057   0.011   0.396  0.00  0.00     0.017 A 
ATOM      5  C4  UNL d   1      -0.281   1.352   0.180  0.00  0.00     0.017 A 
ATOM      6  C5  UNL d   1      -0.934   2.074   1.183  0.00  0.00     0.034 A 
ATOM      7 Cl   UNL d   1       0.079   2.171  -1.298  0.00  0.00    -0.070 Cl
ATOM      8 Cl1  UNL d   1       0.864  -0.947  -0.793  0.00  0.00    -0.070 Cl
ENDROOT
TORSDOF 0
ENDMDL
