MODEL 1
REMARK minimizedAffinity -4.78300333
REMARK minimizedRMSD -1
REMARK  0 active torsions:
REMARK  status: ('A' for Active; 'I' for Inactive)
ROOT
ATOM      1  C   UNL d   1      -1.829   0.678   0.104  0.00  0.00     0.020 A 
ATOM      2  C1  UNL d   1      -1.180   1.887  -0.144  0.00  0.00     0.020 A 
ATOM      3  C2  UNL d   1       0.106   1.891  -0.688  0.00  0.00     0.034 A 
ATOM      4  C3  UNL d   1       0.748   0.684  -0.985  0.00  0.00     0.017 A 
ATOM      5  C4  UNL d   1       0.096  -0.530  -0.736  0.00  0.00     0.017 A 
ATOM      6  C5  UNL d   1      -1.192  -0.528  -0.191  0.00  0.00     0.034 A 
ATOM      7 Cl   UNL d   1       0.824  -2.060  -1.077  0.00  0.00    -0.070 Cl
ATOM      8 Cl1  UNL d   1       2.338   0.763  -1.657  0.00  0.00    -0.070 Cl
ENDROOT
TORSDOF 0
ENDMDL
