MODEL 1
REMARK minimizedAffinity -4.9598608
REMARK minimizedRMSD -1
REMARK  0 active torsions:
REMARK  status: ('A' for Active; 'I' for Inactive)
ROOT
ATOM      1  C   UNL d   1       0.531  -0.598   1.606  0.00  0.00     0.020 A 
ATOM      2  C1  UNL d   1       1.205  -0.438   0.396  0.00  0.00     0.020 A 
ATOM      3  C2  UNL d   1       0.792   0.543  -0.508  0.00  0.00     0.034 A 
ATOM      4  C3  UNL d   1      -0.297   1.368  -0.204  0.00  0.00     0.017 A 
ATOM      5  C4  UNL d   1      -0.973   1.206   1.011  0.00  0.00     0.017 A 
ATOM      6  C5  UNL d   1      -0.556   0.222   1.912  0.00  0.00     0.034 A 
ATOM      7 Cl   UNL d   1      -2.326   2.185   1.456  0.00  0.00    -0.070 Cl
ATOM      8 Cl1  UNL d   1      -0.752   2.560  -1.369  0.00  0.00    -0.070 Cl
ENDROOT
TORSDOF 0
ENDMDL
