MODEL 1
REMARK minimizedAffinity -3.41689587
REMARK minimizedRMSD -1
REMARK  0 active torsions:
REMARK  status: ('A' for Active; 'I' for Inactive)
ROOT
ATOM      1  C   UNL d   1       0.774  -0.839  -0.159  0.00  0.00     0.020 A 
ATOM      2  C1  UNL d   1       0.071  -0.977   1.038  0.00  0.00     0.020 A 
ATOM      3  C2  UNL d   1      -0.824   0.017   1.441  0.00  0.00     0.034 A 
ATOM      4  C3  UNL d   1      -1.017   1.154   0.647  0.00  0.00     0.017 A 
ATOM      5  C4  UNL d   1      -0.311   1.292  -0.554  0.00  0.00     0.017 A 
ATOM      6  C5  UNL d   1       0.583   0.293  -0.952  0.00  0.00     0.034 A 
ATOM      7 Cl   UNL d   1      -0.497   2.665  -1.586  0.00  0.00    -0.070 Cl
ATOM      8 Cl1  UNL d   1      -2.138   2.343   1.207  0.00  0.00    -0.070 Cl
ENDROOT
TORSDOF 0
ENDMDL
