MODEL 1
REMARK minimizedAffinity -3.3177793
REMARK minimizedRMSD -1
REMARK  0 active torsions:
REMARK  status: ('A' for Active; 'I' for Inactive)
ROOT
ATOM      1  C   UNL d   1      -1.990   1.629   1.783  0.00  0.00     0.020 A 
ATOM      2  C1  UNL d   1      -2.218   1.264   0.457  0.00  0.00     0.020 A 
ATOM      3  C2  UNL d   1      -1.341   0.389  -0.186  0.00  0.00     0.034 A 
ATOM      4  C3  UNL d   1      -0.231  -0.123   0.496  0.00  0.00     0.017 A 
ATOM      5  C4  UNL d   1      -0.003   0.244   1.827  0.00  0.00     0.017 A 
ATOM      6  C5  UNL d   1      -0.885   1.121   2.466  0.00  0.00     0.034 A 
ATOM      7 Cl   UNL d   1       1.344  -0.347   2.734  0.00  0.00    -0.070 Cl
ATOM      8 Cl1  UNL d   1       0.812  -1.201  -0.362  0.00  0.00    -0.070 Cl
ENDROOT
TORSDOF 0
ENDMDL
