MODEL 1
REMARK minimizedAffinity -3.19651723
REMARK minimizedRMSD -1
REMARK  0 active torsions:
REMARK  status: ('A' for Active; 'I' for Inactive)
ROOT
ATOM      1  C   UNL d   1      -1.872   1.743   0.922  0.00  0.00     0.020 A 
ATOM      2  C1  UNL d   1      -0.921   1.838   1.937  0.00  0.00     0.020 A 
ATOM      3  C2  UNL d   1       0.093   0.883   2.035  0.00  0.00     0.034 A 
ATOM      4  C3  UNL d   1       0.158  -0.171   1.117  0.00  0.00     0.017 A 
ATOM      5  C4  UNL d   1      -0.797  -0.266   0.098  0.00  0.00     0.017 A 
ATOM      6  C5  UNL d   1      -1.810   0.693   0.005  0.00  0.00     0.034 A 
ATOM      7 Cl   UNL d   1      -0.782  -1.538  -1.072  0.00  0.00    -0.070 Cl
ATOM      8 Cl1  UNL d   1       1.439  -1.316   1.298  0.00  0.00    -0.070 Cl
ENDROOT
TORSDOF 0
ENDMDL
