MODEL 1
REMARK minimizedAffinity -1.89134729
REMARK minimizedRMSD -1
REMARK  0 active torsions:
REMARK  status: ('A' for Active; 'I' for Inactive)
ROOT
ATOM      1  C   UNL d   1      -0.984  -0.028   2.317  0.00  0.00     0.020 A 
ATOM      2  C1  UNL d   1      -1.176   1.269   1.842  0.00  0.00     0.020 A 
ATOM      3  C2  UNL d   1      -0.597   1.663   0.634  0.00  0.00     0.034 A 
ATOM      4  C3  UNL d   1       0.177   0.760  -0.103  0.00  0.00     0.017 A 
ATOM      5  C4  UNL d   1       0.369  -0.542   0.374  0.00  0.00     0.017 A 
ATOM      6  C5  UNL d   1      -0.213  -0.931   1.584  0.00  0.00     0.034 A 
ATOM      7 Cl   UNL d   1       1.312  -1.712  -0.480  0.00  0.00    -0.070 Cl
ATOM      8 Cl1  UNL d   1       0.863   1.316  -1.588  0.00  0.00    -0.070 Cl
ENDROOT
TORSDOF 0
ENDMDL
