MODEL 1
REMARK minimizedAffinity -4.50387621
REMARK minimizedRMSD -1
REMARK  0 active torsions:
REMARK  status: ('A' for Active; 'I' for Inactive)
ROOT
ATOM      1  C   UNL d   1      -2.407   1.035   1.766  0.00  0.00     0.020 A 
ATOM      2  C1  UNL d   1      -2.347   1.342   0.407  0.00  0.00     0.020 A 
ATOM      3  C2  UNL d   1      -1.196   1.044  -0.326  0.00  0.00     0.034 A 
ATOM      4  C3  UNL d   1      -0.101   0.437   0.300  0.00  0.00     0.017 A 
ATOM      5  C4  UNL d   1      -0.163   0.129   1.664  0.00  0.00     0.017 A 
ATOM      6  C5  UNL d   1      -1.317   0.430   2.393  0.00  0.00     0.034 A 
ATOM      7 Cl   UNL d   1       1.148  -0.620   2.505  0.00  0.00    -0.070 Cl
ATOM      8 Cl1  UNL d   1       1.289   0.097  -0.668  0.00  0.00    -0.070 Cl
ENDROOT
TORSDOF 0
ENDMDL
