MODEL 1
REMARK minimizedAffinity -0.344761848
REMARK minimizedRMSD -1
REMARK  0 active torsions:
REMARK  status: ('A' for Active; 'I' for Inactive)
ROOT
ATOM      1  C   UNL d   1      -1.582   0.385  -0.526  0.00  0.00     0.020 A 
ATOM      2  C1  UNL d   1      -2.244   1.530  -0.085  0.00  0.00     0.020 A 
ATOM      3  C2  UNL d   1      -1.899   2.107   1.139  0.00  0.00     0.034 A 
ATOM      4  C3  UNL d   1      -0.891   1.540   1.926  0.00  0.00     0.017 A 
ATOM      5  C4  UNL d   1      -0.227   0.390   1.482  0.00  0.00     0.017 A 
ATOM      6  C5  UNL d   1      -0.576  -0.184   0.256  0.00  0.00     0.034 A 
ATOM      7 Cl   UNL d   1       1.028  -0.367   2.398  0.00  0.00    -0.070 Cl
ATOM      8 Cl1  UNL d   1      -0.516   2.307   3.428  0.00  0.00    -0.070 Cl
ENDROOT
TORSDOF 0
ENDMDL
