MODEL 1
REMARK minimizedAffinity -3.22087812
REMARK minimizedRMSD -1
REMARK  0 active torsions:
REMARK  status: ('A' for Active; 'I' for Inactive)
ROOT
ATOM      1  C   UNL d   1      -1.669   1.868   1.825  0.00  0.00     0.020 A 
ATOM      2  C1  UNL d   1      -1.789   1.788   0.439  0.00  0.00     0.020 A 
ATOM      3  C2  UNL d   1      -0.986   0.901  -0.281  0.00  0.00     0.034 A 
ATOM      4  C3  UNL d   1      -0.060   0.090   0.385  0.00  0.00     0.017 A 
ATOM      5  C4  UNL d   1       0.059   0.171   1.777  0.00  0.00     0.017 A 
ATOM      6  C5  UNL d   1      -0.747   1.061   2.493  0.00  0.00     0.034 A 
ATOM      7 Cl   UNL d   1       1.179  -0.797   2.669  0.00  0.00    -0.070 Cl
ATOM      8 Cl1  UNL d   1       0.900  -0.984  -0.568  0.00  0.00    -0.070 Cl
ENDROOT
TORSDOF 0
ENDMDL
