MODEL 1
REMARK minimizedAffinity -1.92704058
REMARK minimizedRMSD -1
REMARK  0 active torsions:
REMARK  status: ('A' for Active; 'I' for Inactive)
ROOT
ATOM      1  C   UNL d   1       0.196   0.553  -1.374  0.00  0.00     0.020 A 
ATOM      2  C1  UNL d   1       0.893  -0.616  -1.069  0.00  0.00     0.020 A 
ATOM      3  C2  UNL d   1       0.985  -1.048   0.256  0.00  0.00     0.034 A 
ATOM      4  C3  UNL d   1       0.380  -0.311   1.281  0.00  0.00     0.017 A 
ATOM      5  C4  UNL d   1      -0.319   0.863   0.973  0.00  0.00     0.017 A 
ATOM      6  C5  UNL d   1      -0.408   1.291  -0.355  0.00  0.00     0.034 A 
ATOM      7 Cl   UNL d   1      -1.092   1.825   2.183  0.00  0.00    -0.070 Cl
ATOM      8 Cl1  UNL d   1       0.534  -0.904   2.896  0.00  0.00    -0.070 Cl
ENDROOT
TORSDOF 0
ENDMDL
