MODEL 1
REMARK minimizedAffinity -0.580571473
REMARK minimizedRMSD -1
REMARK  1 active torsions:
REMARK  status: ('A' for Active; 'I' for Inactive)
REMARK    1  A    between atoms: C1_2  and  C2_3 
ROOT
ATOM      1  C2  UNL d   1      -2.909   0.575   0.849  0.00  0.00    -0.077 A 
ATOM      2  C3  UNL d   1      -2.246   1.679   1.404  0.00  0.00     0.002 A 
ATOM      3  C4  UNL d   1      -2.471   2.963   0.904  0.00  0.00     0.002 A 
ATOM      4  C5  UNL d   1      -3.362   3.156  -0.149  0.00  0.00    -0.004 A 
ATOM      5  C6  UNL d   1      -4.025   2.065  -0.709  0.00  0.00     0.002 A 
ATOM      6  C7  UNL d   1      -3.800   0.780  -0.212  0.00  0.00     0.002 A 
ENDROOT
BRANCH   1   7
ATOM      7  C1  UNL d   1      -2.705  -0.804   1.419  0.00  0.00     0.055 C 
ATOM      8  C   UNL d   1      -2.530  -0.758   2.930  0.00  0.00     0.019 C 
ENDBRANCH   1   7
TORSDOF 1
ENDMDL
