MODEL 1
REMARK minimizedAffinity -4.87158394
REMARK minimizedRMSD -1
REMARK  1 active torsions:
REMARK  status: ('A' for Active; 'I' for Inactive)
REMARK    1  A    between atoms: C1_2  and  C2_3 
ROOT
ATOM      1  C2  UNL d   1      -2.587   1.024   0.932  0.00  0.00    -0.077 A 
ATOM      2  C3  UNL d   1      -2.666   1.565   2.223  0.00  0.00     0.002 A 
ATOM      3  C4  UNL d   1      -2.835   0.730   3.329  0.00  0.00     0.002 A 
ATOM      4  C5  UNL d   1      -2.923  -0.649   3.156  0.00  0.00    -0.004 A 
ATOM      5  C6  UNL d   1      -2.847  -1.197   1.876  0.00  0.00     0.002 A 
ATOM      6  C7  UNL d   1      -2.679  -0.364   0.769  0.00  0.00     0.002 A 
ENDROOT
BRANCH   1   7
ATOM      7  C1  UNL d   1      -2.355   1.918  -0.258  0.00  0.00     0.055 C 
ATOM      8  C   UNL d   1      -3.249   3.149  -0.208  0.00  0.00     0.019 C 
ENDBRANCH   1   7
TORSDOF 1
ENDMDL
