MODEL 1
REMARK minimizedAffinity -3.68179226
REMARK minimizedRMSD -1
REMARK  1 active torsions:
REMARK  status: ('A' for Active; 'I' for Inactive)
REMARK    1  A    between atoms: C1_2  and  C2_3 
ROOT
ATOM      1  C2  UNL d   1      -2.377   0.813   1.046  0.00  0.00    -0.077 A 
ATOM      2  C3  UNL d   1      -2.586   1.256   2.360  0.00  0.00     0.002 A 
ATOM      3  C4  UNL d   1      -2.681   0.339   3.408  0.00  0.00     0.002 A 
ATOM      4  C5  UNL d   1      -2.564  -1.026   3.154  0.00  0.00    -0.004 A 
ATOM      5  C6  UNL d   1      -2.358  -1.477   1.851  0.00  0.00     0.002 A 
ATOM      6  C7  UNL d   1      -2.264  -0.562   0.802  0.00  0.00     0.002 A 
ENDROOT
BRANCH   1   7
ATOM      7  C1  UNL d   1      -2.225   1.803  -0.079  0.00  0.00     0.055 C 
ATOM      8  C   UNL d   1      -3.449   2.700  -0.196  0.00  0.00     0.019 C 
ENDBRANCH   1   7
TORSDOF 1
ENDMDL
