MODEL 1
REMARK minimizedAffinity -2.66263103
REMARK minimizedRMSD -1
REMARK  1 active torsions:
REMARK  status: ('A' for Active; 'I' for Inactive)
REMARK    1  A    between atoms: C1_2  and  C2_3 
ROOT
ATOM      1  C2  UNL d   1       1.399  -2.772   0.692  0.00  0.00    -0.077 A 
ATOM      2  C3  UNL d   1       0.440  -2.623  -0.320  0.00  0.00     0.002 A 
ATOM      3  C4  UNL d   1      -0.617  -3.528  -0.430  0.00  0.00     0.002 A 
ATOM      4  C5  UNL d   1      -0.729  -4.584   0.471  0.00  0.00    -0.004 A 
ATOM      5  C6  UNL d   1       0.221  -4.742   1.480  0.00  0.00     0.002 A 
ATOM      6  C7  UNL d   1       1.279  -3.840   1.590  0.00  0.00     0.002 A 
ENDROOT
BRANCH   1   7
ATOM      7  C1  UNL d   1       2.513  -1.769   0.842  0.00  0.00     0.055 C 
ATOM      8  C   UNL d   1       2.728  -1.395   2.301  0.00  0.00     0.019 C 
ENDBRANCH   1   7
TORSDOF 1
ENDMDL
