MODEL 1
REMARK minimizedAffinity 0.705812335
REMARK minimizedRMSD -1
REMARK  1 active torsions:
REMARK  status: ('A' for Active; 'I' for Inactive)
REMARK    1  A    between atoms: C1_2  and  C2_3 
ROOT
ATOM      1  C2  UNL d   1       4.750   0.038   2.800  0.00  0.00    -0.077 A 
ATOM      2  C3  UNL d   1       4.754   1.325   2.243  0.00  0.00     0.002 A 
ATOM      3  C4  UNL d   1       5.375   2.381   2.912  0.00  0.00     0.002 A 
ATOM      4  C5  UNL d   1       6.000   2.162   4.138  0.00  0.00    -0.004 A 
ATOM      5  C6  UNL d   1       6.000   0.886   4.700  0.00  0.00     0.002 A 
ATOM      6  C7  UNL d   1       5.378  -0.171   4.034  0.00  0.00     0.002 A 
ENDROOT
BRANCH   1   7
ATOM      7  C1  UNL d   1       4.124  -1.113   2.057  0.00  0.00     0.055 C 
ATOM      8  C   UNL d   1       3.678  -2.211   3.012  0.00  0.00     0.019 C 
ENDBRANCH   1   7
TORSDOF 1
ENDMDL
