MODEL 1
REMARK minimizedAffinity 3.4403646
REMARK minimizedRMSD -1
REMARK  1 active torsions:
REMARK  status: ('A' for Active; 'I' for Inactive)
REMARK    1  A    between atoms: C1_2  and  C2_3 
ROOT
ATOM      1  C2  UNL d   1       5.268   1.609   4.124  0.00  0.00    -0.077 A 
ATOM      2  C3  UNL d   1       5.637   1.486   5.471  0.00  0.00     0.002 A 
ATOM      3  C4  UNL d   1       5.999   0.243   5.994  0.00  0.00     0.002 A 
ATOM      4  C5  UNL d   1       5.999  -0.885   5.176  0.00  0.00    -0.004 A 
ATOM      5  C6  UNL d   1       5.631  -0.774   3.835  0.00  0.00     0.002 A 
ATOM      6  C7  UNL d   1       5.268   0.468   3.312  0.00  0.00     0.002 A 
ENDROOT
BRANCH   1   7
ATOM      7  C1  UNL d   1       4.925   2.957   3.547  0.00  0.00     0.055 C 
ATOM      8  C   UNL d   1       4.144   2.821   2.248  0.00  0.00     0.019 C 
ENDBRANCH   1   7
TORSDOF 1
ENDMDL
