MODEL 1
REMARK minimizedAffinity 5.99300718
REMARK minimizedRMSD -1
REMARK  1 active torsions:
REMARK  status: ('A' for Active; 'I' for Inactive)
REMARK    1  A    between atoms: C1_2  and  C2_3 
ROOT
ATOM      1  C2  UNL d   1      -1.483   1.955  -0.714  0.00  0.00    -0.077 A 
ATOM      2  C3  UNL d   1      -2.251   0.832  -0.375  0.00  0.00     0.002 A 
ATOM      3  C4  UNL d   1      -3.546   0.987   0.124  0.00  0.00     0.002 A 
ATOM      4  C5  UNL d   1      -4.085   2.262   0.285  0.00  0.00    -0.004 A 
ATOM      5  C6  UNL d   1      -3.328   3.385  -0.047  0.00  0.00     0.002 A 
ATOM      6  C7  UNL d   1      -2.034   3.232  -0.546  0.00  0.00     0.002 A 
ENDROOT
BRANCH   1   7
ATOM      7  C1  UNL d   1      -0.105   1.789  -1.300  0.00  0.00     0.055 C 
ATOM      8  C   UNL d   1      -0.009   0.523  -2.138  0.00  0.00     0.019 C 
ENDBRANCH   1   7
TORSDOF 1
ENDMDL
