MODEL 1
REMARK minimizedAffinity -1.09222257
REMARK minimizedRMSD -1
REMARK  1 active torsions:
REMARK  status: ('A' for Active; 'I' for Inactive)
REMARK    1  A    between atoms: C1_2  and  C2_3 
ROOT
ATOM      1  C2  UNL d   1       4.050   0.019   2.964  0.00  0.00    -0.077 A 
ATOM      2  C3  UNL d   1       5.261   0.721   3.031  0.00  0.00     0.002 A 
ATOM      3  C4  UNL d   1       5.996   0.750   4.218  0.00  0.00     0.002 A 
ATOM      4  C5  UNL d   1       5.530   0.075   5.345  0.00  0.00    -0.004 A 
ATOM      5  C6  UNL d   1       4.325  -0.624   5.289  0.00  0.00     0.002 A 
ATOM      6  C7  UNL d   1       3.589  -0.653   4.104  0.00  0.00     0.002 A 
ENDROOT
BRANCH   1   7
ATOM      7  C1  UNL d   1       3.280  -0.055   1.671  0.00  0.00     0.055 C 
ATOM      8  C   UNL d   1       2.591  -1.402   1.513  0.00  0.00     0.019 C 
ENDBRANCH   1   7
TORSDOF 1
ENDMDL
