MODEL 1
REMARK minimizedAffinity 9.4876461
REMARK minimizedRMSD -1
REMARK  1 active torsions:
REMARK  status: ('A' for Active; 'I' for Inactive)
REMARK    1  A    between atoms: C1_2  and  C2_3 
ROOT
ATOM      1  C2  UNL d   1       5.149   3.547   3.402  0.00  0.00    -0.077 A 
ATOM      2  C3  UNL d   1       5.993   2.763   4.201  0.00  0.00     0.002 A 
ATOM      3  C4  UNL d   1       5.946   1.370   4.124  0.00  0.00     0.002 A 
ATOM      4  C5  UNL d   1       5.060   0.749   3.246  0.00  0.00    -0.004 A 
ATOM      5  C6  UNL d   1       4.215   1.519   2.449  0.00  0.00     0.002 A 
ATOM      6  C7  UNL d   1       4.260   2.912   2.525  0.00  0.00     0.002 A 
ENDROOT
BRANCH   1   7
ATOM      7  C1  UNL d   1       5.233   5.050   3.448  0.00  0.00     0.055 C 
ATOM      8  C   UNL d   1       5.992   5.525   4.679  0.00  0.00     0.019 C 
ENDBRANCH   1   7
TORSDOF 1
ENDMDL
