MODEL 1
REMARK minimizedAffinity 2.32589865
REMARK minimizedRMSD -1
REMARK  1 active torsions:
REMARK  status: ('A' for Active; 'I' for Inactive)
REMARK    1  A    between atoms: C1_2  and  C2_3 
ROOT
ATOM      1  C2  UNL d   1       3.881   0.172   3.659  0.00  0.00    -0.077 A 
ATOM      2  C3  UNL d   1       4.982   0.432   4.488  0.00  0.00     0.002 A 
ATOM      3  C4  UNL d   1       5.651   1.655   4.411  0.00  0.00     0.002 A 
ATOM      4  C5  UNL d   1       5.224   2.629   3.511  0.00  0.00    -0.004 A 
ATOM      5  C6  UNL d   1       4.132   2.379   2.681  0.00  0.00     0.002 A 
ATOM      6  C7  UNL d   1       3.463   1.157   2.755  0.00  0.00     0.002 A 
ENDROOT
BRANCH   1   7
ATOM      7  C1  UNL d   1       3.128  -1.127   3.775  0.00  0.00     0.055 C 
ATOM      8  C   UNL d   1       3.072  -1.855   2.440  0.00  0.00     0.019 C 
ENDBRANCH   1   7
TORSDOF 1
ENDMDL
