MODEL 1
REMARK minimizedAffinity 0.410074383
REMARK minimizedRMSD -1
REMARK  1 active torsions:
REMARK  status: ('A' for Active; 'I' for Inactive)
REMARK    1  A    between atoms: C1_2  and  C2_3 
ROOT
ATOM      1  C2  UNL d   1      -3.428   0.224   2.076  0.00  0.00    -0.077 A 
ATOM      2  C3  UNL d   1      -3.685  -0.209   0.768  0.00  0.00     0.002 A 
ATOM      3  C4  UNL d   1      -3.473   0.648  -0.314  0.00  0.00     0.002 A 
ATOM      4  C5  UNL d   1      -2.999   1.940  -0.099  0.00  0.00    -0.004 A 
ATOM      5  C6  UNL d   1      -2.742   2.381   1.199  0.00  0.00     0.002 A 
ATOM      6  C7  UNL d   1      -2.955   1.527   2.281  0.00  0.00     0.002 A 
ENDROOT
BRANCH   1   7
ATOM      7  C1  UNL d   1      -3.609  -0.714   3.241  0.00  0.00     0.055 C 
ATOM      8  C   UNL d   1      -2.559  -0.473   4.315  0.00  0.00     0.019 C 
ENDBRANCH   1   7
TORSDOF 1
ENDMDL
