MODEL 1
REMARK minimizedAffinity -1.44652283
REMARK minimizedRMSD -1
REMARK  1 active torsions:
REMARK  status: ('A' for Active; 'I' for Inactive)
REMARK    1  A    between atoms: C1_2  and  C2_3 
ROOT
ATOM      1  C2  UNL d   1      -3.599   1.436   0.021  0.00  0.00    -0.077 A 
ATOM      2  C3  UNL d   1      -2.328   1.858  -0.394  0.00  0.00     0.002 A 
ATOM      3  C4  UNL d   1      -1.989   3.212  -0.365  0.00  0.00     0.002 A 
ATOM      4  C5  UNL d   1      -2.913   4.154   0.082  0.00  0.00    -0.004 A 
ATOM      5  C6  UNL d   1      -4.180   3.744   0.495  0.00  0.00     0.002 A 
ATOM      6  C7  UNL d   1      -4.522   2.391   0.466  0.00  0.00     0.002 A 
ENDROOT
BRANCH   1   7
ATOM      7  C1  UNL d   1      -3.950  -0.029   0.037  0.00  0.00     0.055 C 
ATOM      8  C   UNL d   1      -3.296  -0.742   1.211  0.00  0.00     0.019 C 
ENDBRANCH   1   7
TORSDOF 1
ENDMDL
