MODEL 1
REMARK minimizedAffinity 7.19665861
REMARK minimizedRMSD -1
REMARK  0 active torsions:
REMARK  status: ('A' for Active; 'I' for Inactive)
ROOT
ATOM      1  O1  BZF d   1      -1.461  -5.614  -4.160  0.00  0.00    -0.204 OA
ATOM      2  C2  BZF d   1      -2.343  -5.989  -5.155  0.00  0.00     0.174 A 
ATOM      3  C3  BZF d   1      -2.576  -4.964  -6.000  0.00  0.00    -0.012 A 
ATOM      4  C3A BZF d   1      -1.719  -3.908  -5.555  0.00  0.00    -0.107 A 
ATOM      5  C4  BZF d   1      -1.485  -2.638  -6.000  0.00  0.00     0.055 A 
ATOM      6  C5  BZF d   1      -0.641  -1.837  -5.297  0.00  0.00    -0.016 A 
ATOM      7  C6  BZF d   1      -0.019  -2.271  -4.145  0.00  0.00     0.022 A 
ATOM      8  C7  BZF d   1      -0.216  -3.524  -3.668  0.00  0.00     0.029 A 
ATOM      9  C7A BZF d   1      -1.042  -4.347  -4.394  0.00  0.00     0.058 A 
ENDROOT
TORSDOF 0
ENDMDL
