MODEL 1
REMARK minimizedAffinity 7.37844467
REMARK minimizedRMSD -1
REMARK  0 active torsions:
REMARK  status: ('A' for Active; 'I' for Inactive)
ROOT
ATOM      1  O1  BZF d   1       5.820  -3.614  -4.867  0.00  0.00    -0.204 OA
ATOM      2  C2  BZF d   1       4.957  -4.199  -5.772  0.00  0.00     0.174 A 
ATOM      3  C3  BZF d   1       3.674  -3.951  -5.440  0.00  0.00    -0.012 A 
ATOM      4  C3A BZF d   1       3.741  -3.083  -4.304  0.00  0.00    -0.107 A 
ATOM      5  C4  BZF d   1       2.794  -2.476  -3.530  0.00  0.00     0.055 A 
ATOM      6  C5  BZF d   1       3.189  -1.750  -2.451  0.00  0.00    -0.016 A 
ATOM      7  C6  BZF d   1       4.520  -1.615  -2.115  0.00  0.00     0.022 A 
ATOM      8  C7  BZF d   1       5.496  -2.194  -2.857  0.00  0.00     0.029 A 
ATOM      9  C7A BZF d   1       5.102  -2.901  -3.966  0.00  0.00     0.058 A 
ENDROOT
TORSDOF 0
ENDMDL
