MODEL 1
REMARK minimizedAffinity 15.0080376
REMARK minimizedRMSD -1
REMARK  0 active torsions:
REMARK  status: ('A' for Active; 'I' for Inactive)
ROOT
ATOM      1  O1  BZF d   1       1.326  -2.130   5.199  0.00  0.00    -0.204 OA
ATOM      2  C2  BZF d   1       2.444  -2.304   4.406  0.00  0.00     0.174 A 
ATOM      3  C3  BZF d   1       2.519  -1.339   3.467  0.00  0.00    -0.012 A 
ATOM      4  C3A BZF d   1       1.427  -0.457   3.745  0.00  0.00    -0.107 A 
ATOM      5  C4  BZF d   1       0.983   0.698   3.168  0.00  0.00     0.055 A 
ATOM      6  C5  BZF d   1      -0.157   1.274   3.634  0.00  0.00    -0.016 A 
ATOM      7  C6  BZF d   1      -0.878   0.719   4.671  0.00  0.00     0.022 A 
ATOM      8  C7  BZF d   1      -0.475  -0.423   5.278  0.00  0.00     0.029 A 
ATOM      9  C7A BZF d   1       0.694  -0.989   4.831  0.00  0.00     0.058 A 
ENDROOT
TORSDOF 0
ENDMDL
