MODEL 1
REMARK minimizedAffinity 12.9487114
REMARK minimizedRMSD -1
REMARK  0 active torsions:
REMARK  status: ('A' for Active; 'I' for Inactive)
ROOT
ATOM      1  O1  BZF d   1      -0.455   1.422  -0.276  0.00  0.00    -0.204 OA
ATOM      2  C2  BZF d   1       0.159   1.544   0.955  0.00  0.00     0.174 A 
ATOM      3  C3  BZF d   1       0.760   2.745   1.074  0.00  0.00    -0.012 A 
ATOM      4  C3A BZF d   1       0.428   3.452  -0.125  0.00  0.00    -0.107 A 
ATOM      5  C4  BZF d   1       0.720   4.703  -0.588  0.00  0.00     0.055 A 
ATOM      6  C5  BZF d   1       0.304   5.060  -1.832  0.00  0.00    -0.016 A 
ATOM      7  C6  BZF d   1      -0.399   4.191  -2.640  0.00  0.00     0.022 A 
ATOM      8  C7  BZF d   1      -0.716   2.941  -2.222  0.00  0.00     0.029 A 
ATOM      9  C7A BZF d   1      -0.326   2.589  -0.953  0.00  0.00     0.058 A 
ENDROOT
TORSDOF 0
ENDMDL
