MODEL 1
REMARK minimizedAffinity 21.0186214
REMARK minimizedRMSD -1
REMARK  0 active torsions:
REMARK  status: ('A' for Active; 'I' for Inactive)
ROOT
ATOM      1  O1  BZF d   1      -0.422   0.971  -0.376  0.00  0.00    -0.204 OA
ATOM      2  C2  BZF d   1       0.120   1.107   0.887  0.00  0.00     0.174 A 
ATOM      3  C3  BZF d   1       0.476   2.386   1.121  0.00  0.00    -0.012 A 
ATOM      4  C3A BZF d   1       0.050   3.112  -0.037  0.00  0.00    -0.107 A 
ATOM      5  C4  BZF d   1       0.109   4.429  -0.393  0.00  0.00     0.055 A 
ATOM      6  C5  BZF d   1      -0.331   4.801  -1.624  0.00  0.00    -0.016 A 
ATOM      7  C6  BZF d   1      -0.829   3.882  -2.525  0.00  0.00     0.022 A 
ATOM      8  C7  BZF d   1      -0.912   2.566  -2.214  0.00  0.00     0.029 A 
ATOM      9  C7A BZF d   1      -0.500   2.192  -0.959  0.00  0.00     0.058 A 
ENDROOT
TORSDOF 0
ENDMDL
