MODEL 1
REMARK minimizedAffinity 8.15622139
REMARK minimizedRMSD -1
REMARK  0 active torsions:
REMARK  status: ('A' for Active; 'I' for Inactive)
ROOT
ATOM      1  O1  BZF d   1      -0.059   0.317  -4.903  0.00  0.00    -0.204 OA
ATOM      2  C2  BZF d   1      -1.057  -0.146  -5.739  0.00  0.00     0.174 A 
ATOM      3  C3  BZF d   1      -2.262   0.317  -5.347  0.00  0.00    -0.012 A 
ATOM      4  C3A BZF d   1      -1.989   1.195  -4.250  0.00  0.00    -0.107 A 
ATOM      5  C4  BZF d   1      -2.778   1.969  -3.449  0.00  0.00     0.055 A 
ATOM      6  C5  BZF d   1      -2.208   2.651  -2.421  0.00  0.00    -0.016 A 
ATOM      7  C6  BZF d   1      -0.855   2.577  -2.163  0.00  0.00     0.022 A 
ATOM      8  C7  BZF d   1      -0.031   1.827  -2.933  0.00  0.00     0.029 A 
ATOM      9  C7A BZF d   1      -0.599   1.162  -3.993  0.00  0.00     0.058 A 
ENDROOT
TORSDOF 0
ENDMDL
