MODEL 1
REMARK minimizedAffinity 20.3204689
REMARK minimizedRMSD -1
REMARK  0 active torsions:
REMARK  status: ('A' for Active; 'I' for Inactive)
ROOT
ATOM      1  O1  BZF d   1      -4.734  -3.631   4.187  0.00  0.00    -0.204 OA
ATOM      2  C2  BZF d   1      -5.430  -4.158   5.258  0.00  0.00     0.174 A 
ATOM      3  C3  BZF d   1      -5.983  -3.176   5.999  0.00  0.00    -0.012 A 
ATOM      4  C3A BZF d   1      -5.687  -1.964   5.298  0.00  0.00    -0.107 A 
ATOM      5  C4  BZF d   1      -5.982  -0.650   5.528  0.00  0.00     0.055 A 
ATOM      6  C5  BZF d   1      -5.481   0.295   4.691  0.00  0.00    -0.016 A 
ATOM      7  C6  BZF d   1      -4.678  -0.035   3.619  0.00  0.00     0.022 A 
ATOM      8  C7  BZF d   1      -4.361  -1.325   3.348  0.00  0.00     0.029 A 
ATOM      9  C7A BZF d   1      -4.893  -2.286   4.173  0.00  0.00     0.058 A 
ENDROOT
TORSDOF 0
ENDMDL
