MODEL 1
REMARK minimizedAffinity -1.87546587
REMARK minimizedRMSD -1
REMARK  0 active torsions:
REMARK  status: ('A' for Active; 'I' for Inactive)
ROOT
ATOM      1  O1  BZF d   1       1.270   2.818   0.400  0.00  0.00    -0.204 OA
ATOM      2  C2  BZF d   1       0.324   3.467  -0.370  0.00  0.00     0.174 A 
ATOM      3  C3  BZF d   1      -0.922   3.181   0.062  0.00  0.00    -0.012 A 
ATOM      4  C3A BZF d   1      -0.740   2.373   1.228  0.00  0.00    -0.107 A 
ATOM      5  C4  BZF d   1      -1.604   1.790   2.110  0.00  0.00     0.055 A 
ATOM      6  C5  BZF d   1      -1.106   1.004   3.101  0.00  0.00    -0.016 A 
ATOM      7  C6  BZF d   1       0.248   0.775   3.235  0.00  0.00     0.022 A 
ATOM      8  C7  BZF d   1       1.144   1.335   2.386  0.00  0.00     0.029 A 
ATOM      9  C7A BZF d   1       0.647   2.157   1.405  0.00  0.00     0.058 A 
ENDROOT
TORSDOF 0
ENDMDL
