MODEL 1
REMARK minimizedAffinity 2.01732135
REMARK minimizedRMSD -1
REMARK  0 active torsions:
REMARK  status: ('A' for Active; 'I' for Inactive)
ROOT
ATOM      1  O1  BZF d   1      -2.337   4.634  -2.808  0.00  0.00    -0.204 OA
ATOM      2  C2  BZF d   1      -2.214   5.603  -3.786  0.00  0.00     0.174 A 
ATOM      3  C3  BZF d   1      -0.930   5.996  -3.910  0.00  0.00    -0.012 A 
ATOM      4  C3A BZF d   1      -0.192   5.160  -3.015  0.00  0.00    -0.107 A 
ATOM      5  C4  BZF d   1       1.134   5.059  -2.702  0.00  0.00     0.055 A 
ATOM      6  C5  BZF d   1       1.519   4.189  -1.732  0.00  0.00    -0.016 A 
ATOM      7  C6  BZF d   1       0.607   3.409  -1.052  0.00  0.00     0.022 A 
ATOM      8  C7  BZF d   1      -0.718   3.470  -1.331  0.00  0.00     0.029 A 
ATOM      9  C7A BZF d   1      -1.107   4.325  -2.333  0.00  0.00     0.058 A 
ENDROOT
TORSDOF 0
ENDMDL
