MODEL 1
REMARK minimizedAffinity 1.79649293
REMARK minimizedRMSD -1
REMARK  0 active torsions:
REMARK  status: ('A' for Active; 'I' for Inactive)
ROOT
ATOM      1  O1  BZF d   1       0.261  -5.548   1.886  0.00  0.00    -0.204 OA
ATOM      2  C2  BZF d   1       1.558  -5.463   2.352  0.00  0.00     0.174 A 
ATOM      3  C3  BZF d   1       2.440  -5.615   1.343  0.00  0.00    -0.012 A 
ATOM      4  C3A BZF d   1       1.643  -5.714   0.159  0.00  0.00    -0.107 A 
ATOM      5  C4  BZF d   1       1.943  -5.862  -1.165  0.00  0.00     0.055 A 
ATOM      6  C5  BZF d   1       0.930  -6.000  -2.061  0.00  0.00    -0.016 A 
ATOM      7  C6  BZF d   1      -0.392  -6.000  -1.667  0.00  0.00     0.022 A 
ATOM      8  C7  BZF d   1      -0.739  -5.852  -0.365  0.00  0.00     0.029 A 
ATOM      9  C7A BZF d   1       0.281  -5.679   0.538  0.00  0.00     0.058 A 
ENDROOT
TORSDOF 0
ENDMDL
