MODEL 1
REMARK minimizedAffinity 0.550138056
REMARK minimizedRMSD -1
REMARK  0 active torsions:
REMARK  status: ('A' for Active; 'I' for Inactive)
ROOT
ATOM      1  C4' PXY d   1       5.998  -5.670  -5.802  0.00  0.00     0.077 C 
ATOM      2  C1' PXY d   1       0.734  -6.000  -3.435  0.00  0.00     0.077 C 
ATOM      3  C1  PXY d   1       2.110  -5.920  -4.067  0.00  0.00    -0.082 A 
ATOM      4  C2  PXY d   1       3.176  -5.770  -3.296  0.00  0.00     0.003 A 
ATOM      5  C3  PXY d   1       4.424  -5.664  -3.853  0.00  0.00     0.003 A 
ATOM      6  C4  PXY d   1       4.590  -5.765  -5.208  0.00  0.00    -0.082 A 
ATOM      7  C5  PXY d   1       3.509  -5.929  -6.000  0.00  0.00     0.003 A 
ATOM      8  C6  PXY d   1       2.246  -5.993  -5.419  0.00  0.00     0.003 A 
ENDROOT
TORSDOF 0
ENDMDL
