MODEL 1
REMARK minimizedAffinity 1.51933551
REMARK minimizedRMSD -1
REMARK  0 active torsions:
REMARK  status: ('A' for Active; 'I' for Inactive)
ROOT
ATOM      1  C4' PXY d   1       0.549   2.285   0.662  0.00  0.00     0.077 C 
ATOM      2  C1' PXY d   1       5.996   3.949   1.652  0.00  0.00     0.077 C 
ATOM      3  C1  PXY d   1       4.571   3.500   1.393  0.00  0.00    -0.082 A 
ATOM      4  C2  PXY d   1       3.740   4.301   0.747  0.00  0.00     0.003 A 
ATOM      5  C3  PXY d   1       2.439   3.924   0.532  0.00  0.00     0.003 A 
ATOM      6  C4  PXY d   1       1.999   2.692   0.937  0.00  0.00    -0.082 A 
ATOM      7  C5  PXY d   1       2.844   1.865   1.588  0.00  0.00     0.003 A 
ATOM      8  C6  PXY d   1       4.149   2.283   1.832  0.00  0.00     0.003 A 
ENDROOT
TORSDOF 0
ENDMDL
