MODEL 1
REMARK minimizedAffinity 3.96696186
REMARK minimizedRMSD -1
REMARK  0 active torsions:
REMARK  status: ('A' for Active; 'I' for Inactive)
ROOT
ATOM      1  C4' PXY d   1       2.123  -5.991  -5.979  0.00  0.00     0.077 C 
ATOM      2  C1' PXY d   1       5.996  -2.985  -2.916  0.00  0.00     0.077 C 
ATOM      3  C1  PXY d   1       4.976  -3.779  -3.708  0.00  0.00    -0.082 A 
ATOM      4  C2  PXY d   1       5.177  -3.999  -4.997  0.00  0.00     0.003 A 
ATOM      5  C3  PXY d   1       4.249  -4.688  -5.736  0.00  0.00     0.003 A 
ATOM      6  C4  PXY d   1       3.130  -5.202  -5.137  0.00  0.00    -0.082 A 
ATOM      7  C5  PXY d   1       2.923  -4.991  -3.820  0.00  0.00     0.003 A 
ATOM      8  C6  PXY d   1       3.857  -4.254  -3.097  0.00  0.00     0.003 A 
ENDROOT
TORSDOF 0
ENDMDL
