MODEL 1
REMARK minimizedAffinity 14.5694876
REMARK minimizedRMSD -1
REMARK  0 active torsions:
REMARK  status: ('A' for Active; 'I' for Inactive)
ROOT
ATOM      1  C4' PXY d   1       2.186  -5.975  -6.000  0.00  0.00     0.077 C 
ATOM      2  C1' PXY d   1       5.612  -2.209  -3.263  0.00  0.00     0.077 C 
ATOM      3  C1  PXY d   1       4.716  -3.191  -3.992  0.00  0.00    -0.082 A 
ATOM      4  C2  PXY d   1       3.780  -3.843  -3.323  0.00  0.00     0.003 A 
ATOM      5  C3  PXY d   1       2.982  -4.758  -3.960  0.00  0.00     0.003 A 
ATOM      6  C4  PXY d   1       3.107  -4.968  -5.307  0.00  0.00    -0.082 A 
ATOM      7  C5  PXY d   1       4.053  -4.298  -5.999  0.00  0.00     0.003 A 
ATOM      8  C6  PXY d   1       4.880  -3.404  -5.326  0.00  0.00     0.003 A 
ENDROOT
TORSDOF 0
ENDMDL
