MODEL 1
REMARK minimizedAffinity 15.4155045
REMARK minimizedRMSD -1
REMARK  0 active torsions:
REMARK  status: ('A' for Active; 'I' for Inactive)
ROOT
ATOM      1  C4' PXY d   1       2.198   1.762   3.972  0.00  0.00     0.077 C 
ATOM      2  C1' PXY d   1      -0.589   2.494  -1.039  0.00  0.00     0.077 C 
ATOM      3  C1  PXY d   1       0.133   2.310   0.281  0.00  0.00    -0.082 A 
ATOM      4  C2  PXY d   1       1.405   1.944   0.285  0.00  0.00     0.003 A 
ATOM      5  C3  PXY d   1       2.064   1.742   1.470  0.00  0.00     0.003 A 
ATOM      6  C4  PXY d   1       1.432   1.969   2.663  0.00  0.00    -0.082 A 
ATOM      7  C5  PXY d   1       0.138   2.353   2.667  0.00  0.00     0.003 A 
ATOM      8  C6  PXY d   1      -0.526   2.513   1.454  0.00  0.00     0.003 A 
ENDROOT
TORSDOF 0
ENDMDL
