MODEL 1
REMARK minimizedAffinity 12.2692242
REMARK minimizedRMSD -1
REMARK  0 active torsions:
REMARK  status: ('A' for Active; 'I' for Inactive)
ROOT
ATOM      1  C4' PXY d   1      -1.305   2.419   2.206  0.00  0.00     0.077 C 
ATOM      2  C1' PXY d   1       4.281   1.430   1.098  0.00  0.00     0.077 C 
ATOM      3  C1  PXY d   1       2.814   1.693   1.377  0.00  0.00    -0.082 A 
ATOM      4  C2  PXY d   1       2.415   1.921   2.617  0.00  0.00     0.003 A 
ATOM      5  C3  PXY d   1       1.087   2.129   2.891  0.00  0.00     0.003 A 
ATOM      6  C4  PXY d   1       0.167   2.158   1.877  0.00  0.00    -0.082 A 
ATOM      7  C5  PXY d   1       0.569   1.937   0.607  0.00  0.00     0.003 A 
ATOM      8  C6  PXY d   1       1.915   1.686   0.356  0.00  0.00     0.003 A 
ENDROOT
TORSDOF 0
ENDMDL
