MODEL 1
REMARK minimizedAffinity 11.4274607
REMARK minimizedRMSD -1
REMARK  0 active torsions:
REMARK  status: ('A' for Active; 'I' for Inactive)
ROOT
ATOM      1  C4' PXY d   1      -3.051  -5.971  -1.829  0.00  0.00     0.077 C 
ATOM      2  C1' PXY d   1      -1.111  -2.464   2.336  0.00  0.00     0.077 C 
ATOM      3  C1  PXY d   1      -1.618  -3.394   1.251  0.00  0.00    -0.082 A 
ATOM      4  C2  PXY d   1      -1.592  -3.001  -0.012  0.00  0.00     0.003 A 
ATOM      5  C3  PXY d   1      -2.076  -3.816  -1.002  0.00  0.00     0.003 A 
ATOM      6  C4  PXY d   1      -2.541  -5.069  -0.702  0.00  0.00    -0.082 A 
ATOM      7  C5  PXY d   1      -2.561  -5.481   0.583  0.00  0.00     0.003 A 
ATOM      8  C6  PXY d   1      -2.104  -4.622   1.578  0.00  0.00     0.003 A 
ENDROOT
TORSDOF 0
ENDMDL
