MODEL 1
REMARK minimizedAffinity 10.3816023
REMARK minimizedRMSD -1
REMARK  0 active torsions:
REMARK  status: ('A' for Active; 'I' for Inactive)
ROOT
ATOM      1  C4' PXY d   1       3.507  -5.204  -6.000  0.00  0.00     0.077 C 
ATOM      2  C1' PXY d   1       1.810  -5.901  -0.518  0.00  0.00     0.077 C 
ATOM      3  C1  PXY d   1       2.242  -5.720  -1.960  0.00  0.00    -0.082 A 
ATOM      4  C2  PXY d   1       3.488  -5.997  -2.309  0.00  0.00     0.003 A 
ATOM      5  C3  PXY d   1       3.905  -5.808  -3.601  0.00  0.00     0.003 A 
ATOM      6  C4  PXY d   1       3.023  -5.381  -4.558  0.00  0.00    -0.082 A 
ATOM      7  C5  PXY d   1       1.748  -5.106  -4.212  0.00  0.00     0.003 A 
ATOM      8  C6  PXY d   1       1.355  -5.265  -2.886  0.00  0.00     0.003 A 
ENDROOT
TORSDOF 0
ENDMDL
