MODEL 1
REMARK minimizedAffinity 6.20172119
REMARK minimizedRMSD -1
REMARK  0 active torsions:
REMARK  status: ('A' for Active; 'I' for Inactive)
ROOT
ATOM      1  C4' PXY d   1      -1.628   4.016   3.197  0.00  0.00     0.077 C 
ATOM      2  C1' PXY d   1       2.721   1.774   0.118  0.00  0.00     0.077 C 
ATOM      3  C1  PXY d   1       1.574   2.365   0.915  0.00  0.00    -0.082 A 
ATOM      4  C2  PXY d   1       1.784   2.782   2.153  0.00  0.00     0.003 A 
ATOM      5  C3  PXY d   1       0.751   3.289   2.898  0.00  0.00     0.003 A 
ATOM      6  C4  PXY d   1      -0.498   3.421   2.352  0.00  0.00    -0.082 A 
ATOM      7  C5  PXY d   1      -0.717   3.008   1.086  0.00  0.00     0.003 A 
ATOM      8  C6  PXY d   1       0.335   2.458   0.360  0.00  0.00     0.003 A 
ENDROOT
TORSDOF 0
ENDMDL
