MODEL 1
REMARK minimizedAffinity -1.1310991
REMARK minimizedRMSD -1
REMARK  0 active torsions:
REMARK  status: ('A' for Active; 'I' for Inactive)
ROOT
ATOM      1  C4' PXY d   1       5.399   2.620   0.774  0.00  0.00     0.077 C 
ATOM      2  C1' PXY d   1      -0.366   2.535   1.180  0.00  0.00     0.077 C 
ATOM      3  C1  PXY d   1       1.145   2.549   1.064  0.00  0.00    -0.082 A 
ATOM      4  C2  PXY d   1       1.880   2.857   2.120  0.00  0.00     0.003 A 
ATOM      5  C3  PXY d   1       3.247   2.906   2.024  0.00  0.00     0.003 A 
ATOM      6  C4  PXY d   1       3.870   2.584   0.848  0.00  0.00    -0.082 A 
ATOM      7  C5  PXY d   1       3.128   2.258  -0.231  0.00  0.00     0.003 A 
ATOM      8  C6  PXY d   1       1.740   2.254  -0.124  0.00  0.00     0.003 A 
ENDROOT
TORSDOF 0
ENDMDL
