MODEL 1
REMARK minimizedAffinity -2.12136984
REMARK minimizedRMSD -1
REMARK  0 active torsions:
REMARK  status: ('A' for Active; 'I' for Inactive)
ROOT
ATOM      1  C4' PXY d   1       6.000  -5.882  -6.000  0.00  0.00     0.077 C 
ATOM      2  C1' PXY d   1       2.220  -5.173  -1.684  0.00  0.00     0.077 C 
ATOM      3  C1  PXY d   1       3.203  -5.368  -2.822  0.00  0.00    -0.082 A 
ATOM      4  C2  PXY d   1       4.484  -5.097  -2.632  0.00  0.00     0.003 A 
ATOM      5  C3  PXY d   1       5.382  -5.237  -3.659  0.00  0.00     0.003 A 
ATOM      6  C4  PXY d   1       4.973  -5.709  -4.877  0.00  0.00    -0.082 A 
ATOM      7  C5  PXY d   1       3.669  -5.998  -5.075  0.00  0.00     0.003 A 
ATOM      8  C6  PXY d   1       2.767  -5.810  -4.032  0.00  0.00     0.003 A 
ENDROOT
TORSDOF 0
ENDMDL
