MODEL 1
REMARK minimizedAffinity 6.195467
REMARK minimizedRMSD -1
REMARK  0 active torsions:
REMARK  status: ('A' for Active; 'I' for Inactive)
ROOT
ATOM      1  C4' PXY d   1       5.350   2.532  -0.503  0.00  0.00     0.077 C 
ATOM      2  C1' PXY d   1      -0.022   1.246   1.200  0.00  0.00     0.077 C 
ATOM      3  C1  PXY d   1       1.385   1.576   0.742  0.00  0.00    -0.082 A 
ATOM      4  C2  PXY d   1       2.299   1.920   1.635  0.00  0.00     0.003 A 
ATOM      5  C3  PXY d   1       3.568   2.252   1.236  0.00  0.00     0.003 A 
ATOM      6  C4  PXY d   1       3.919   2.181  -0.086  0.00  0.00    -0.082 A 
ATOM      7  C5  PXY d   1       2.995   1.821  -1.002  0.00  0.00     0.003 A 
ATOM      8  C6  PXY d   1       1.702   1.527  -0.580  0.00  0.00     0.003 A 
ENDROOT
TORSDOF 0
ENDMDL
