MODEL 1
REMARK minimizedAffinity 9.57387733
REMARK minimizedRMSD -1
REMARK  0 active torsions:
REMARK  status: ('A' for Active; 'I' for Inactive)
ROOT
ATOM      1  C4' PXY d   1      -6.000   3.441  -6.000  0.00  0.00     0.077 C 
ATOM      2  C1' PXY d   1      -1.130   1.578  -3.505  0.00  0.00     0.077 C 
ATOM      3  C1  PXY d   1      -2.400   2.077  -4.164  0.00  0.00    -0.082 A 
ATOM      4  C2  PXY d   1      -3.576   1.735  -3.662  0.00  0.00     0.003 A 
ATOM      5  C3  PXY d   1      -4.735   2.151  -4.265  0.00  0.00     0.003 A 
ATOM      6  C4  PXY d   1      -4.691   2.969  -5.362  0.00  0.00    -0.082 A 
ATOM      7  C5  PXY d   1      -3.495   3.331  -5.874  0.00  0.00     0.003 A 
ATOM      8  C6  PXY d   1      -2.330   2.865  -5.272  0.00  0.00     0.003 A 
ENDROOT
TORSDOF 0
ENDMDL
