MODEL 1
REMARK minimizedAffinity 5.74100637
REMARK minimizedRMSD -1
REMARK  0 active torsions:
REMARK  status: ('A' for Active; 'I' for Inactive)
ROOT
ATOM      1  C4' PXY d   1       0.514  -5.136   4.867  0.00  0.00     0.077 C 
ATOM      2  C1' PXY d   1      -1.297  -4.638  -0.600  0.00  0.00     0.077 C 
ATOM      3  C1  PXY d   1      -0.832  -4.776   0.836  0.00  0.00    -0.082 A 
ATOM      4  C2  PXY d   1      -0.082  -3.829   1.375  0.00  0.00     0.003 A 
ATOM      5  C3  PXY d   1       0.374  -3.954   2.663  0.00  0.00     0.003 A 
ATOM      6  C4  PXY d   1       0.014  -5.034   3.423  0.00  0.00    -0.082 A 
ATOM      7  C5  PXY d   1      -0.760  -5.999   2.884  0.00  0.00     0.003 A 
ATOM      8  C6  PXY d   1      -1.178  -5.874   1.562  0.00  0.00     0.003 A 
ENDROOT
TORSDOF 0
ENDMDL
