MODEL 1
REMARK minimizedAffinity 10.9762068
REMARK minimizedRMSD -1
REMARK  0 active torsions:
REMARK  status: ('A' for Active; 'I' for Inactive)
ROOT
ATOM      1  C4' PXY d   1      -3.315  -5.991   1.906  0.00  0.00     0.077 C 
ATOM      2  C1' PXY d   1      -1.938  -2.897  -2.778  0.00  0.00     0.077 C 
ATOM      3  C1  PXY d   1      -2.286  -3.709  -1.547  0.00  0.00    -0.082 A 
ATOM      4  C2  PXY d   1      -3.431  -4.372  -1.503  0.00  0.00     0.003 A 
ATOM      5  C3  PXY d   1      -3.776  -5.085  -0.384  0.00  0.00     0.003 A 
ATOM      6  C4  PXY d   1      -2.918  -5.165   0.680  0.00  0.00    -0.082 A 
ATOM      7  C5  PXY d   1      -1.743  -4.501   0.638  0.00  0.00     0.003 A 
ATOM      8  C6  PXY d   1      -1.430  -3.748  -0.490  0.00  0.00     0.003 A 
ENDROOT
TORSDOF 0
ENDMDL
