MODEL 1
REMARK minimizedAffinity 10.9163523
REMARK minimizedRMSD -1
REMARK  0 active torsions:
REMARK  status: ('A' for Active; 'I' for Inactive)
ROOT
ATOM      1  C4' PXY d   1      -5.842   2.130   0.975  0.00  0.00     0.077 C 
ATOM      2  C1' PXY d   1      -0.508   3.397  -0.860  0.00  0.00     0.077 C 
ATOM      3  C1  PXY d   1      -1.912   3.070  -0.389  0.00  0.00    -0.082 A 
ATOM      4  C2  PXY d   1      -2.149   2.912   0.903  0.00  0.00     0.003 A 
ATOM      5  C3  PXY d   1      -3.405   2.585   1.343  0.00  0.00     0.003 A 
ATOM      6  C4  PXY d   1      -4.442   2.470   0.456  0.00  0.00    -0.082 A 
ATOM      7  C5  PXY d   1      -4.211   2.640  -0.863  0.00  0.00     0.003 A 
ATOM      8  C6  PXY d   1      -2.920   2.932  -1.293  0.00  0.00     0.003 A 
ENDROOT
TORSDOF 0
ENDMDL
