MODEL 1
REMARK minimizedAffinity 5.17740154
REMARK minimizedRMSD -1
REMARK  0 active torsions:
REMARK  status: ('A' for Active; 'I' for Inactive)
ROOT
ATOM      1  C4' PXY d   1       2.786   2.233   1.720  0.00  0.00     0.077 C 
ATOM      2  C1' PXY d   1       1.870  -0.744  -3.149  0.00  0.00     0.077 C 
ATOM      3  C1  PXY d   1       2.114   0.047  -1.879  0.00  0.00    -0.082 A 
ATOM      4  C2  PXY d   1       2.349  -0.593  -0.745  0.00  0.00     0.003 A 
ATOM      5  C3  PXY d   1       2.540   0.107   0.419  0.00  0.00     0.003 A 
ATOM      6  C4  PXY d   1       2.544   1.476   0.412  0.00  0.00    -0.082 A 
ATOM      7  C5  PXY d   1       2.315   2.136  -0.743  0.00  0.00     0.003 A 
ATOM      8  C6  PXY d   1       2.083   1.407  -1.906  0.00  0.00     0.003 A 
ENDROOT
TORSDOF 0
ENDMDL
