MODEL 1
REMARK minimizedAffinity 9.89034653
REMARK minimizedRMSD -1
REMARK  0 active torsions:
REMARK  status: ('A' for Active; 'I' for Inactive)
ROOT
ATOM      1  C4' PXY d   1      -1.294   3.356  -0.403  0.00  0.00     0.077 C 
ATOM      2  C1' PXY d   1       3.819   1.781   1.787  0.00  0.00     0.077 C 
ATOM      3  C1  PXY d   1       2.483   2.205   1.209  0.00  0.00    -0.082 A 
ATOM      4  C2  PXY d   1       1.367   1.678   1.685  0.00  0.00     0.003 A 
ATOM      5  C3  PXY d   1       0.153   2.027   1.152  0.00  0.00     0.003 A 
ATOM      6  C4  PXY d   1       0.077   2.964   0.157  0.00  0.00    -0.082 A 
ATOM      7  C5  PXY d   1       1.210   3.514  -0.327  0.00  0.00     0.003 A 
ATOM      8  C6  PXY d   1       2.436   3.116   0.199  0.00  0.00     0.003 A 
ENDROOT
TORSDOF 0
ENDMDL
