MODEL 1
REMARK minimizedAffinity 4.03074026
REMARK minimizedRMSD -1
REMARK  0 active torsions:
REMARK  status: ('A' for Active; 'I' for Inactive)
ROOT
ATOM      1  C4' PXY d   1       1.846   2.873   0.464  0.00  0.00     0.077 C 
ATOM      2  C1' PXY d   1       2.076  -2.243  -2.217  0.00  0.00     0.077 C 
ATOM      3  C1  PXY d   1       2.015  -0.908  -1.502  0.00  0.00    -0.082 A 
ATOM      4  C2  PXY d   1       1.575   0.160  -2.148  0.00  0.00     0.003 A 
ATOM      5  C3  PXY d   1       1.543   1.382  -1.527  0.00  0.00     0.003 A 
ATOM      6  C4  PXY d   1       1.916   1.502  -0.215  0.00  0.00    -0.082 A 
ATOM      7  C5  PXY d   1       2.356   0.416   0.454  0.00  0.00     0.003 A 
ATOM      8  C6  PXY d   1       2.420  -0.808  -0.207  0.00  0.00     0.003 A 
ENDROOT
TORSDOF 0
ENDMDL
