MODEL 1
REMARK minimizedAffinity 3.24442267
REMARK minimizedRMSD -1
REMARK  0 active torsions:
REMARK  status: ('A' for Active; 'I' for Inactive)
ROOT
ATOM      1  C2' OXE d   1      -5.996  -0.194  -4.120  0.00  0.00     0.078 C 
ATOM      2  C1' OXE d   1      -4.018  -1.215  -2.409  0.00  0.00     0.078 C 
ATOM      3  C1  OXE d   1      -3.605  -0.176  -3.421  0.00  0.00    -0.078 A 
ATOM      4  C2  OXE d   1      -4.569   0.284  -4.285  0.00  0.00    -0.078 A 
ATOM      5  C3  OXE d   1      -4.254   1.283  -5.202  0.00  0.00     0.003 A 
ATOM      6  C4  OXE d   1      -2.930   1.712  -5.355  0.00  0.00    -0.002 A 
ATOM      7  C5  OXE d   1      -1.924   1.228  -4.512  0.00  0.00    -0.002 A 
ATOM      8  C6  OXE d   1      -2.252   0.317  -3.514  0.00  0.00     0.003 A 
ENDROOT
TORSDOF 0
ENDMDL
