MODEL 1
REMARK minimizedAffinity 7.83467722
REMARK minimizedRMSD -1
REMARK  0 active torsions:
REMARK  status: ('A' for Active; 'I' for Inactive)
ROOT
ATOM      1  C2' OXE d   1       3.016  -2.350   0.122  0.00  0.00     0.078 C 
ATOM      2  C1' OXE d   1       1.740   0.003  -0.723  0.00  0.00     0.078 C 
ATOM      3  C1  OXE d   1       3.238   0.036  -0.556  0.00  0.00    -0.078 A 
ATOM      4  C2  OXE d   1       3.849  -1.106  -0.097  0.00  0.00    -0.078 A 
ATOM      5  C3  OXE d   1       5.235  -1.146   0.023  0.00  0.00     0.003 A 
ATOM      6  C4  OXE d   1       5.997   0.012  -0.172  0.00  0.00    -0.002 A 
ATOM      7  C5  OXE d   1       5.391   1.197  -0.601  0.00  0.00    -0.002 A 
ATOM      8  C6  OXE d   1       4.021   1.214  -0.838  0.00  0.00     0.003 A 
ENDROOT
TORSDOF 0
ENDMDL
