MODEL 1
REMARK minimizedAffinity 13.1635218
REMARK minimizedRMSD -1
REMARK  0 active torsions:
REMARK  status: ('A' for Active; 'I' for Inactive)
ROOT
ATOM      1  C2' OXE d   1      -5.285  -0.455  -4.934  0.00  0.00     0.078 C 
ATOM      2  C1' OXE d   1      -3.216   1.172  -5.910  0.00  0.00     0.078 C 
ATOM      3  C1  OXE d   1      -4.126   1.749  -4.854  0.00  0.00    -0.078 A 
ATOM      4  C2  OXE d   1      -5.164   0.962  -4.416  0.00  0.00    -0.078 A 
ATOM      5  C3  OXE d   1      -5.999   1.425  -3.403  0.00  0.00     0.003 A 
ATOM      6  C4  OXE d   1      -5.887   2.740  -2.936  0.00  0.00    -0.002 A 
ATOM      7  C5  OXE d   1      -4.861   3.572  -3.398  0.00  0.00    -0.002 A 
ATOM      8  C6  OXE d   1      -3.948   3.078  -4.323  0.00  0.00     0.003 A 
ENDROOT
TORSDOF 0
ENDMDL
