MODEL 1
REMARK minimizedAffinity 7.52290964
REMARK minimizedRMSD -1
REMARK  0 active torsions:
REMARK  status: ('A' for Active; 'I' for Inactive)
ROOT
ATOM      1  C2' OXE d   1       3.318  -2.426   1.141  0.00  0.00     0.078 C 
ATOM      2  C1' OXE d   1       5.784  -1.195   1.673  0.00  0.00     0.078 C 
ATOM      3  C1  OXE d   1       4.927  -0.609   0.579  0.00  0.00    -0.078 A 
ATOM      4  C2  OXE d   1       3.743  -1.246   0.294  0.00  0.00    -0.078 A 
ATOM      5  C3  OXE d   1       2.890  -0.716  -0.669  0.00  0.00     0.003 A 
ATOM      6  C4  OXE d   1       3.295   0.370  -1.455  0.00  0.00    -0.002 A 
ATOM      7  C5  OXE d   1       4.514   1.010  -1.208  0.00  0.00    -0.002 A 
ATOM      8  C6  OXE d   1       5.321   0.560  -0.169  0.00  0.00     0.003 A 
ENDROOT
TORSDOF 0
ENDMDL
