MODEL 1
REMARK minimizedAffinity 9.31357861
REMARK minimizedRMSD -1
REMARK  0 active torsions:
REMARK  status: ('A' for Active; 'I' for Inactive)
ROOT
ATOM      1  C2' OXE d   1       2.504   0.451   1.935  0.00  0.00     0.078 C 
ATOM      2  C1' OXE d   1       4.811   2.016   2.269  0.00  0.00     0.078 C 
ATOM      3  C1  OXE d   1       4.484   1.533   0.878  0.00  0.00    -0.078 A 
ATOM      4  C2  OXE d   1       3.379   0.729   0.731  0.00  0.00    -0.078 A 
ATOM      5  C3  OXE d   1       3.001   0.302  -0.538  0.00  0.00     0.003 A 
ATOM      6  C4  OXE d   1       3.822   0.555  -1.645  0.00  0.00    -0.002 A 
ATOM      7  C5  OXE d   1       4.973   1.338  -1.510  0.00  0.00    -0.002 A 
ATOM      8  C6  OXE d   1       5.294   1.870  -0.266  0.00  0.00     0.003 A 
ENDROOT
TORSDOF 0
ENDMDL
