MODEL 1
REMARK minimizedAffinity 5.76931
REMARK minimizedRMSD -1
REMARK  0 active torsions:
REMARK  status: ('A' for Active; 'I' for Inactive)
ROOT
ATOM      1  C2' OXE d   1       3.428  -2.230   0.067  0.00  0.00     0.078 C 
ATOM      2  C1' OXE d   1       6.000  -1.694   1.057  0.00  0.00     0.078 C 
ATOM      3  C1  OXE d   1       5.354  -0.654   0.175  0.00  0.00    -0.078 A 
ATOM      4  C2  OXE d   1       4.115  -0.945  -0.343  0.00  0.00    -0.078 A 
ATOM      5  C3  OXE d   1       3.452   0.002  -1.118  0.00  0.00     0.003 A 
ATOM      6  C4  OXE d   1       4.099   1.183  -1.501  0.00  0.00    -0.002 A 
ATOM      7  C5  OXE d   1       5.377   1.482  -1.017  0.00  0.00    -0.002 A 
ATOM      8  C6  OXE d   1       6.000   0.595  -0.146  0.00  0.00     0.003 A 
ENDROOT
TORSDOF 0
ENDMDL
