MODEL 1
REMARK minimizedAffinity 6.33598518
REMARK minimizedRMSD -1
REMARK  0 active torsions:
REMARK  status: ('A' for Active; 'I' for Inactive)
ROOT
ATOM      1  C2' OXE d   1       3.063  -1.662  -1.508  0.00  0.00     0.078 C 
ATOM      2  C1' OXE d   1       1.921   0.413  -0.002  0.00  0.00     0.078 C 
ATOM      3  C1  OXE d   1       3.351   0.577  -0.455  0.00  0.00    -0.078 A 
ATOM      4  C2  OXE d   1       3.916  -0.464  -1.152  0.00  0.00    -0.078 A 
ATOM      5  C3  OXE d   1       5.214  -0.342  -1.640  0.00  0.00     0.003 A 
ATOM      6  C4  OXE d   1       5.999   0.765  -1.298  0.00  0.00    -0.002 A 
ATOM      7  C5  OXE d   1       5.455   1.819  -0.556  0.00  0.00    -0.002 A 
ATOM      8  C6  OXE d   1       4.122   1.760  -0.164  0.00  0.00     0.003 A 
ENDROOT
TORSDOF 0
ENDMDL
