MODEL 1
REMARK minimizedAffinity 12.6031199
REMARK minimizedRMSD -1
REMARK  0 active torsions:
REMARK  status: ('A' for Active; 'I' for Inactive)
ROOT
ATOM      1  C2' OXE d   1      -0.065   0.707  -1.863  0.00  0.00     0.078 C 
ATOM      2  C1' OXE d   1       2.455  -0.005  -0.852  0.00  0.00     0.078 C 
ATOM      3  C1  OXE d   1       1.409   0.462   0.129  0.00  0.00    -0.078 A 
ATOM      4  C2  OXE d   1       0.194   0.852  -0.379  0.00  0.00    -0.078 A 
ATOM      5  C3  OXE d   1      -0.824   1.240   0.487  0.00  0.00     0.003 A 
ATOM      6  C4  OXE d   1      -0.572   1.381   1.858  0.00  0.00    -0.002 A 
ATOM      7  C5  OXE d   1       0.671   1.026   2.392  0.00  0.00    -0.002 A 
ATOM      8  C6  OXE d   1       1.657   0.525   1.549  0.00  0.00     0.003 A 
ENDROOT
TORSDOF 0
ENDMDL
