MODEL 1
REMARK minimizedAffinity 2.62874413
REMARK minimizedRMSD -1
REMARK  0 active torsions:
REMARK  status: ('A' for Active; 'I' for Inactive)
ROOT
ATOM      1  C2' OXE d   1       2.672  -0.666  -0.430  0.00  0.00     0.078 C 
ATOM      2  C1' OXE d   1       2.924  -3.036   1.053  0.00  0.00     0.078 C 
ATOM      3  C1  OXE d   1       1.811  -2.956   0.039  0.00  0.00    -0.078 A 
ATOM      4  C2  OXE d   1       1.666  -1.776  -0.649  0.00  0.00    -0.078 A 
ATOM      5  C3  OXE d   1       0.689  -1.668  -1.635  0.00  0.00     0.003 A 
ATOM      6  C4  OXE d   1      -0.243  -2.695  -1.825  0.00  0.00    -0.002 A 
ATOM      7  C5  OXE d   1      -0.138  -3.891  -1.107  0.00  0.00    -0.002 A 
ATOM      8  C6  OXE d   1       0.907  -4.054  -0.203  0.00  0.00     0.003 A 
ENDROOT
TORSDOF 0
ENDMDL
