MODEL 1
REMARK minimizedAffinity 13.0855522
REMARK minimizedRMSD -1
REMARK  0 active torsions:
REMARK  status: ('A' for Active; 'I' for Inactive)
ROOT
ATOM      1  C2' OXE d   1       0.439   1.364   0.753  0.00  0.00     0.078 C 
ATOM      2  C1' OXE d   1      -0.234   4.016   1.379  0.00  0.00     0.078 C 
ATOM      3  C1  OXE d   1      -1.319   2.973   1.476  0.00  0.00    -0.078 A 
ATOM      4  C2  OXE d   1      -0.992   1.686   1.123  0.00  0.00    -0.078 A 
ATOM      5  C3  OXE d   1      -1.941   0.675   1.247  0.00  0.00     0.003 A 
ATOM      6  C4  OXE d   1      -3.266   0.983   1.580  0.00  0.00    -0.002 A 
ATOM      7  C5  OXE d   1      -3.629   2.295   1.905  0.00  0.00    -0.002 A 
ATOM      8  C6  OXE d   1      -2.660   3.292   1.900  0.00  0.00     0.003 A 
ENDROOT
TORSDOF 0
ENDMDL
