MODEL 1
REMARK minimizedAffinity 11.6395988
REMARK minimizedRMSD -1
REMARK  1 active torsions:
REMARK  status: ('A' for Active; 'I' for Inactive)
REMARK    1  A    between atoms: C1_2  and  C2_3 
ROOT
ATOM      1  C2  UNL d   1      -0.867   1.001  -0.586  0.00  0.00    -0.073 A 
ATOM      2  C3  UNL d   1      -1.929   0.132  -0.860  0.00  0.00    -0.002 A 
ATOM      3  C4  UNL d   1      -1.687  -1.120  -1.426  0.00  0.00     0.004 A 
ATOM      4  C5  UNL d   1      -0.382  -1.519  -1.716  0.00  0.00    -0.004 A 
ATOM      5  C6  UNL d   1       0.694  -0.670  -1.438  0.00  0.00    -0.075 A 
ATOM      6  C7  UNL d   1       2.103  -1.083  -1.746  0.00  0.00     0.076 C 
ATOM      7  C8  UNL d   1       0.442   0.587  -0.872  0.00  0.00     0.001 A 
ENDROOT
BRANCH   1   8
ATOM      8  C1  UNL d   1      -1.123   2.352   0.031  0.00  0.00     0.053 C 
ATOM      9  C   UNL d   1      -0.975   3.478  -0.980  0.00  0.00     0.018 C 
ENDBRANCH   1   8
TORSDOF 1
ENDMDL
