MODEL 1
REMARK minimizedAffinity -3.46013713
REMARK minimizedRMSD -1
REMARK  1 active torsions:
REMARK  status: ('A' for Active; 'I' for Inactive)
REMARK    1  A    between atoms: C1_2  and  C2_3 
ROOT
ATOM      1  C2  UNL d   1       2.209  -3.031  -1.026  0.00  0.00    -0.073 A 
ATOM      2  C3  UNL d   1       3.477  -2.586  -1.415  0.00  0.00    -0.002 A 
ATOM      3  C4  UNL d   1       3.634  -1.839  -2.584  0.00  0.00     0.004 A 
ATOM      4  C5  UNL d   1       2.526  -1.524  -3.370  0.00  0.00    -0.004 A 
ATOM      5  C6  UNL d   1       1.249  -1.950  -2.991  0.00  0.00    -0.075 A 
ATOM      6  C7  UNL d   1       0.047  -1.622  -3.827  0.00  0.00     0.076 C 
ATOM      7  C8  UNL d   1       1.100  -2.701  -1.818  0.00  0.00     0.001 A 
ENDROOT
BRANCH   1   8
ATOM      8  C1  UNL d   1       2.033  -3.831   0.239  0.00  0.00     0.053 C 
ATOM      9  C   UNL d   1       2.333  -5.307   0.025  0.00  0.00     0.018 C 
ENDBRANCH   1   8
TORSDOF 1
ENDMDL
