MODEL 1
REMARK minimizedAffinity 8.60764408
REMARK minimizedRMSD -1
REMARK  1 active torsions:
REMARK  status: ('A' for Active; 'I' for Inactive)
REMARK    1  A    between atoms: C1_2  and  C2_3 
ROOT
ATOM      1  C2  UNL d   1       0.143   1.928   0.605  0.00  0.00    -0.073 A 
ATOM      2  C3  UNL d   1       0.922   2.959   1.143  0.00  0.00    -0.002 A 
ATOM      3  C4  UNL d   1       1.512   2.815   2.399  0.00  0.00     0.004 A 
ATOM      4  C5  UNL d   1       1.335   1.639   3.128  0.00  0.00    -0.004 A 
ATOM      5  C6  UNL d   1       0.569   0.593   2.602  0.00  0.00    -0.075 A 
ATOM      6  C7  UNL d   1       0.367  -0.678   3.374  0.00  0.00     0.076 C 
ATOM      7  C8  UNL d   1      -0.022   0.746   1.341  0.00  0.00     0.001 A 
ENDROOT
BRANCH   1   8
ATOM      8  C1  UNL d   1      -0.490   2.076  -0.754  0.00  0.00     0.053 C 
ATOM      9  C   UNL d   1      -0.366   3.494  -1.289  0.00  0.00     0.018 C 
ENDBRANCH   1   8
TORSDOF 1
ENDMDL
