MODEL 1
REMARK minimizedAffinity 4.45976973
REMARK minimizedRMSD -1
REMARK  1 active torsions:
REMARK  status: ('A' for Active; 'I' for Inactive)
REMARK    1  A    between atoms: C1_2  and  C2_3 
ROOT
ATOM      1  C2  UNL d   1       4.498  -5.001  -2.248  0.00  0.00    -0.073 A 
ATOM      2  C3  UNL d   1       4.876  -5.385  -3.540  0.00  0.00    -0.002 A 
ATOM      3  C4  UNL d   1       4.877  -4.454  -4.580  0.00  0.00     0.004 A 
ATOM      4  C5  UNL d   1       4.506  -3.131  -4.339  0.00  0.00    -0.004 A 
ATOM      5  C6  UNL d   1       4.137  -2.726  -3.053  0.00  0.00    -0.075 A 
ATOM      6  C7  UNL d   1       3.733  -1.307  -2.777  0.00  0.00     0.076 C 
ATOM      7  C8  UNL d   1       4.136  -3.666  -2.014  0.00  0.00     0.001 A 
ENDROOT
BRANCH   1   8
ATOM      8  C1  UNL d   1       4.502  -6.000  -1.120  0.00  0.00     0.053 C 
ATOM      9  C   UNL d   1       5.820  -5.999  -0.363  0.00  0.00     0.018 C 
ENDBRANCH   1   8
TORSDOF 1
ENDMDL
