MODEL 1
REMARK minimizedAffinity 3.19948864
REMARK minimizedRMSD -1
REMARK  1 active torsions:
REMARK  status: ('A' for Active; 'I' for Inactive)
REMARK    1  A    between atoms: C1_2  and  C2_3 
ROOT
ATOM      1  C2  UNL d   1       4.357  -1.973  -2.934  0.00  0.00    -0.073 A 
ATOM      2  C3  UNL d   1       5.689  -2.095  -2.523  0.00  0.00    -0.002 A 
ATOM      3  C4  UNL d   1       5.999  -2.698  -1.303  0.00  0.00     0.004 A 
ATOM      4  C5  UNL d   1       4.981  -3.191  -0.486  0.00  0.00    -0.004 A 
ATOM      5  C6  UNL d   1       3.645  -3.089  -0.884  0.00  0.00    -0.075 A 
ATOM      6  C7  UNL d   1       2.539  -3.612  -0.015  0.00  0.00     0.076 C 
ATOM      7  C8  UNL d   1       3.342  -2.479  -2.109  0.00  0.00     0.001 A 
ENDROOT
BRANCH   1   8
ATOM      8  C1  UNL d   1       4.019  -1.328  -4.253  0.00  0.00     0.053 C 
ATOM      9  C   UNL d   1       5.246  -0.741  -4.932  0.00  0.00     0.018 C 
ENDBRANCH   1   8
TORSDOF 1
ENDMDL
