MODEL 1
REMARK minimizedAffinity 9.68054771
REMARK minimizedRMSD -1
REMARK  1 active torsions:
REMARK  status: ('A' for Active; 'I' for Inactive)
REMARK    1  A    between atoms: C1_2  and  C2_3 
ROOT
ATOM      1  C2  UNL d   1       3.111  -4.173  -1.834  0.00  0.00    -0.073 A 
ATOM      2  C3  UNL d   1       3.510  -3.494  -0.677  0.00  0.00    -0.002 A 
ATOM      3  C4  UNL d   1       4.191  -2.280  -0.772  0.00  0.00     0.004 A 
ATOM      4  C5  UNL d   1       4.473  -1.728  -2.021  0.00  0.00    -0.004 A 
ATOM      5  C6  UNL d   1       4.071  -2.386  -3.189  0.00  0.00    -0.075 A 
ATOM      6  C7  UNL d   1       4.368  -1.807  -4.541  0.00  0.00     0.076 C 
ATOM      7  C8  UNL d   1       3.390  -3.606  -3.086  0.00  0.00     0.001 A 
ENDROOT
BRANCH   1   8
ATOM      8  C1  UNL d   1       2.370  -5.481  -1.736  0.00  0.00     0.053 C 
ATOM      9  C   UNL d   1       1.249  -5.427  -0.711  0.00  0.00     0.018 C 
ENDBRANCH   1   8
TORSDOF 1
ENDMDL
