MODEL 1
REMARK minimizedAffinity -1.18194389
REMARK minimizedRMSD -1
REMARK  2 active torsions:
REMARK  status: ('A' for Active; 'I' for Inactive)
REMARK    1  A    between atoms: C1_2  and  C2_3 
REMARK    2  A    between atoms: C2_3  and  C3_4 
ROOT
ATOM      1  C3  UNL d   1       5.351  -0.224   1.629  0.00  0.00    -0.075 A 
ATOM      2  C4  UNL d   1       4.132  -0.278   0.938  0.00  0.00     0.002 A 
ATOM      3  C5  UNL d   1       3.573   0.880   0.396  0.00  0.00     0.002 A 
ATOM      4  C6  UNL d   1       4.219   2.105   0.547  0.00  0.00    -0.004 A 
ATOM      5  C7  UNL d   1       5.422   2.173   1.246  0.00  0.00     0.002 A 
ATOM      6  C8  UNL d   1       5.986   1.015   1.785  0.00  0.00     0.002 A 
ENDROOT
BRANCH   1   7
ATOM      7  C2  UNL d   1       5.976  -1.478   2.192  0.00  0.00     0.056 C 
BRANCH   7   8
ATOM      8  C1  UNL d   1       5.953  -1.553   3.723  0.00  0.00     0.007 C 
ATOM      9  C   UNL d   1       4.579  -1.274   4.317  0.00  0.00     0.009 C 
ENDBRANCH   7   8
ENDBRANCH   1   7
TORSDOF 2
ENDMDL
