MODEL 1
REMARK minimizedAffinity -3.29911327
REMARK minimizedRMSD -1
REMARK  2 active torsions:
REMARK  status: ('A' for Active; 'I' for Inactive)
REMARK    1  A    between atoms: C1_2  and  C2_3 
REMARK    2  A    between atoms: C2_3  and  C3_4 
ROOT
ATOM      1  C3  UNL d   1      -3.398   2.249   3.879  0.00  0.00    -0.075 A 
ATOM      2  C4  UNL d   1      -3.786   2.986   5.008  0.00  0.00     0.002 A 
ATOM      3  C5  UNL d   1      -5.078   2.868   5.521  0.00  0.00     0.002 A 
ATOM      4  C6  UNL d   1      -6.000   2.022   4.908  0.00  0.00    -0.004 A 
ATOM      5  C7  UNL d   1      -5.630   1.298   3.776  0.00  0.00     0.002 A 
ATOM      6  C8  UNL d   1      -4.337   1.410   3.264  0.00  0.00     0.002 A 
ENDROOT
BRANCH   1   7
ATOM      7  C2  UNL d   1      -1.992   2.349   3.337  0.00  0.00     0.056 C 
BRANCH   7   8
ATOM      8  C1  UNL d   1      -1.562   1.145   2.492  0.00  0.00     0.007 C 
ATOM      9  C   UNL d   1      -0.056   0.916   2.496  0.00  0.00     0.009 C 
ENDBRANCH   7   8
ENDBRANCH   1   7
TORSDOF 2
ENDMDL
