MODEL 1
REMARK minimizedAffinity 1.45621967
REMARK minimizedRMSD -1
REMARK  2 active torsions:
REMARK  status: ('A' for Active; 'I' for Inactive)
REMARK    1  A    between atoms: C1_2  and  C2_3 
REMARK    2  A    between atoms: C2_3  and  C3_4 
ROOT
ATOM      1  C3  UNL d   1      -3.719   1.823   4.050  0.00  0.00    -0.075 A 
ATOM      2  C4  UNL d   1      -2.764   2.739   3.587  0.00  0.00     0.002 A 
ATOM      3  C5  UNL d   1      -1.686   2.308   2.812  0.00  0.00     0.002 A 
ATOM      4  C6  UNL d   1      -1.545   0.958   2.500  0.00  0.00    -0.004 A 
ATOM      5  C7  UNL d   1      -2.479   0.037   2.969  0.00  0.00     0.002 A 
ATOM      6  C8  UNL d   1      -3.560   0.466   3.740  0.00  0.00     0.002 A 
ENDROOT
BRANCH   1   7
ATOM      7  C2  UNL d   1      -4.903   2.287   4.864  0.00  0.00     0.056 C 
BRANCH   7   8
ATOM      8  C1  UNL d   1      -4.557   3.336   5.926  0.00  0.00     0.007 C 
ATOM      9  C   UNL d   1      -5.495   4.536   5.913  0.00  0.00     0.009 C 
ENDBRANCH   7   8
ENDBRANCH   1   7
TORSDOF 2
ENDMDL
