MODEL 1
REMARK minimizedAffinity 3.66628671
REMARK minimizedRMSD -1
REMARK  2 active torsions:
REMARK  status: ('A' for Active; 'I' for Inactive)
REMARK    1  A    between atoms: C1_2  and  C2_3 
REMARK    2  A    between atoms: C2_3  and  C3_4 
ROOT
ATOM      1  C3  UNL d   1      -3.863   1.296   4.319  0.00  0.00    -0.075 A 
ATOM      2  C4  UNL d   1      -3.744  -0.016   3.838  0.00  0.00     0.002 A 
ATOM      3  C5  UNL d   1      -2.685  -0.370   3.002  0.00  0.00     0.002 A 
ATOM      4  C6  UNL d   1      -1.739   0.583   2.628  0.00  0.00    -0.004 A 
ATOM      5  C7  UNL d   1      -1.857   1.893   3.087  0.00  0.00     0.002 A 
ATOM      6  C8  UNL d   1      -2.914   2.249   3.927  0.00  0.00     0.002 A 
ENDROOT
BRANCH   1   7
ATOM      7  C2  UNL d   1      -4.991   1.679   5.248  0.00  0.00     0.056 C 
BRANCH   7   8
ATOM      8  C1  UNL d   1      -4.760   2.994   6.000  0.00  0.00     0.007 C 
ATOM      9  C   UNL d   1      -5.977   3.909   5.997  0.00  0.00     0.009 C 
ENDBRANCH   7   8
ENDBRANCH   1   7
TORSDOF 2
ENDMDL
