MODEL 1
REMARK minimizedAffinity 4.84216881
REMARK minimizedRMSD -1
REMARK  2 active torsions:
REMARK  status: ('A' for Active; 'I' for Inactive)
REMARK    1  A    between atoms: C1_2  and  C2_3 
REMARK    2  A    between atoms: C2_3  and  C3_4 
ROOT
ATOM      1  C3  UNL d   1       3.039  -1.294  -1.979  0.00  0.00    -0.075 A 
ATOM      2  C4  UNL d   1       2.932  -0.767  -0.684  0.00  0.00     0.002 A 
ATOM      3  C5  UNL d   1       2.883   0.612  -0.482  0.00  0.00     0.002 A 
ATOM      4  C6  UNL d   1       2.950   1.481  -1.569  0.00  0.00    -0.004 A 
ATOM      5  C7  UNL d   1       3.074   0.969  -2.859  0.00  0.00     0.002 A 
ATOM      6  C8  UNL d   1       3.119  -0.411  -3.064  0.00  0.00     0.002 A 
ENDROOT
BRANCH   1   7
ATOM      7  C2  UNL d   1       3.063  -2.787  -2.207  0.00  0.00     0.056 C 
BRANCH   7   8
ATOM      8  C1  UNL d   1       1.692  -3.391  -2.527  0.00  0.00     0.007 C 
ATOM      9  C   UNL d   1       1.529  -3.765  -3.994  0.00  0.00     0.009 C 
ENDBRANCH   7   8
ENDBRANCH   1   7
TORSDOF 2
ENDMDL
