MODEL 1
REMARK minimizedAffinity 2.62669873
REMARK minimizedRMSD -1
REMARK  2 active torsions:
REMARK  status: ('A' for Active; 'I' for Inactive)
REMARK    1  A    between atoms: C1_2  and  C2_3 
REMARK    2  A    between atoms: C2_3  and  C3_4 
ROOT
ATOM      1  C3  UNL d   1      -3.768   1.510   4.121  0.00  0.00    -0.075 A 
ATOM      2  C4  UNL d   1      -2.957   2.580   3.716  0.00  0.00     0.002 A 
ATOM      3  C5  UNL d   1      -1.932   2.383   2.792  0.00  0.00     0.002 A 
ATOM      4  C6  UNL d   1      -1.697   1.113   2.268  0.00  0.00    -0.004 A 
ATOM      5  C7  UNL d   1      -2.485   0.039   2.675  0.00  0.00     0.002 A 
ATOM      6  C8  UNL d   1      -3.515   0.235   3.597  0.00  0.00     0.002 A 
ENDROOT
BRANCH   1   7
ATOM      7  C2  UNL d   1      -4.898   1.723   5.099  0.00  0.00     0.056 C 
BRANCH   7   8
ATOM      8  C1  UNL d   1      -4.728   2.958   5.989  0.00  0.00     0.007 C 
ATOM      9  C   UNL d   1      -5.943   3.877   5.979  0.00  0.00     0.009 C 
ENDBRANCH   7   8
ENDBRANCH   1   7
TORSDOF 2
ENDMDL
