MODEL 1
REMARK minimizedAffinity 4.82176495
REMARK minimizedRMSD -1
REMARK  2 active torsions:
REMARK  status: ('A' for Active; 'I' for Inactive)
REMARK    1  A    between atoms: C1_2  and  C2_3 
REMARK    2  A    between atoms: C2_3  and  C3_4 
ROOT
ATOM      1  C3  UNL d   1      -2.617   2.652   0.833  0.00  0.00    -0.075 A 
ATOM      2  C4  UNL d   1      -1.238   2.892   0.914  0.00  0.00     0.002 A 
ATOM      3  C5  UNL d   1      -0.497   2.411   1.994  0.00  0.00     0.002 A 
ATOM      4  C6  UNL d   1      -1.127   1.695   3.010  0.00  0.00    -0.004 A 
ATOM      5  C7  UNL d   1      -2.499   1.464   2.948  0.00  0.00     0.002 A 
ATOM      6  C8  UNL d   1      -3.242   1.940   1.866  0.00  0.00     0.002 A 
ENDROOT
BRANCH   1   7
ATOM      7  C2  UNL d   1      -3.419   3.144  -0.349  0.00  0.00     0.056 C 
BRANCH   7   8
ATOM      8  C1  UNL d   1      -3.150   2.376  -1.648  0.00  0.00     0.007 C 
ATOM      9  C   UNL d   1      -2.069   3.015  -2.510  0.00  0.00     0.009 C 
ENDBRANCH   7   8
ENDBRANCH   1   7
TORSDOF 2
ENDMDL
