MODEL 1
REMARK minimizedAffinity 3.08913159
REMARK minimizedRMSD -1
REMARK  2 active torsions:
REMARK  status: ('A' for Active; 'I' for Inactive)
REMARK    1  A    between atoms: C1_2  and  C2_3 
REMARK    2  A    between atoms: C2_3  and  C3_4 
ROOT
ATOM      1  C3  UNL d   1      -3.942   1.475   3.789  0.00  0.00    -0.075 A 
ATOM      2  C4  UNL d   1      -3.078   2.499   3.376  0.00  0.00     0.002 A 
ATOM      3  C5  UNL d   1      -1.957   2.208   2.598  0.00  0.00     0.002 A 
ATOM      4  C6  UNL d   1      -1.680   0.893   2.233  0.00  0.00    -0.004 A 
ATOM      5  C7  UNL d   1      -2.523  -0.134   2.651  0.00  0.00     0.002 A 
ATOM      6  C8  UNL d   1      -3.648   0.154   3.426  0.00  0.00     0.002 A 
ENDROOT
BRANCH   1   7
ATOM      7  C2  UNL d   1      -5.173   1.787   4.606  0.00  0.00     0.056 C 
BRANCH   7   8
ATOM      8  C1  UNL d   1      -4.907   2.686   5.818  0.00  0.00     0.007 C 
ATOM      9  C   UNL d   1      -5.876   3.856   5.922  0.00  0.00     0.009 C 
ENDBRANCH   7   8
ENDBRANCH   1   7
TORSDOF 2
ENDMDL
