MODEL 1
REMARK minimizedAffinity 6.55178928
REMARK minimizedRMSD -1
REMARK  2 active torsions:
REMARK  status: ('A' for Active; 'I' for Inactive)
REMARK    1  A    between atoms: C1_2  and  C2_3 
REMARK    2  A    between atoms: C2_3  and  C3_4 
ROOT
ATOM      1  C3  UNL d   1      -4.135   2.443   4.305  0.00  0.00    -0.075 A 
ATOM      2  C4  UNL d   1      -4.948   1.677   5.154  0.00  0.00     0.002 A 
ATOM      3  C5  UNL d   1      -5.877   2.294   5.992  0.00  0.00     0.002 A 
ATOM      4  C6  UNL d   1      -5.999   3.682   6.000  0.00  0.00    -0.004 A 
ATOM      5  C7  UNL d   1      -5.185   4.453   5.173  0.00  0.00     0.002 A 
ATOM      6  C8  UNL d   1      -4.258   3.838   4.330  0.00  0.00     0.002 A 
ENDROOT
BRANCH   1   7
ATOM      7  C2  UNL d   1      -3.148   1.780   3.374  0.00  0.00     0.056 C 
BRANCH   7   8
ATOM      8  C1  UNL d   1      -1.892   2.613   3.101  0.00  0.00     0.007 C 
ATOM      9  C   UNL d   1      -1.842   3.177   1.687  0.00  0.00     0.009 C 
ENDBRANCH   7   8
ENDBRANCH   1   7
TORSDOF 2
ENDMDL
