MODEL 1
REMARK minimizedAffinity -0.207228735
REMARK minimizedRMSD -1
REMARK  2 active torsions:
REMARK  status: ('A' for Active; 'I' for Inactive)
REMARK    1  A    between atoms: C1_2  and  C2_3 
REMARK    2  A    between atoms: C2_3  and  C3_4 
ROOT
ATOM      1  C3  UNL d   1      -0.936  -3.880  -1.662  0.00  0.00    -0.075 A 
ATOM      2  C4  UNL d   1      -1.517  -3.069  -2.648  0.00  0.00     0.002 A 
ATOM      3  C5  UNL d   1      -2.841  -2.648  -2.529  0.00  0.00     0.002 A 
ATOM      4  C6  UNL d   1      -3.604  -3.039  -1.431  0.00  0.00    -0.004 A 
ATOM      5  C7  UNL d   1      -3.043  -3.858  -0.454  0.00  0.00     0.002 A 
ATOM      6  C8  UNL d   1      -1.716  -4.278  -0.568  0.00  0.00     0.002 A 
ENDROOT
BRANCH   1   7
ATOM      7  C2  UNL d   1       0.506  -4.316  -1.770  0.00  0.00     0.056 C 
BRANCH   7   8
ATOM      8  C1  UNL d   1       1.301  -3.578  -2.852  0.00  0.00     0.007 C 
ATOM      9  C   UNL d   1       1.999  -4.515  -3.828  0.00  0.00     0.009 C 
ENDBRANCH   7   8
ENDBRANCH   1   7
TORSDOF 2
ENDMDL
