MODEL 1
REMARK minimizedAffinity 6.15563631
REMARK minimizedRMSD -1
REMARK  2 active torsions:
REMARK  status: ('A' for Active; 'I' for Inactive)
REMARK    1  A    between atoms: C1_2  and  C2_3 
REMARK    2  A    between atoms: C2_3  and  C3_4 
ROOT
ATOM      1  C3  UNL d   1      -2.990  -2.979  -1.092  0.00  0.00    -0.075 A 
ATOM      2  C4  UNL d   1      -3.151  -2.338  -2.329  0.00  0.00     0.002 A 
ATOM      3  C5  UNL d   1      -3.766  -1.088  -2.404  0.00  0.00     0.002 A 
ATOM      4  C6  UNL d   1      -4.235  -0.469  -1.248  0.00  0.00    -0.004 A 
ATOM      5  C7  UNL d   1      -4.094  -1.103  -0.016  0.00  0.00     0.002 A 
ATOM      6  C8  UNL d   1      -3.476  -2.352   0.063  0.00  0.00     0.002 A 
ENDROOT
BRANCH   1   7
ATOM      7  C2  UNL d   1      -2.299  -4.319  -1.000  0.00  0.00     0.056 C 
BRANCH   7   8
ATOM      8  C1  UNL d   1      -0.891  -4.255  -0.399  0.00  0.00     0.007 C 
ATOM      9  C   UNL d   1       0.192  -4.745  -1.351  0.00  0.00     0.009 C 
ENDBRANCH   7   8
ENDBRANCH   1   7
TORSDOF 2
ENDMDL
