MODEL 1
REMARK minimizedAffinity 11.8547068
REMARK minimizedRMSD -1
REMARK  2 active torsions:
REMARK  status: ('A' for Active; 'I' for Inactive)
REMARK    1  A    between atoms: C1_2  and  C2_3 
REMARK    2  A    between atoms: C2_3  and  C3_4 
ROOT
ATOM      1  C3  UNL d   1      -3.602   2.222   4.743  0.00  0.00    -0.075 A 
ATOM      2  C4  UNL d   1      -4.720   1.377   4.761  0.00  0.00     0.002 A 
ATOM      3  C5  UNL d   1      -5.904   1.781   5.380  0.00  0.00     0.002 A 
ATOM      4  C6  UNL d   1      -5.981   3.029   5.995  0.00  0.00    -0.004 A 
ATOM      5  C7  UNL d   1      -4.870   3.870   5.997  0.00  0.00     0.002 A 
ATOM      6  C8  UNL d   1      -3.686   3.470   5.375  0.00  0.00     0.002 A 
ENDROOT
BRANCH   1   7
ATOM      7  C2  UNL d   1      -2.327   1.802   4.050  0.00  0.00     0.056 C 
BRANCH   7   8
ATOM      8  C1  UNL d   1      -1.789   2.836   3.055  0.00  0.00     0.007 C 
ATOM      9  C   UNL d   1      -0.803   2.248   2.054  0.00  0.00     0.009 C 
ENDBRANCH   7   8
ENDBRANCH   1   7
TORSDOF 2
ENDMDL
