MODEL 1
REMARK minimizedAffinity 6.758183
REMARK minimizedRMSD -1
REMARK  2 active torsions:
REMARK  status: ('A' for Active; 'I' for Inactive)
REMARK    1  A    between atoms: C1_2  and  C2_3 
REMARK    2  A    between atoms: C2_3  and  C3_4 
ROOT
ATOM      1  C3  UNL d   1      -3.395   2.272   3.372  0.00  0.00    -0.075 A 
ATOM      2  C4  UNL d   1      -2.120   1.688   3.373  0.00  0.00     0.002 A 
ATOM      3  C5  UNL d   1      -1.100   2.213   2.579  0.00  0.00     0.002 A 
ATOM      4  C6  UNL d   1      -1.344   3.318   1.766  0.00  0.00    -0.004 A 
ATOM      5  C7  UNL d   1      -2.612   3.895   1.745  0.00  0.00     0.002 A 
ATOM      6  C8  UNL d   1      -3.633   3.375   2.542  0.00  0.00     0.002 A 
ENDROOT
BRANCH   1   7
ATOM      7  C2  UNL d   1      -4.494   1.727   4.252  0.00  0.00     0.056 C 
BRANCH   7   8
ATOM      8  C1  UNL d   1      -4.501   2.304   5.672  0.00  0.00     0.007 C 
ATOM      9  C   UNL d   1      -5.770   3.080   5.998  0.00  0.00     0.009 C 
ENDBRANCH   7   8
ENDBRANCH   1   7
TORSDOF 2
ENDMDL
