MODEL 1
REMARK minimizedAffinity 25.7066116
REMARK minimizedRMSD -1
REMARK  1 active torsions:
REMARK  status: ('A' for Active; 'I' for Inactive)
REMARK    1  A    between atoms: C1_2  and  C2_3 
ROOT
ATOM      1  C2  UNL d   1       1.803  -0.398   1.832  0.00  0.00    -0.081 A 
ATOM      2  C3  UNL d   1       1.796  -1.694   1.300  0.00  0.00     0.006 A 
ATOM      3  C4  UNL d   1       0.786  -2.595   1.645  0.00  0.00     0.002 A 
ATOM      4  C5  UNL d   1      -0.237  -2.215   2.519  0.00  0.00    -0.080 A 
ATOM      5  C6  UNL d   1      -1.344  -3.163   2.874  0.00  0.00     0.076 C 
ATOM      6  C7  UNL d   1      -0.221  -0.926   3.064  0.00  0.00     0.002 A 
ATOM      7  C8  UNL d   1       0.789  -0.025   2.721  0.00  0.00     0.006 A 
ENDROOT
BRANCH   1   8
ATOM      8  C1  UNL d   1       2.854   0.597   1.412  0.00  0.00     0.054 C 
ATOM      9  C   UNL d   1       3.792   0.930   2.564  0.00  0.00     0.018 C 
ENDBRANCH   1   8
TORSDOF 1
ENDMDL
