MODEL 1
REMARK minimizedAffinity 12.0371408
REMARK minimizedRMSD -1
REMARK  1 active torsions:
REMARK  status: ('A' for Active; 'I' for Inactive)
REMARK    1  A    between atoms: C1_2  and  C2_3 
ROOT
ATOM      1  C2  UNL d   1       1.005  -1.192   2.629  0.00  0.00    -0.081 A 
ATOM      2  C3  UNL d   1       1.446  -0.377   3.679  0.00  0.00     0.006 A 
ATOM      3  C4  UNL d   1       0.609  -0.106   4.764  0.00  0.00     0.002 A 
ATOM      4  C5  UNL d   1      -0.678  -0.652   4.822  0.00  0.00    -0.080 A 
ATOM      5  C6  UNL d   1      -1.575  -0.394   5.996  0.00  0.00     0.076 C 
ATOM      6  C7  UNL d   1      -1.124  -1.453   3.765  0.00  0.00     0.002 A 
ATOM      7  C8  UNL d   1      -0.288  -1.723   2.680  0.00  0.00     0.006 A 
ENDROOT
BRANCH   1   8
ATOM      8  C1  UNL d   1       1.928  -1.539   1.489  0.00  0.00     0.054 C 
ATOM      9  C   UNL d   1       3.089  -0.559   1.400  0.00  0.00     0.018 C 
ENDBRANCH   1   8
TORSDOF 1
ENDMDL
