MODEL 1
REMARK minimizedAffinity 21.0607986
REMARK minimizedRMSD -1
REMARK  1 active torsions:
REMARK  status: ('A' for Active; 'I' for Inactive)
REMARK    1  A    between atoms: C1_2  and  C2_3 
ROOT
ATOM      1  C2  UNL d   1       1.829  -0.753   1.814  0.00  0.00    -0.081 A 
ATOM      2  C3  UNL d   1       0.830  -0.177   2.608  0.00  0.00     0.006 A 
ATOM      3  C4  UNL d   1      -0.324  -0.895   2.927  0.00  0.00     0.002 A 
ATOM      4  C5  UNL d   1      -0.496  -2.204   2.464  0.00  0.00    -0.080 A 
ATOM      5  C6  UNL d   1      -1.717  -2.998   2.823  0.00  0.00     0.076 C 
ATOM      6  C7  UNL d   1       0.494  -2.774   1.655  0.00  0.00     0.002 A 
ATOM      7  C8  UNL d   1       1.648  -2.055   1.336  0.00  0.00     0.006 A 
ENDROOT
BRANCH   1   8
ATOM      8  C1  UNL d   1       3.104  -0.004   1.522  0.00  0.00     0.054 C 
ATOM      9  C   UNL d   1       2.816   1.405   1.022  0.00  0.00     0.018 C 
ENDBRANCH   1   8
TORSDOF 1
ENDMDL
