MODEL 1
REMARK minimizedAffinity 18.5101719
REMARK minimizedRMSD -1
REMARK  1 active torsions:
REMARK  status: ('A' for Active; 'I' for Inactive)
REMARK    1  A    between atoms: C1_2  and  C2_3 
ROOT
ATOM      1  C2  UNL d   1       2.968   0.133   2.541  0.00  0.00    -0.081 A 
ATOM      2  C3  UNL d   1       1.928  -0.443   1.801  0.00  0.00     0.006 A 
ATOM      3  C4  UNL d   1       0.675  -0.650   2.383  0.00  0.00     0.002 A 
ATOM      4  C5  UNL d   1       0.439  -0.279   3.711  0.00  0.00    -0.080 A 
ATOM      5  C6  UNL d   1      -0.910  -0.469   4.338  0.00  0.00     0.076 C 
ATOM      6  C7  UNL d   1       1.483   0.280   4.456  0.00  0.00     0.002 A 
ATOM      7  C8  UNL d   1       2.736   0.487   3.875  0.00  0.00     0.006 A 
ENDROOT
BRANCH   1   8
ATOM      8  C1  UNL d   1       4.301   0.418   1.897  0.00  0.00     0.054 C 
ATOM      9  C   UNL d   1       5.416  -0.380   2.558  0.00  0.00     0.018 C 
ENDBRANCH   1   8
TORSDOF 1
ENDMDL
