MODEL 1
REMARK minimizedAffinity 13.1406279
REMARK minimizedRMSD -1
REMARK  1 active torsions:
REMARK  status: ('A' for Active; 'I' for Inactive)
REMARK    1  A    between atoms: C1_2  and  C2_3 
ROOT
ATOM      1  C2  UNL d   1       0.702   3.590  -0.443  0.00  0.00    -0.081 A 
ATOM      2  C3  UNL d   1       0.323   3.671  -1.788  0.00  0.00     0.006 A 
ATOM      3  C4  UNL d   1      -0.624   2.787  -2.311  0.00  0.00     0.002 A 
ATOM      4  C5  UNL d   1      -1.213   1.814  -1.496  0.00  0.00    -0.080 A 
ATOM      5  C6  UNL d   1      -2.253   0.879  -2.038  0.00  0.00     0.076 C 
ATOM      6  C7  UNL d   1      -0.821   1.722  -0.157  0.00  0.00     0.002 A 
ATOM      7  C8  UNL d   1       0.126   2.605   0.367  0.00  0.00     0.006 A 
ENDROOT
BRANCH   1   8
ATOM      8  C1  UNL d   1       1.675   4.583   0.140  0.00  0.00     0.054 C 
ATOM      9  C   UNL d   1       1.118   5.999   0.089  0.00  0.00     0.018 C 
ENDBRANCH   1   8
TORSDOF 1
ENDMDL
