MODEL 1
REMARK minimizedAffinity 13.1114769
REMARK minimizedRMSD -1
REMARK  1 active torsions:
REMARK  status: ('A' for Active; 'I' for Inactive)
REMARK    1  A    between atoms: C1_2  and  C2_3 
ROOT
ATOM      1  C2  UNL d   1      -0.584  -1.484   3.732  0.00  0.00    -0.081 A 
ATOM      2  C3  UNL d   1       0.137  -1.471   2.531  0.00  0.00     0.006 A 
ATOM      3  C4  UNL d   1      -0.292  -2.230   1.440  0.00  0.00     0.002 A 
ATOM      4  C5  UNL d   1      -1.452  -3.007   1.528  0.00  0.00    -0.080 A 
ATOM      5  C6  UNL d   1      -1.941  -3.803   0.354  0.00  0.00     0.076 C 
ATOM      6  C7  UNL d   1      -2.163  -3.033   2.732  0.00  0.00     0.002 A 
ATOM      7  C8  UNL d   1      -1.734  -2.275   3.824  0.00  0.00     0.006 A 
ENDROOT
BRANCH   1   8
ATOM      8  C1  UNL d   1      -0.160  -0.616   4.889  0.00  0.00     0.054 C 
ATOM      9  C   UNL d   1      -1.271  -0.488   5.921  0.00  0.00     0.018 C 
ENDBRANCH   1   8
TORSDOF 1
ENDMDL
