MODEL 1
REMARK minimizedAffinity 13.9811182
REMARK minimizedRMSD -1
REMARK  1 active torsions:
REMARK  status: ('A' for Active; 'I' for Inactive)
REMARK    1  A    between atoms: C1_2  and  C2_3 
ROOT
ATOM      1  C2  UNL d   1      -1.222  -2.136   2.684  0.00  0.00    -0.081 A 
ATOM      2  C3  UNL d   1      -0.393  -2.555   1.636  0.00  0.00     0.006 A 
ATOM      3  C4  UNL d   1       0.851  -1.953   1.433  0.00  0.00     0.002 A 
ATOM      4  C5  UNL d   1       1.291  -0.930   2.279  0.00  0.00    -0.080 A 
ATOM      5  C6  UNL d   1       2.638  -0.297   2.091  0.00  0.00     0.076 C 
ATOM      6  C7  UNL d   1       0.456  -0.500   3.317  0.00  0.00     0.002 A 
ATOM      7  C8  UNL d   1      -0.788  -1.100   3.519  0.00  0.00     0.006 A 
ENDROOT
BRANCH   1   8
ATOM      8  C1  UNL d   1      -2.536  -2.827   2.945  0.00  0.00     0.054 C 
ATOM      9  C   UNL d   1      -3.270  -3.128   1.646  0.00  0.00     0.018 C 
ENDBRANCH   1   8
TORSDOF 1
ENDMDL
