MODEL 1
REMARK minimizedAffinity 8.73745537
REMARK minimizedRMSD -1
REMARK  1 active torsions:
REMARK  status: ('A' for Active; 'I' for Inactive)
REMARK    1  A    between atoms: C1_2  and  C2_3 
ROOT
ATOM      1  C2  UNL d   1      -0.372   2.800  -1.389  0.00  0.00    -0.081 A 
ATOM      2  C3  UNL d   1      -0.576   2.954  -0.012  0.00  0.00     0.006 A 
ATOM      3  C4  UNL d   1       0.063   3.981   0.687  0.00  0.00     0.002 A 
ATOM      4  C5  UNL d   1       0.908   4.875   0.022  0.00  0.00    -0.080 A 
ATOM      5  C6  UNL d   1       1.576   6.000   0.756  0.00  0.00     0.076 C 
ATOM      6  C7  UNL d   1       1.126   4.710  -1.351  0.00  0.00     0.002 A 
ATOM      7  C8  UNL d   1       0.488   3.684  -2.051  0.00  0.00     0.006 A 
ENDROOT
BRANCH   1   8
ATOM      8  C1  UNL d   1      -1.109   1.734  -2.158  0.00  0.00     0.054 C 
ATOM      9  C   UNL d   1      -2.470   2.231  -2.626  0.00  0.00     0.018 C 
ENDBRANCH   1   8
TORSDOF 1
ENDMDL
