MODEL 1
REMARK minimizedAffinity 19.4808083
REMARK minimizedRMSD -1
REMARK  1 active torsions:
REMARK  status: ('A' for Active; 'I' for Inactive)
REMARK    1  A    between atoms: C1_2  and  C2_3 
ROOT
ATOM      1  C2  UNL d   1       5.367  -3.529  -5.239  0.00  0.00    -0.081 A 
ATOM      2  C3  UNL d   1       5.999  -3.332  -4.005  0.00  0.00     0.006 A 
ATOM      3  C4  UNL d   1       5.776  -2.163  -3.273  0.00  0.00     0.002 A 
ATOM      4  C5  UNL d   1       4.911  -1.177  -3.758  0.00  0.00    -0.080 A 
ATOM      5  C6  UNL d   1       4.639   0.069  -2.968  0.00  0.00     0.076 C 
ATOM      6  C7  UNL d   1       4.292  -1.366  -4.999  0.00  0.00     0.002 A 
ATOM      7  C8  UNL d   1       4.516  -2.533  -5.731  0.00  0.00     0.006 A 
ENDROOT
BRANCH   1   8
ATOM      8  C1  UNL d   1       5.555  -4.816  -6.000  0.00  0.00     0.054 C 
ATOM      9  C   UNL d   1       5.742  -5.995  -5.056  0.00  0.00     0.018 C 
ENDBRANCH   1   8
TORSDOF 1
ENDMDL
