MODEL 1
REMARK minimizedAffinity 4.51975012
REMARK minimizedRMSD -1
REMARK  1 active torsions:
REMARK  status: ('A' for Active; 'I' for Inactive)
REMARK    1  A    between atoms: C1_2  and  C2_3 
ROOT
ATOM      1  C2  UNL d   1       0.752   3.657  -0.491  0.00  0.00    -0.081 A 
ATOM      2  C3  UNL d   1       0.515   3.535  -1.865  0.00  0.00     0.006 A 
ATOM      3  C4  UNL d   1      -0.463   2.657  -2.340  0.00  0.00     0.002 A 
ATOM      4  C5  UNL d   1      -1.224   1.894  -1.449  0.00  0.00    -0.080 A 
ATOM      5  C6  UNL d   1      -2.298   0.970  -1.943  0.00  0.00     0.076 C 
ATOM      6  C7  UNL d   1      -0.975   2.003  -0.076  0.00  0.00     0.002 A 
ATOM      7  C8  UNL d   1       0.002   2.880   0.399  0.00  0.00     0.006 A 
ENDROOT
BRANCH   1   8
ATOM      8  C1  UNL d   1       1.761   4.650   0.027  0.00  0.00     0.054 C 
ATOM      9  C   UNL d   1       1.115   6.000   0.308  0.00  0.00     0.018 C 
ENDBRANCH   1   8
TORSDOF 1
ENDMDL
