MODEL 1
REMARK minimizedAffinity 6.41834545
REMARK minimizedRMSD -1
REMARK  1 active torsions:
REMARK  status: ('A' for Active; 'I' for Inactive)
REMARK    1  A    between atoms: C1_2  and  C2_3 
ROOT
ATOM      1  C2  UNL d   1      -0.572   3.050  -1.637  0.00  0.00    -0.081 A 
ATOM      2  C3  UNL d   1      -0.522   3.003  -0.239  0.00  0.00     0.006 A 
ATOM      3  C4  UNL d   1       0.420   3.759   0.462  0.00  0.00     0.002 A 
ATOM      4  C5  UNL d   1       1.323   4.580  -0.223  0.00  0.00    -0.080 A 
ATOM      5  C6  UNL d   1       2.320   5.420   0.519  0.00  0.00     0.076 C 
ATOM      6  C7  UNL d   1       1.285   4.614  -1.621  0.00  0.00     0.002 A 
ATOM      7  C8  UNL d   1       0.343   3.857  -2.322  0.00  0.00     0.006 A 
ENDROOT
BRANCH   1   8
ATOM      8  C1  UNL d   1      -1.629   2.286  -2.393  0.00  0.00     0.054 C 
ATOM      9  C   UNL d   1      -2.813   3.177  -2.742  0.00  0.00     0.018 C 
ENDBRANCH   1   8
TORSDOF 1
ENDMDL
