MODEL 1
REMARK minimizedAffinity 6.42234468
REMARK minimizedRMSD -1
REMARK  1 active torsions:
REMARK  status: ('A' for Active; 'I' for Inactive)
REMARK    1  A    between atoms: C1_2  and  C2_3 
ROOT
ATOM      1  C2  UNL d   1      -0.525  -2.160   2.189  0.00  0.00    -0.081 A 
ATOM      2  C3  UNL d   1       0.017  -1.094   2.917  0.00  0.00     0.006 A 
ATOM      3  C4  UNL d   1      -0.538  -0.718   4.143  0.00  0.00     0.002 A 
ATOM      4  C5  UNL d   1      -1.639  -1.406   4.664  0.00  0.00    -0.080 A 
ATOM      5  C6  UNL d   1      -2.225  -1.032   5.993  0.00  0.00     0.076 C 
ATOM      6  C7  UNL d   1      -2.192  -2.460   3.929  0.00  0.00     0.002 A 
ATOM      7  C8  UNL d   1      -1.637  -2.836   2.703  0.00  0.00     0.006 A 
ENDROOT
BRANCH   1   8
ATOM      8  C1  UNL d   1       0.111  -2.609   0.899  0.00  0.00     0.054 C 
ATOM      9  C   UNL d   1       1.629  -2.542   0.977  0.00  0.00     0.018 C 
ENDBRANCH   1   8
TORSDOF 1
ENDMDL
