MODEL 1
REMARK minimizedAffinity 1.36523378
REMARK minimizedRMSD -1
REMARK  0 active torsions:
REMARK  status: ('A' for Active; 'I' for Inactive)
ROOT
ATOM      1  C   UNL d   1      -3.515  -1.175   5.251  0.00  0.00     0.023 A 
ATOM      2  C1  UNL d   1      -2.625  -0.405   4.501  0.00  0.00     0.003 A 
ATOM      3  C2  UNL d   1      -1.263  -0.712   4.499  0.00  0.00     0.048 A 
ATOM      4  C3  UNL d   1      -0.797  -1.792   5.249  0.00  0.00     0.023 A 
ATOM      5  C4  UNL d   1      -1.683  -2.566   6.000  0.00  0.00     0.048 A 
ATOM      6  C5  UNL d   1      -3.044  -2.254   5.999  0.00  0.00     0.003 A 
ATOM      7  I   UNL d   1       1.230  -2.252   5.247  0.00  0.00    -0.146 I 
ENDROOT
TORSDOF 0
ENDMDL
