MODEL 1
REMARK minimizedAffinity 2.01641345
REMARK minimizedRMSD -1
REMARK  0 active torsions:
REMARK  status: ('A' for Active; 'I' for Inactive)
ROOT
ATOM      1  C   UNL d   1      -3.207  -0.803   5.160  0.00  0.00     0.023 A 
ATOM      2  C1  UNL d   1      -2.327  -0.121   4.319  0.00  0.00     0.003 A 
ATOM      3  C2  UNL d   1      -0.969  -0.444   4.317  0.00  0.00     0.048 A 
ATOM      4  C3  UNL d   1      -0.497  -1.452   5.158  0.00  0.00     0.023 A 
ATOM      5  C4  UNL d   1      -1.373  -2.138   6.000  0.00  0.00     0.048 A 
ATOM      6  C5  UNL d   1      -2.731  -1.810   5.999  0.00  0.00     0.003 A 
ATOM      7  I   UNL d   1       1.524  -1.936   5.156  0.00  0.00    -0.146 I 
ENDROOT
TORSDOF 0
ENDMDL
