MODEL 1
REMARK minimizedAffinity -3.84886646
REMARK minimizedRMSD -1
REMARK  0 active torsions:
REMARK  status: ('A' for Active; 'I' for Inactive)
ROOT
ATOM      1  C   UNL d   1      -0.069  -1.583   0.260  0.00  0.00     0.023 A 
ATOM      2  C1  UNL d   1       0.280  -0.974   1.465  0.00  0.00     0.003 A 
ATOM      3  C2  UNL d   1       0.768   0.334   1.473  0.00  0.00     0.048 A 
ATOM      4  C3  UNL d   1       0.905   1.028   0.271  0.00  0.00     0.023 A 
ATOM      5  C4  UNL d   1       0.557   0.423  -0.938  0.00  0.00     0.048 A 
ATOM      6  C5  UNL d   1       0.069  -0.885  -0.940  0.00  0.00     0.003 A 
ATOM      7  I   UNL d   1       1.632   2.975   0.280  0.00  0.00    -0.146 I 
ENDROOT
TORSDOF 0
ENDMDL
