MODEL 1
REMARK minimizedAffinity -3.01910901
REMARK minimizedRMSD -1
REMARK  0 active torsions:
REMARK  status: ('A' for Active; 'I' for Inactive)
ROOT
ATOM      1  C   UNL d   1      -1.797  -2.104   1.294  0.00  0.00     0.023 A 
ATOM      2  C1  UNL d   1      -2.402  -0.872   1.046  0.00  0.00     0.003 A 
ATOM      3  C2  UNL d   1      -1.622   0.234   0.703  0.00  0.00     0.048 A 
ATOM      4  C3  UNL d   1      -0.237   0.101   0.610  0.00  0.00     0.023 A 
ATOM      5  C4  UNL d   1       0.373  -1.130   0.857  0.00  0.00     0.048 A 
ATOM      6  C5  UNL d   1      -0.411  -2.233   1.200  0.00  0.00     0.003 A 
ATOM      7  I   UNL d   1       0.927   1.746   0.100  0.00  0.00    -0.146 I 
ENDROOT
TORSDOF 0
ENDMDL
