MODEL 1
REMARK minimizedAffinity -4.83156919
REMARK minimizedRMSD -1
REMARK  0 active torsions:
REMARK  status: ('A' for Active; 'I' for Inactive)
ROOT
ATOM      1  C   UNL d   1       2.343   3.436   0.712  0.00  0.00     0.023 A 
ATOM      2  C1  UNL d   1       1.139   3.311   0.018  0.00  0.00     0.003 A 
ATOM      3  C2  UNL d   1       0.418   2.117   0.078  0.00  0.00     0.048 A 
ATOM      4  C3  UNL d   1       0.905   1.052   0.836  0.00  0.00     0.023 A 
ATOM      5  C4  UNL d   1       2.108   1.173   1.533  0.00  0.00     0.048 A 
ATOM      6  C5  UNL d   1       2.826   2.368   1.469  0.00  0.00     0.003 A 
ATOM      7  I   UNL d   1      -0.167  -0.726   0.927  0.00  0.00    -0.146 I 
ENDROOT
TORSDOF 0
ENDMDL
