MODEL 1
REMARK minimizedAffinity -0.879802346
REMARK minimizedRMSD -1
REMARK  0 active torsions:
REMARK  status: ('A' for Active; 'I' for Inactive)
ROOT
ATOM      1  C   UNL d   1       1.009   2.839  -0.400  0.00  0.00     0.023 A 
ATOM      2  C1  UNL d   1       1.519   1.696  -1.017  0.00  0.00     0.003 A 
ATOM      3  C2  UNL d   1       1.054   0.433  -0.644  0.00  0.00     0.048 A 
ATOM      4  C3  UNL d   1       0.079   0.320   0.346  0.00  0.00     0.023 A 
ATOM      5  C4  UNL d   1      -0.434   1.460   0.966  0.00  0.00     0.048 A 
ATOM      6  C5  UNL d   1       0.034   2.721   0.591  0.00  0.00     0.003 A 
ATOM      7  I   UNL d   1      -0.614  -1.558   0.903  0.00  0.00    -0.146 I 
ENDROOT
TORSDOF 0
ENDMDL
