MODEL 1
REMARK minimizedAffinity -4.24350166
REMARK minimizedRMSD -1
REMARK  0 active torsions:
REMARK  status: ('A' for Active; 'I' for Inactive)
ROOT
ATOM      1  C   UNL d   1      -1.304  -2.413   0.645  0.00  0.00     0.023 A 
ATOM      2  C1  UNL d   1      -1.632  -1.342   1.477  0.00  0.00     0.003 A 
ATOM      3  C2  UNL d   1      -0.851  -0.184   1.468  0.00  0.00     0.048 A 
ATOM      4  C3  UNL d   1       0.257  -0.104   0.625  0.00  0.00     0.023 A 
ATOM      5  C4  UNL d   1       0.588  -1.173  -0.209  0.00  0.00     0.048 A 
ATOM      6  C5  UNL d   1      -0.195  -2.328  -0.197  0.00  0.00     0.003 A 
ATOM      7  I   UNL d   1       1.421   1.617   0.611  0.00  0.00    -0.146 I 
ENDROOT
TORSDOF 0
ENDMDL
