MODEL 1
REMARK minimizedAffinity -3.53632712
REMARK minimizedRMSD -1
REMARK  0 active torsions:
REMARK  status: ('A' for Active; 'I' for Inactive)
ROOT
ATOM      1  C   UNL d   1       1.013  -2.285  -1.629  0.00  0.00     0.023 A 
ATOM      2  C1  UNL d   1       0.690  -0.928  -1.644  0.00  0.00     0.003 A 
ATOM      3  C2  UNL d   1      -0.111  -0.388  -0.636  0.00  0.00     0.048 A 
ATOM      4  C3  UNL d   1      -0.586  -1.211   0.385  0.00  0.00     0.023 A 
ATOM      5  C4  UNL d   1      -0.265  -2.569   0.405  0.00  0.00     0.048 A 
ATOM      6  C5  UNL d   1       0.536  -3.104  -0.605  0.00  0.00     0.003 A 
ATOM      7  I   UNL d   1      -1.778  -0.409   1.887  0.00  0.00    -0.146 I 
ENDROOT
TORSDOF 0
ENDMDL
