MODEL 1
REMARK minimizedAffinity 1.51350248
REMARK minimizedRMSD -1
REMARK  0 active torsions:
REMARK  status: ('A' for Active; 'I' for Inactive)
ROOT
ATOM      1  C   UNL d   1       0.058   1.034   0.246  0.00  0.00     0.023 A 
ATOM      2  C1  UNL d   1       0.336  -0.124  -0.480  0.00  0.00     0.003 A 
ATOM      3  C2  UNL d   1      -0.420  -1.279  -0.272  0.00  0.00     0.048 A 
ATOM      4  C3  UNL d   1      -1.453  -1.269   0.665  0.00  0.00     0.023 A 
ATOM      5  C4  UNL d   1      -1.735  -0.113   1.394  0.00  0.00     0.048 A 
ATOM      6  C5  UNL d   1      -0.976   1.039   1.182  0.00  0.00     0.003 A 
ATOM      7  I   UNL d   1      -2.580  -2.987   0.977  0.00  0.00    -0.146 I 
ENDROOT
TORSDOF 0
ENDMDL
