MODEL 1
REMARK minimizedAffinity -1.85174549
REMARK minimizedRMSD -1
REMARK  0 active torsions:
REMARK  status: ('A' for Active; 'I' for Inactive)
ROOT
ATOM      1  C   UNL d   1      -1.013  -2.662   0.849  0.00  0.00     0.023 A 
ATOM      2  C1  UNL d   1      -0.894  -1.755   1.901  0.00  0.00     0.003 A 
ATOM      3  C2  UNL d   1      -0.550  -0.426   1.644  0.00  0.00     0.048 A 
ATOM      4  C3  UNL d   1      -0.328  -0.011   0.331  0.00  0.00     0.023 A 
ATOM      5  C4  UNL d   1      -0.447  -0.916  -0.726  0.00  0.00     0.048 A 
ATOM      6  C5  UNL d   1      -0.789  -2.243  -0.463  0.00  0.00     0.003 A 
ATOM      7  I   UNL d   1       0.183   1.966  -0.055  0.00  0.00    -0.146 I 
ENDROOT
TORSDOF 0
ENDMDL
