MODEL 1
REMARK minimizedAffinity -2.68559813
REMARK minimizedRMSD -1
REMARK  0 active torsions:
REMARK  status: ('A' for Active; 'I' for Inactive)
ROOT
ATOM      1  C   UNL d   1      -0.973  -3.198  -0.035  0.00  0.00     0.023 A 
ATOM      2  C1  UNL d   1      -1.072  -2.393   1.099  0.00  0.00     0.003 A 
ATOM      3  C2  UNL d   1      -0.654  -1.061   1.050  0.00  0.00     0.048 A 
ATOM      4  C3  UNL d   1      -0.140  -0.541  -0.137  0.00  0.00     0.023 A 
ATOM      5  C4  UNL d   1      -0.040  -1.343  -1.275  0.00  0.00     0.048 A 
ATOM      6  C5  UNL d   1      -0.458  -2.674  -1.221  0.00  0.00     0.003 A 
ATOM      7  I   UNL d   1       0.482   1.441  -0.212  0.00  0.00    -0.146 I 
ENDROOT
TORSDOF 0
ENDMDL
