MODEL 1
REMARK minimizedAffinity -2.65835023
REMARK minimizedRMSD -1
REMARK  0 active torsions:
REMARK  status: ('A' for Active; 'I' for Inactive)
ROOT
ATOM      1  C   UNL d   1      -0.621  -0.818   1.199  0.00  0.00     0.023 A 
ATOM      2  C1  UNL d   1      -0.757  -0.137  -0.011  0.00  0.00     0.003 A 
ATOM      3  C2  UNL d   1      -0.045   1.043  -0.234  0.00  0.00     0.048 A 
ATOM      4  C3  UNL d   1       0.802   1.537   0.758  0.00  0.00     0.023 A 
ATOM      5  C4  UNL d   1       0.943   0.858   1.970  0.00  0.00     0.048 A 
ATOM      6  C5  UNL d   1       0.228  -0.321   2.188  0.00  0.00     0.003 A 
ATOM      7  I   UNL d   1       1.864   3.293   0.429  0.00  0.00    -0.146 I 
ENDROOT
TORSDOF 0
ENDMDL
