MODEL 1
REMARK minimizedAffinity -2.83933067
REMARK minimizedRMSD -1
REMARK  0 active torsions:
REMARK  status: ('A' for Active; 'I' for Inactive)
ROOT
ATOM      1  C   UNL d   1      -0.926  -0.462   2.087  0.00  0.00     0.023 A 
ATOM      2  C1  UNL d   1      -1.757  -1.582   2.058  0.00  0.00     0.003 A 
ATOM      3  C2  UNL d   1      -1.782  -2.406   0.932  0.00  0.00     0.048 A 
ATOM      4  C3  UNL d   1      -0.971  -2.106  -0.163  0.00  0.00     0.023 A 
ATOM      5  C4  UNL d   1      -0.137  -0.987  -0.138  0.00  0.00     0.048 A 
ATOM      6  C5  UNL d   1      -0.117  -0.165   0.990  0.00  0.00     0.003 A 
ATOM      7  I   UNL d   1      -1.006  -3.331  -1.841  0.00  0.00    -0.146 I 
ENDROOT
TORSDOF 0
ENDMDL
