MODEL 1
REMARK minimizedAffinity -0.126228139
REMARK minimizedRMSD -1
REMARK  0 active torsions:
REMARK  status: ('A' for Active; 'I' for Inactive)
ROOT
ATOM      1  C   UNL d   1      -0.332  -0.024   1.632  0.00  0.00     0.023 A 
ATOM      2  C1  UNL d   1       0.173   0.322   0.378  0.00  0.00     0.003 A 
ATOM      3  C2  UNL d   1      -0.043  -0.517  -0.718  0.00  0.00     0.048 A 
ATOM      4  C3  UNL d   1      -0.765  -1.698  -0.553  0.00  0.00     0.023 A 
ATOM      5  C4  UNL d   1      -1.272  -2.047   0.700  0.00  0.00     0.048 A 
ATOM      6  C5  UNL d   1      -1.053  -1.207   1.793  0.00  0.00     0.003 A 
ATOM      7  I   UNL d   1      -1.087  -2.947  -2.182  0.00  0.00    -0.146 I 
ENDROOT
TORSDOF 0
ENDMDL
