MODEL 1
REMARK minimizedAffinity -2.14246583
REMARK minimizedRMSD -1
REMARK  0 active torsions:
REMARK  status: ('A' for Active; 'I' for Inactive)
ROOT
ATOM      1  C   UNL d   1      -1.197  -0.935   1.889  0.00  0.00     0.023 A 
ATOM      2  C1  UNL d   1      -0.740   0.079   1.046  0.00  0.00     0.003 A 
ATOM      3  C2  UNL d   1      -0.402  -0.212  -0.277  0.00  0.00     0.048 A 
ATOM      4  C3  UNL d   1      -0.523  -1.517  -0.752  0.00  0.00     0.023 A 
ATOM      5  C4  UNL d   1      -0.981  -2.534   0.088  0.00  0.00     0.048 A 
ATOM      6  C5  UNL d   1      -1.317  -2.240   1.410  0.00  0.00     0.003 A 
ATOM      7  I   UNL d   1      -0.021  -1.951  -2.721  0.00  0.00    -0.146 I 
ENDROOT
TORSDOF 0
ENDMDL
