MODEL 1
REMARK minimizedAffinity 5.75751162
REMARK minimizedRMSD -1
REMARK  0 active torsions:
REMARK  status: ('A' for Active; 'I' for Inactive)
ROOT
ATOM      1  C   UNL d   1      -4.549   5.996   1.503  0.00  0.00    -0.002 A 
ATOM      2  C1  UNL d   1      -5.762   5.997   2.175  0.00  0.00     0.010 A 
ATOM      3  C2  UNL d   1      -5.801   5.997   3.571  0.00  0.00     0.041 A 
ATOM      4  C3  UNL d   1      -4.588   5.998   4.287  0.00  0.00    -0.075 A 
ATOM      5  S   UNL d   1      -4.391   5.998   6.000  0.00  0.00     0.015 SA
ATOM      6  C4  UNL d   1      -2.691   5.999   5.879  0.00  0.00     0.022 A 
ATOM      7  C5  UNL d   1      -2.267   5.998   4.572  0.00  0.00     0.026 A 
ATOM      8  C6  UNL d   1      -3.353   5.998   3.632  0.00  0.00    -0.082 A 
ATOM      9  C7  UNL d   1      -3.347   5.997   2.216  0.00  0.00     0.045 A 
ENDROOT
TORSDOF 0
ENDMDL
