MODEL 1
REMARK minimizedAffinity -1.16094005
REMARK minimizedRMSD -1
REMARK  0 active torsions:
REMARK  status: ('A' for Active; 'I' for Inactive)
ROOT
ATOM      1  C   UNL d   1       4.084  -1.187   5.087  0.00  0.00    -0.002 A 
ATOM      2  C1  UNL d   1       5.371  -1.199   5.607  0.00  0.00     0.010 A 
ATOM      3  C2  UNL d   1       6.000  -2.406   5.919  0.00  0.00     0.041 A 
ATOM      4  C3  UNL d   1       5.309  -3.612   5.694  0.00  0.00    -0.075 A 
ATOM      5  S   UNL d   1       5.880  -5.210   6.000  0.00  0.00     0.015 SA
ATOM      6  C4  UNL d   1       4.431  -5.915   5.446  0.00  0.00     0.022 A 
ATOM      7  C5  UNL d   1       3.522  -4.969   5.035  0.00  0.00     0.026 A 
ATOM      8  C6  UNL d   1       4.013  -3.626   5.171  0.00  0.00    -0.082 A 
ATOM      9  C7  UNL d   1       3.401  -2.386   4.866  0.00  0.00     0.045 A 
ENDROOT
TORSDOF 0
ENDMDL
