MODEL 1
REMARK minimizedAffinity 8.26307487
REMARK minimizedRMSD -1
REMARK  0 active torsions:
REMARK  status: ('A' for Active; 'I' for Inactive)
ROOT
ATOM      1  C   UNL d   1      -4.069   5.923   5.995  0.00  0.00    -0.002 A 
ATOM      2  C1  UNL d   1      -5.233   5.896   5.241  0.00  0.00     0.010 A 
ATOM      3  C2  UNL d   1      -5.176   5.905   3.846  0.00  0.00     0.041 A 
ATOM      4  C3  UNL d   1      -3.917   5.939   3.215  0.00  0.00    -0.075 A 
ATOM      5  S   UNL d   1      -3.603   5.954   1.520  0.00  0.00     0.015 SA
ATOM      6  C4  UNL d   1      -1.916   5.996   1.757  0.00  0.00     0.022 A 
ATOM      7  C5  UNL d   1      -1.583   5.999   3.091  0.00  0.00     0.026 A 
ATOM      8  C6  UNL d   1      -2.730   5.966   3.953  0.00  0.00    -0.082 A 
ATOM      9  C7  UNL d   1      -2.821   5.957   5.366  0.00  0.00     0.045 A 
ENDROOT
TORSDOF 0
ENDMDL
