MODEL 1
REMARK minimizedAffinity 2.42382717
REMARK minimizedRMSD -1
REMARK  0 active torsions:
REMARK  status: ('A' for Active; 'I' for Inactive)
ROOT
ATOM      1  C   UNL d   1       1.708   1.087  -2.271  0.00  0.00    -0.002 A 
ATOM      2  C1  UNL d   1       1.031   2.250  -2.609  0.00  0.00     0.010 A 
ATOM      3  C2  UNL d   1       1.443   3.021  -3.697  0.00  0.00     0.041 A 
ATOM      4  C3  UNL d   1       2.556   2.598  -4.450  0.00  0.00    -0.075 A 
ATOM      5  S   UNL d   1       3.240   3.382  -5.825  0.00  0.00     0.015 SA
ATOM      6  C4  UNL d   1       4.446   2.190  -5.997  0.00  0.00     0.022 A 
ATOM      7  C5  UNL d   1       4.345   1.212  -5.037  0.00  0.00     0.026 A 
ATOM      8  C6  UNL d   1       3.254   1.430  -4.130  0.00  0.00    -0.082 A 
ATOM      9  C7  UNL d   1       2.812   0.671  -3.020  0.00  0.00     0.045 A 
ENDROOT
TORSDOF 0
ENDMDL
