MODEL 1
REMARK minimizedAffinity 2.73705864
REMARK minimizedRMSD -1
REMARK  0 active torsions:
REMARK  status: ('A' for Active; 'I' for Inactive)
ROOT
ATOM      1  C   UNL d   1      -1.514   5.976   4.744  0.00  0.00    -0.002 A 
ATOM      2  C1  UNL d   1      -2.237   5.990   5.929  0.00  0.00     0.010 A 
ATOM      3  C2  UNL d   1      -3.633   5.999   5.908  0.00  0.00     0.041 A 
ATOM      4  C3  UNL d   1      -4.297   5.992   4.665  0.00  0.00    -0.075 A 
ATOM      5  S   UNL d   1      -5.999   5.999   4.396  0.00  0.00     0.015 SA
ATOM      6  C4  UNL d   1      -5.807   5.984   2.702  0.00  0.00     0.022 A 
ATOM      7  C5  UNL d   1      -4.482   5.973   2.334  0.00  0.00     0.026 A 
ATOM      8  C6  UNL d   1      -3.590   5.977   3.459  0.00  0.00    -0.082 A 
ATOM      9  C7  UNL d   1      -2.175   5.969   3.513  0.00  0.00     0.045 A 
ENDROOT
TORSDOF 0
ENDMDL
