MODEL 1
REMARK minimizedAffinity 6.85007811
REMARK minimizedRMSD -1
REMARK  0 active torsions:
REMARK  status: ('A' for Active; 'I' for Inactive)
ROOT
ATOM      1  C   UNL d   1       2.087   3.647  -3.291  0.00  0.00    -0.002 A 
ATOM      2  C1  UNL d   1       1.743   3.229  -4.569  0.00  0.00     0.010 A 
ATOM      3  C2  UNL d   1       1.437   1.890  -4.820  0.00  0.00     0.041 A 
ATOM      4  C3  UNL d   1       1.482   0.969  -3.755  0.00  0.00    -0.075 A 
ATOM      5  S   UNL d   1       1.147  -0.720  -3.826  0.00  0.00     0.015 SA
ATOM      6  C4  UNL d   1       1.452  -0.927  -2.162  0.00  0.00     0.022 A 
ATOM      7  C5  UNL d   1       1.803   0.253  -1.552  0.00  0.00     0.026 A 
ATOM      8  C6  UNL d   1       1.826   1.366  -2.459  0.00  0.00    -0.082 A 
ATOM      9  C7  UNL d   1       2.131   2.730  -2.237  0.00  0.00     0.045 A 
ENDROOT
TORSDOF 0
ENDMDL
