MODEL 1
REMARK minimizedAffinity 3.29168868
REMARK minimizedRMSD -1
REMARK  0 active torsions:
REMARK  status: ('A' for Active; 'I' for Inactive)
ROOT
ATOM      1  C   UNL d   1       1.947   2.832  -3.674  0.00  0.00    -0.002 A 
ATOM      2  C1  UNL d   1       1.576   3.450  -2.488  0.00  0.00     0.010 A 
ATOM      3  C2  UNL d   1       1.366   2.697  -1.331  0.00  0.00     0.041 A 
ATOM      4  C3  UNL d   1       1.538   1.300  -1.386  0.00  0.00    -0.075 A 
ATOM      5  S   UNL d   1       1.336   0.176  -0.095  0.00  0.00     0.015 SA
ATOM      6  C4  UNL d   1       1.739  -1.150  -1.086  0.00  0.00     0.022 A 
ATOM      7  C5  UNL d   1       2.023  -0.763  -2.375  0.00  0.00     0.026 A 
ATOM      8  C6  UNL d   1       1.913   0.655  -2.569  0.00  0.00    -0.082 A 
ATOM      9  C7  UNL d   1       2.118   1.446  -3.725  0.00  0.00     0.045 A 
ENDROOT
TORSDOF 0
ENDMDL
