MODEL 1
REMARK minimizedAffinity 2.83073902
REMARK minimizedRMSD -1
REMARK  0 active torsions:
REMARK  status: ('A' for Active; 'I' for Inactive)
ROOT
ATOM      1  C   UNL d   1       2.272   4.600  -3.520  0.00  0.00    -0.002 A 
ATOM      2  C1  UNL d   1       1.973   4.446  -4.866  0.00  0.00     0.010 A 
ATOM      3  C2  UNL d   1       1.500   3.227  -5.354  0.00  0.00     0.041 A 
ATOM      4  C3  UNL d   1       1.329   2.154  -4.457  0.00  0.00    -0.075 A 
ATOM      5  S   UNL d   1       0.762   0.568  -4.829  0.00  0.00     0.015 SA
ATOM      6  C4  UNL d   1       0.903   0.058  -3.209  0.00  0.00     0.022 A 
ATOM      7  C5  UNL d   1       1.370   1.059  -2.391  0.00  0.00     0.026 A 
ATOM      8  C6  UNL d   1       1.623   2.284  -3.097  0.00  0.00    -0.082 A 
ATOM      9  C7  UNL d   1       2.101   3.533  -2.633  0.00  0.00     0.045 A 
ENDROOT
TORSDOF 0
ENDMDL
