MODEL 1
REMARK minimizedAffinity 6.29398155
REMARK minimizedRMSD -1
REMARK  0 active torsions:
REMARK  status: ('A' for Active; 'I' for Inactive)
ROOT
ATOM      1  C   UNL d   1       5.505  -1.340   5.524  0.00  0.00    -0.002 A 
ATOM      2  C1  UNL d   1       4.160  -1.105   5.274  0.00  0.00     0.010 A 
ATOM      3  C2  UNL d   1       3.257  -2.166   5.192  0.00  0.00     0.041 A 
ATOM      4  C3  UNL d   1       3.732  -3.481   5.369  0.00  0.00    -0.075 A 
ATOM      5  S   UNL d   1       2.810  -4.936   5.313  0.00  0.00     0.015 SA
ATOM      6  C4  UNL d   1       4.178  -5.904   5.621  0.00  0.00     0.022 A 
ATOM      7  C5  UNL d   1       5.320  -5.151   5.765  0.00  0.00     0.026 A 
ATOM      8  C6  UNL d   1       5.081  -3.742   5.623  0.00  0.00    -0.082 A 
ATOM      9  C7  UNL d   1       5.972  -2.645   5.699  0.00  0.00     0.045 A 
ENDROOT
TORSDOF 0
ENDMDL
