MODEL 1
REMARK minimizedAffinity -1.40963936
REMARK minimizedRMSD -1
REMARK  1 active torsions:
REMARK  status: ('A' for Active; 'I' for Inactive)
REMARK    1  A    between atoms: C1_2  and  C2_3 
ROOT
ATOM      1  C2  UNL d   1       0.371   2.835  -0.252  0.00  0.00    -0.077 A 
ATOM      2  C3  UNL d   1       0.326   1.479  -0.605  0.00  0.00     0.002 A 
ATOM      3  C4  UNL d   1       0.340   0.492   0.382  0.00  0.00     0.002 A 
ATOM      4  C5  UNL d   1       0.395   0.850   1.727  0.00  0.00    -0.004 A 
ATOM      5  C6  UNL d   1       0.443   2.196   2.088  0.00  0.00     0.002 A 
ATOM      6  C7  UNL d   1       0.430   3.184   1.103  0.00  0.00     0.002 A 
ENDROOT
BRANCH   1   7
ATOM      7  C1  UNL d   1       0.307   3.903  -1.313  0.00  0.00     0.055 C 
ATOM      8  C   UNL d   1       1.136   5.119  -0.926  0.00  0.00     0.019 C 
ENDBRANCH   1   7
TORSDOF 1
ENDMDL
