MODEL 1
REMARK minimizedAffinity 4.18512487
REMARK minimizedRMSD -1
REMARK  1 active torsions:
REMARK  status: ('A' for Active; 'I' for Inactive)
REMARK    1  A    between atoms: C1_2  and  C2_3 
ROOT
ATOM      1  C2  UNL d   1       1.417  -0.214   2.063  0.00  0.00    -0.077 A 
ATOM      2  C3  UNL d   1       1.460  -0.419   0.677  0.00  0.00     0.002 A 
ATOM      3  C4  UNL d   1       0.888   0.513  -0.192  0.00  0.00     0.002 A 
ATOM      4  C5  UNL d   1       0.274   1.656   0.316  0.00  0.00    -0.004 A 
ATOM      5  C6  UNL d   1       0.225   1.867   1.693  0.00  0.00     0.002 A 
ATOM      6  C7  UNL d   1       0.795   0.937   2.563  0.00  0.00     0.002 A 
ENDROOT
BRANCH   1   7
ATOM      7  C1  UNL d   1       2.077  -1.193   3.000  0.00  0.00     0.055 C 
ATOM      8  C   UNL d   1       1.278  -1.354   4.285  0.00  0.00     0.019 C 
ENDBRANCH   1   7
TORSDOF 1
ENDMDL
