MODEL 1
REMARK minimizedAffinity -6.00053835
REMARK minimizedRMSD -1
REMARK  1 active torsions:
REMARK  status: ('A' for Active; 'I' for Inactive)
REMARK    1  A    between atoms: C1_2  and  C2_3 
ROOT
ATOM      1  C2  UNL d   1      -0.409   2.933   0.285  0.00  0.00    -0.077 A 
ATOM      2  C3  UNL d   1      -0.203   4.263  -0.107  0.00  0.00     0.002 A 
ATOM      3  C4  UNL d   1      -0.275   4.622  -1.454  0.00  0.00     0.002 A 
ATOM      4  C5  UNL d   1      -0.557   3.658  -2.420  0.00  0.00    -0.004 A 
ATOM      5  C6  UNL d   1      -0.762   2.332  -2.041  0.00  0.00     0.002 A 
ATOM      6  C7  UNL d   1      -0.689   1.971  -0.694  0.00  0.00     0.002 A 
ENDROOT
BRANCH   1   7
ATOM      7  C1  UNL d   1      -0.381   2.553   1.742  0.00  0.00     0.055 C 
ATOM      8  C   UNL d   1       0.215   1.167   1.941  0.00  0.00     0.019 C 
ENDBRANCH   1   7
TORSDOF 1
ENDMDL
