MODEL 1
REMARK minimizedAffinity -1.9399848
REMARK minimizedRMSD -1
REMARK  1 active torsions:
REMARK  status: ('A' for Active; 'I' for Inactive)
REMARK    1  A    between atoms: C1_2  and  C2_3 
ROOT
ATOM      1  C2  UNL d   1      -0.325   2.957  -1.609  0.00  0.00    -0.077 A 
ATOM      2  C3  UNL d   1      -0.999   3.497  -2.713  0.00  0.00     0.002 A 
ATOM      3  C4  UNL d   1      -0.894   4.858  -3.007  0.00  0.00     0.002 A 
ATOM      4  C5  UNL d   1      -0.114   5.688  -2.205  0.00  0.00    -0.004 A 
ATOM      5  C6  UNL d   1       0.559   5.160  -1.104  0.00  0.00     0.002 A 
ATOM      6  C7  UNL d   1       0.454   3.801  -0.807  0.00  0.00     0.002 A 
ENDROOT
BRANCH   1   7
ATOM      7  C1  UNL d   1      -0.397   1.480  -1.318  0.00  0.00     0.055 C 
ATOM      8  C   UNL d   1      -1.638   0.854  -1.938  0.00  0.00     0.019 C 
ENDBRANCH   1   7
TORSDOF 1
ENDMDL
