MODEL 1
REMARK minimizedAffinity -4.98628759
REMARK minimizedRMSD -1
REMARK  1 active torsions:
REMARK  status: ('A' for Active; 'I' for Inactive)
REMARK    1  A    between atoms: C3_4  and  O_7 
ROOT
ATOM      1  C   UNL d   1      -2.781   4.031  -1.479  0.00  0.00    -0.033 A 
ATOM      2  C1  UNL d   1      -1.855   3.275  -0.756  0.00  0.00     0.039 A 
ATOM      3  C2  UNL d   1      -1.189   3.840   0.333  0.00  0.00    -0.080 A 
ATOM      4  C3  UNL d   1      -1.457   5.159   0.688  0.00  0.00     0.150 A 
ATOM      5  C4  UNL d   1      -2.380   5.917  -0.025  0.00  0.00    -0.007 A 
ATOM      6  C5  UNL d   1      -3.044   5.351  -1.112  0.00  0.00     0.039 A 
ENDROOT
BRANCH   4   7
ATOM      7  O   UNL d   1      -0.827   5.756   1.741  0.00  0.00    -0.526 OA
ATOM      8  H5  UNL d   1      -0.196   5.122   2.121  0.00  0.00     0.418 HD
ENDBRANCH   4   7
TORSDOF 1
ENDMDL
