MODEL 1
REMARK minimizedAffinity -2.90684557
REMARK minimizedRMSD -1
REMARK  1 active torsions:
REMARK  status: ('A' for Active; 'I' for Inactive)
REMARK    1  A    between atoms: C3_4  and  O_7 
ROOT
ATOM      1  C   UNL d   1       0.699   2.267  -0.368  0.00  0.00    -0.033 A 
ATOM      2  C1  UNL d   1       0.987   1.559   0.801  0.00  0.00     0.039 A 
ATOM      3  C2  UNL d   1       0.534   0.248   0.956  0.00  0.00    -0.080 A 
ATOM      4  C3  UNL d   1      -0.205  -0.344  -0.065  0.00  0.00     0.150 A 
ATOM      5  C4  UNL d   1      -0.493   0.353  -1.234  0.00  0.00    -0.007 A 
ATOM      6  C5  UNL d   1      -0.040   1.663  -1.386  0.00  0.00     0.039 A 
ENDROOT
BRANCH   4   7
ATOM      7  O   UNL d   1      -0.673  -1.620   0.042  0.00  0.00    -0.526 OA
ATOM      8  H5  UNL d   1      -0.423  -1.967   0.915  0.00  0.00     0.418 HD
ENDBRANCH   4   7
TORSDOF 1
ENDMDL
