MODEL 1
REMARK minimizedAffinity -1.35678697
REMARK minimizedRMSD -1
REMARK  1 active torsions:
REMARK  status: ('A' for Active; 'I' for Inactive)
REMARK    1  A    between atoms: C3_4  and  O_7 
ROOT
ATOM      1  C   UNL d   1      -0.304   4.134   1.880  0.00  0.00    -0.033 A 
ATOM      2  C1  UNL d   1      -0.020   3.246   0.840  0.00  0.00     0.039 A 
ATOM      3  C2  UNL d   1       1.279   3.150   0.338  0.00  0.00    -0.080 A 
ATOM      4  C3  UNL d   1       2.284   3.945   0.883  0.00  0.00     0.150 A 
ATOM      5  C4  UNL d   1       2.008   4.828   1.922  0.00  0.00    -0.007 A 
ATOM      6  C5  UNL d   1       0.710   4.924   2.422  0.00  0.00     0.039 A 
ENDROOT
BRANCH   4   7
ATOM      7  O   UNL d   1       3.566   3.890   0.422  0.00  0.00    -0.526 OA
ATOM      8  H5  UNL d   1       3.601   3.257  -0.314  0.00  0.00     0.418 HD
ENDBRANCH   4   7
TORSDOF 1
ENDMDL
