MODEL 1
REMARK minimizedAffinity -3.73322177
REMARK minimizedRMSD -1
REMARK  1 active torsions:
REMARK  status: ('A' for Active; 'I' for Inactive)
REMARK    1  A    between atoms: C3_4  and  O_7 
ROOT
ATOM      1  C   UNL d   1       1.658   3.774  -2.154  0.00  0.00    -0.033 A 
ATOM      2  C1  UNL d   1       1.075   3.167  -1.040  0.00  0.00     0.039 A 
ATOM      3  C2  UNL d   1       1.813   3.002   0.133  0.00  0.00    -0.080 A 
ATOM      4  C3  UNL d   1       3.131   3.448   0.180  0.00  0.00     0.150 A 
ATOM      5  C4  UNL d   1       3.717   4.057  -0.924  0.00  0.00    -0.007 A 
ATOM      6  C5  UNL d   1       2.979   4.221  -2.095  0.00  0.00     0.039 A 
ENDROOT
BRANCH   4   7
ATOM      7  O   UNL d   1       3.892   3.304   1.302  0.00  0.00    -0.526 OA
ATOM      8  H5  UNL d   1       3.365   2.840   1.974  0.00  0.00     0.418 HD
ENDBRANCH   4   7
TORSDOF 1
ENDMDL
