MODEL 1
REMARK minimizedAffinity -4.76448059
REMARK minimizedRMSD -1
REMARK  1 active torsions:
REMARK  status: ('A' for Active; 'I' for Inactive)
REMARK    1  A    between atoms: C3_4  and  O_7 
ROOT
ATOM      1  C   UNL d   1      -1.395  -0.061   0.875  0.00  0.00    -0.033 A 
ATOM      2  C1  UNL d   1      -0.813  -1.110   0.161  0.00  0.00     0.039 A 
ATOM      3  C2  UNL d   1      -0.237  -0.872  -1.088  0.00  0.00    -0.080 A 
ATOM      4  C3  UNL d   1      -0.247   0.418  -1.611  0.00  0.00     0.150 A 
ATOM      5  C4  UNL d   1      -0.822   1.469  -0.903  0.00  0.00    -0.007 A 
ATOM      6  C5  UNL d   1      -1.398   1.229   0.343  0.00  0.00     0.039 A 
ENDROOT
BRANCH   4   7
ATOM      7  O   UNL d   1       0.299   0.698  -2.828  0.00  0.00    -0.526 OA
ATOM      8  H5  UNL d   1       0.632  -0.129  -3.214  0.00  0.00     0.418 HD
ENDBRANCH   4   7
TORSDOF 1
ENDMDL
