MODEL 1
REMARK minimizedAffinity -3.30348802
REMARK minimizedRMSD -1
REMARK  1 active torsions:
REMARK  status: ('A' for Active; 'I' for Inactive)
REMARK    1  A    between atoms: C3_4  and  O_7 
ROOT
ATOM      1  C   UNL d   1       0.503  -0.640  -1.523  0.00  0.00    -0.033 A 
ATOM      2  C1  UNL d   1       0.204   0.567  -2.156  0.00  0.00     0.039 A 
ATOM      3  C2  UNL d   1      -0.665   1.478  -1.551  0.00  0.00    -0.080 A 
ATOM      4  C3  UNL d   1      -1.225   1.170  -0.315  0.00  0.00     0.150 A 
ATOM      5  C4  UNL d   1      -0.928  -0.029   0.324  0.00  0.00    -0.007 A 
ATOM      6  C5  UNL d   1      -0.061  -0.938  -0.282  0.00  0.00     0.039 A 
ENDROOT
BRANCH   4   7
ATOM      7  O   UNL d   1      -2.082   2.025   0.312  0.00  0.00    -0.526 OA
ATOM      8  H5  UNL d   1      -2.216   2.800  -0.259  0.00  0.00     0.418 HD
ENDBRANCH   4   7
TORSDOF 1
ENDMDL
