MODEL 1
REMARK minimizedAffinity -2.83636212
REMARK minimizedRMSD -1
REMARK  1 active torsions:
REMARK  status: ('A' for Active; 'I' for Inactive)
REMARK    1  A    between atoms: C3_4  and  O_7 
ROOT
ATOM      1  C   UNL d   1       0.238  -1.135  -0.881  0.00  0.00    -0.033 A 
ATOM      2  C1  UNL d   1      -0.450  -1.030   0.330  0.00  0.00     0.039 A 
ATOM      3  C2  UNL d   1      -1.056   0.176   0.689  0.00  0.00    -0.080 A 
ATOM      4  C3  UNL d   1      -0.967   1.267  -0.171  0.00  0.00     0.150 A 
ATOM      5  C4  UNL d   1      -0.287   1.169  -1.380  0.00  0.00    -0.007 A 
ATOM      6  C5  UNL d   1       0.318  -0.035  -1.736  0.00  0.00     0.039 A 
ENDROOT
BRANCH   4   7
ATOM      7  O   UNL d   1      -1.538   2.466   0.139  0.00  0.00    -0.526 OA
ATOM      8  H5  UNL d   1      -1.949   2.394   1.016  0.00  0.00     0.418 HD
ENDBRANCH   4   7
TORSDOF 1
ENDMDL
