MODEL 1
REMARK minimizedAffinity -2.15811276
REMARK minimizedRMSD -1
REMARK  1 active torsions:
REMARK  status: ('A' for Active; 'I' for Inactive)
REMARK    1  A    between atoms: C3_4  and  O_7 
ROOT
ATOM      1  C   UNL d   1      -0.028  -1.147  -1.054  0.00  0.00    -0.033 A 
ATOM      2  C1  UNL d   1       0.030  -0.023  -1.880  0.00  0.00     0.039 A 
ATOM      3  C2  UNL d   1      -0.346   1.228  -1.386  0.00  0.00    -0.080 A 
ATOM      4  C3  UNL d   1      -0.776   1.341  -0.067  0.00  0.00     0.150 A 
ATOM      5  C4  UNL d   1      -0.833   0.226   0.762  0.00  0.00    -0.007 A 
ATOM      6  C5  UNL d   1      -0.458  -1.022   0.268  0.00  0.00     0.039 A 
ENDROOT
BRANCH   4   7
ATOM      7  O   UNL d   1      -1.157   2.541   0.458  0.00  0.00    -0.526 OA
ATOM      8  H5  UNL d   1      -1.093   3.215  -0.239  0.00  0.00     0.418 HD
ENDBRANCH   4   7
TORSDOF 1
ENDMDL
