MODEL 1
REMARK minimizedAffinity -3.94536066
REMARK minimizedRMSD -1
REMARK  1 active torsions:
REMARK  status: ('A' for Active; 'I' for Inactive)
REMARK    1  A    between atoms: C3_4  and  O_7 
ROOT
ATOM      1  C   UNL d   1      -1.167   0.529   1.030  0.00  0.00    -0.033 A 
ATOM      2  C1  UNL d   1      -0.882  -0.823   0.834  0.00  0.00     0.039 A 
ATOM      3  C2  UNL d   1      -0.372  -1.261  -0.390  0.00  0.00    -0.080 A 
ATOM      4  C3  UNL d   1      -0.150  -0.337  -1.408  0.00  0.00     0.150 A 
ATOM      5  C4  UNL d   1      -0.428   1.013  -1.218  0.00  0.00    -0.007 A 
ATOM      6  C5  UNL d   1      -0.939   1.448   0.004  0.00  0.00     0.039 A 
ENDROOT
BRANCH   4   7
ATOM      7  O   UNL d   1       0.342  -0.717  -2.621  0.00  0.00    -0.526 OA
ATOM      8  H5  UNL d   1       0.460  -1.681  -2.616  0.00  0.00     0.418 HD
ENDBRANCH   4   7
TORSDOF 1
ENDMDL
