MODEL 1
REMARK minimizedAffinity -4.41600084
REMARK minimizedRMSD -1
REMARK  1 active torsions:
REMARK  status: ('A' for Active; 'I' for Inactive)
REMARK    1  A    between atoms: C3_4  and  O_7 
ROOT
ATOM      1  C   UNL d   1      -1.178  -1.042   0.232  0.00  0.00    -0.033 A 
ATOM      2  C1  UNL d   1      -1.653   0.173   0.731  0.00  0.00     0.039 A 
ATOM      3  C2  UNL d   1      -1.139   1.377   0.246  0.00  0.00    -0.080 A 
ATOM      4  C3  UNL d   1      -0.154   1.354  -0.737  0.00  0.00     0.150 A 
ATOM      5  C4  UNL d   1       0.321   0.147  -1.242  0.00  0.00    -0.007 A 
ATOM      6  C5  UNL d   1      -0.192  -1.054  -0.755  0.00  0.00     0.039 A 
ENDROOT
BRANCH   4   7
ATOM      7  O   UNL d   1       0.381   2.503  -1.238  0.00  0.00    -0.526 OA
ATOM      8  H5  UNL d   1      -0.022   3.257  -0.776  0.00  0.00     0.418 HD
ENDBRANCH   4   7
TORSDOF 1
ENDMDL
