MODEL 1
REMARK minimizedAffinity -4.53508759
REMARK minimizedRMSD -1
REMARK  1 active torsions:
REMARK  status: ('A' for Active; 'I' for Inactive)
REMARK    1  A    between atoms: C3_4  and  O_7 
ROOT
ATOM      1  C   UNL d   1      -1.021   4.281   1.061  0.00  0.00    -0.033 A 
ATOM      2  C1  UNL d   1      -0.191   5.045   1.884  0.00  0.00     0.039 A 
ATOM      3  C2  UNL d   1       1.194   4.879   1.828  0.00  0.00    -0.080 A 
ATOM      4  C3  UNL d   1       1.736   3.948   0.946  0.00  0.00     0.150 A 
ATOM      5  C4  UNL d   1       0.915   3.186   0.121  0.00  0.00    -0.007 A 
ATOM      6  C5  UNL d   1      -0.468   3.353   0.179  0.00  0.00     0.039 A 
ENDROOT
BRANCH   4   7
ATOM      7  O   UNL d   1       3.081   3.748   0.859  0.00  0.00    -0.526 OA
ATOM      8  H5  UNL d   1       3.521   4.323   1.507  0.00  0.00     0.418 HD
ENDBRANCH   4   7
TORSDOF 1
ENDMDL
