MODEL 1
REMARK minimizedAffinity -4.33953333
REMARK minimizedRMSD -1
REMARK  1 active torsions:
REMARK  status: ('A' for Active; 'I' for Inactive)
REMARK    1  A    between atoms: C3_4  and  O_7 
ROOT
ATOM      1  C   UNL d   1      -1.268   4.258   1.117  0.00  0.00    -0.033 A 
ATOM      2  C1  UNL d   1      -0.457   4.957   2.013  0.00  0.00     0.039 A 
ATOM      3  C2  UNL d   1       0.932   4.836   1.940  0.00  0.00    -0.080 A 
ATOM      4  C3  UNL d   1       1.496   4.015   0.968  0.00  0.00     0.150 A 
ATOM      5  C4  UNL d   1       0.694   3.319   0.070  0.00  0.00    -0.007 A 
ATOM      6  C5  UNL d   1      -0.693   3.440   0.145  0.00  0.00     0.039 A 
ENDROOT
BRANCH   4   7
ATOM      7  O   UNL d   1       2.847   3.861   0.861  0.00  0.00    -0.526 OA
ATOM      8  H5  UNL d   1       3.272   4.379   1.565  0.00  0.00     0.418 HD
ENDBRANCH   4   7
TORSDOF 1
ENDMDL
