MODEL 1
REMARK minimizedAffinity -4.06118298
REMARK minimizedRMSD -1
REMARK  1 active torsions:
REMARK  status: ('A' for Active; 'I' for Inactive)
REMARK    1  A    between atoms: C3_4  and  O_7 
ROOT
ATOM      1  C   UNL d   1      -0.581   1.293  -1.085  0.00  0.00    -0.033 A 
ATOM      2  C1  UNL d   1      -1.158   1.015   0.155  0.00  0.00     0.039 A 
ATOM      3  C2  UNL d   1      -1.096  -0.277   0.683  0.00  0.00    -0.080 A 
ATOM      4  C3  UNL d   1      -0.453  -1.279  -0.038  0.00  0.00     0.150 A 
ATOM      5  C4  UNL d   1       0.128  -1.008  -1.273  0.00  0.00    -0.007 A 
ATOM      6  C5  UNL d   1       0.064   0.281  -1.799  0.00  0.00     0.039 A 
ENDROOT
BRANCH   4   7
ATOM      7  O   UNL d   1      -0.370  -2.555   0.433  0.00  0.00    -0.526 OA
ATOM      8  H5  UNL d   1      -0.841  -2.601   1.283  0.00  0.00     0.418 HD
ENDBRANCH   4   7
TORSDOF 1
ENDMDL
