MODEL 1
REMARK minimizedAffinity -3.39505196
REMARK minimizedRMSD -1
REMARK  1 active torsions:
REMARK  status: ('A' for Active; 'I' for Inactive)
REMARK    1  A    between atoms: C3_4  and  O_7 
ROOT
ATOM      1  C   UNL d   1       3.742   3.806   0.003  0.00  0.00    -0.033 A 
ATOM      2  C1  UNL d   1       3.832   2.535   0.573  0.00  0.00     0.039 A 
ATOM      3  C2  UNL d   1       2.904   1.548   0.235  0.00  0.00    -0.080 A 
ATOM      4  C3  UNL d   1       1.892   1.846  -0.674  0.00  0.00     0.150 A 
ATOM      5  C4  UNL d   1       1.798   3.109  -1.248  0.00  0.00    -0.007 A 
ATOM      6  C5  UNL d   1       2.725   4.093  -0.908  0.00  0.00     0.039 A 
ENDROOT
BRANCH   4   7
ATOM      7  O   UNL d   1       0.960   0.917  -1.031  0.00  0.00    -0.526 OA
ATOM      8  H5  UNL d   1       1.132   0.101  -0.534  0.00  0.00     0.418 HD
ENDBRANCH   4   7
TORSDOF 1
ENDMDL
