MODEL 1
REMARK minimizedAffinity -3.33688188
REMARK minimizedRMSD -1
REMARK  1 active torsions:
REMARK  status: ('A' for Active; 'I' for Inactive)
REMARK    1  A    between atoms: C3_4  and  O_7 
ROOT
ATOM      1  C   UNL d   1      -1.365  -0.177   0.926  0.00  0.00    -0.033 A 
ATOM      2  C1  UNL d   1      -1.890   1.110   0.797  0.00  0.00     0.039 A 
ATOM      3  C2  UNL d   1      -1.051   2.180   0.479  0.00  0.00    -0.080 A 
ATOM      4  C3  UNL d   1       0.309   1.950   0.292  0.00  0.00     0.150 A 
ATOM      5  C4  UNL d   1       0.838   0.669   0.414  0.00  0.00    -0.007 A 
ATOM      6  C5  UNL d   1      -0.001  -0.398   0.733  0.00  0.00     0.039 A 
ENDROOT
BRANCH   4   7
ATOM      7  O   UNL d   1       1.167   2.963  -0.015  0.00  0.00    -0.526 OA
ATOM      8  H5  UNL d   1       0.666   3.795  -0.039  0.00  0.00     0.418 HD
ENDBRANCH   4   7
TORSDOF 1
ENDMDL
