MODEL 1
REMARK minimizedAffinity -4.43517208
REMARK minimizedRMSD -1
REMARK  1 active torsions:
REMARK  status: ('A' for Active; 'I' for Inactive)
REMARK    1  A    between atoms: C3_4  and  O_7 
ROOT
ATOM      1  C   UNL d   1      -0.920   0.986  -0.769  0.00  0.00    -0.033 A 
ATOM      2  C1  UNL d   1      -0.250   0.069  -1.582  0.00  0.00     0.039 A 
ATOM      3  C2  UNL d   1       0.020  -1.217  -1.110  0.00  0.00    -0.080 A 
ATOM      4  C3  UNL d   1      -0.386  -1.573   0.173  0.00  0.00     0.150 A 
ATOM      5  C4  UNL d   1      -1.057  -0.666   0.986  0.00  0.00    -0.007 A 
ATOM      6  C5  UNL d   1      -1.325   0.618   0.514  0.00  0.00     0.039 A 
ENDROOT
BRANCH   4   7
ATOM      7  O   UNL d   1      -0.140  -2.815   0.679  0.00  0.00    -0.526 OA
ATOM      8  H5  UNL d   1       0.356  -3.324   0.016  0.00  0.00     0.418 HD
ENDBRANCH   4   7
TORSDOF 1
ENDMDL
