MODEL 1
REMARK minimizedAffinity -2.85532713
REMARK minimizedRMSD -1
REMARK  1 active torsions:
REMARK  status: ('A' for Active; 'I' for Inactive)
REMARK    1  A    between atoms: C3_4  and  O_7 
ROOT
ATOM      1  C   UNL d   1      -0.113   1.371  -1.996  0.00  0.00    -0.033 A 
ATOM      2  C1  UNL d   1      -0.059   2.119  -0.818  0.00  0.00     0.039 A 
ATOM      3  C2  UNL d   1       0.012   1.473   0.418  0.00  0.00    -0.080 A 
ATOM      4  C3  UNL d   1       0.029   0.082   0.462  0.00  0.00     0.150 A 
ATOM      5  C4  UNL d   1      -0.021  -0.669  -0.708  0.00  0.00    -0.007 A 
ATOM      6  C5  UNL d   1      -0.093  -0.023  -1.941  0.00  0.00     0.039 A 
ENDROOT
BRANCH   4   7
ATOM      7  O   UNL d   1       0.092  -0.593   1.645  0.00  0.00    -0.526 OA
ATOM      8  H5  UNL d   1       0.093   0.055   2.369  0.00  0.00     0.418 HD
ENDBRANCH   4   7
TORSDOF 1
ENDMDL
