MODEL 1
REMARK minimizedAffinity -4.53391743
REMARK minimizedRMSD -1
REMARK  0 active torsions:
REMARK  status: ('A' for Active; 'I' for Inactive)
ROOT
ATOM      1  C1  BNZ d   1       2.611  -0.742  -1.459  0.00  0.00     0.000 A 
ATOM      2  C2  BNZ d   1       2.979   0.171  -2.411  0.00  0.00     0.000 A 
ATOM      3  C3  BNZ d   1       2.375   1.395  -2.478  0.00  0.00     0.000 A 
ATOM      4  C4  BNZ d   1       1.377   1.689  -1.620  0.00  0.00     0.000 A 
ATOM      5  C5  BNZ d   1       0.987   0.776  -0.661  0.00  0.00     0.000 A 
ATOM      6  C6  BNZ d   1       1.625  -0.441  -0.571  0.00  0.00     0.000 A 
ENDROOT
TORSDOF 0
ENDMDL
