MODEL 1
REMARK minimizedAffinity -5.29811764
REMARK minimizedRMSD -1
REMARK  0 active torsions:
REMARK  status: ('A' for Active; 'I' for Inactive)
ROOT
ATOM      1  C1  BNZ d   1       0.139  -0.068  -0.309  0.00  0.00     0.000 A 
ATOM      2  C2  BNZ d   1       0.810   0.842  -1.084  0.00  0.00     0.000 A 
ATOM      3  C3  BNZ d   1       1.997   0.515  -1.677  0.00  0.00     0.000 A 
ATOM      4  C4  BNZ d   1       2.532  -0.704  -1.463  0.00  0.00     0.000 A 
ATOM      5  C5  BNZ d   1       1.873  -1.629  -0.677  0.00  0.00     0.000 A 
ATOM      6  C6  BNZ d   1       0.659  -1.310  -0.113  0.00  0.00     0.000 A 
ENDROOT
TORSDOF 0
ENDMDL
