MODEL 1
REMARK minimizedAffinity -4.45448351
REMARK minimizedRMSD -1
REMARK  0 active torsions:
REMARK  status: ('A' for Active; 'I' for Inactive)
ROOT
ATOM      1  C1  BNZ d   1       2.746  -0.933  -2.268  0.00  0.00     0.000 A 
ATOM      2  C2  BNZ d   1       2.577   0.014  -1.293  0.00  0.00     0.000 A 
ATOM      3  C3  BNZ d   1       1.878   1.161  -1.546  0.00  0.00     0.000 A 
ATOM      4  C4  BNZ d   1       1.383   1.378  -2.781  0.00  0.00     0.000 A 
ATOM      5  C5  BNZ d   1       1.553   0.437  -3.777  0.00  0.00     0.000 A 
ATOM      6  C6  BNZ d   1       2.224  -0.734  -3.509  0.00  0.00     0.000 A 
ENDROOT
TORSDOF 0
ENDMDL
