MODEL 1
REMARK minimizedAffinity -4.26082706
REMARK minimizedRMSD -1
REMARK  0 active torsions:
REMARK  status: ('A' for Active; 'I' for Inactive)
ROOT
ATOM      1  C1  BNZ d   1       1.787  -1.552  -0.819  0.00  0.00     0.000 A 
ATOM      2  C2  BNZ d   1       0.655  -1.662  -0.057  0.00  0.00     0.000 A 
ATOM      3  C3  BNZ d   1      -0.197  -0.602   0.088  0.00  0.00     0.000 A 
ATOM      4  C4  BNZ d   1       0.105   0.576  -0.495  0.00  0.00     0.000 A 
ATOM      5  C5  BNZ d   1       1.248   0.705  -1.259  0.00  0.00     0.000 A 
ATOM      6  C6  BNZ d   1       2.083  -0.375  -1.434  0.00  0.00     0.000 A 
ENDROOT
TORSDOF 0
ENDMDL
