MODEL 1
REMARK minimizedAffinity -4.81659412
REMARK minimizedRMSD -1
REMARK  0 active torsions:
REMARK  status: ('A' for Active; 'I' for Inactive)
ROOT
ATOM      1  C1  BNZ d   1       0.661   0.488  -0.509  0.00  0.00     0.000 A 
ATOM      2  C2  BNZ d   1       1.431  -0.639  -0.394  0.00  0.00     0.000 A 
ATOM      3  C3  BNZ d   1       2.503  -0.842  -1.218  0.00  0.00     0.000 A 
ATOM      4  C4  BNZ d   1       2.780   0.062  -2.180  0.00  0.00     0.000 A 
ATOM      5  C5  BNZ d   1       2.008   1.198  -2.315  0.00  0.00     0.000 A 
ATOM      6  C6  BNZ d   1       0.953   1.418  -1.459  0.00  0.00     0.000 A 
ENDROOT
TORSDOF 0
ENDMDL
