MODEL 1
REMARK minimizedAffinity -4.98217106
REMARK minimizedRMSD -1
REMARK  0 active torsions:
REMARK  status: ('A' for Active; 'I' for Inactive)
ROOT
ATOM      1  C1  BNZ d   1       0.809  -1.578  -0.105  0.00  0.00     0.000 A 
ATOM      2  C2  BNZ d   1       1.894  -1.805  -0.909  0.00  0.00     0.000 A 
ATOM      3  C3  BNZ d   1       2.530  -0.769  -1.534  0.00  0.00     0.000 A 
ATOM      4  C4  BNZ d   1       2.057   0.485  -1.387  0.00  0.00     0.000 A 
ATOM      5  C5  BNZ d   1       0.959   0.729  -0.588  0.00  0.00     0.000 A 
ATOM      6  C6  BNZ d   1       0.344  -0.311   0.071  0.00  0.00     0.000 A 
ENDROOT
TORSDOF 0
ENDMDL
