MODEL 1
REMARK minimizedAffinity -2.19600916
REMARK minimizedRMSD -1
REMARK  0 active torsions:
REMARK  status: ('A' for Active; 'I' for Inactive)
ROOT
ATOM      1  C1  BNZ d   1       1.114  -0.026   0.721  0.00  0.00     0.000 A 
ATOM      2  C2  BNZ d   1       2.420   0.101   0.331  0.00  0.00     0.000 A 
ATOM      3  C3  BNZ d   1       2.860  -0.461  -0.835  0.00  0.00     0.000 A 
ATOM      4  C4  BNZ d   1       2.005  -1.184  -1.586  0.00  0.00     0.000 A 
ATOM      5  C5  BNZ d   1       0.687  -1.330  -1.201  0.00  0.00     0.000 A 
ATOM      6  C6  BNZ d   1       0.238  -0.729  -0.048  0.00  0.00     0.000 A 
ENDROOT
TORSDOF 0
ENDMDL
