MODEL 1
REMARK minimizedAffinity -3.86935878
REMARK minimizedRMSD -1
REMARK  0 active torsions:
REMARK  status: ('A' for Active; 'I' for Inactive)
ROOT
ATOM      1  C1  BNZ d   1       1.279  -0.293  -0.262  0.00  0.00     0.000 A 
ATOM      2  C2  BNZ d   1       0.616   0.898  -0.128  0.00  0.00     0.000 A 
ATOM      3  C3  BNZ d   1      -0.725   0.927   0.136  0.00  0.00     0.000 A 
ATOM      4  C4  BNZ d   1      -1.408  -0.232   0.225  0.00  0.00     0.000 A 
ATOM      5  C5  BNZ d   1      -0.756  -1.441   0.083  0.00  0.00     0.000 A 
ATOM      6  C6  BNZ d   1       0.601  -1.467  -0.144  0.00  0.00     0.000 A 
ENDROOT
TORSDOF 0
ENDMDL
