MODEL 1
REMARK minimizedAffinity -1.57973909
REMARK minimizedRMSD -1
REMARK  0 active torsions:
REMARK  status: ('A' for Active; 'I' for Inactive)
ROOT
ATOM      1  C1  BNZ d   1       0.859   0.138  -0.674  0.00  0.00     0.000 A 
ATOM      2  C2  BNZ d   1       1.519  -1.044  -0.878  0.00  0.00     0.000 A 
ATOM      3  C3  BNZ d   1       2.296  -1.229  -1.988  0.00  0.00     0.000 A 
ATOM      4  C4  BNZ d   1       2.379  -0.248  -2.910  0.00  0.00     0.000 A 
ATOM      5  C5  BNZ d   1       1.711   0.946  -2.723  0.00  0.00     0.000 A 
ATOM      6  C6  BNZ d   1       0.962   1.143  -1.586  0.00  0.00     0.000 A 
ENDROOT
TORSDOF 0
ENDMDL
