MODEL 1
REMARK minimizedAffinity -2.29147673
REMARK minimizedRMSD -1
REMARK  0 active torsions:
REMARK  status: ('A' for Active; 'I' for Inactive)
ROOT
ATOM      1  C1  BNZ d   1       0.871  -0.160  -1.341  0.00  0.00     0.000 A 
ATOM      2  C2  BNZ d   1      -0.024   0.838  -1.057  0.00  0.00     0.000 A 
ATOM      3  C3  BNZ d   1      -0.922   0.703  -0.035  0.00  0.00     0.000 A 
ATOM      4  C4  BNZ d   1      -0.951  -0.443   0.675  0.00  0.00     0.000 A 
ATOM      5  C5  BNZ d   1      -0.062  -1.462   0.395  0.00  0.00     0.000 A 
ATOM      6  C6  BNZ d   1       0.866  -1.307  -0.609  0.00  0.00     0.000 A 
ENDROOT
TORSDOF 0
ENDMDL
