MODEL 1
REMARK minimizedAffinity -4.81448364
REMARK minimizedRMSD -1
REMARK  0 active torsions:
REMARK  status: ('A' for Active; 'I' for Inactive)
ROOT
ATOM      1  C1  BNZ d   1       1.711   1.545  -1.718  0.00  0.00     0.000 A 
ATOM      2  C2  BNZ d   1       1.230   0.800  -0.675  0.00  0.00     0.000 A 
ATOM      3  C3  BNZ d   1       1.832  -0.375  -0.318  0.00  0.00     0.000 A 
ATOM      4  C4  BNZ d   1       2.887  -0.822  -1.029  0.00  0.00     0.000 A 
ATOM      5  C5  BNZ d   1       3.378  -0.086  -2.089  0.00  0.00     0.000 A 
ATOM      6  C6  BNZ d   1       2.794   1.115  -2.421  0.00  0.00     0.000 A 
ENDROOT
TORSDOF 0
ENDMDL
