MODEL 1
REMARK minimizedAffinity -4.66231775
REMARK minimizedRMSD -1
REMARK  0 active torsions:
REMARK  status: ('A' for Active; 'I' for Inactive)
ROOT
ATOM      1  C1  BNZ d   1       0.327   0.715  -0.335  0.00  0.00     0.000 A 
ATOM      2  C2  BNZ d   1       1.618   0.648  -0.787  0.00  0.00     0.000 A 
ATOM      3  C3  BNZ d   1       2.255  -0.556  -0.909  0.00  0.00     0.000 A 
ATOM      4  C4  BNZ d   1       1.615  -1.685  -0.543  0.00  0.00     0.000 A 
ATOM      5  C5  BNZ d   1       0.317  -1.633  -0.077  0.00  0.00     0.000 A 
ATOM      6  C6  BNZ d   1      -0.335  -0.424   0.008  0.00  0.00     0.000 A 
ENDROOT
TORSDOF 0
ENDMDL
