MODEL 1
REMARK minimizedAffinity -3.22385621
REMARK minimizedRMSD -1
REMARK  0 active torsions:
REMARK  status: ('A' for Active; 'I' for Inactive)
ROOT
ATOM      1  C1  BNZ d   1       0.444   1.793  -1.505  0.00  0.00     0.000 A 
ATOM      2  C2  BNZ d   1      -0.772   1.564  -0.918  0.00  0.00     0.000 A 
ATOM      3  C3  BNZ d   1      -0.941   0.532  -0.038  0.00  0.00     0.000 A 
ATOM      4  C4  BNZ d   1       0.094  -0.293   0.223  0.00  0.00     0.000 A 
ATOM      5  C5  BNZ d   1       1.323  -0.081  -0.368  0.00  0.00     0.000 A 
ATOM      6  C6  BNZ d   1       1.500   0.983  -1.223  0.00  0.00     0.000 A 
ENDROOT
TORSDOF 0
ENDMDL
