MODEL 1
REMARK minimizedAffinity -3.77643991
REMARK minimizedRMSD -1
REMARK  0 active torsions:
REMARK  status: ('A' for Active; 'I' for Inactive)
ROOT
ATOM      1  C1  BNZ d   1       1.746   0.464  -0.963  0.00  0.00     0.000 A 
ATOM      2  C2  BNZ d   1       0.549   0.590  -0.310  0.00  0.00     0.000 A 
ATOM      3  C3  BNZ d   1      -0.102  -0.509   0.177  0.00  0.00     0.000 A 
ATOM      4  C4  BNZ d   1       0.425  -1.734  -0.024  0.00  0.00     0.000 A 
ATOM      5  C5  BNZ d   1       1.626  -1.879  -0.689  0.00  0.00     0.000 A 
ATOM      6  C6  BNZ d   1       2.298  -0.767  -1.143  0.00  0.00     0.000 A 
ENDROOT
TORSDOF 0
ENDMDL
