MODEL 1
REMARK minimizedAffinity -1.85726666
REMARK minimizedRMSD -1
REMARK  0 active torsions:
REMARK  status: ('A' for Active; 'I' for Inactive)
ROOT
ATOM      1  C1  BNZ d   1       1.761  -1.194  -0.702  0.00  0.00     0.000 A 
ATOM      2  C2  BNZ d   1       1.237   0.071  -0.661  0.00  0.00     0.000 A 
ATOM      3  C3  BNZ d   1       0.040   0.313  -0.049  0.00  0.00     0.000 A 
ATOM      4  C4  BNZ d   1      -0.652  -0.713   0.486  0.00  0.00     0.000 A 
ATOM      5  C5  BNZ d   1      -0.142  -1.996   0.445  0.00  0.00     0.000 A 
ATOM      6  C6  BNZ d   1       1.082  -2.231  -0.138  0.00  0.00     0.000 A 
ENDROOT
TORSDOF 0
ENDMDL
