MODEL 1
REMARK minimizedAffinity -4.62826204
REMARK minimizedRMSD -1
REMARK  0 active torsions:
REMARK  status: ('A' for Active; 'I' for Inactive)
ROOT
ATOM      1  C1  BNZ d   1       0.556  -0.351   0.156  0.00  0.00     0.000 A 
ATOM      2  C2  BNZ d   1       1.244   0.576  -0.580  0.00  0.00     0.000 A 
ATOM      3  C3  BNZ d   1       2.275   0.199  -1.394  0.00  0.00     0.000 A 
ATOM      4  C4  BNZ d   1       2.644  -1.098  -1.439  0.00  0.00     0.000 A 
ATOM      5  C5  BNZ d   1       1.966  -2.044  -0.696  0.00  0.00     0.000 A 
ATOM      6  C6  BNZ d   1       0.903  -1.666   0.092  0.00  0.00     0.000 A 
ENDROOT
TORSDOF 0
ENDMDL
