MODEL 1
REMARK minimizedAffinity 1.15955853
REMARK minimizedRMSD -1
REMARK  0 active torsions:
REMARK  status: ('A' for Active; 'I' for Inactive)
ROOT
ATOM      1  C2' OXE d   1       4.464  -3.519   2.905  0.00  0.00     0.078 C 
ATOM      2  C1' OXE d   1       5.878  -1.799   1.195  0.00  0.00     0.078 C 
ATOM      3  C1  OXE d   1       4.395  -1.958   0.965  0.00  0.00    -0.078 A 
ATOM      4  C2  OXE d   1       3.720  -2.837   1.777  0.00  0.00    -0.078 A 
ATOM      5  C3  OXE d   1       2.342  -2.980   1.643  0.00  0.00     0.003 A 
ATOM      6  C4  OXE d   1       1.663  -2.353   0.591  0.00  0.00    -0.002 A 
ATOM      7  C5  OXE d   1       2.339  -1.484  -0.272  0.00  0.00    -0.002 A 
ATOM      8  C6  OXE d   1       3.694  -1.243  -0.073  0.00  0.00     0.003 A 
ENDROOT
TORSDOF 0
ENDMDL
