MODEL 1
REMARK minimizedAffinity -0.095528245
REMARK minimizedRMSD -1
REMARK  0 active torsions:
REMARK  status: ('A' for Active; 'I' for Inactive)
ROOT
ATOM      1  C2' OXE d   1       0.989  -2.961   1.386  0.00  0.00     0.078 C 
ATOM      2  C1' OXE d   1      -1.381  -2.845   2.885  0.00  0.00     0.078 C 
ATOM      3  C1  OXE d   1      -0.980  -1.617   2.108  0.00  0.00    -0.078 A 
ATOM      4  C2  OXE d   1       0.205  -1.667   1.414  0.00  0.00    -0.078 A 
ATOM      5  C3  OXE d   1       0.595  -0.581   0.636  0.00  0.00     0.003 A 
ATOM      6  C4  OXE d   1      -0.131   0.616   0.675  0.00  0.00    -0.002 A 
ATOM      7  C5  OXE d   1      -1.320   0.702   1.407  0.00  0.00    -0.002 A 
ATOM      8  C6  OXE d   1      -1.780  -0.417   2.093  0.00  0.00     0.003 A 
ENDROOT
TORSDOF 0
ENDMDL
