MODEL 1
REMARK minimizedAffinity 7.50090837
REMARK minimizedRMSD -1
REMARK  0 active torsions:
REMARK  status: ('A' for Active; 'I' for Inactive)
ROOT
ATOM      1  C2' OXE d   1      -1.106   1.313   2.354  0.00  0.00     0.078 C 
ATOM      2  C1' OXE d   1      -0.041  -1.241   2.825  0.00  0.00     0.078 C 
ATOM      3  C1  OXE d   1      -1.330  -1.149   2.048  0.00  0.00    -0.078 A 
ATOM      4  C2  OXE d   1      -1.868   0.102   1.863  0.00  0.00    -0.078 A 
ATOM      5  C3  OXE d   1      -3.028   0.248   1.106  0.00  0.00     0.003 A 
ATOM      6  C4  OXE d   1      -3.732  -0.878   0.664  0.00  0.00    -0.002 A 
ATOM      7  C5  OXE d   1      -3.222  -2.163   0.877  0.00  0.00    -0.002 A 
ATOM      8  C6  OXE d   1      -2.003  -2.314   1.528  0.00  0.00     0.003 A 
ENDROOT
TORSDOF 0
ENDMDL
