MODEL 1
REMARK minimizedAffinity 11.3462658
REMARK minimizedRMSD -1
REMARK  0 active torsions:
REMARK  status: ('A' for Active; 'I' for Inactive)
ROOT
ATOM      1  C2' OXE d   1       4.360  -0.252  -0.516  0.00  0.00     0.078 C 
ATOM      2  C1' OXE d   1       5.946  -2.498   0.047  0.00  0.00     0.078 C 
ATOM      3  C1  OXE d   1       4.448  -2.665   0.094  0.00  0.00    -0.078 A 
ATOM      4  C2  OXE d   1       3.680  -1.550  -0.137  0.00  0.00    -0.078 A 
ATOM      5  C3  OXE d   1       2.293  -1.661  -0.160  0.00  0.00     0.003 A 
ATOM      6  C4  OXE d   1       1.671  -2.862   0.201  0.00  0.00    -0.002 A 
ATOM      7  C5  OXE d   1       2.435  -4.001   0.478  0.00  0.00    -0.002 A 
ATOM      8  C6  OXE d   1       3.821  -3.930   0.388  0.00  0.00     0.003 A 
ENDROOT
TORSDOF 0
ENDMDL
