MODEL 1
REMARK minimizedAffinity 2.58266115
REMARK minimizedRMSD -1
REMARK  0 active torsions:
REMARK  status: ('A' for Active; 'I' for Inactive)
ROOT
ATOM      1  C2' OXE d   1       4.223  -4.111   4.523  0.00  0.00     0.078 C 
ATOM      2  C1' OXE d   1       5.293  -4.482   1.954  0.00  0.00     0.078 C 
ATOM      3  C1  OXE d   1       3.832  -4.123   2.063  0.00  0.00    -0.078 A 
ATOM      4  C2  OXE d   1       3.306  -3.990   3.326  0.00  0.00    -0.078 A 
ATOM      5  C3  OXE d   1       1.977  -3.607   3.482  0.00  0.00     0.003 A 
ATOM      6  C4  OXE d   1       1.133  -3.506   2.369  0.00  0.00    -0.002 A 
ATOM      7  C5  OXE d   1       1.639  -3.677   1.076  0.00  0.00    -0.002 A 
ATOM      8  C6  OXE d   1       2.993  -3.944   0.904  0.00  0.00     0.003 A 
ENDROOT
TORSDOF 0
ENDMDL
