MODEL 1
REMARK minimizedAffinity 3.69875979
REMARK minimizedRMSD -1
REMARK  0 active torsions:
REMARK  status: ('A' for Active; 'I' for Inactive)
ROOT
ATOM      1  C2' OXE d   1       2.234  -4.129   0.728  0.00  0.00     0.078 C 
ATOM      2  C1' OXE d   1       4.175  -4.582   2.704  0.00  0.00     0.078 C 
ATOM      3  C1  OXE d   1       4.507  -4.981   1.287  0.00  0.00    -0.078 A 
ATOM      4  C2  OXE d   1       3.533  -4.798   0.335  0.00  0.00    -0.078 A 
ATOM      5  C3  OXE d   1       3.806  -5.098  -0.997  0.00  0.00     0.003 A 
ATOM      6  C4  OXE d   1       5.007  -5.726  -1.350  0.00  0.00    -0.002 A 
ATOM      7  C5  OXE d   1       5.996  -5.957  -0.389  0.00  0.00    -0.002 A 
ATOM      8  C6  OXE d   1       5.780  -5.553   0.924  0.00  0.00     0.003 A 
ENDROOT
TORSDOF 0
ENDMDL
