MODEL 1
REMARK minimizedAffinity -2.63861823
REMARK minimizedRMSD -1
REMARK  0 active torsions:
REMARK  status: ('A' for Active; 'I' for Inactive)
ROOT
ATOM      1  C2' OXE d   1       4.385  -2.502   3.877  0.00  0.00     0.078 C 
ATOM      2  C1' OXE d   1       4.945  -3.714   1.408  0.00  0.00     0.078 C 
ATOM      3  C1  OXE d   1       3.611  -3.029   1.569  0.00  0.00    -0.078 A 
ATOM      4  C2  OXE d   1       3.327  -2.479   2.796  0.00  0.00    -0.078 A 
ATOM      5  C3  OXE d   1       2.133  -1.787   2.981  0.00  0.00     0.003 A 
ATOM      6  C4  OXE d   1       1.155  -1.779   1.979  0.00  0.00    -0.002 A 
ATOM      7  C5  OXE d   1       1.409  -2.368   0.735  0.00  0.00    -0.002 A 
ATOM      8  C6  OXE d   1       2.645  -2.958   0.500  0.00  0.00     0.003 A 
ENDROOT
TORSDOF 0
ENDMDL
