MODEL 1
REMARK minimizedAffinity 1.38131344
REMARK minimizedRMSD -1
REMARK  0 active torsions:
REMARK  status: ('A' for Active; 'I' for Inactive)
ROOT
ATOM      1  C2' OXE d   1      -4.358   1.845  -6.000  0.00  0.00     0.078 C 
ATOM      2  C1' OXE d   1      -5.966   0.396  -4.212  0.00  0.00     0.078 C 
ATOM      3  C1  OXE d   1      -4.586  -0.136  -4.508  0.00  0.00    -0.078 A 
ATOM      4  C2  OXE d   1      -3.824   0.554  -5.419  0.00  0.00    -0.078 A 
ATOM      5  C3  OXE d   1      -2.523   0.136  -5.687  0.00  0.00     0.003 A 
ATOM      6  C4  OXE d   1      -2.041  -1.065  -5.154  0.00  0.00    -0.002 A 
ATOM      7  C5  OXE d   1      -2.815  -1.805  -4.254  0.00  0.00    -0.002 A 
ATOM      8  C6  OXE d   1      -4.071  -1.333  -3.888  0.00  0.00     0.003 A 
ENDROOT
TORSDOF 0
ENDMDL
