MODEL 1
REMARK minimizedAffinity 2.52603936
REMARK minimizedRMSD -1
REMARK  0 active torsions:
REMARK  status: ('A' for Active; 'I' for Inactive)
ROOT
ATOM      1  C2' OXE d   1       2.486   4.895  -5.998  0.00  0.00     0.078 C 
ATOM      2  C1' OXE d   1       5.143   5.792  -5.881  0.00  0.00     0.078 C 
ATOM      3  C1  OXE d   1       4.904   4.303  -5.904  0.00  0.00    -0.078 A 
ATOM      4  C2  OXE d   1       3.599   3.872  -5.914  0.00  0.00    -0.078 A 
ATOM      5  C3  OXE d   1       3.323   2.510  -5.990  0.00  0.00     0.003 A 
ATOM      6  C4  OXE d   1       4.357   1.571  -5.902  0.00  0.00    -0.002 A 
ATOM      7  C5  OXE d   1       5.692   1.988  -5.851  0.00  0.00    -0.002 A 
ATOM      8  C6  OXE d   1       5.983   3.347  -5.894  0.00  0.00     0.003 A 
ENDROOT
TORSDOF 0
ENDMDL
