MODEL 1
REMARK minimizedAffinity 2.29136491
REMARK minimizedRMSD -1
REMARK  0 active torsions:
REMARK  status: ('A' for Active; 'I' for Inactive)
ROOT
ATOM      1  C2' OXE d   1      -2.155   2.422  -1.738  0.00  0.00     0.078 C 
ATOM      2  C1' OXE d   1      -0.039   0.781  -2.581  0.00  0.00     0.078 C 
ATOM      3  C1  OXE d   1      -0.747   0.414  -1.300  0.00  0.00    -0.078 A 
ATOM      4  C2  OXE d   1      -1.751   1.249  -0.871  0.00  0.00    -0.078 A 
ATOM      5  C3  OXE d   1      -2.473   0.927   0.275  0.00  0.00     0.003 A 
ATOM      6  C4  OXE d   1      -2.085  -0.154   1.076  0.00  0.00    -0.002 A 
ATOM      7  C5  OXE d   1      -1.040  -0.994   0.678  0.00  0.00    -0.002 A 
ATOM      8  C6  OXE d   1      -0.390  -0.749  -0.527  0.00  0.00     0.003 A 
ENDROOT
TORSDOF 0
ENDMDL
