MODEL 1
REMARK minimizedAffinity -4.06247568
REMARK minimizedRMSD -1
REMARK  0 active torsions:
REMARK  status: ('A' for Active; 'I' for Inactive)
ROOT
ATOM      1  C2' OXE d   1      -0.878  -0.656  -0.943  0.00  0.00     0.078 C 
ATOM      2  C1' OXE d   1       1.682  -0.626   0.209  0.00  0.00     0.078 C 
ATOM      3  C1  OXE d   1       0.503  -0.342   1.106  0.00  0.00    -0.078 A 
ATOM      4  C2  OXE d   1      -0.741  -0.313   0.524  0.00  0.00    -0.078 A 
ATOM      5  C3  OXE d   1      -1.868  -0.110   1.316  0.00  0.00     0.003 A 
ATOM      6  C4  OXE d   1      -1.733   0.216   2.671  0.00  0.00    -0.002 A 
ATOM      7  C5  OXE d   1      -0.471   0.231   3.275  0.00  0.00    -0.002 A 
ATOM      8  C6  OXE d   1       0.651  -0.087   2.518  0.00  0.00     0.003 A 
ENDROOT
TORSDOF 0
ENDMDL
