MODEL 1
REMARK minimizedAffinity -0.760882497
REMARK minimizedRMSD -1
REMARK  0 active torsions:
REMARK  status: ('A' for Active; 'I' for Inactive)
ROOT
ATOM      1  C2' OXE d   1      -2.663   0.274  -0.382  0.00  0.00     0.078 C 
ATOM      2  C1' OXE d   1      -1.631   0.206   2.228  0.00  0.00     0.078 C 
ATOM      3  C1  OXE d   1      -0.679  -0.055   1.089  0.00  0.00    -0.078 A 
ATOM      4  C2  OXE d   1      -1.201  -0.065  -0.182  0.00  0.00    -0.078 A 
ATOM      5  C3  OXE d   1      -0.356  -0.246  -1.274  0.00  0.00     0.003 A 
ATOM      6  C4  OXE d   1       0.992  -0.569  -1.080  0.00  0.00    -0.002 A 
ATOM      7  C5  OXE d   1       1.537  -0.602   0.208  0.00  0.00    -0.002 A 
ATOM      8  C6  OXE d   1       0.726  -0.306   1.298  0.00  0.00     0.003 A 
ENDROOT
TORSDOF 0
ENDMDL
