MODEL 1
REMARK minimizedAffinity -0.115295641
REMARK minimizedRMSD -1
REMARK  0 active torsions:
REMARK  status: ('A' for Active; 'I' for Inactive)
ROOT
ATOM      1  C2' OXE d   1       0.208  -0.317  -2.032  0.00  0.00     0.078 C 
ATOM      2  C1' OXE d   1       1.464  -1.049   0.369  0.00  0.00     0.078 C 
ATOM      3  C1  OXE d   1       0.119  -0.373   0.457  0.00  0.00    -0.078 A 
ATOM      4  C2  OXE d   1      -0.467   0.024  -0.721  0.00  0.00    -0.078 A 
ATOM      5  C3  OXE d   1      -1.733   0.603  -0.700  0.00  0.00     0.003 A 
ATOM      6  C4  OXE d   1      -2.346   0.924   0.517  0.00  0.00    -0.002 A 
ATOM      7  C5  OXE d   1      -1.748   0.564   1.729  0.00  0.00    -0.002 A 
ATOM      8  C6  OXE d   1      -0.539  -0.121   1.716  0.00  0.00     0.003 A 
ENDROOT
TORSDOF 0
ENDMDL
