MODEL 1
REMARK minimizedAffinity 4.63282108
REMARK minimizedRMSD -1
REMARK  0 active torsions:
REMARK  status: ('A' for Active; 'I' for Inactive)
ROOT
ATOM      1  C2' OXE d   1       0.304  -0.438  -1.547  0.00  0.00     0.078 C 
ATOM      2  C1' OXE d   1       1.484  -0.603   0.995  0.00  0.00     0.078 C 
ATOM      3  C1  OXE d   1       0.032  -0.204   0.918  0.00  0.00    -0.078 A 
ATOM      4  C2  OXE d   1      -0.525  -0.081  -0.332  0.00  0.00    -0.078 A 
ATOM      5  C3  OXE d   1      -1.876   0.231  -0.457  0.00  0.00     0.003 A 
ATOM      6  C4  OXE d   1      -2.633   0.570   0.671  0.00  0.00    -0.002 A 
ATOM      7  C5  OXE d   1      -2.074   0.489   1.951  0.00  0.00    -0.002 A 
ATOM      8  C6  OXE d   1      -0.758   0.063   2.095  0.00  0.00     0.003 A 
ENDROOT
TORSDOF 0
ENDMDL
