MODEL 1
REMARK minimizedAffinity -0.658923805
REMARK minimizedRMSD -1
REMARK  0 active torsions:
REMARK  status: ('A' for Active; 'I' for Inactive)
ROOT
ATOM      1  C2' OXE d   1       0.150  -0.240  -1.801  0.00  0.00     0.078 C 
ATOM      2  C1' OXE d   1       1.684  -0.077   0.544  0.00  0.00     0.078 C 
ATOM      3  C1  OXE d   1       0.186   0.048   0.673  0.00  0.00    -0.078 A 
ATOM      4  C2  OXE d   1      -0.553   0.013  -0.485  0.00  0.00    -0.078 A 
ATOM      5  C3  OXE d   1      -1.942   0.069  -0.418  0.00  0.00     0.003 A 
ATOM      6  C4  OXE d   1      -2.584   0.313   0.802  0.00  0.00    -0.002 A 
ATOM      7  C5  OXE d   1      -1.847   0.391   1.988  0.00  0.00    -0.002 A 
ATOM      8  C6  OXE d   1      -0.468   0.219   1.947  0.00  0.00     0.003 A 
ENDROOT
TORSDOF 0
ENDMDL
