MODEL 1
REMARK minimizedAffinity 4.12278271
REMARK minimizedRMSD -1
REMARK  0 active torsions:
REMARK  status: ('A' for Active; 'I' for Inactive)
ROOT
ATOM      1  C2' OXE d   1      -0.143   0.759  -0.446  0.00  0.00     0.078 C 
ATOM      2  C1' OXE d   1       2.382   1.976  -0.303  0.00  0.00     0.078 C 
ATOM      3  C1  OXE d   1       1.785   1.754  -1.670  0.00  0.00    -0.078 A 
ATOM      4  C2  OXE d   1       0.569   1.115  -1.732  0.00  0.00    -0.078 A 
ATOM      5  C3  OXE d   1      -0.052   0.934  -2.965  0.00  0.00     0.003 A 
ATOM      6  C4  OXE d   1       0.618   1.258  -4.151  0.00  0.00    -0.002 A 
ATOM      7  C5  OXE d   1       1.874   1.873  -4.111  0.00  0.00    -0.002 A 
ATOM      8  C6  OXE d   1       2.451   2.166  -2.881  0.00  0.00     0.003 A 
ENDROOT
TORSDOF 0
ENDMDL
