MODEL 1
REMARK minimizedAffinity -1.13834178
REMARK minimizedRMSD -1
REMARK  0 active torsions:
REMARK  status: ('A' for Active; 'I' for Inactive)
ROOT
ATOM      1  C2' OXE d   1       0.854   0.837  -4.027  0.00  0.00     0.078 C 
ATOM      2  C1' OXE d   1       3.048   1.629  -2.465  0.00  0.00     0.078 C 
ATOM      3  C1  OXE d   1       1.988   0.779  -1.810  0.00  0.00    -0.078 A 
ATOM      4  C2  OXE d   1       0.895   0.435  -2.568  0.00  0.00    -0.078 A 
ATOM      5  C3  OXE d   1      -0.085  -0.393  -2.029  0.00  0.00     0.003 A 
ATOM      6  C4  OXE d   1      -0.044  -0.752  -0.676  0.00  0.00    -0.002 A 
ATOM      7  C5  OXE d   1       1.040  -0.379   0.125  0.00  0.00    -0.002 A 
ATOM      8  C6  OXE d   1       2.084   0.349  -0.437  0.00  0.00     0.003 A 
ENDROOT
TORSDOF 0
ENDMDL
