MODEL 1
REMARK minimizedAffinity -4.43823719
REMARK minimizedRMSD -1
REMARK  0 active torsions:
REMARK  status: ('A' for Active; 'I' for Inactive)
ROOT
ATOM      1  C2' OXE d   1       1.441  -0.410   2.999  0.00  0.00     0.078 C 
ATOM      2  C1' OXE d   1      -1.078   0.732   2.523  0.00  0.00     0.078 C 
ATOM      3  C1  OXE d   1      -0.405   0.012   1.381  0.00  0.00    -0.078 A 
ATOM      4  C2  OXE d   1       0.848  -0.503   1.610  0.00  0.00    -0.078 A 
ATOM      5  C3  OXE d   1       1.490  -1.225   0.608  0.00  0.00     0.003 A 
ATOM      6  C4  OXE d   1       0.939  -1.298  -0.677  0.00  0.00    -0.002 A 
ATOM      7  C5  OXE d   1      -0.318  -0.745  -0.943  0.00  0.00    -0.002 A 
ATOM      8  C6  OXE d   1      -1.021  -0.125   0.084  0.00  0.00     0.003 A 
ENDROOT
TORSDOF 0
ENDMDL
