MODEL 1
REMARK minimizedAffinity -5.43643475
REMARK minimizedRMSD -1
REMARK  0 active torsions:
REMARK  status: ('A' for Active; 'I' for Inactive)
ROOT
ATOM      1  C2' OXE d   1       0.122   1.080   4.256  0.00  0.00     0.078 C 
ATOM      2  C1' OXE d   1       2.158  -0.425   3.045  0.00  0.00     0.078 C 
ATOM      3  C1  OXE d   1       0.971  -0.039   2.199  0.00  0.00    -0.078 A 
ATOM      4  C2  OXE d   1      -0.043   0.657   2.812  0.00  0.00    -0.078 A 
ATOM      5  C3  OXE d   1      -1.136   1.085   2.064  0.00  0.00     0.003 A 
ATOM      6  C4  OXE d   1      -1.285   0.682   0.732  0.00  0.00    -0.002 A 
ATOM      7  C5  OXE d   1      -0.283  -0.062   0.099  0.00  0.00    -0.002 A 
ATOM      8  C6  OXE d   1       0.868  -0.393   0.805  0.00  0.00     0.003 A 
ENDROOT
TORSDOF 0
ENDMDL
