MODEL 1
REMARK minimizedAffinity -2.58624029
REMARK minimizedRMSD -1
REMARK  0 active torsions:
REMARK  status: ('A' for Active; 'I' for Inactive)
ROOT
ATOM      1  C2' OXE d   1      -1.494  -0.398  -0.139  0.00  0.00     0.078 C 
ATOM      2  C1' OXE d   1      -2.531  -0.211   2.463  0.00  0.00     0.078 C 
ATOM      3  C1  OXE d   1      -1.104   0.223   2.242  0.00  0.00    -0.078 A 
ATOM      4  C2  OXE d   1      -0.590   0.084   0.975  0.00  0.00    -0.078 A 
ATOM      5  C3  OXE d   1       0.704   0.521   0.705  0.00  0.00     0.003 A 
ATOM      6  C4  OXE d   1       1.536   0.957   1.743  0.00  0.00    -0.002 A 
ATOM      7  C5  OXE d   1       1.045   1.069   3.048  0.00  0.00    -0.002 A 
ATOM      8  C6  OXE d   1      -0.283   0.747   3.306  0.00  0.00     0.003 A 
ENDROOT
TORSDOF 0
ENDMDL
