MODEL 1
REMARK minimizedAffinity -0.357395709
REMARK minimizedRMSD -1
REMARK  1 active torsions:
REMARK  status: ('A' for Active; 'I' for Inactive)
REMARK    1  A    between atoms: C1_2  and  C2_3 
ROOT
ATOM      1  C2  UNL d   1      -5.656   3.877  -3.649  0.00  0.00    -0.076 A 
ATOM      2  C3  UNL d   1      -5.579   4.208  -5.013  0.00  0.00     0.004 A 
ATOM      3  C4  UNL d   1      -5.702   3.229  -5.997  0.00  0.00    -0.003 A 
ATOM      4  C5  UNL d   1      -5.903   1.902  -5.633  0.00  0.00     0.000 A 
ATOM      5  C6  UNL d   1      -5.999   1.558  -4.286  0.00  0.00     0.000 A 
ATOM      6  C7  UNL d   1      -5.894   2.535  -3.281  0.00  0.00    -0.073 A 
ATOM      7  C8  UNL d   1      -6.000   2.107  -1.843  0.00  0.00     0.078 C 
ENDROOT
BRANCH   1   8
ATOM      8  C1  UNL d   1      -5.488   4.977  -2.625  0.00  0.00     0.053 C 
ATOM      9  C   UNL d   1      -4.039   5.170  -2.209  0.00  0.00     0.018 C 
ENDBRANCH   1   8
TORSDOF 1
ENDMDL
