MODEL 1
REMARK minimizedAffinity 8.49829865
REMARK minimizedRMSD -1
REMARK  1 active torsions:
REMARK  status: ('A' for Active; 'I' for Inactive)
REMARK    1  A    between atoms: C1_2  and  C2_3 
ROOT
ATOM      1  C2  UNL d   1      -4.004  -1.726   4.521  0.00  0.00    -0.076 A 
ATOM      2  C3  UNL d   1      -3.428  -0.821   3.612  0.00  0.00     0.004 A 
ATOM      3  C4  UNL d   1      -4.129   0.300   3.173  0.00  0.00    -0.003 A 
ATOM      4  C5  UNL d   1      -5.419   0.536   3.637  0.00  0.00     0.000 A 
ATOM      5  C6  UNL d   1      -6.000  -0.341   4.552  0.00  0.00     0.000 A 
ATOM      6  C7  UNL d   1      -5.300  -1.468   5.017  0.00  0.00    -0.073 A 
ATOM      7  C8  UNL d   1      -5.977  -2.384   5.999  0.00  0.00     0.078 C 
ENDROOT
BRANCH   1   8
ATOM      8  C1  UNL d   1      -3.206  -2.939   4.940  0.00  0.00     0.053 C 
ATOM      9  C   UNL d   1      -2.161  -2.613   5.995  0.00  0.00     0.018 C 
ENDBRANCH   1   8
TORSDOF 1
ENDMDL
