MODEL 1
REMARK minimizedAffinity 15.2099943
REMARK minimizedRMSD -1
REMARK  1 active torsions:
REMARK  status: ('A' for Active; 'I' for Inactive)
REMARK    1  A    between atoms: C1_2  and  C2_3 
ROOT
ATOM      1  C2  UNL d   1      -4.208  -0.274   3.892  0.00  0.00    -0.076 A 
ATOM      2  C3  UNL d   1      -5.108   0.706   4.347  0.00  0.00     0.004 A 
ATOM      3  C4  UNL d   1      -5.997   0.436   5.387  0.00  0.00    -0.003 A 
ATOM      4  C5  UNL d   1      -6.000  -0.817   5.989  0.00  0.00     0.000 A 
ATOM      5  C6  UNL d   1      -5.102  -1.795   5.562  0.00  0.00     0.000 A 
ATOM      6  C7  UNL d   1      -4.188  -1.535   4.526  0.00  0.00    -0.073 A 
ATOM      7  C8  UNL d   1      -3.247  -2.628   4.103  0.00  0.00     0.078 C 
ENDROOT
BRANCH   1   8
ATOM      8  C1  UNL d   1      -3.286   0.067   2.743  0.00  0.00     0.053 C 
ATOM      9  C   UNL d   1      -4.002   0.802   1.621  0.00  0.00     0.018 C 
ENDBRANCH   1   8
TORSDOF 1
ENDMDL
