MODEL 1
REMARK minimizedAffinity 10.5275679
REMARK minimizedRMSD -1
REMARK  1 active torsions:
REMARK  status: ('A' for Active; 'I' for Inactive)
REMARK    1  A    between atoms: C1_2  and  C2_3 
ROOT
ATOM      1  C2  UNL d   1      -1.748  -3.498  -5.111  0.00  0.00    -0.076 A 
ATOM      2  C3  UNL d   1      -3.122  -3.675  -4.868  0.00  0.00     0.004 A 
ATOM      3  C4  UNL d   1      -3.760  -4.870  -5.194  0.00  0.00    -0.003 A 
ATOM      4  C5  UNL d   1      -3.035  -5.909  -5.768  0.00  0.00     0.000 A 
ATOM      5  C6  UNL d   1      -1.669  -5.758  -5.999  0.00  0.00     0.000 A 
ATOM      6  C7  UNL d   1      -1.006  -4.565  -5.661  0.00  0.00    -0.073 A 
ATOM      7  C8  UNL d   1       0.468  -4.455  -5.939  0.00  0.00     0.078 C 
ENDROOT
BRANCH   1   8
ATOM      8  C1  UNL d   1      -1.116  -2.170  -4.762  0.00  0.00     0.053 C 
ATOM      9  C   UNL d   1      -1.888  -0.990  -5.331  0.00  0.00     0.018 C 
ENDBRANCH   1   8
TORSDOF 1
ENDMDL
