MODEL 1
REMARK minimizedAffinity 15.8286095
REMARK minimizedRMSD -1
REMARK  1 active torsions:
REMARK  status: ('A' for Active; 'I' for Inactive)
REMARK    1  A    between atoms: C1_2  and  C2_3 
ROOT
ATOM      1  C2  UNL d   1      -0.201   4.051  -0.996  0.00  0.00    -0.076 A 
ATOM      2  C3  UNL d   1      -0.802   5.139  -0.340  0.00  0.00     0.004 A 
ATOM      3  C4  UNL d   1      -1.663   5.999  -1.020  0.00  0.00    -0.003 A 
ATOM      4  C5  UNL d   1      -1.937   5.785  -2.366  0.00  0.00     0.000 A 
ATOM      5  C6  UNL d   1      -1.363   4.700  -3.028  0.00  0.00     0.000 A 
ATOM      6  C7  UNL d   1      -0.505   3.814  -2.353  0.00  0.00    -0.073 A 
ATOM      7  C8  UNL d   1       0.091   2.664  -3.118  0.00  0.00     0.078 C 
ENDROOT
BRANCH   1   8
ATOM      8  C1  UNL d   1       0.745   3.168  -0.214  0.00  0.00     0.053 C 
ATOM      9  C   UNL d   1       0.038   1.989   0.437  0.00  0.00     0.018 C 
ENDBRANCH   1   8
TORSDOF 1
ENDMDL
