MODEL 1
REMARK minimizedAffinity 3.43928409
REMARK minimizedRMSD -1
REMARK  0 active torsions:
REMARK  status: ('A' for Active; 'I' for Inactive)
ROOT
ATOM      1  C   UNL d   1      -1.902  -2.645  -5.991  0.00  0.00     0.172 C 
ATOM      2  N   UNL d   1      -2.787  -3.787  -5.993  0.00  0.00    -0.070 N 
ATOM      3  C1  UNL d   1      -4.155  -3.737  -5.995  0.00  0.00    -0.004 A 
ATOM      4  C2  UNL d   1      -4.625  -5.032  -5.997  0.00  0.00    -0.047 A 
ATOM      5  C3  UNL d   1      -3.500  -5.891  -5.996  0.00  0.00    -0.047 A 
ATOM      6  C4  UNL d   1      -2.375  -5.094  -5.994  0.00  0.00    -0.004 A 
ENDROOT
TORSDOF 0
ENDMDL
