MODEL 1
REMARK minimizedAffinity 7.45550156
REMARK minimizedRMSD -1
REMARK  0 active torsions:
REMARK  status: ('A' for Active; 'I' for Inactive)
ROOT
ATOM      1  C   UNL d   1      -5.565  -5.998  -5.985  0.00  0.00     0.172 C 
ATOM      2  N   UNL d   1      -4.288  -5.339  -5.837  0.00  0.00    -0.070 N 
ATOM      3  C1  UNL d   1      -4.070  -3.991  -5.930  0.00  0.00    -0.004 A 
ATOM      4  C2  UNL d   1      -2.726  -3.766  -5.729  0.00  0.00    -0.047 A 
ATOM      5  C3  UNL d   1      -2.114  -5.023  -5.508  0.00  0.00    -0.047 A 
ATOM      6  C4  UNL d   1      -3.104  -5.979  -5.581  0.00  0.00    -0.004 A 
ENDROOT
TORSDOF 0
ENDMDL
