MODEL 1
REMARK minimizedAffinity 0.110694937
REMARK minimizedRMSD -1
REMARK  0 active torsions:
REMARK  status: ('A' for Active; 'I' for Inactive)
ROOT
ATOM      1  C   UNL d   1      -6.000  -4.193   5.977  0.00  0.00     0.172 C 
ATOM      2  N   UNL d   1      -4.859  -3.503   5.422  0.00  0.00    -0.070 N 
ATOM      3  C1  UNL d   1      -3.620  -3.418   5.999  0.00  0.00    -0.004 A 
ATOM      4  C2  UNL d   1      -2.814  -2.680   5.159  0.00  0.00    -0.047 A 
ATOM      5  C3  UNL d   1      -3.596  -2.308   4.040  0.00  0.00    -0.047 A 
ATOM      6  C4  UNL d   1      -4.858  -2.831   4.229  0.00  0.00    -0.004 A 
ENDROOT
TORSDOF 0
ENDMDL
