MODEL 1
REMARK minimizedAffinity 0.699574828
REMARK minimizedRMSD -1
REMARK  0 active torsions:
REMARK  status: ('A' for Active; 'I' for Inactive)
ROOT
ATOM      1  C   UNL d   1      -4.276  -5.818  -5.984  0.00  0.00     0.172 C 
ATOM      2  N   UNL d   1      -3.039  -5.073  -5.990  0.00  0.00    -0.070 N 
ATOM      3  C1  UNL d   1      -1.781  -5.614  -5.993  0.00  0.00    -0.004 A 
ATOM      4  C2  UNL d   1      -0.875  -4.576  -5.999  0.00  0.00    -0.047 A 
ATOM      5  C3  UNL d   1      -1.614  -3.369  -5.999  0.00  0.00    -0.047 A 
ATOM      6  C4  UNL d   1      -2.951  -3.706  -5.993  0.00  0.00    -0.004 A 
ENDROOT
TORSDOF 0
ENDMDL
