MODEL 1
REMARK minimizedAffinity -2.54413319
REMARK minimizedRMSD -1
REMARK  0 active torsions:
REMARK  status: ('A' for Active; 'I' for Inactive)
ROOT
ATOM      1  C   UNL d   1       1.379  -5.561  -3.892  0.00  0.00     0.172 C 
ATOM      2  N   UNL d   1       0.274  -5.165  -4.734  0.00  0.00    -0.070 N 
ATOM      3  C1  UNL d   1      -0.690  -6.000  -5.231  0.00  0.00    -0.004 A 
ATOM      4  C2  UNL d   1      -1.560  -5.240  -5.983  0.00  0.00    -0.047 A 
ATOM      5  C3  UNL d   1      -1.102  -3.902  -5.936  0.00  0.00    -0.047 A 
ATOM      6  C4  UNL d   1       0.034  -3.884  -5.156  0.00  0.00    -0.004 A 
ENDROOT
TORSDOF 0
ENDMDL
