MODEL 1
REMARK minimizedAffinity 1.62429166
REMARK minimizedRMSD -1
REMARK  0 active torsions:
REMARK  status: ('A' for Active; 'I' for Inactive)
ROOT
ATOM      1  C   UNL d   1      -1.083  -2.940  -5.999  0.00  0.00     0.172 C 
ATOM      2  N   UNL d   1      -1.611  -4.179  -5.477  0.00  0.00    -0.070 N 
ATOM      3  C1  UNL d   1      -2.664  -4.881  -6.000  0.00  0.00    -0.004 A 
ATOM      4  C2  UNL d   1      -2.855  -6.000  -5.218  0.00  0.00    -0.047 A 
ATOM      5  C3  UNL d   1      -1.884  -5.968  -4.188  0.00  0.00    -0.047 A 
ATOM      6  C4  UNL d   1      -1.128  -4.830  -4.373  0.00  0.00    -0.004 A 
ENDROOT
TORSDOF 0
ENDMDL
