MODEL 1
REMARK minimizedAffinity 0.206292227
REMARK minimizedRMSD -1
REMARK  0 active torsions:
REMARK  status: ('A' for Active; 'I' for Inactive)
ROOT
ATOM      1  C   UNL d   1      -4.306  -1.878   2.882  0.00  0.00     0.172 C 
ATOM      2  N   UNL d   1      -4.711  -2.608   4.060  0.00  0.00    -0.070 N 
ATOM      3  C1  UNL d   1      -3.878  -3.039   5.058  0.00  0.00    -0.004 A 
ATOM      4  C2  UNL d   1      -4.647  -3.691   5.998  0.00  0.00    -0.047 A 
ATOM      5  C3  UNL d   1      -5.989  -3.652   5.548  0.00  0.00    -0.047 A 
ATOM      6  C4  UNL d   1      -5.999  -2.976   4.346  0.00  0.00    -0.004 A 
ENDROOT
TORSDOF 0
ENDMDL
