MODEL 1
REMARK minimizedAffinity 2.67876172
REMARK minimizedRMSD -1
REMARK  0 active torsions:
REMARK  status: ('A' for Active; 'I' for Inactive)
ROOT
ATOM      1  C   UNL d   1      -1.535  -1.547  -5.061  0.00  0.00     0.172 C 
ATOM      2  N   UNL d   1      -1.084  -2.538  -4.113  0.00  0.00    -0.070 N 
ATOM      3  C1  UNL d   1      -0.127  -3.489  -4.347  0.00  0.00    -0.004 A 
ATOM      4  C2  UNL d   1       0.015  -4.237  -3.198  0.00  0.00    -0.047 A 
ATOM      5  C3  UNL d   1      -0.889  -3.718  -2.241  0.00  0.00    -0.047 A 
ATOM      6  C4  UNL d   1      -1.556  -2.667  -2.834  0.00  0.00    -0.004 A 
ENDROOT
TORSDOF 0
ENDMDL
