MODEL 1
REMARK minimizedAffinity 3.48887873
REMARK minimizedRMSD -1
REMARK  1 active torsions:
REMARK  status: ('A' for Active; 'I' for Inactive)
REMARK    1  A    between atoms: C1_2  and  C2_3 
ROOT
ATOM      1  C2  UNL d   1       0.317  -2.686   0.916  0.00  0.00    -0.077 A 
ATOM      2  C3  UNL d   1       1.075  -3.860   1.018  0.00  0.00     0.002 A 
ATOM      3  C4  UNL d   1       2.075  -3.974   1.986  0.00  0.00     0.002 A 
ATOM      4  C5  UNL d   1       2.323  -2.918   2.861  0.00  0.00    -0.004 A 
ATOM      5  C6  UNL d   1       1.576  -1.745   2.766  0.00  0.00     0.002 A 
ATOM      6  C7  UNL d   1       0.577  -1.629   1.799  0.00  0.00     0.002 A 
ENDROOT
BRANCH   1   7
ATOM      7  C1  UNL d   1      -0.795  -2.580  -0.095  0.00  0.00     0.055 C 
ATOM      8  C   UNL d   1      -1.831  -3.677   0.106  0.00  0.00     0.019 C 
ENDBRANCH   1   7
TORSDOF 1
ENDMDL
