MODEL 1
REMARK minimizedAffinity 1.35558045
REMARK minimizedRMSD -1
REMARK  1 active torsions:
REMARK  status: ('A' for Active; 'I' for Inactive)
REMARK    1  A    between atoms: C1_2  and  C2_3 
ROOT
ATOM      1  C2  UNL d   1       2.225   2.639   0.363  0.00  0.00    -0.077 A 
ATOM      2  C3  UNL d   1       0.824   2.679   0.408  0.00  0.00     0.002 A 
ATOM      3  C4  UNL d   1       0.129   3.745  -0.167  0.00  0.00     0.002 A 
ATOM      4  C5  UNL d   1       0.826   4.776  -0.795  0.00  0.00    -0.004 A 
ATOM      5  C6  UNL d   1       2.219   4.746  -0.843  0.00  0.00     0.002 A 
ATOM      6  C7  UNL d   1       2.915   3.682  -0.267  0.00  0.00     0.002 A 
ENDROOT
BRANCH   1   7
ATOM      7  C1  UNL d   1       2.974   1.466   0.940  0.00  0.00     0.055 C 
ATOM      8  C   UNL d   1       2.025   0.467   1.586  0.00  0.00     0.019 C 
ENDBRANCH   1   7
TORSDOF 1
ENDMDL
