MODEL 1
REMARK minimizedAffinity 4.493083
REMARK minimizedRMSD -1
REMARK  1 active torsions:
REMARK  status: ('A' for Active; 'I' for Inactive)
REMARK    1  A    between atoms: C1_2  and  C2_3 
ROOT
ATOM      1  C2  UNL d   1       4.512  -5.995  -3.180  0.00  0.00    -0.077 A 
ATOM      2  C3  UNL d   1       5.659  -5.993  -3.986  0.00  0.00     0.002 A 
ATOM      3  C4  UNL d   1       5.544  -5.956  -5.377  0.00  0.00     0.002 A 
ATOM      4  C5  UNL d   1       4.286  -5.917  -5.973  0.00  0.00    -0.004 A 
ATOM      5  C6  UNL d   1       3.139  -5.921  -5.180  0.00  0.00     0.002 A 
ATOM      6  C7  UNL d   1       3.251  -5.959  -3.790  0.00  0.00     0.002 A 
ENDROOT
BRANCH   1   7
ATOM      7  C1  UNL d   1       4.634  -5.985  -1.678  0.00  0.00     0.055 C 
ATOM      8  C   UNL d   1       3.266  -5.998  -1.012  0.00  0.00     0.019 C 
ENDBRANCH   1   7
TORSDOF 1
ENDMDL
