MODEL 1
REMARK minimizedAffinity -0.339770496
REMARK minimizedRMSD -1
REMARK  1 active torsions:
REMARK  status: ('A' for Active; 'I' for Inactive)
REMARK    1  A    between atoms: C1_2  and  C2_3 
ROOT
ATOM      1  C2  UNL d   1       4.259  -2.058   4.212  0.00  0.00    -0.077 A 
ATOM      2  C3  UNL d   1       3.400  -2.994   4.805  0.00  0.00     0.002 A 
ATOM      3  C4  UNL d   1       2.039  -3.000   4.494  0.00  0.00     0.002 A 
ATOM      4  C5  UNL d   1       1.526  -2.074   3.588  0.00  0.00    -0.004 A 
ATOM      5  C6  UNL d   1       2.371  -1.138   2.995  0.00  0.00     0.002 A 
ATOM      6  C7  UNL d   1       3.732  -1.130   3.304  0.00  0.00     0.002 A 
ENDROOT
BRANCH   1   7
ATOM      7  C1  UNL d   1       5.736  -2.083   4.507  0.00  0.00     0.055 C 
ATOM      8  C   UNL d   1       6.000  -2.222   6.000  0.00  0.00     0.019 C 
ENDBRANCH   1   7
TORSDOF 1
ENDMDL
