MODEL 1
REMARK minimizedAffinity 10.8537073
REMARK minimizedRMSD -1
REMARK  1 active torsions:
REMARK  status: ('A' for Active; 'I' for Inactive)
REMARK    1  A    between atoms: C1_2  and  C2_3 
ROOT
ATOM      1  C2  UNL d   1       4.261  -1.659   3.351  0.00  0.00    -0.077 A 
ATOM      2  C3  UNL d   1       3.129  -2.009   4.101  0.00  0.00     0.002 A 
ATOM      3  C4  UNL d   1       1.879  -1.475   3.783  0.00  0.00     0.002 A 
ATOM      4  C5  UNL d   1       1.747  -0.592   2.713  0.00  0.00    -0.004 A 
ATOM      5  C6  UNL d   1       2.867  -0.237   1.962  0.00  0.00     0.002 A 
ATOM      6  C7  UNL d   1       4.118  -0.768   2.279  0.00  0.00     0.002 A 
ENDROOT
BRANCH   1   7
ATOM      7  C1  UNL d   1       5.601  -2.272   3.660  0.00  0.00     0.055 C 
ATOM      8  C   UNL d   1       6.000  -2.028   5.109  0.00  0.00     0.019 C 
ENDBRANCH   1   7
TORSDOF 1
ENDMDL
