MODEL 1
REMARK minimizedAffinity 1.12799072
REMARK minimizedRMSD -1
REMARK  1 active torsions:
REMARK  status: ('A' for Active; 'I' for Inactive)
REMARK    1  A    between atoms: C1_2  and  C2_3 
ROOT
ATOM      1  C2  UNL d   1       4.373  -1.890   4.113  0.00  0.00    -0.077 A 
ATOM      2  C3  UNL d   1       3.807  -0.881   3.321  0.00  0.00     0.002 A 
ATOM      3  C4  UNL d   1       2.455  -0.927   2.977  0.00  0.00     0.002 A 
ATOM      4  C5  UNL d   1       1.656  -1.977   3.425  0.00  0.00    -0.004 A 
ATOM      5  C6  UNL d   1       2.210  -2.986   4.212  0.00  0.00     0.002 A 
ATOM      6  C7  UNL d   1       3.561  -2.942   4.555  0.00  0.00     0.002 A 
ENDROOT
BRANCH   1   7
ATOM      7  C1  UNL d   1       5.820  -1.816   4.526  0.00  0.00     0.055 C 
ATOM      8  C   UNL d   1       5.994  -2.164   5.997  0.00  0.00     0.019 C 
ENDBRANCH   1   7
TORSDOF 1
ENDMDL
