MODEL 1
REMARK minimizedAffinity 0.65806973
REMARK minimizedRMSD -1
REMARK  1 active torsions:
REMARK  status: ('A' for Active; 'I' for Inactive)
REMARK    1  A    between atoms: C1_2  and  C2_3 
ROOT
ATOM      1  C2  UNL d   1       3.521  -2.191   4.010  0.00  0.00    -0.077 A 
ATOM      2  C3  UNL d   1       3.607  -2.385   5.396  0.00  0.00     0.002 A 
ATOM      3  C4  UNL d   1       4.842  -2.631   5.999  0.00  0.00     0.002 A 
ATOM      4  C5  UNL d   1       6.000  -2.680   5.225  0.00  0.00    -0.004 A 
ATOM      5  C6  UNL d   1       5.924  -2.490   3.846  0.00  0.00     0.002 A 
ATOM      6  C7  UNL d   1       4.691  -2.245   3.241  0.00  0.00     0.002 A 
ENDROOT
BRANCH   1   7
ATOM      7  C1  UNL d   1       2.197  -1.877   3.364  0.00  0.00     0.055 C 
ATOM      8  C   UNL d   1       2.343  -0.803   2.295  0.00  0.00     0.019 C 
ENDBRANCH   1   7
TORSDOF 1
ENDMDL
