MODEL 1
REMARK minimizedAffinity -1.24446237
REMARK minimizedRMSD -1
REMARK  1 active torsions:
REMARK  status: ('A' for Active; 'I' for Inactive)
REMARK    1  A    between atoms: C1_2  and  C2_3 
ROOT
ATOM      1  C2  UNL d   1       3.841  -1.659   3.606  0.00  0.00    -0.077 A 
ATOM      2  C3  UNL d   1       3.286  -1.739   4.891  0.00  0.00     0.002 A 
ATOM      3  C4  UNL d   1       4.083  -2.089   5.984  0.00  0.00     0.002 A 
ATOM      4  C5  UNL d   1       5.438  -2.357   5.803  0.00  0.00    -0.004 A 
ATOM      5  C6  UNL d   1       5.998  -2.282   4.528  0.00  0.00     0.002 A 
ATOM      6  C7  UNL d   1       5.204  -1.934   3.435  0.00  0.00     0.002 A 
ENDROOT
BRANCH   1   7
ATOM      7  C1  UNL d   1       2.994  -1.234   2.435  0.00  0.00     0.055 C 
ATOM      8  C   UNL d   1       1.650  -0.688   2.893  0.00  0.00     0.019 C 
ENDBRANCH   1   7
TORSDOF 1
ENDMDL
