MODEL 1
REMARK minimizedAffinity 6.24827623
REMARK minimizedRMSD -1
REMARK  1 active torsions:
REMARK  status: ('A' for Active; 'I' for Inactive)
REMARK    1  A    between atoms: C1_2  and  C2_3 
ROOT
ATOM      1  C2  UNL d   1      -5.747  -0.059  -5.014  0.00  0.00    -0.077 A 
ATOM      2  C3  UNL d   1      -5.621   1.271  -5.440  0.00  0.00     0.002 A 
ATOM      3  C4  UNL d   1      -5.686   2.317  -4.518  0.00  0.00     0.002 A 
ATOM      4  C5  UNL d   1      -5.872   2.045  -3.165  0.00  0.00    -0.004 A 
ATOM      5  C6  UNL d   1      -6.000   0.726  -2.731  0.00  0.00     0.002 A 
ATOM      6  C7  UNL d   1      -5.936  -0.321  -3.651  0.00  0.00     0.002 A 
ENDROOT
BRANCH   1   7
ATOM      7  C1  UNL d   1      -5.628  -1.191  -6.000  0.00  0.00     0.055 C 
ATOM      8  C   UNL d   1      -6.000  -2.522  -5.362  0.00  0.00     0.019 C 
ENDBRANCH   1   7
TORSDOF 1
ENDMDL
