MODEL 1
REMARK minimizedAffinity -4.06857681
REMARK minimizedRMSD -1
REMARK  0 active torsions:
REMARK  status: ('A' for Active; 'I' for Inactive)
ROOT
ATOM      1  C1  DEN d   1       0.580  -6.000  -0.455  0.00  0.00     0.130 A 
ATOM      2  C2  DEN d   1       1.961  -5.882   0.007  0.00  0.00    -0.031 A 
ATOM      3  C3  DEN d   1       2.372  -4.471  -0.140  0.00  0.00     0.027 A 
ATOM      4  C4  DEN d   1       1.011  -2.468  -1.026  0.00  0.00     0.027 A 
ATOM      5  C5  DEN d   1      -0.204  -2.078  -1.546  0.00  0.00    -0.003 A 
ATOM      6  C6  DEN d   1      -1.222  -2.966  -1.768  0.00  0.00     0.001 A 
ATOM      7  C7  DEN d   1      -1.060  -4.283  -1.428  0.00  0.00     0.017 A 
ATOM      8  C8  DEN d   1       0.164  -4.685  -0.910  0.00  0.00    -0.094 A 
ATOM      9  C9  DEN d   1       1.177  -3.770  -0.681  0.00  0.00    -0.072 A 
ENDROOT
TORSDOF 0
ENDMDL
