MODEL 1
REMARK minimizedAffinity -5.99673367
REMARK minimizedRMSD -1
REMARK  0 active torsions:
REMARK  status: ('A' for Active; 'I' for Inactive)
ROOT
ATOM      1  C1  DEN d   1       1.161  -0.248   1.229  0.00  0.00     0.130 A 
ATOM      2  C2  DEN d   1       0.995  -0.961  -0.034  0.00  0.00    -0.031 A 
ATOM      3  C3  DEN d   1       0.011  -0.222  -0.850  0.00  0.00     0.027 A 
ATOM      4  C4  DEN d   1      -1.261   1.950  -0.285  0.00  0.00     0.027 A 
ATOM      5  C5  DEN d   1      -1.459   2.917   0.676  0.00  0.00    -0.003 A 
ATOM      6  C6  DEN d   1      -0.829   2.879   1.891  0.00  0.00     0.001 A 
ATOM      7  C7  DEN d   1       0.065   1.876   2.161  0.00  0.00     0.017 A 
ATOM      8  C8  DEN d   1       0.264   0.894   1.200  0.00  0.00    -0.094 A 
ATOM      9  C9  DEN d   1      -0.373   0.957  -0.027  0.00  0.00    -0.072 A 
ENDROOT
TORSDOF 0
ENDMDL
