MODEL 1
REMARK minimizedAffinity -0.917579114
REMARK minimizedRMSD -1
REMARK  0 active torsions:
REMARK  status: ('A' for Active; 'I' for Inactive)
ROOT
ATOM      1  C1  DEN d   1      -0.911   2.299   0.282  0.00  0.00     0.130 A 
ATOM      2  C2  DEN d   1      -0.863   2.646   1.699  0.00  0.00    -0.031 A 
ATOM      3  C3  DEN d   1      -0.192   1.544   2.417  0.00  0.00     0.027 A 
ATOM      4  C4  DEN d   1       0.777  -0.653   1.476  0.00  0.00     0.027 A 
ATOM      5  C5  DEN d   1       0.962  -1.400   0.333  0.00  0.00    -0.003 A 
ATOM      6  C6  DEN d   1       0.509  -0.985  -0.891  0.00  0.00     0.001 A 
ATOM      7  C7  DEN d   1      -0.112   0.230  -1.009  0.00  0.00     0.017 A 
ATOM      8  C8  DEN d   1      -0.308   0.985   0.139  0.00  0.00    -0.094 A 
ATOM      9  C9  DEN d   1       0.167   0.554   1.366  0.00  0.00    -0.072 A 
ENDROOT
TORSDOF 0
ENDMDL
