MODEL 1
REMARK minimizedAffinity 10.2910576
REMARK minimizedRMSD -1
REMARK  0 active torsions:
REMARK  status: ('A' for Active; 'I' for Inactive)
ROOT
ATOM      1  C1  DEN d   1      -1.086   2.065  -1.757  0.00  0.00     0.130 A 
ATOM      2  C2  DEN d   1      -0.086   1.118  -2.244  0.00  0.00    -0.031 A 
ATOM      3  C3  DEN d   1       0.678   0.621  -1.082  0.00  0.00     0.027 A 
ATOM      4  C4  DEN d   1       0.408   1.219   1.412  0.00  0.00     0.027 A 
ATOM      5  C5  DEN d   1      -0.299   1.985   2.313  0.00  0.00    -0.003 A 
ATOM      6  C6  DEN d   1      -1.286   2.849   1.920  0.00  0.00     0.001 A 
ATOM      7  C7  DEN d   1      -1.625   2.935   0.596  0.00  0.00     0.017 A 
ATOM      8  C8  DEN d   1      -0.912   2.172  -0.319  0.00  0.00    -0.094 A 
ATOM      9  C9  DEN d   1       0.074   1.295   0.099  0.00  0.00    -0.072 A 
ENDROOT
TORSDOF 0
ENDMDL
