MODEL 1
REMARK minimizedAffinity -3.05813646
REMARK minimizedRMSD -1
REMARK  0 active torsions:
REMARK  status: ('A' for Active; 'I' for Inactive)
ROOT
ATOM      1  C1  DEN d   1      -0.441  -0.032   1.986  0.00  0.00     0.130 A 
ATOM      2  C2  DEN d   1      -0.612   1.388   2.281  0.00  0.00    -0.031 A 
ATOM      3  C3  DEN d   1      -0.295   2.150   1.056  0.00  0.00     0.027 A 
ATOM      4  C4  DEN d   1       0.434   1.273  -1.257  0.00  0.00     0.027 A 
ATOM      5  C5  DEN d   1       0.727   0.143  -1.988  0.00  0.00    -0.003 A 
ATOM      6  C6  DEN d   1       0.685  -1.112  -1.441  0.00  0.00     0.001 A 
ATOM      7  C7  DEN d   1       0.298  -1.271  -0.136  0.00  0.00     0.017 A 
ATOM      8  C8  DEN d   1       0.008  -0.135   0.609  0.00  0.00    -0.094 A 
ATOM      9  C9  DEN d   1       0.044   1.124   0.034  0.00  0.00    -0.072 A 
ENDROOT
TORSDOF 0
ENDMDL
