MODEL 1
REMARK minimizedAffinity -3.70482731
REMARK minimizedRMSD -1
REMARK  0 active torsions:
REMARK  status: ('A' for Active; 'I' for Inactive)
ROOT
ATOM      1  C1  DEN d   1      -1.771   1.826   0.452  0.00  0.00     0.130 A 
ATOM      2  C2  DEN d   1      -1.281   2.385   1.709  0.00  0.00    -0.031 A 
ATOM      3  C3  DEN d   1      -0.030   1.686   2.063  0.00  0.00     0.027 A 
ATOM      4  C4  DEN d   1       1.195  -0.194   0.791  0.00  0.00     0.027 A 
ATOM      5  C5  DEN d   1       1.156  -1.007  -0.321  0.00  0.00    -0.003 A 
ATOM      6  C6  DEN d   1       0.130  -0.957  -1.227  0.00  0.00     0.001 A 
ATOM      7  C7  DEN d   1      -0.877  -0.043  -1.062  0.00  0.00     0.017 A 
ATOM      8  C8  DEN d   1      -0.849   0.775   0.060  0.00  0.00    -0.094 A 
ATOM      9  C9  DEN d   1       0.203   0.717   0.958  0.00  0.00    -0.072 A 
ENDROOT
TORSDOF 0
ENDMDL
