MODEL 1
REMARK minimizedAffinity -5.51573658
REMARK minimizedRMSD -1
REMARK  0 active torsions:
REMARK  status: ('A' for Active; 'I' for Inactive)
ROOT
ATOM      1  C1  DEN d   1       0.551  -0.039   1.450  0.00  0.00     0.130 A 
ATOM      2  C2  DEN d   1       0.736  -0.718   0.171  0.00  0.00    -0.031 A 
ATOM      3  C3  DEN d   1       0.229   0.169  -0.895  0.00  0.00     0.027 A 
ATOM      4  C4  DEN d   1      -0.815   2.519  -0.690  0.00  0.00     0.027 A 
ATOM      5  C5  DEN d   1      -1.191   3.507   0.194  0.00  0.00    -0.003 A 
ATOM      6  C6  DEN d   1      -1.045   3.369   1.548  0.00  0.00     0.001 A 
ATOM      7  C7  DEN d   1      -0.468   2.236   2.057  0.00  0.00     0.017 A 
ATOM      8  C8  DEN d   1      -0.093   1.233   1.174  0.00  0.00    -0.094 A 
ATOM      9  C9  DEN d   1      -0.237   1.396  -0.193  0.00  0.00    -0.072 A 
ENDROOT
TORSDOF 0
ENDMDL
