MODEL 1
REMARK minimizedAffinity -5.66259623
REMARK minimizedRMSD -1
REMARK  0 active torsions:
REMARK  status: ('A' for Active; 'I' for Inactive)
ROOT
ATOM      1  C1  DEN d   1      -0.923   2.024  -1.874  0.00  0.00     0.130 A 
ATOM      2  C2  DEN d   1       0.050   1.389  -2.758  0.00  0.00    -0.031 A 
ATOM      3  C3  DEN d   1       0.863   0.459  -1.948  0.00  0.00     0.027 A 
ATOM      4  C4  DEN d   1       0.706  -0.059   0.574  0.00  0.00     0.027 A 
ATOM      5  C5  DEN d   1       0.042   0.242   1.742  0.00  0.00    -0.003 A 
ATOM      6  C6  DEN d   1      -0.958   1.176   1.794  0.00  0.00     0.001 A 
ATOM      7  C7  DEN d   1      -1.355   1.809   0.646  0.00  0.00     0.017 A 
ATOM      8  C8  DEN d   1      -0.686   1.516  -0.535  0.00  0.00    -0.094 A 
ATOM      9  C9  DEN d   1       0.315   0.560  -0.569  0.00  0.00    -0.072 A 
ENDROOT
TORSDOF 0
ENDMDL
