MODEL 1
REMARK minimizedAffinity -4.82612419
REMARK minimizedRMSD -1
REMARK  0 active torsions:
REMARK  status: ('A' for Active; 'I' for Inactive)
ROOT
ATOM      1  C1  DEN d   1       0.414   0.403   1.673  0.00  0.00     0.130 A 
ATOM      2  C2  DEN d   1      -0.100   1.619   2.298  0.00  0.00    -0.031 A 
ATOM      3  C3  DEN d   1      -0.470   2.563   1.224  0.00  0.00     0.027 A 
ATOM      4  C4  DEN d   1      -0.304   2.258  -1.332  0.00  0.00     0.027 A 
ATOM      5  C5  DEN d   1       0.081   1.399  -2.337  0.00  0.00    -0.003 A 
ATOM      6  C6  DEN d   1       0.631   0.171  -2.078  0.00  0.00     0.001 A 
ATOM      7  C7  DEN d   1       0.769  -0.250  -0.782  0.00  0.00     0.017 A 
ATOM      8  C8  DEN d   1       0.390   0.613   0.237  0.00  0.00    -0.094 A 
ATOM      9  C9  DEN d   1      -0.175   1.845  -0.046  0.00  0.00    -0.072 A 
ENDROOT
TORSDOF 0
ENDMDL
