MODEL 1
REMARK minimizedAffinity -4.88166475
REMARK minimizedRMSD -1
REMARK  0 active torsions:
REMARK  status: ('A' for Active; 'I' for Inactive)
ROOT
ATOM      1  C1  DEN d   1      -1.715   1.678   0.674  0.00  0.00     0.130 A 
ATOM      2  C2  DEN d   1      -1.132   2.217   1.899  0.00  0.00    -0.031 A 
ATOM      3  C3  DEN d   1       0.076   1.428   2.215  0.00  0.00     0.027 A 
ATOM      4  C4  DEN d   1       1.097  -0.561   0.928  0.00  0.00     0.027 A 
ATOM      5  C5  DEN d   1       0.950  -1.385  -0.165  0.00  0.00    -0.003 A 
ATOM      6  C6  DEN d   1      -0.106  -1.269  -1.030  0.00  0.00     0.001 A 
ATOM      7  C7  DEN d   1      -1.033  -0.277  -0.841  0.00  0.00     0.017 A 
ATOM      8  C8  DEN d   1      -0.894   0.553   0.264  0.00  0.00    -0.094 A 
ATOM      9  C9  DEN d   1       0.187   0.427   1.119  0.00  0.00    -0.072 A 
ENDROOT
TORSDOF 0
ENDMDL
