MODEL 1
REMARK minimizedAffinity -0.921629608
REMARK minimizedRMSD -1
REMARK  0 active torsions:
REMARK  status: ('A' for Active; 'I' for Inactive)
ROOT
ATOM      1  C1  DEN d   1      -0.128   0.012   1.755  0.00  0.00     0.130 A 
ATOM      2  C2  DEN d   1       0.012   1.458   1.900  0.00  0.00    -0.031 A 
ATOM      3  C3  DEN d   1       0.223   2.033   0.556  0.00  0.00     0.027 A 
ATOM      4  C4  DEN d   1       0.341   0.831  -1.723  0.00  0.00     0.027 A 
ATOM      5  C5  DEN d   1       0.289  -0.394  -2.349  0.00  0.00    -0.003 A 
ATOM      6  C6  DEN d   1       0.130  -1.564  -1.654  0.00  0.00     0.001 A 
ATOM      7  C7  DEN d   1      -0.028  -1.529  -0.294  0.00  0.00     0.017 A 
ATOM      8  C8  DEN d   1       0.030  -0.298   0.346  0.00  0.00    -0.094 A 
ATOM      9  C9  DEN d   1       0.180   0.875  -0.376  0.00  0.00    -0.072 A 
ENDROOT
TORSDOF 0
ENDMDL
