MODEL 1
REMARK minimizedAffinity -2.84650016
REMARK minimizedRMSD -1
REMARK  0 active torsions:
REMARK  status: ('A' for Active; 'I' for Inactive)
ROOT
ATOM      1  C   UNL d   1      -0.929  -2.669   0.902  0.00  0.00     0.020 A 
ATOM      2  C1  UNL d   1      -0.959  -1.619   1.818  0.00  0.00     0.020 A 
ATOM      3  C2  UNL d   1      -0.527  -0.347   1.436  0.00  0.00     0.034 A 
ATOM      4  C3  UNL d   1      -0.064  -0.122   0.135  0.00  0.00     0.017 A 
ATOM      5  C4  UNL d   1      -0.034  -1.177  -0.784  0.00  0.00     0.017 A 
ATOM      6  C5  UNL d   1      -0.467  -2.448  -0.397  0.00  0.00     0.034 A 
ATOM      7 Cl   UNL d   1       0.524  -0.976  -2.408  0.00  0.00    -0.070 Cl
ATOM      8 Cl1  UNL d   1       0.454   1.477  -0.269  0.00  0.00    -0.070 Cl
ENDROOT
TORSDOF 0
ENDMDL
