MODEL 1
REMARK minimizedAffinity 7.31825352
REMARK minimizedRMSD -1
REMARK  0 active torsions:
REMARK  status: ('A' for Active; 'I' for Inactive)
ROOT
ATOM      1  C   UNL d   1      -1.891  -1.893   1.852  0.00  0.00     0.020 A 
ATOM      2  C1  UNL d   1      -0.871  -0.945   1.786  0.00  0.00     0.020 A 
ATOM      3  C2  UNL d   1      -0.172  -0.754   0.592  0.00  0.00     0.034 A 
ATOM      4  C3  UNL d   1      -0.493  -1.512  -0.540  0.00  0.00     0.017 A 
ATOM      5  C4  UNL d   1      -1.517  -2.462  -0.473  0.00  0.00     0.017 A 
ATOM      6  C5  UNL d   1      -2.214  -2.649   0.725  0.00  0.00     0.034 A 
ATOM      7 Cl   UNL d   1      -1.971  -3.434  -1.828  0.00  0.00    -0.070 Cl
ATOM      8 Cl1  UNL d   1       0.413  -1.222  -1.983  0.00  0.00    -0.070 Cl
ENDROOT
TORSDOF 0
ENDMDL
