MODEL 1
REMARK minimizedAffinity -1.52380085
REMARK minimizedRMSD -1
REMARK  0 active torsions:
REMARK  status: ('A' for Active; 'I' for Inactive)
ROOT
ATOM      1  C   UNL d   1      -1.160  -1.537   1.632  0.00  0.00     0.020 A 
ATOM      2  C1  UNL d   1      -1.277  -2.340   0.498  0.00  0.00     0.020 A 
ATOM      3  C2  UNL d   1      -0.828  -1.871  -0.738  0.00  0.00     0.034 A 
ATOM      4  C3  UNL d   1      -0.260  -0.596  -0.844  0.00  0.00     0.017 A 
ATOM      5  C4  UNL d   1      -0.144   0.209   0.295  0.00  0.00     0.017 A 
ATOM      6  C5  UNL d   1      -0.595  -0.265   1.531  0.00  0.00     0.034 A 
ATOM      7 Cl   UNL d   1       0.545   1.793   0.244  0.00  0.00    -0.070 Cl
ATOM      8 Cl1  UNL d   1       0.274  -0.081  -2.404  0.00  0.00    -0.070 Cl
ENDROOT
TORSDOF 0
ENDMDL
