MODEL 1
REMARK minimizedAffinity -1.5042361
REMARK minimizedRMSD -1
REMARK  0 active torsions:
REMARK  status: ('A' for Active; 'I' for Inactive)
ROOT
ATOM      1  C   UNL d   1      -0.763  -2.517  -0.460  0.00  0.00     0.020 A 
ATOM      2  C1  UNL d   1      -0.144  -1.716  -1.419  0.00  0.00     0.020 A 
ATOM      3  C2  UNL d   1       0.198  -0.398  -1.112  0.00  0.00     0.034 A 
ATOM      4  C3  UNL d   1      -0.078   0.124   0.157  0.00  0.00     0.017 A 
ATOM      5  C4  UNL d   1      -0.700  -0.680   1.119  0.00  0.00     0.017 A 
ATOM      6  C5  UNL d   1      -1.040  -2.000   0.806  0.00  0.00     0.034 A 
ATOM      7 Cl   UNL d   1      -1.073  -0.106   2.706  0.00  0.00    -0.070 Cl
ATOM      8 Cl1  UNL d   1       0.373   1.763   0.467  0.00  0.00    -0.070 Cl
ENDROOT
TORSDOF 0
ENDMDL
