MODEL 1
REMARK minimizedAffinity 9.52636528
REMARK minimizedRMSD -1
REMARK  0 active torsions:
REMARK  status: ('A' for Active; 'I' for Inactive)
ROOT
ATOM      1  C   UNL d   1       3.937   2.790  -0.426  0.00  0.00     0.020 A 
ATOM      2  C1  UNL d   1       3.924   4.172  -0.239  0.00  0.00     0.020 A 
ATOM      3  C2  UNL d   1       2.960   4.755   0.586  0.00  0.00     0.034 A 
ATOM      4  C3  UNL d   1       2.005   3.956   1.227  0.00  0.00     0.017 A 
ATOM      5  C4  UNL d   1       2.020   2.570   1.038  0.00  0.00     0.017 A 
ATOM      6  C5  UNL d   1       2.988   1.991   0.211  0.00  0.00     0.034 A 
ATOM      7 Cl   UNL d   1       0.875   1.519   1.795  0.00  0.00    -0.070 Cl
ATOM      8 Cl1  UNL d   1       0.843   4.745   2.233  0.00  0.00    -0.070 Cl
ENDROOT
TORSDOF 0
ENDMDL
