MODEL 1
REMARK minimizedAffinity -2.25912142
REMARK minimizedRMSD -1
REMARK  0 active torsions:
REMARK  status: ('A' for Active; 'I' for Inactive)
ROOT
ATOM      1  C   UNL d   1       2.603   3.785   1.579  0.00  0.00     0.020 A 
ATOM      2  C1  UNL d   1       1.321   4.188   1.210  0.00  0.00     0.020 A 
ATOM      3  C2  UNL d   1       0.452   3.281   0.601  0.00  0.00     0.034 A 
ATOM      4  C3  UNL d   1       0.864   1.965   0.359  0.00  0.00     0.017 A 
ATOM      5  C4  UNL d   1       2.152   1.561   0.730  0.00  0.00     0.017 A 
ATOM      6  C5  UNL d   1       3.018   2.474   1.340  0.00  0.00     0.034 A 
ATOM      7 Cl   UNL d   1       2.732  -0.045   0.464  0.00  0.00    -0.070 Cl
ATOM      8 Cl1  UNL d   1      -0.262   0.896  -0.398  0.00  0.00    -0.070 Cl
ENDROOT
TORSDOF 0
ENDMDL
