MODEL 1
REMARK minimizedAffinity 0.0981012732
REMARK minimizedRMSD -1
REMARK  0 active torsions:
REMARK  status: ('A' for Active; 'I' for Inactive)
ROOT
ATOM      1  C   UNL d   1      -0.152  -1.120  -1.499  0.00  0.00     0.020 A 
ATOM      2  C1  UNL d   1      -0.777  -2.124  -0.760  0.00  0.00     0.020 A 
ATOM      3  C2  UNL d   1      -1.100  -1.905   0.581  0.00  0.00     0.034 A 
ATOM      4  C3  UNL d   1      -0.798  -0.680   1.187  0.00  0.00     0.017 A 
ATOM      5  C4  UNL d   1      -0.172   0.327   0.444  0.00  0.00     0.017 A 
ATOM      6  C5  UNL d   1       0.150   0.102  -0.899  0.00  0.00     0.034 A 
ATOM      7 Cl   UNL d   1       0.232   1.865   1.122  0.00  0.00    -0.070 Cl
ATOM      8 Cl1  UNL d   1      -1.227  -0.478   2.848  0.00  0.00    -0.070 Cl
ENDROOT
TORSDOF 0
ENDMDL
