MODEL 1
REMARK minimizedAffinity -3.02433729
REMARK minimizedRMSD -1
REMARK  0 active torsions:
REMARK  status: ('A' for Active; 'I' for Inactive)
ROOT
ATOM      1  C   UNL d   1      -1.503  -4.123  -0.195  0.00  0.00     0.020 A 
ATOM      2  C1  UNL d   1      -0.476  -4.094  -1.137  0.00  0.00     0.020 A 
ATOM      3  C2  UNL d   1       0.227  -2.910  -1.368  0.00  0.00     0.034 A 
ATOM      4  C3  UNL d   1      -0.096  -1.749  -0.656  0.00  0.00     0.017 A 
ATOM      5  C4  UNL d   1      -1.128  -1.779   0.289  0.00  0.00     0.017 A 
ATOM      6  C5  UNL d   1      -1.828  -2.967   0.516  0.00  0.00     0.034 A 
ATOM      7 Cl   UNL d   1      -1.585  -0.387   1.206  0.00  0.00    -0.070 Cl
ATOM      8 Cl1  UNL d   1       0.815  -0.320  -0.993  0.00  0.00    -0.070 Cl
ENDROOT
TORSDOF 0
ENDMDL
