MODEL 1
REMARK minimizedAffinity -2.60505366
REMARK minimizedRMSD -1
REMARK  0 active torsions:
REMARK  status: ('A' for Active; 'I' for Inactive)
ROOT
ATOM      1  C   UNL d   1      -1.127  -2.419   0.865  0.00  0.00     0.020 A 
ATOM      2  C1  UNL d   1      -1.125  -1.335   1.742  0.00  0.00     0.020 A 
ATOM      3  C2  UNL d   1      -0.606  -0.106   1.331  0.00  0.00     0.034 A 
ATOM      4  C3  UNL d   1      -0.085   0.043   0.041  0.00  0.00     0.017 A 
ATOM      5  C4  UNL d   1      -0.086  -1.046  -0.839  0.00  0.00     0.017 A 
ATOM      6  C5  UNL d   1      -0.608  -2.275  -0.423  0.00  0.00     0.034 A 
ATOM      7 Cl   UNL d   1       0.539  -0.940  -2.447  0.00  0.00    -0.070 Cl
ATOM      8 Cl1  UNL d   1       0.542   1.592  -0.400  0.00  0.00    -0.070 Cl
ENDROOT
TORSDOF 0
ENDMDL
