MODEL 1
REMARK minimizedAffinity -1.60555625
REMARK minimizedRMSD -1
REMARK  0 active torsions:
REMARK  status: ('A' for Active; 'I' for Inactive)
ROOT
ATOM      1  C   UNL d   1       0.020   1.519   0.034  0.00  0.00     0.020 A 
ATOM      2  C1  UNL d   1      -0.669   0.971   1.115  0.00  0.00     0.020 A 
ATOM      3  C2  UNL d   1      -1.247  -0.295   1.005  0.00  0.00     0.034 A 
ATOM      4  C3  UNL d   1      -1.137  -1.019  -0.188  0.00  0.00     0.017 A 
ATOM      5  C4  UNL d   1      -0.444  -0.468  -1.273  0.00  0.00     0.017 A 
ATOM      6  C5  UNL d   1       0.133   0.800  -1.157  0.00  0.00     0.034 A 
ATOM      7 Cl   UNL d   1      -0.265  -1.300  -2.777  0.00  0.00    -0.070 Cl
ATOM      8 Cl1  UNL d   1      -1.875  -2.579  -0.253  0.00  0.00    -0.070 Cl
ENDROOT
TORSDOF 0
ENDMDL
