MODEL 1
REMARK minimizedAffinity -2.34634066
REMARK minimizedRMSD -1
REMARK  0 active torsions:
REMARK  status: ('A' for Active; 'I' for Inactive)
ROOT
ATOM      1  C   UNL d   1      -0.737  -0.073   0.855  0.00  0.00     0.020 A 
ATOM      2  C1  UNL d   1      -0.997  -1.426   1.066  0.00  0.00     0.020 A 
ATOM      3  C2  UNL d   1      -0.994  -2.314  -0.013  0.00  0.00     0.034 A 
ATOM      4  C3  UNL d   1      -0.730  -1.848  -1.306  0.00  0.00     0.017 A 
ATOM      5  C4  UNL d   1      -0.470  -0.489  -1.516  0.00  0.00     0.017 A 
ATOM      6  C5  UNL d   1      -0.474   0.395  -0.433  0.00  0.00     0.034 A 
ATOM      7 Cl   UNL d   1      -0.137   0.159  -3.083  0.00  0.00    -0.070 Cl
ATOM      8 Cl1  UNL d   1      -0.743  -3.002  -2.593  0.00  0.00    -0.070 Cl
ENDROOT
TORSDOF 0
ENDMDL
