MODEL 1
REMARK minimizedAffinity -4.59502554
REMARK minimizedRMSD -1
REMARK  0 active torsions:
REMARK  status: ('A' for Active; 'I' for Inactive)
ROOT
ATOM      1  C   UNL d   1       0.276  -3.933  -1.794  0.00  0.00     0.020 A 
ATOM      2  C1  UNL d   1       0.151  -4.095  -0.414  0.00  0.00     0.020 A 
ATOM      3  C2  UNL d   1      -0.048  -2.981   0.404  0.00  0.00     0.034 A 
ATOM      4  C3  UNL d   1      -0.124  -1.701  -0.155  0.00  0.00     0.017 A 
ATOM      5  C4  UNL d   1       0.001  -1.539  -1.540  0.00  0.00     0.017 A 
ATOM      6  C5  UNL d   1       0.201  -2.657  -2.355  0.00  0.00     0.034 A 
ATOM      7 Cl   UNL d   1      -0.081   0.009  -2.303  0.00  0.00    -0.070 Cl
ATOM      8 Cl1  UNL d   1      -0.372  -0.369   0.917  0.00  0.00    -0.070 Cl
ENDROOT
TORSDOF 0
ENDMDL
