MODEL 1
REMARK minimizedAffinity -3.82073116
REMARK minimizedRMSD -1
REMARK  0 active torsions:
REMARK  status: ('A' for Active; 'I' for Inactive)
ROOT
ATOM      1  C   UNL d   1      -0.176  -2.105  -2.600  0.00  0.00     0.020 A 
ATOM      2  C1  UNL d   1      -0.581  -3.153  -1.775  0.00  0.00     0.020 A 
ATOM      3  C2  UNL d   1      -0.834  -2.918  -0.422  0.00  0.00     0.034 A 
ATOM      4  C3  UNL d   1      -0.683  -1.633   0.110  0.00  0.00     0.017 A 
ATOM      5  C4  UNL d   1      -0.276  -0.581  -0.719  0.00  0.00     0.017 A 
ATOM      6  C5  UNL d   1      -0.024  -0.822  -2.073  0.00  0.00     0.034 A 
ATOM      7 Cl   UNL d   1      -0.067   1.032  -0.135  0.00  0.00    -0.070 Cl
ATOM      8 Cl1  UNL d   1      -1.014  -1.415   1.792  0.00  0.00    -0.070 Cl
ENDROOT
TORSDOF 0
ENDMDL
