MODEL 1
REMARK minimizedAffinity -3.16761732
REMARK minimizedRMSD -1
REMARK  0 active torsions:
REMARK  status: ('A' for Active; 'I' for Inactive)
ROOT
ATOM      1  C   UNL d   1      -0.965  -2.651   0.889  0.00  0.00     0.020 A 
ATOM      2  C1  UNL d   1      -0.863  -1.375   1.442  0.00  0.00     0.020 A 
ATOM      3  C2  UNL d   1      -0.615  -0.276   0.618  0.00  0.00     0.034 A 
ATOM      4  C3  UNL d   1      -0.468  -0.450  -0.763  0.00  0.00     0.017 A 
ATOM      5  C4  UNL d   1      -0.571  -1.731  -1.317  0.00  0.00     0.017 A 
ATOM      6  C5  UNL d   1      -0.820  -2.829  -0.487  0.00  0.00     0.034 A 
ATOM      7 Cl   UNL d   1      -0.402  -2.024  -3.012  0.00  0.00    -0.070 Cl
ATOM      8 Cl1  UNL d   1      -0.164   0.955  -1.722  0.00  0.00    -0.070 Cl
ENDROOT
TORSDOF 0
ENDMDL
