MODEL 1
REMARK minimizedAffinity -5.91189146
REMARK minimizedRMSD -1
REMARK  0 active torsions:
REMARK  status: ('A' for Active; 'I' for Inactive)
ROOT
ATOM      1  C   UNL d   1      -0.210  -3.541  -1.490  0.00  0.00     0.020 A 
ATOM      2  C1  UNL d   1       0.093  -3.515  -0.129  0.00  0.00     0.020 A 
ATOM      3  C2  UNL d   1       0.442  -2.310   0.485  0.00  0.00     0.034 A 
ATOM      4  C3  UNL d   1       0.490  -1.127  -0.262  0.00  0.00     0.017 A 
ATOM      5  C4  UNL d   1       0.185  -1.155  -1.628  0.00  0.00     0.017 A 
ATOM      6  C5  UNL d   1      -0.164  -2.364  -2.238  0.00  0.00     0.034 A 
ATOM      7 Cl   UNL d   1       0.222   0.263  -2.615  0.00  0.00    -0.070 Cl
ATOM      8 Cl1  UNL d   1       0.929   0.326   0.562  0.00  0.00    -0.070 Cl
ENDROOT
TORSDOF 0
ENDMDL
