MODEL 1
REMARK minimizedAffinity -3.16332698
REMARK minimizedRMSD -1
REMARK  0 active torsions:
REMARK  status: ('A' for Active; 'I' for Inactive)
ROOT
ATOM      1  C   UNL d   1      -1.334  -0.420   2.188  0.00  0.00     0.020 A 
ATOM      2  C1  UNL d   1      -1.240  -1.792   1.955  0.00  0.00     0.020 A 
ATOM      3  C2  UNL d   1      -0.949  -2.265   0.674  0.00  0.00     0.034 A 
ATOM      4  C3  UNL d   1      -0.751  -1.365  -0.380  0.00  0.00     0.017 A 
ATOM      5  C4  UNL d   1      -0.845   0.011  -0.146  0.00  0.00     0.017 A 
ATOM      6  C5  UNL d   1      -1.137   0.479   1.139  0.00  0.00     0.034 A 
ATOM      7 Cl   UNL d   1      -0.614   1.182  -1.396  0.00  0.00    -0.070 Cl
ATOM      8 Cl1  UNL d   1      -0.394  -2.020  -1.939  0.00  0.00    -0.070 Cl
ENDROOT
TORSDOF 0
ENDMDL
