MODEL 1
REMARK minimizedAffinity -3.65320134
REMARK minimizedRMSD -1
REMARK  0 active torsions:
REMARK  status: ('A' for Active; 'I' for Inactive)
ROOT
ATOM      1  N1  IND d   1       0.908   0.415  -5.400  0.00  0.00    -0.196 N 
ATOM      2  C2  IND d   1      -0.229  -0.236  -5.791  0.00  0.00     0.054 A 
ATOM      3  C3  IND d   1      -0.808  -0.849  -4.734  0.00  0.00    -0.031 A 
ATOM      4  C4  IND d   1      -0.116  -0.833  -2.255  0.00  0.00     0.051 A 
ATOM      5  C5  IND d   1       0.874  -0.406  -1.415  0.00  0.00    -0.031 A 
ATOM      6  C6  IND d   1       1.947   0.335  -1.870  0.00  0.00     0.015 A 
ATOM      7  C7  IND d   1       2.063   0.686  -3.185  0.00  0.00    -0.016 A 
ATOM      8  C8  IND d   1       1.063   0.247  -4.042  0.00  0.00    -0.047 A 
ATOM      9  C9  IND d   1      -0.005  -0.540  -3.593  0.00  0.00    -0.096 A 
ATOM     10  HN1 IND d   1       1.437   0.854  -5.916  0.00  0.00     0.298 HD
ENDROOT
TORSDOF 0
ENDMDL
