MODEL 1
REMARK minimizedAffinity -0.496067017
REMARK minimizedRMSD -1
REMARK  0 active torsions:
REMARK  status: ('A' for Active; 'I' for Inactive)
ROOT
ATOM      1  N1  IND d   1       0.120  -1.491  -0.433  0.00  0.00    -0.196 N 
ATOM      2  C2  IND d   1      -1.006  -0.757  -0.681  0.00  0.00     0.054 A 
ATOM      3  C3  IND d   1      -1.021   0.356   0.088  0.00  0.00    -0.031 A 
ATOM      4  C4  IND d   1       0.748   1.221   1.746  0.00  0.00     0.051 A 
ATOM      5  C5  IND d   1       1.932   0.876   2.335  0.00  0.00    -0.031 A 
ATOM      6  C6  IND d   1       2.587  -0.298   2.024  0.00  0.00     0.015 A 
ATOM      7  C7  IND d   1       2.085  -1.169   1.099  0.00  0.00    -0.016 A 
ATOM      8  C8  IND d   1       0.880  -0.826   0.503  0.00  0.00    -0.047 A 
ATOM      9  C9  IND d   1       0.190   0.344   0.846  0.00  0.00    -0.096 A 
ATOM     10  HN1 IND d   1       0.320  -2.242  -0.801  0.00  0.00     0.298 HD
ENDROOT
TORSDOF 0
ENDMDL
