MODEL 1
REMARK minimizedAffinity -3.47041464
REMARK minimizedRMSD -1
REMARK  0 active torsions:
REMARK  status: ('A' for Active; 'I' for Inactive)
ROOT
ATOM      1  N1  IND d   1      -2.652  -2.585  -0.219  0.00  0.00    -0.196 N 
ATOM      2  C2  IND d   1      -2.003  -3.563  -0.919  0.00  0.00     0.054 A 
ATOM      3  C3  IND d   1      -0.807  -3.112  -1.359  0.00  0.00    -0.031 A 
ATOM      4  C4  IND d   1       0.331  -0.838  -0.960  0.00  0.00     0.051 A 
ATOM      5  C5  IND d   1       0.113   0.394  -0.409  0.00  0.00    -0.031 A 
ATOM      6  C6  IND d   1      -1.061   0.701   0.248  0.00  0.00     0.015 A 
ATOM      7  C7  IND d   1      -2.060  -0.220   0.390  0.00  0.00    -0.016 A 
ATOM      8  C8  IND d   1      -1.845  -1.470  -0.173  0.00  0.00    -0.047 A 
ATOM      9  C9  IND d   1      -0.673  -1.774  -0.879  0.00  0.00    -0.096 A 
ATOM     10  HN1 IND d   1      -3.433  -2.654   0.133  0.00  0.00     0.298 HD
ENDROOT
TORSDOF 0
ENDMDL
