MODEL 1
REMARK minimizedAffinity -4.60466862
REMARK minimizedRMSD -1
REMARK  0 active torsions:
REMARK  status: ('A' for Active; 'I' for Inactive)
ROOT
ATOM      1  N1  IND d   1      -1.103  -0.881   0.051  0.00  0.00    -0.196 N 
ATOM      2  C2  IND d   1       0.104  -1.211  -0.501  0.00  0.00     0.054 A 
ATOM      3  C3  IND d   1       1.086  -0.442   0.021  0.00  0.00    -0.031 A 
ATOM      4  C4  IND d   1       0.954   1.349   1.866  0.00  0.00     0.051 A 
ATOM      5  C5  IND d   1       0.061   2.025   2.649  0.00  0.00    -0.031 A 
ATOM      6  C6  IND d   1      -1.292   1.760   2.607  0.00  0.00     0.015 A 
ATOM      7  C7  IND d   1      -1.804   0.796   1.785  0.00  0.00    -0.016 A 
ATOM      8  C8  IND d   1      -0.901   0.112   0.984  0.00  0.00    -0.047 A 
ATOM      9  C9  IND d   1       0.468   0.406   0.991  0.00  0.00    -0.096 A 
ATOM     10  HN1 IND d   1      -1.860  -1.235  -0.150  0.00  0.00     0.298 HD
ENDROOT
TORSDOF 0
ENDMDL
