MODEL 1
REMARK minimizedAffinity -3.82172203
REMARK minimizedRMSD -1
REMARK  0 active torsions:
REMARK  status: ('A' for Active; 'I' for Inactive)
ROOT
ATOM      1  N1  IND d   1      -1.359  -0.749  -0.146  0.00  0.00    -0.196 N 
ATOM      2  C2  IND d   1      -0.321  -1.169  -0.930  0.00  0.00     0.054 A 
ATOM      3  C3  IND d   1       0.834  -0.591  -0.530  0.00  0.00    -0.031 A 
ATOM      4  C4  IND d   1       1.269   0.997   1.449  0.00  0.00     0.051 A 
ATOM      5  C5  IND d   1       0.625   1.695   2.431  0.00  0.00    -0.031 A 
ATOM      6  C6  IND d   1      -0.740   1.611   2.610  0.00  0.00     0.015 A 
ATOM      7  C7  IND d   1      -1.515   0.813   1.817  0.00  0.00    -0.016 A 
ATOM      8  C8  IND d   1      -0.865   0.107   0.814  0.00  0.00    -0.047 A 
ATOM      9  C9  IND d   1       0.515   0.222   0.600  0.00  0.00    -0.096 A 
ATOM     10  HN1 IND d   1      -2.182  -0.980  -0.238  0.00  0.00     0.298 HD
ENDROOT
TORSDOF 0
ENDMDL
