MODEL 1
REMARK minimizedAffinity 4.60204983
REMARK minimizedRMSD -1
REMARK  0 active torsions:
REMARK  status: ('A' for Active; 'I' for Inactive)
ROOT
ATOM      1  N1  IND d   1      -0.287   0.821  -0.814  0.00  0.00    -0.196 N 
ATOM      2  C2  IND d   1       0.361  -0.058   0.009  0.00  0.00     0.054 A 
ATOM      3  C3  IND d   1       1.370  -0.666  -0.654  0.00  0.00    -0.031 A 
ATOM      4  C4  IND d   1       2.202  -0.296  -3.062  0.00  0.00     0.051 A 
ATOM      5  C5  IND d   1       1.905   0.380  -4.213  0.00  0.00    -0.031 A 
ATOM      6  C6  IND d   1       0.843   1.257  -4.290  0.00  0.00     0.015 A 
ATOM      7  C7  IND d   1       0.041   1.501  -3.211  0.00  0.00    -0.016 A 
ATOM      8  C8  IND d   1       0.335   0.811  -2.043  0.00  0.00    -0.047 A 
ATOM      9  C9  IND d   1       1.386  -0.112  -1.971  0.00  0.00    -0.096 A 
ATOM     10  HN1 IND d   1      -0.968   1.300  -0.599  0.00  0.00     0.298 HD
ENDROOT
TORSDOF 0
ENDMDL
