MODEL 1
REMARK minimizedAffinity -1.70917082
REMARK minimizedRMSD -1
REMARK  0 active torsions:
REMARK  status: ('A' for Active; 'I' for Inactive)
ROOT
ATOM      1  N1  IND d   1      -0.631  -1.254  -0.397  0.00  0.00    -0.196 N 
ATOM      2  C2  IND d   1      -1.995  -1.172  -0.411  0.00  0.00     0.054 A 
ATOM      3  C3  IND d   1      -2.421  -0.264   0.495  0.00  0.00    -0.031 A 
ATOM      4  C4  IND d   1      -1.050   1.277   2.035  0.00  0.00     0.051 A 
ATOM      5  C5  IND d   1       0.231   1.541   2.431  0.00  0.00    -0.031 A 
ATOM      6  C6  IND d   1       1.313   0.875   1.891  0.00  0.00     0.015 A 
ATOM      7  C7  IND d   1       1.153  -0.076   0.923  0.00  0.00    -0.016 A 
ATOM      8  C8  IND d   1      -0.147  -0.351   0.524  0.00  0.00    -0.047 A 
ATOM      9  C9  IND d   1      -1.251   0.291   1.098  0.00  0.00    -0.096 A 
ATOM     10  HN1 IND d   1      -0.155  -1.781  -0.882  0.00  0.00     0.298 HD
ENDROOT
TORSDOF 0
ENDMDL
