MODEL 1
REMARK minimizedAffinity -2.09963822
REMARK minimizedRMSD -1
REMARK  0 active torsions:
REMARK  status: ('A' for Active; 'I' for Inactive)
ROOT
ATOM      1  N1  IND d   1       1.711   0.599  -2.917  0.00  0.00    -0.196 N 
ATOM      2  C2  IND d   1       2.264   1.687  -3.533  0.00  0.00     0.054 A 
ATOM      3  C3  IND d   1       1.776   1.817  -4.787  0.00  0.00    -0.031 A 
ATOM      4  C4  IND d   1      -0.014   0.418  -5.998  0.00  0.00     0.051 A 
ATOM      5  C5  IND d   1      -0.785  -0.702  -5.855  0.00  0.00    -0.031 A 
ATOM      6  C6  IND d   1      -0.765  -1.459  -4.702  0.00  0.00     0.015 A 
ATOM      7  C7  IND d   1       0.022  -1.116  -3.639  0.00  0.00    -0.016 A 
ATOM      8  C8  IND d   1       0.811   0.016  -3.783  0.00  0.00    -0.047 A 
ATOM      9  C9  IND d   1       0.827   0.764  -4.967  0.00  0.00    -0.096 A 
ATOM     10  HN1 IND d   1       1.894   0.325  -2.123  0.00  0.00     0.298 HD
ENDROOT
TORSDOF 0
ENDMDL
