MODEL 1
REMARK minimizedAffinity 3.26309776
REMARK minimizedRMSD -1
REMARK  1 active torsions:
REMARK  status: ('A' for Active; 'I' for Inactive)
REMARK    1  A    between atoms: C3_4  and  O_7 
ROOT
ATOM      1  C   UNL d   1       2.256  -0.751   2.197  0.00  0.00    -0.033 A 
ATOM      2  C1  UNL d   1       1.505   0.106   3.004  0.00  0.00     0.039 A 
ATOM      3  C2  UNL d   1       1.131  -0.292   4.289  0.00  0.00    -0.080 A 
ATOM      4  C3  UNL d   1       1.515  -1.547   4.755  0.00  0.00     0.150 A 
ATOM      5  C4  UNL d   1       2.266  -2.404   3.957  0.00  0.00    -0.007 A 
ATOM      6  C5  UNL d   1       2.638  -2.006   2.674  0.00  0.00     0.039 A 
ENDROOT
BRANCH   4   7
ATOM      7  O   UNL d   1       1.169  -1.981   6.000  0.00  0.00    -0.526 OA
ATOM      8  H5  UNL d   1       0.627  -1.295   6.425  0.00  0.00     0.418 HD
ENDBRANCH   4   7
TORSDOF 1
ENDMDL
