MODEL 1
REMARK minimizedAffinity 5.90721607
REMARK minimizedRMSD -1
REMARK  1 active torsions:
REMARK  status: ('A' for Active; 'I' for Inactive)
REMARK    1  A    between atoms: C3_4  and  O_7 
ROOT
ATOM      1  C   UNL d   1      -2.788  -4.274  -1.356  0.00  0.00    -0.033 A 
ATOM      2  C1  UNL d   1      -1.879  -4.399  -0.304  0.00  0.00     0.039 A 
ATOM      3  C2  UNL d   1      -1.702  -3.347   0.597  0.00  0.00    -0.080 A 
ATOM      4  C3  UNL d   1      -2.442  -2.178   0.436  0.00  0.00     0.150 A 
ATOM      5  C4  UNL d   1      -3.353  -2.049  -0.607  0.00  0.00    -0.007 A 
ATOM      6  C5  UNL d   1      -3.526  -3.100  -1.506  0.00  0.00     0.039 A 
ENDROOT
BRANCH   4   7
ATOM      7  O   UNL d   1      -2.300  -1.123   1.288  0.00  0.00    -0.526 OA
ATOM      8  H5  UNL d   1      -1.616  -1.345   1.941  0.00  0.00     0.418 HD
ENDBRANCH   4   7
TORSDOF 1
ENDMDL
