MODEL 1
REMARK minimizedAffinity 14.5907021
REMARK minimizedRMSD -1
REMARK  1 active torsions:
REMARK  status: ('A' for Active; 'I' for Inactive)
REMARK    1  A    between atoms: C3_4  and  O_7 
ROOT
ATOM      1  C   UNL d   1      -3.032   1.118  -1.632  0.00  0.00    -0.033 A 
ATOM      2  C1  UNL d   1      -3.212  -0.092  -0.959  0.00  0.00     0.039 A 
ATOM      3  C2  UNL d   1      -3.005  -1.302  -1.625  0.00  0.00    -0.080 A 
ATOM      4  C3  UNL d   1      -2.619  -1.288  -2.962  0.00  0.00     0.150 A 
ATOM      5  C4  UNL d   1      -2.434  -0.086  -3.638  0.00  0.00    -0.007 A 
ATOM      6  C5  UNL d   1      -2.642   1.121  -2.972  0.00  0.00     0.039 A 
ENDROOT
BRANCH   4   7
ATOM      7  O   UNL d   1      -2.410  -2.442  -3.656  0.00  0.00    -0.526 OA
ATOM      8  H5  UNL d   1      -2.603  -3.193  -3.069  0.00  0.00     0.418 HD
ENDBRANCH   4   7
TORSDOF 1
ENDMDL
