MODEL 1
REMARK minimizedAffinity 2.56647849
REMARK minimizedRMSD -1
REMARK  1 active torsions:
REMARK  status: ('A' for Active; 'I' for Inactive)
REMARK    1  A    between atoms: C3_4  and  O_7 
ROOT
ATOM      1  C   UNL d   1       1.678  -2.225   5.551  0.00  0.00    -0.033 A 
ATOM      2  C1  UNL d   1       1.046  -1.001   5.779  0.00  0.00     0.039 A 
ATOM      3  C2  UNL d   1       0.800  -0.132   4.714  0.00  0.00    -0.080 A 
ATOM      4  C3  UNL d   1       1.188  -0.499   3.428  0.00  0.00     0.150 A 
ATOM      5  C4  UNL d   1       1.815  -1.718   3.194  0.00  0.00    -0.007 A 
ATOM      6  C5  UNL d   1       2.062  -2.584   4.259  0.00  0.00     0.039 A 
ENDROOT
BRANCH   4   7
ATOM      7  O   UNL d   1       0.973   0.318   2.358  0.00  0.00    -0.526 OA
ATOM      8  H5  UNL d   1       0.558   1.138   2.675  0.00  0.00     0.418 HD
ENDBRANCH   4   7
TORSDOF 1
ENDMDL
