MODEL 1
REMARK minimizedAffinity -1.43689513
REMARK minimizedRMSD -1
REMARK  1 active torsions:
REMARK  status: ('A' for Active; 'I' for Inactive)
REMARK    1  A    between atoms: C3_4  and  O_7 
ROOT
ATOM      1  C   UNL d   1      -1.862  -2.621  -1.131  0.00  0.00    -0.033 A 
ATOM      2  C1  UNL d   1      -2.495  -1.377  -1.144  0.00  0.00     0.039 A 
ATOM      3  C2  UNL d   1      -3.888  -1.301  -1.183  0.00  0.00    -0.080 A 
ATOM      4  C3  UNL d   1      -4.636  -2.475  -1.208  0.00  0.00     0.150 A 
ATOM      5  C4  UNL d   1      -4.012  -3.718  -1.191  0.00  0.00    -0.007 A 
ATOM      6  C5  UNL d   1      -2.620  -3.792  -1.153  0.00  0.00     0.039 A 
ENDROOT
BRANCH   4   7
ATOM      7  O   UNL d   1      -5.998  -2.451  -1.251  0.00  0.00    -0.526 OA
ATOM      8  H5  UNL d   1      -6.289  -1.525  -1.287  0.00  0.00     0.418 HD
ENDBRANCH   4   7
TORSDOF 1
ENDMDL
