MODEL 1
REMARK minimizedAffinity 8.39616013
REMARK minimizedRMSD -1
REMARK  1 active torsions:
REMARK  status: ('A' for Active; 'I' for Inactive)
REMARK    1  A    between atoms: C3_4  and  O_7 
ROOT
ATOM      1  C   UNL d   1       6.000  -6.000  -4.492  0.00  0.00    -0.033 A 
ATOM      2  C1  UNL d   1       5.999  -5.487  -5.790  0.00  0.00     0.039 A 
ATOM      3  C2  UNL d   1       5.930  -4.109  -5.999  0.00  0.00    -0.080 A 
ATOM      4  C3  UNL d   1       5.862  -3.254  -4.902  0.00  0.00     0.150 A 
ATOM      5  C4  UNL d   1       5.866  -3.758  -3.605  0.00  0.00    -0.007 A 
ATOM      6  C5  UNL d   1       5.935  -5.135  -3.399  0.00  0.00     0.039 A 
ENDROOT
BRANCH   4   7
ATOM      7  O   UNL d   1       5.788  -1.902  -5.056  0.00  0.00    -0.526 OA
ATOM      8  H5  UNL d   1       5.766  -1.701  -6.006  0.00  0.00     0.418 HD
ENDBRANCH   4   7
TORSDOF 1
ENDMDL
