MODEL 1
REMARK minimizedAffinity -1.14792955
REMARK minimizedRMSD -1
REMARK  1 active torsions:
REMARK  status: ('A' for Active; 'I' for Inactive)
REMARK    1  A    between atoms: C3_4  and  O_7 
ROOT
ATOM      1  C   UNL d   1       5.617  -3.424  -5.513  0.00  0.00    -0.033 A 
ATOM      2  C1  UNL d   1       6.000  -2.172  -6.000  0.00  0.00     0.039 A 
ATOM      3  C2  UNL d   1       5.643  -1.013  -5.308  0.00  0.00    -0.080 A 
ATOM      4  C3  UNL d   1       4.906  -1.119  -4.132  0.00  0.00     0.150 A 
ATOM      5  C4  UNL d   1       4.524  -2.363  -3.639  0.00  0.00    -0.007 A 
ATOM      6  C5  UNL d   1       4.881  -3.519  -4.332  0.00  0.00     0.039 A 
ENDROOT
BRANCH   4   7
ATOM      7  O   UNL d   1       4.530  -0.016  -3.425  0.00  0.00    -0.526 OA
ATOM      8  H5  UNL d   1       4.839   0.774  -3.899  0.00  0.00     0.418 HD
ENDBRANCH   4   7
TORSDOF 1
ENDMDL
