MODEL 1
REMARK minimizedAffinity 2.96911669
REMARK minimizedRMSD -1
REMARK  1 active torsions:
REMARK  status: ('A' for Active; 'I' for Inactive)
REMARK    1  A    between atoms: C3_4  and  O_7 
ROOT
ATOM      1  C   UNL d   1       4.118   5.465  -2.224  0.00  0.00    -0.033 A 
ATOM      2  C1  UNL d   1       5.398   5.999  -2.389  0.00  0.00     0.039 A 
ATOM      3  C2  UNL d   1       6.000   6.000  -3.648  0.00  0.00    -0.080 A 
ATOM      4  C3  UNL d   1       5.312   5.465  -4.734  0.00  0.00     0.150 A 
ATOM      5  C4  UNL d   1       4.036   4.934  -4.579  0.00  0.00    -0.007 A 
ATOM      6  C5  UNL d   1       3.437   4.934  -3.320  0.00  0.00     0.039 A 
ENDROOT
BRANCH   4   7
ATOM      7  O   UNL d   1       5.861   5.438  -5.982  0.00  0.00    -0.526 OA
ATOM      8  H5  UNL d   1       6.757   5.812  -5.932  0.00  0.00     0.418 HD
ENDBRANCH   4   7
TORSDOF 1
ENDMDL
