MODEL 1
REMARK minimizedAffinity 6.62869501
REMARK minimizedRMSD -1
REMARK  1 active torsions:
REMARK  status: ('A' for Active; 'I' for Inactive)
REMARK    1  A    between atoms: C3_4  and  O_7 
ROOT
ATOM      1  C   UNL d   1       6.000   5.843  -4.263  0.00  0.00    -0.033 A 
ATOM      2  C1  UNL d   1       4.858   5.371  -4.914  0.00  0.00     0.039 A 
ATOM      3  C2  UNL d   1       3.715   5.050  -4.179  0.00  0.00    -0.080 A 
ATOM      4  C3  UNL d   1       3.726   5.208  -2.795  0.00  0.00     0.150 A 
ATOM      5  C4  UNL d   1       4.858   5.682  -2.141  0.00  0.00    -0.007 A 
ATOM      6  C5  UNL d   1       5.999   6.000  -2.877  0.00  0.00     0.039 A 
ENDROOT
BRANCH   4   7
ATOM      7  O   UNL d   1       2.636   4.904  -2.035  0.00  0.00    -0.526 OA
ATOM      8  H5  UNL d   1       1.939   4.562  -2.619  0.00  0.00     0.418 HD
ENDBRANCH   4   7
TORSDOF 1
ENDMDL
