MODEL 1
REMARK minimizedAffinity 1.21964741
REMARK minimizedRMSD -1
REMARK  1 active torsions:
REMARK  status: ('A' for Active; 'I' for Inactive)
REMARK    1  A    between atoms: C3_4  and  O_7 
ROOT
ATOM      1  C   UNL d   1       0.070  -1.119  -0.345  0.00  0.00    -0.033 A 
ATOM      2  C1  UNL d   1      -1.038  -0.391   0.095  0.00  0.00     0.039 A 
ATOM      3  C2  UNL d   1      -2.074  -1.035   0.774  0.00  0.00    -0.080 A 
ATOM      4  C3  UNL d   1      -1.991  -2.405   1.007  0.00  0.00     0.150 A 
ATOM      5  C4  UNL d   1      -0.888  -3.136   0.576  0.00  0.00    -0.007 A 
ATOM      6  C5  UNL d   1       0.145  -2.491  -0.103  0.00  0.00     0.039 A 
ENDROOT
BRANCH   4   7
ATOM      7  O   UNL d   1      -2.979  -3.078   1.661  0.00  0.00    -0.526 OA
ATOM      8  H5  UNL d   1      -3.690  -2.450   1.875  0.00  0.00     0.418 HD
ENDBRANCH   4   7
TORSDOF 1
ENDMDL
