MODEL 1
REMARK minimizedAffinity -0.464940399
REMARK minimizedRMSD -1
REMARK  1 active torsions:
REMARK  status: ('A' for Active; 'I' for Inactive)
REMARK    1  A    between atoms: C3_4  and  O_7 
ROOT
ATOM      1  C   UNL d   1      -5.999  -3.626  -5.999  0.00  0.00    -0.033 A 
ATOM      2  C1  UNL d   1      -5.592  -2.855  -4.909  0.00  0.00     0.039 A 
ATOM      3  C2  UNL d   1      -5.019  -3.468  -3.793  0.00  0.00    -0.080 A 
ATOM      4  C3  UNL d   1      -4.857  -4.851  -3.781  0.00  0.00     0.150 A 
ATOM      5  C4  UNL d   1      -5.257  -5.625  -4.865  0.00  0.00    -0.007 A 
ATOM      6  C5  UNL d   1      -5.830  -5.011  -5.978  0.00  0.00     0.039 A 
ENDROOT
BRANCH   4   7
ATOM      7  O   UNL d   1      -4.307  -5.494  -2.712  0.00  0.00    -0.526 OA
ATOM      8  H5  UNL d   1      -4.105  -4.836  -2.027  0.00  0.00     0.418 HD
ENDBRANCH   4   7
TORSDOF 1
ENDMDL
