MODEL 1
REMARK minimizedAffinity 6.4823947
REMARK minimizedRMSD -1
REMARK  1 active torsions:
REMARK  status: ('A' for Active; 'I' for Inactive)
REMARK    1  A    between atoms: C3_4  and  O_7 
ROOT
ATOM      1  C   UNL d   1       2.687  -0.198   1.741  0.00  0.00    -0.033 A 
ATOM      2  C1  UNL d   1       1.705   0.778   1.917  0.00  0.00     0.039 A 
ATOM      3  C2  UNL d   1       1.751   1.959   1.174  0.00  0.00    -0.080 A 
ATOM      4  C3  UNL d   1       2.782   2.151   0.259  0.00  0.00     0.150 A 
ATOM      5  C4  UNL d   1       3.762   1.181   0.076  0.00  0.00    -0.007 A 
ATOM      6  C5  UNL d   1       3.715   0.003   0.819  0.00  0.00     0.039 A 
ENDROOT
BRANCH   4   7
ATOM      7  O   UNL d   1       2.871   3.290  -0.485  0.00  0.00    -0.526 OA
ATOM      8  H5  UNL d   1       2.143   3.881  -0.232  0.00  0.00     0.418 HD
ENDBRANCH   4   7
TORSDOF 1
ENDMDL
