MODEL 1
REMARK minimizedAffinity 0.910890698
REMARK minimizedRMSD -1
REMARK  1 active torsions:
REMARK  status: ('A' for Active; 'I' for Inactive)
REMARK    1  A    between atoms: C3_4  and  O_7 
ROOT
ATOM      1  C   UNL d   1      -5.996  -4.822  -1.887  0.00  0.00    -0.033 A 
ATOM      2  C1  UNL d   1      -5.993  -5.938  -2.726  0.00  0.00     0.039 A 
ATOM      3  C2  UNL d   1      -5.988  -5.772  -4.112  0.00  0.00    -0.080 A 
ATOM      4  C3  UNL d   1      -5.986  -4.486  -4.646  0.00  0.00     0.150 A 
ATOM      5  C4  UNL d   1      -5.986  -3.370  -3.816  0.00  0.00    -0.007 A 
ATOM      6  C5  UNL d   1      -5.991  -3.538  -2.432  0.00  0.00     0.039 A 
ENDROOT
BRANCH   4   7
ATOM      7  O   UNL d   1      -5.987  -4.274  -5.992  0.00  0.00    -0.526 OA
ATOM      8  H5  UNL d   1      -6.017  -5.136  -6.440  0.00  0.00     0.418 HD
ENDBRANCH   4   7
TORSDOF 1
ENDMDL
