MODEL 1
REMARK minimizedAffinity -0.452765316
REMARK minimizedRMSD -1
REMARK  1 active torsions:
REMARK  status: ('A' for Active; 'I' for Inactive)
REMARK    1  A    between atoms: C3_4  and  O_7 
ROOT
ATOM      1  C   UNL d   1      -5.626   0.009  -5.999  0.00  0.00    -0.033 A 
ATOM      2  C1  UNL d   1      -5.227   1.347  -6.000  0.00  0.00     0.039 A 
ATOM      3  C2  UNL d   1      -4.838   1.963  -4.809  0.00  0.00    -0.080 A 
ATOM      4  C3  UNL d   1      -4.851   1.230  -3.625  0.00  0.00     0.150 A 
ATOM      5  C4  UNL d   1      -5.244  -0.104  -3.617  0.00  0.00    -0.007 A 
ATOM      6  C5  UNL d   1      -5.632  -0.717  -4.807  0.00  0.00     0.039 A 
ENDROOT
BRANCH   4   7
ATOM      7  O   UNL d   1      -4.485   1.789  -2.437  0.00  0.00    -0.526 OA
ATOM      8  H5  UNL d   1      -4.266   2.724  -2.591  0.00  0.00     0.418 HD
ENDBRANCH   4   7
TORSDOF 1
ENDMDL
