MODEL 1
REMARK minimizedAffinity -3.31792164
REMARK minimizedRMSD -1
REMARK  0 active torsions:
REMARK  status: ('A' for Active; 'I' for Inactive)
ROOT
ATOM      1  C   UNL d   1       0.440  -0.680   0.034  0.00  0.00     0.172 C 
ATOM      2  N   UNL d   1       1.367  -0.096  -0.907  0.00  0.00    -0.070 N 
ATOM      3  C1  UNL d   1       2.467  -0.717  -1.434  0.00  0.00    -0.004 A 
ATOM      4  C2  UNL d   1       3.086   0.172  -2.286  0.00  0.00    -0.047 A 
ATOM      5  C3  UNL d   1       2.332   1.369  -2.270  0.00  0.00    -0.047 A 
ATOM      6  C4  UNL d   1       1.273   1.176  -1.408  0.00  0.00    -0.004 A 
ENDROOT
TORSDOF 0
ENDMDL
