MODEL 1
REMARK minimizedAffinity -3.44538641
REMARK minimizedRMSD -1
REMARK  0 active torsions:
REMARK  status: ('A' for Active; 'I' for Inactive)
ROOT
ATOM      1  C   UNL d   1       2.780  -0.356  -1.609  0.00  0.00     0.172 C 
ATOM      2  N   UNL d   1       1.530  -0.525  -0.904  0.00  0.00    -0.070 N 
ATOM      3  C1  UNL d   1       0.614   0.461  -0.655  0.00  0.00    -0.004 A 
ATOM      4  C2  UNL d   1      -0.435  -0.103   0.038  0.00  0.00    -0.047 A 
ATOM      5  C3  UNL d   1      -0.139  -1.475   0.212  0.00  0.00    -0.047 A 
ATOM      6  C4  UNL d   1       1.084  -1.710  -0.380  0.00  0.00    -0.004 A 
ENDROOT
TORSDOF 0
ENDMDL
