MODEL 1
REMARK minimizedAffinity -3.47941232
REMARK minimizedRMSD -1
REMARK  0 active torsions:
REMARK  status: ('A' for Active; 'I' for Inactive)
ROOT
ATOM      1  C   UNL d   1      -0.364   0.582   0.189  0.00  0.00     0.172 C 
ATOM      2  N   UNL d   1       0.781   0.417  -0.676  0.00  0.00    -0.070 N 
ATOM      3  C1  UNL d   1       1.654  -0.637  -0.652  0.00  0.00    -0.004 A 
ATOM      4  C2  UNL d   1       2.602  -0.422  -1.629  0.00  0.00    -0.047 A 
ATOM      5  C3  UNL d   1       2.288   0.804  -2.261  0.00  0.00    -0.047 A 
ATOM      6  C4  UNL d   1       1.156   1.302  -1.652  0.00  0.00    -0.004 A 
ENDROOT
TORSDOF 0
ENDMDL
