MODEL 1
REMARK minimizedAffinity -3.07480717
REMARK minimizedRMSD -1
REMARK  0 active torsions:
REMARK  status: ('A' for Active; 'I' for Inactive)
ROOT
ATOM      1  C   UNL d   1      -0.578   0.349   0.235  0.00  0.00     0.172 C 
ATOM      2  N   UNL d   1       0.668  -0.126  -0.319  0.00  0.00    -0.070 N 
ATOM      3  C1  UNL d   1       1.555   0.621  -1.047  0.00  0.00    -0.004 A 
ATOM      4  C2  UNL d   1       2.612  -0.194  -1.390  0.00  0.00    -0.047 A 
ATOM      5  C3  UNL d   1       2.351  -1.476  -0.851  0.00  0.00    -0.047 A 
ATOM      6  C4  UNL d   1       1.141  -1.406  -0.193  0.00  0.00    -0.004 A 
ENDROOT
TORSDOF 0
ENDMDL
