MODEL 1
REMARK minimizedAffinity -3.88882828
REMARK minimizedRMSD -1
REMARK  0 active torsions:
REMARK  status: ('A' for Active; 'I' for Inactive)
ROOT
ATOM      1  C   UNL d   1      -0.215   0.219   0.796  0.00  0.00     0.172 C 
ATOM      2  N   UNL d   1       0.953   0.003  -0.026  0.00  0.00    -0.070 N 
ATOM      3  C1  UNL d   1       1.318   0.758  -1.108  0.00  0.00    -0.004 A 
ATOM      4  C2  UNL d   1       2.486   0.231  -1.616  0.00  0.00    -0.047 A 
ATOM      5  C3  UNL d   1       2.834  -0.880  -0.811  0.00  0.00    -0.047 A 
ATOM      6  C4  UNL d   1       1.868  -0.999   0.165  0.00  0.00    -0.004 A 
ENDROOT
TORSDOF 0
ENDMDL
