MODEL 1
REMARK minimizedAffinity -1.82611978
REMARK minimizedRMSD -1
REMARK  0 active torsions:
REMARK  status: ('A' for Active; 'I' for Inactive)
ROOT
ATOM      1  C   UNL d   1       3.319  -0.565  -1.151  0.00  0.00     0.172 C 
ATOM      2  N   UNL d   1       2.024  -0.517  -0.513  0.00  0.00    -0.070 N 
ATOM      3  C1  UNL d   1       0.851  -0.975  -1.052  0.00  0.00    -0.004 A 
ATOM      4  C2  UNL d   1      -0.151  -0.748  -0.134  0.00  0.00    -0.047 A 
ATOM      5  C3  UNL d   1       0.439  -0.132   0.995  0.00  0.00    -0.047 A 
ATOM      6  C4  UNL d   1       1.787  -0.001   0.733  0.00  0.00    -0.004 A 
ENDROOT
TORSDOF 0
ENDMDL
