MODEL 1
REMARK minimizedAffinity -0.907116354
REMARK minimizedRMSD -1
REMARK  0 active torsions:
REMARK  status: ('A' for Active; 'I' for Inactive)
ROOT
ATOM      1  C   UNL d   1       0.138   1.343  -0.782  0.00  0.00     0.172 C 
ATOM      2  N   UNL d   1       1.067   0.450  -1.433  0.00  0.00    -0.070 N 
ATOM      3  C1  UNL d   1       1.706   0.690  -2.620  0.00  0.00    -0.004 A 
ATOM      4  C2  UNL d   1       2.504  -0.399  -2.897  0.00  0.00    -0.047 A 
ATOM      5  C3  UNL d   1       2.338  -1.326  -1.841  0.00  0.00    -0.047 A 
ATOM      6  C4  UNL d   1       1.443  -0.775  -0.948  0.00  0.00    -0.004 A 
ENDROOT
TORSDOF 0
ENDMDL
