MODEL 1
REMARK minimizedAffinity -1.95315742
REMARK minimizedRMSD -1
REMARK  0 active torsions:
REMARK  status: ('A' for Active; 'I' for Inactive)
ROOT
ATOM      1  C   UNL d   1      -1.927   0.379   1.904  0.00  0.00     0.172 C 
ATOM      2  N   UNL d   1      -1.012   0.057   0.834  0.00  0.00    -0.070 N 
ATOM      3  C1  UNL d   1      -0.315  -1.115   0.705  0.00  0.00    -0.004 A 
ATOM      4  C2  UNL d   1       0.444  -1.031  -0.442  0.00  0.00    -0.047 A 
ATOM      5  C3  UNL d   1       0.195   0.235  -1.022  0.00  0.00    -0.047 A 
ATOM      6  C4  UNL d   1      -0.710   0.888  -0.212  0.00  0.00    -0.004 A 
ENDROOT
TORSDOF 0
ENDMDL
