MODEL 1
REMARK minimizedAffinity -3.62950206
REMARK minimizedRMSD -1
REMARK  0 active torsions:
REMARK  status: ('A' for Active; 'I' for Inactive)
ROOT
ATOM      1  C   UNL d   1       1.723   2.332  -2.593  0.00  0.00     0.172 C 
ATOM      2  N   UNL d   1       1.877   1.049  -1.950  0.00  0.00    -0.070 N 
ATOM      3  C1  UNL d   1       1.187   0.621  -0.847  0.00  0.00    -0.004 A 
ATOM      4  C2  UNL d   1       1.620  -0.653  -0.547  0.00  0.00    -0.047 A 
ATOM      5  C3  UNL d   1       2.605  -1.002  -1.501  0.00  0.00    -0.047 A 
ATOM      6  C4  UNL d   1       2.744   0.070  -2.358  0.00  0.00    -0.004 A 
ENDROOT
TORSDOF 0
ENDMDL
