MODEL 1
REMARK minimizedAffinity -3.88566327
REMARK minimizedRMSD -1
REMARK  0 active torsions:
REMARK  status: ('A' for Active; 'I' for Inactive)
ROOT
ATOM      1  C   UNL d   1       2.061   2.201  -2.705  0.00  0.00     0.172 C 
ATOM      2  N   UNL d   1       2.155   1.047  -1.842  0.00  0.00    -0.070 N 
ATOM      3  C1  UNL d   1       1.324   0.766  -0.791  0.00  0.00    -0.004 A 
ATOM      4  C2  UNL d   1       1.744  -0.418  -0.225  0.00  0.00    -0.047 A 
ATOM      5  C3  UNL d   1       2.868  -0.864  -0.961  0.00  0.00    -0.047 A 
ATOM      6  C4  UNL d   1       3.101   0.062  -1.956  0.00  0.00    -0.004 A 
ENDROOT
TORSDOF 0
ENDMDL
