MODEL 1
REMARK minimizedAffinity -3.45073748
REMARK minimizedRMSD -1
REMARK  0 active torsions:
REMARK  status: ('A' for Active; 'I' for Inactive)
ROOT
ATOM      1  C   UNL d   1      -0.713   0.646   0.080  0.00  0.00     0.172 C 
ATOM      2  N   UNL d   1       0.515  -0.003  -0.316  0.00  0.00    -0.070 N 
ATOM      3  C1  UNL d   1       1.678   0.631  -0.662  0.00  0.00    -0.004 A 
ATOM      4  C2  UNL d   1       2.610  -0.335  -0.973  0.00  0.00    -0.047 A 
ATOM      5  C3  UNL d   1       1.985  -1.594  -0.808  0.00  0.00    -0.047 A 
ATOM      6  C4  UNL d   1       0.689  -1.359  -0.401  0.00  0.00    -0.004 A 
ENDROOT
TORSDOF 0
ENDMDL
