MODEL 1
REMARK minimizedAffinity -2.69376516
REMARK minimizedRMSD -1
REMARK  0 active torsions:
REMARK  status: ('A' for Active; 'I' for Inactive)
ROOT
ATOM      1  C   UNL d   1      -0.735   0.685   0.010  0.00  0.00     0.172 C 
ATOM      2  N   UNL d   1       0.350  -0.083  -0.555  0.00  0.00    -0.070 N 
ATOM      3  C1  UNL d   1       0.711  -1.349  -0.180  0.00  0.00    -0.004 A 
ATOM      4  C2  UNL d   1       1.787  -1.728  -0.954  0.00  0.00    -0.047 A 
ATOM      5  C3  UNL d   1       2.083  -0.651  -1.823  0.00  0.00    -0.047 A 
ATOM      6  C4  UNL d   1       1.177   0.354  -1.555  0.00  0.00    -0.004 A 
ENDROOT
TORSDOF 0
ENDMDL
