MODEL 1
REMARK minimizedAffinity -2.37743235
REMARK minimizedRMSD -1
REMARK  0 active torsions:
REMARK  status: ('A' for Active; 'I' for Inactive)
ROOT
ATOM      1  C   UNL d   1       2.483  -0.009  -1.114  0.00  0.00     0.172 C 
ATOM      2  N   UNL d   1       1.121   0.318  -0.764  0.00  0.00    -0.070 N 
ATOM      3  C1  UNL d   1       0.339  -0.369   0.126  0.00  0.00    -0.004 A 
ATOM      4  C2  UNL d   1      -0.888   0.258   0.180  0.00  0.00    -0.047 A 
ATOM      5  C3  UNL d   1      -0.841   1.358  -0.708  0.00  0.00    -0.047 A 
ATOM      6  C4  UNL d   1       0.414   1.372  -1.279  0.00  0.00    -0.004 A 
ENDROOT
TORSDOF 0
ENDMDL
