MODEL 1
REMARK minimizedAffinity -4.23860025
REMARK minimizedRMSD -1
REMARK  0 active torsions:
REMARK  status: ('A' for Active; 'I' for Inactive)
ROOT
ATOM      1  C   UNL d   1      -0.812   1.150  -1.161  0.00  0.00     0.172 C 
ATOM      2  N   UNL d   1       0.485   0.535  -1.322  0.00  0.00    -0.070 N 
ATOM      3  C1  UNL d   1       1.610   1.155  -1.794  0.00  0.00    -0.004 A 
ATOM      4  C2  UNL d   1       2.633   0.232  -1.795  0.00  0.00    -0.047 A 
ATOM      5  C3  UNL d   1       2.104  -0.986  -1.306  0.00  0.00    -0.047 A 
ATOM      6  C4  UNL d   1       0.772  -0.771  -1.021  0.00  0.00    -0.004 A 
ENDROOT
TORSDOF 0
ENDMDL
