MODEL 1
REMARK minimizedAffinity -3.23749566
REMARK minimizedRMSD -1
REMARK  0 active torsions:
REMARK  status: ('A' for Active; 'I' for Inactive)
ROOT
ATOM      1  C   UNL d   1      -1.252   0.233   0.593  0.00  0.00     0.172 C 
ATOM      2  N   UNL d   1       0.001  -0.196   0.017  0.00  0.00    -0.070 N 
ATOM      3  C1  UNL d   1       0.940   0.623  -0.550  0.00  0.00    -0.004 A 
ATOM      4  C2  UNL d   1       1.985  -0.167  -0.978  0.00  0.00    -0.047 A 
ATOM      5  C3  UNL d   1       1.662  -1.507  -0.658  0.00  0.00    -0.047 A 
ATOM      6  C4  UNL d   1       0.428  -1.496  -0.043  0.00  0.00    -0.004 A 
ENDROOT
TORSDOF 0
ENDMDL
