MODEL 1
REMARK minimizedAffinity -1.81763709
REMARK minimizedRMSD -1
REMARK  0 active torsions:
REMARK  status: ('A' for Active; 'I' for Inactive)
ROOT
ATOM      1  C   UNL d   1      -1.414   0.744   0.895  0.00  0.00     0.172 C 
ATOM      2  N   UNL d   1      -0.422  -0.194   0.427  0.00  0.00    -0.070 N 
ATOM      3  C1  UNL d   1      -0.412  -1.540   0.681  0.00  0.00    -0.004 A 
ATOM      4  C2  UNL d   1       0.694  -2.079   0.060  0.00  0.00    -0.047 A 
ATOM      5  C3  UNL d   1       1.373  -1.020  -0.588  0.00  0.00    -0.047 A 
ATOM      6  C4  UNL d   1       0.661   0.135  -0.345  0.00  0.00    -0.004 A 
ENDROOT
TORSDOF 0
ENDMDL
