MODEL 1
REMARK minimizedAffinity -3.71655393
REMARK minimizedRMSD -1
REMARK  0 active torsions:
REMARK  status: ('A' for Active; 'I' for Inactive)
ROOT
ATOM      1  C   UNL d   1       0.540  -2.067   0.439  0.00  0.00     0.172 C 
ATOM      2  N   UNL d   1       1.364  -1.199  -0.369  0.00  0.00    -0.070 N 
ATOM      3  C1  UNL d   1       1.252   0.163  -0.446  0.00  0.00    -0.004 A 
ATOM      4  C2  UNL d   1       2.216   0.617  -1.320  0.00  0.00    -0.047 A 
ATOM      5  C3  UNL d   1       2.932  -0.512  -1.785  0.00  0.00    -0.047 A 
ATOM      6  C4  UNL d   1       2.383  -1.623  -1.180  0.00  0.00    -0.004 A 
ENDROOT
TORSDOF 0
ENDMDL
