MODEL 1
REMARK minimizedAffinity 0.823091269
REMARK minimizedRMSD -1
REMARK  2 active torsions:
REMARK  status: ('A' for Active; 'I' for Inactive)
REMARK    1  A    between atoms: C2'_3  and  C1'_4 
REMARK    2  A    between atoms: C1'_4  and  C1_5 
ROOT
ATOM      1  C1  I4B d   1      -0.697  -0.360   2.374  0.00  0.00    -0.075 A 
ATOM      2  C2  I4B d   1      -2.015  -0.002   2.237  0.00  0.00     0.003 A 
ATOM      3  C3  I4B d   1      -2.601   0.079   0.951  0.00  0.00     0.002 A 
ATOM      4  C4  I4B d   1      -1.825  -0.156  -0.166  0.00  0.00    -0.004 A 
ATOM      5  C5  I4B d   1      -0.495  -0.541  -0.024  0.00  0.00     0.002 A 
ATOM      6  C6  I4B d   1       0.070  -0.655   1.255  0.00  0.00     0.003 A 
ENDROOT
BRANCH   1   7
ATOM      7  C1' I4B d   1      -0.100  -0.403   3.746  0.00  0.00     0.060 C 
BRANCH   7   8
ATOM      8  C2' I4B d   1       0.945  -1.500   3.765  0.00  0.00    -0.013 C 
ATOM      9  C4' I4B d   1       2.337  -0.927   3.715  0.00  0.00     0.013 C 
ATOM     10  C3' I4B d   1       0.740  -2.313   5.008  0.00  0.00     0.013 C 
ENDBRANCH   7   8
ENDBRANCH   1   7
TORSDOF 2
ENDMDL
