MODEL 1
REMARK minimizedAffinity 0.302701145
REMARK minimizedRMSD -1
REMARK  2 active torsions:
REMARK  status: ('A' for Active; 'I' for Inactive)
REMARK    1  A    between atoms: C2'_3  and  C1'_4 
REMARK    2  A    between atoms: C1'_4  and  C1_5 
ROOT
ATOM      1  C1  I4B d   1      -0.003  -0.395   2.962  0.00  0.00    -0.075 A 
ATOM      2  C2  I4B d   1       0.800  -0.751   1.907  0.00  0.00     0.003 A 
ATOM      3  C3  I4B d   1       0.294  -0.726   0.585  0.00  0.00     0.002 A 
ATOM      4  C4  I4B d   1      -1.027  -0.390   0.370  0.00  0.00    -0.004 A 
ATOM      5  C5  I4B d   1      -1.834  -0.008   1.437  0.00  0.00     0.002 A 
ATOM      6  C6  I4B d   1      -1.316   0.002   2.741  0.00  0.00     0.003 A 
ENDROOT
BRANCH   1   7
ATOM      7  C1' I4B d   1       0.554  -0.465   4.348  0.00  0.00     0.060 C 
BRANCH   7   8
ATOM      8  C2' I4B d   1       1.722  -1.429   4.334  0.00  0.00    -0.013 C 
ATOM      9  C4' I4B d   1       2.989  -0.758   4.795  0.00  0.00     0.013 C 
ATOM     10  C3' I4B d   1       1.374  -2.592   5.215  0.00  0.00     0.013 C 
ENDBRANCH   7   8
ENDBRANCH   1   7
TORSDOF 2
ENDMDL
