MODEL 1
REMARK minimizedAffinity 0.677130461
REMARK minimizedRMSD -1
REMARK  2 active torsions:
REMARK  status: ('A' for Active; 'I' for Inactive)
REMARK    1  A    between atoms: C2'_3  and  C1'_4 
REMARK    2  A    between atoms: C1'_4  and  C1_5 
ROOT
ATOM      1  C1  I4B d   1      -0.985  -0.423   1.820  0.00  0.00    -0.075 A 
ATOM      2  C2  I4B d   1       0.157  -0.882   1.213  0.00  0.00     0.003 A 
ATOM      3  C3  I4B d   1       0.218  -0.997  -0.197  0.00  0.00     0.002 A 
ATOM      4  C4  I4B d   1      -0.895  -0.691  -0.953  0.00  0.00    -0.004 A 
ATOM      5  C5  I4B d   1      -2.044  -0.203  -0.338  0.00  0.00     0.002 A 
ATOM      6  C6  I4B d   1      -2.086  -0.056   1.057  0.00  0.00     0.003 A 
ENDROOT
BRANCH   1   7
ATOM      7  C1' I4B d   1      -1.027  -0.346   3.313  0.00  0.00     0.060 C 
BRANCH   7   8
ATOM      8  C2' I4B d   1      -0.286  -1.547   3.863  0.00  0.00    -0.013 C 
ATOM      9  C4' I4B d   1       0.586  -1.163   5.029  0.00  0.00     0.013 C 
ATOM     10  C3' I4B d   1      -1.302  -2.575   4.263  0.00  0.00     0.013 C 
ENDBRANCH   7   8
ENDBRANCH   1   7
TORSDOF 2
ENDMDL
