MODEL 1
REMARK minimizedAffinity -1.25687134
REMARK minimizedRMSD -1
REMARK  2 active torsions:
REMARK  status: ('A' for Active; 'I' for Inactive)
REMARK    1  A    between atoms: C2'_3  and  C1'_4 
REMARK    2  A    between atoms: C1'_4  and  C1_5 
ROOT
ATOM      1  C1  I4B d   1      -0.105  -0.387   0.622  0.00  0.00    -0.075 A 
ATOM      2  C2  I4B d   1      -1.076   0.152   1.429  0.00  0.00     0.003 A 
ATOM      3  C3  I4B d   1      -2.425   0.181   0.999  0.00  0.00     0.002 A 
ATOM      4  C4  I4B d   1      -2.748  -0.291  -0.257  0.00  0.00    -0.004 A 
ATOM      5  C5  I4B d   1      -1.766  -0.857  -1.064  0.00  0.00     0.002 A 
ATOM      6  C6  I4B d   1      -0.438  -0.917  -0.617  0.00  0.00     0.003 A 
ENDROOT
BRANCH   1   7
ATOM      7  C1' I4B d   1       1.314  -0.371   1.094  0.00  0.00     0.060 C 
BRANCH   7   8
ATOM      8  C2' I4B d   1       2.164   0.236  -0.003  0.00  0.00    -0.013 C 
ATOM      9  C4' I4B d   1       2.895   1.458   0.487  0.00  0.00     0.013 C 
ATOM     10  C3' I4B d   1       3.123  -0.813  -0.480  0.00  0.00     0.013 C 
ENDBRANCH   7   8
ENDBRANCH   1   7
TORSDOF 2
ENDMDL
