MODEL 1
REMARK minimizedAffinity 1.56141686
REMARK minimizedRMSD -1
REMARK  2 active torsions:
REMARK  status: ('A' for Active; 'I' for Inactive)
REMARK    1  A    between atoms: C2'_3  and  C1'_4 
REMARK    2  A    between atoms: C1'_4  and  C1_5 
ROOT
ATOM      1  C1  I4B d   1      -0.910  -0.407   1.686  0.00  0.00    -0.075 A 
ATOM      2  C2  I4B d   1       0.209  -0.811   1.002  0.00  0.00     0.003 A 
ATOM      3  C3  I4B d   1       0.167  -0.967  -0.405  0.00  0.00     0.002 A 
ATOM      4  C4  I4B d   1      -1.020  -0.759  -1.077  0.00  0.00    -0.004 A 
ATOM      5  C5  I4B d   1      -2.148  -0.326  -0.385  0.00  0.00     0.002 A 
ATOM      6  C6  I4B d   1      -2.090  -0.137   1.004  0.00  0.00     0.003 A 
ENDROOT
BRANCH   1   7
ATOM      7  C1' I4B d   1      -0.840  -0.284   3.175  0.00  0.00     0.060 C 
BRANCH   7   8
ATOM      8  C2' I4B d   1      -0.254  -1.570   3.722  0.00  0.00    -0.013 C 
ATOM      9  C4' I4B d   1       0.942  -1.296   4.595  0.00  0.00     0.013 C 
ATOM     10  C3' I4B d   1      -1.331  -2.281   4.486  0.00  0.00     0.013 C 
ENDBRANCH   7   8
ENDBRANCH   1   7
TORSDOF 2
ENDMDL
