MODEL 1
REMARK minimizedAffinity 19.7974586
REMARK minimizedRMSD -1
REMARK  0 active torsions:
REMARK  status: ('A' for Active; 'I' for Inactive)
ROOT
ATOM      1  O1  BZF d   1       3.712   0.866  -2.221  0.00  0.00    -0.204 OA
ATOM      2  C2  BZF d   1       4.812   1.700  -2.181  0.00  0.00     0.174 A 
ATOM      3  C3  BZF d   1       5.218   1.897  -0.910  0.00  0.00    -0.012 A 
ATOM      4  C3A BZF d   1       4.371   1.064  -0.111  0.00  0.00    -0.107 A 
ATOM      5  C4  BZF d   1       4.294   0.814   1.229  0.00  0.00     0.055 A 
ATOM      6  C5  BZF d   1       3.306   0.005   1.694  0.00  0.00    -0.016 A 
ATOM      7  C6  BZF d   1       2.376  -0.565   0.849  0.00  0.00     0.022 A 
ATOM      8  C7  BZF d   1       2.415  -0.350  -0.488  0.00  0.00     0.029 A 
ATOM      9  C7A BZF d   1       3.432   0.440  -0.965  0.00  0.00     0.058 A 
ENDROOT
TORSDOF 0
ENDMDL
