MODEL 1
REMARK minimizedAffinity 14.5327015
REMARK minimizedRMSD -1
REMARK  0 active torsions:
REMARK  status: ('A' for Active; 'I' for Inactive)
ROOT
ATOM      1  O1  BZF d   1       2.580   0.582  -1.341  0.00  0.00    -0.204 OA
ATOM      2  C2  BZF d   1       2.334   0.421   0.009  0.00  0.00     0.174 A 
ATOM      3  C3  BZF d   1       3.322   0.970   0.744  0.00  0.00    -0.012 A 
ATOM      4  C3A BZF d   1       4.197   1.589  -0.203  0.00  0.00    -0.107 A 
ATOM      5  C4  BZF d   1       5.352   2.309  -0.084  0.00  0.00     0.055 A 
ATOM      6  C5  BZF d   1       6.000   2.708  -1.210  0.00  0.00    -0.016 A 
ATOM      7  C6  BZF d   1       5.525   2.401  -2.469  0.00  0.00     0.022 A 
ATOM      8  C7  BZF d   1       4.382   1.694  -2.637  0.00  0.00     0.029 A 
ATOM      9  C7A BZF d   1       3.707   1.317  -1.502  0.00  0.00     0.058 A 
ENDROOT
TORSDOF 0
ENDMDL
