MODEL 1
REMARK minimizedAffinity 12.5744944
REMARK minimizedRMSD -1
REMARK  0 active torsions:
REMARK  status: ('A' for Active; 'I' for Inactive)
ROOT
ATOM      1  O1  BZF d   1      -1.171  -1.645  -2.988  0.00  0.00    -0.204 OA
ATOM      2  C2  BZF d   1      -0.647  -2.635  -2.179  0.00  0.00     0.174 A 
ATOM      3  C3  BZF d   1      -1.320  -3.792  -2.343  0.00  0.00    -0.012 A 
ATOM      4  C3A BZF d   1      -2.269  -3.532  -3.382  0.00  0.00    -0.107 A 
ATOM      5  C4  BZF d   1      -3.215  -4.297  -4.003  0.00  0.00     0.055 A 
ATOM      6  C5  BZF d   1      -4.027  -3.720  -4.927  0.00  0.00    -0.016 A 
ATOM      7  C6  BZF d   1      -3.924  -2.384  -5.252  0.00  0.00     0.022 A 
ATOM      8  C7  BZF d   1      -2.998  -1.586  -4.667  0.00  0.00     0.029 A 
ATOM      9  C7A BZF d   1      -2.154  -2.173  -3.756  0.00  0.00     0.058 A 
ENDROOT
TORSDOF 0
ENDMDL
