MODEL 1
REMARK minimizedAffinity 20.3533688
REMARK minimizedRMSD -1
REMARK  0 active torsions:
REMARK  status: ('A' for Active; 'I' for Inactive)
ROOT
ATOM      1  O1  BZF d   1       4.361   1.060  -2.484  0.00  0.00    -0.204 OA
ATOM      2  C2  BZF d   1       5.512   1.774  -2.212  0.00  0.00     0.174 A 
ATOM      3  C3  BZF d   1       5.713   1.869  -0.882  0.00  0.00    -0.012 A 
ATOM      4  C3A BZF d   1       4.669   1.091  -0.287  0.00  0.00    -0.107 A 
ATOM      5  C4  BZF d   1       4.343   0.788   1.004  0.00  0.00     0.055 A 
ATOM      6  C5  BZF d   1       3.219   0.064   1.248  0.00  0.00    -0.016 A 
ATOM      7  C6  BZF d   1       2.397  -0.368   0.228  0.00  0.00     0.022 A 
ATOM      8  C7  BZF d   1       2.682  -0.096  -1.069  0.00  0.00     0.029 A 
ATOM      9  C7A BZF d   1       3.834   0.607  -1.321  0.00  0.00     0.058 A 
ENDROOT
TORSDOF 0
ENDMDL
