MODEL 1
REMARK minimizedAffinity 24.1527061
REMARK minimizedRMSD -1
REMARK  0 active torsions:
REMARK  status: ('A' for Active; 'I' for Inactive)
ROOT
ATOM      1  O1  BZF d   1       1.795   0.791  -0.752  0.00  0.00    -0.204 OA
ATOM      2  C2  BZF d   1       2.911   0.271  -0.125  0.00  0.00     0.174 A 
ATOM      3  C3  BZF d   1       3.191   0.960   1.000  0.00  0.00    -0.012 A 
ATOM      4  C3A BZF d   1       2.134   1.915   1.130  0.00  0.00    -0.107 A 
ATOM      5  C4  BZF d   1       1.846   2.876   2.056  0.00  0.00     0.055 A 
ATOM      6  C5  BZF d   1       0.778   3.691   1.853  0.00  0.00    -0.016 A 
ATOM      7  C6  BZF d   1      -0.020   3.576   0.733  0.00  0.00     0.022 A 
ATOM      8  C7  BZF d   1       0.223   2.634  -0.211  0.00  0.00     0.029 A 
ATOM      9  C7A BZF d   1       1.283   1.788   0.009  0.00  0.00     0.058 A 
ENDROOT
TORSDOF 0
ENDMDL
