MODEL 1
REMARK minimizedAffinity 6.13106632
REMARK minimizedRMSD -1
REMARK  0 active torsions:
REMARK  status: ('A' for Active; 'I' for Inactive)
ROOT
ATOM      1  O1  BZF d   1       3.490   1.017   1.103  0.00  0.00    -0.204 OA
ATOM      2  C2  BZF d   1       2.363   0.340   0.680  0.00  0.00     0.174 A 
ATOM      3  C3  BZF d   1       2.355   0.215  -0.663  0.00  0.00    -0.012 A 
ATOM      4  C3A BZF d   1       3.598   0.774  -1.100  0.00  0.00    -0.107 A 
ATOM      5  C4  BZF d   1       4.179   0.926  -2.326  0.00  0.00     0.055 A 
ATOM      6  C5  BZF d   1       5.367   1.579  -2.417  0.00  0.00    -0.016 A 
ATOM      7  C6  BZF d   1       5.999   2.095  -1.305  0.00  0.00     0.022 A 
ATOM      8  C7  BZF d   1       5.464   1.964  -0.066  0.00  0.00     0.029 A 
ATOM      9  C7A BZF d   1       4.279   1.276   0.033  0.00  0.00     0.058 A 
ENDROOT
TORSDOF 0
ENDMDL
