MODEL 1
REMARK minimizedAffinity 16.6680069
REMARK minimizedRMSD -1
REMARK  0 active torsions:
REMARK  status: ('A' for Active; 'I' for Inactive)
ROOT
ATOM      1  O1  BZF d   1       0.160   3.258   0.138  0.00  0.00    -0.204 OA
ATOM      2  C2  BZF d   1       0.250   4.204   1.141  0.00  0.00     0.174 A 
ATOM      3  C3  BZF d   1       1.319   3.968   1.928  0.00  0.00    -0.012 A 
ATOM      4  C3A BZF d   1       1.988   2.855   1.329  0.00  0.00    -0.107 A 
ATOM      5  C4  BZF d   1       3.124   2.163   1.640  0.00  0.00     0.055 A 
ATOM      6  C5  BZF d   1       3.464   1.081   0.893  0.00  0.00    -0.016 A 
ATOM      7  C6  BZF d   1       2.690   0.658  -0.168  0.00  0.00     0.022 A 
ATOM      8  C7  BZF d   1       1.558   1.315  -0.518  0.00  0.00     0.029 A 
ATOM      9  C7A BZF d   1       1.229   2.429   0.214  0.00  0.00     0.058 A 
ENDROOT
TORSDOF 0
ENDMDL
