MODEL 1
REMARK minimizedAffinity 7.49289227
REMARK minimizedRMSD -1
REMARK  0 active torsions:
REMARK  status: ('A' for Active; 'I' for Inactive)
ROOT
ATOM      1  O1  BZF d   1       4.496   1.514  -2.677  0.00  0.00    -0.204 OA
ATOM      2  C2  BZF d   1       5.632   2.298  -2.727  0.00  0.00     0.174 A 
ATOM      3  C3  BZF d   1       6.000   2.686  -1.489  0.00  0.00    -0.012 A 
ATOM      4  C3A BZF d   1       5.086   2.033  -0.603  0.00  0.00    -0.107 A 
ATOM      5  C4  BZF d   1       4.948   2.012   0.756  0.00  0.00     0.055 A 
ATOM      6  C5  BZF d   1       3.907   1.332   1.304  0.00  0.00    -0.016 A 
ATOM      7  C6  BZF d   1       2.982   0.668   0.524  0.00  0.00     0.022 A 
ATOM      8  C7  BZF d   1       3.080   0.656  -0.827  0.00  0.00     0.029 A 
ATOM      9  C7A BZF d   1       4.150   1.314  -1.383  0.00  0.00     0.058 A 
ENDROOT
TORSDOF 0
ENDMDL
