MODEL 1
REMARK minimizedAffinity 1.13655388
REMARK minimizedRMSD -1
REMARK  1 active torsions:
REMARK  status: ('A' for Active; 'I' for Inactive)
REMARK    1  A    between atoms: N_2  and  C1_3 
ROOT
ATOM      1  C1  UNL d   1      -3.324   0.925  -3.386  0.00  0.00     0.143 A 
ATOM      2  C2  UNL d   1      -2.709  -0.021  -2.559  0.00  0.00    -0.057 A 
ATOM      3  C3  UNL d   1      -3.091  -1.368  -2.587  0.00  0.00     0.033 A 
ATOM      4  C4  UNL d   1      -4.119  -1.788  -3.425  0.00  0.00    -0.042 A 
ATOM      5  C5  UNL d   1      -4.762  -0.861  -4.237  0.00  0.00     0.033 A 
ATOM      6  C6  UNL d   1      -4.371   0.481  -4.210  0.00  0.00    -0.057 A 
ENDROOT
BRANCH   1   7
ATOM      7  N   UNL d   1      -3.056   2.295  -3.334  0.00  0.00    -0.732 N 
ATOM      8  C   UNL d   1      -1.729   2.775  -3.012  0.00  0.00     0.284 C 
ATOM      9  H3  UNL d   1      -3.514   2.809  -4.083  0.00  0.00     0.395 HD
ENDBRANCH   1   7
TORSDOF 1
ENDMDL
