MODEL 1
REMARK minimizedAffinity -4.21097755
REMARK minimizedRMSD -1
REMARK  1 active torsions:
REMARK  status: ('A' for Active; 'I' for Inactive)
REMARK    1  A    between atoms: N_2  and  C1_3 
ROOT
ATOM      1  C1  UNL d   1       0.015  -0.089   0.079  0.00  0.00     0.143 A 
ATOM      2  C2  UNL d   1      -0.579  -0.111   1.346  0.00  0.00    -0.057 A 
ATOM      3  C3  UNL d   1       0.101  -0.623   2.458  0.00  0.00     0.033 A 
ATOM      4  C4  UNL d   1       1.380  -1.150   2.316  0.00  0.00    -0.042 A 
ATOM      5  C5  UNL d   1       1.980  -1.161   1.062  0.00  0.00     0.033 A 
ATOM      6  C6  UNL d   1       1.299  -0.642  -0.043  0.00  0.00    -0.057 A 
ENDROOT
BRANCH   1   7
ATOM      7  N   UNL d   1      -0.647   0.317  -1.083  0.00  0.00    -0.732 N 
ATOM      8  C   UNL d   1      -0.384   1.615  -1.666  0.00  0.00     0.284 C 
ATOM      9  H3  UNL d   1      -0.732  -0.435  -1.763  0.00  0.00     0.395 HD
ENDBRANCH   1   7
TORSDOF 1
ENDMDL
