MODEL 1
REMARK minimizedAffinity -3.58013678
REMARK minimizedRMSD -1
REMARK  1 active torsions:
REMARK  status: ('A' for Active; 'I' for Inactive)
REMARK    1  A    between atoms: N_2  and  C1_3 
ROOT
ATOM      1  C1  UNL d   1      -0.158   0.265   0.020  0.00  0.00     0.143 A 
ATOM      2  C2  UNL d   1       1.109  -0.187   0.404  0.00  0.00    -0.057 A 
ATOM      3  C3  UNL d   1       1.379  -0.553   1.728  0.00  0.00     0.033 A 
ATOM      4  C4  UNL d   1       0.391  -0.444   2.701  0.00  0.00    -0.042 A 
ATOM      5  C5  UNL d   1      -0.868   0.027   2.348  0.00  0.00     0.033 A 
ATOM      6  C6  UNL d   1      -1.134   0.384   1.022  0.00  0.00    -0.057 A 
ENDROOT
BRANCH   1   7
ATOM      7  N   UNL d   1      -0.461   0.737  -1.259  0.00  0.00    -0.732 N 
ATOM      8  C   UNL d   1      -0.338   2.144  -1.575  0.00  0.00     0.284 C 
ATOM      9  H3  UNL d   1      -0.125   0.115  -1.992  0.00  0.00     0.395 HD
ENDBRANCH   1   7
TORSDOF 1
ENDMDL
