MODEL 1
REMARK minimizedAffinity -4.33053684
REMARK minimizedRMSD -1
REMARK  1 active torsions:
REMARK  status: ('A' for Active; 'I' for Inactive)
REMARK    1  A    between atoms: C3_4  and  O_7 
ROOT
ATOM      1  C   UNL d   1       1.139  -0.048  -0.808  0.00  0.00    -0.033 A 
ATOM      2  C1  UNL d   1       0.691  -0.691   0.348  0.00  0.00     0.039 A 
ATOM      3  C2  UNL d   1      -0.283  -0.092   1.149  0.00  0.00    -0.080 A 
ATOM      4  C3  UNL d   1      -0.801   1.148   0.783  0.00  0.00     0.150 A 
ATOM      5  C4  UNL d   1      -0.362   1.792  -0.368  0.00  0.00    -0.007 A 
ATOM      6  C5  UNL d   1       0.612   1.193  -1.167  0.00  0.00     0.039 A 
ENDROOT
BRANCH   4   7
ATOM      7  O   UNL d   1      -1.750   1.774   1.536  0.00  0.00    -0.526 OA
ATOM      8  H5  UNL d   1      -1.935   1.225   2.316  0.00  0.00     0.418 HD
ENDBRANCH   4   7
TORSDOF 1
ENDMDL
