MODEL 1
REMARK minimizedAffinity -4.79744196
REMARK minimizedRMSD -1
REMARK  1 active torsions:
REMARK  status: ('A' for Active; 'I' for Inactive)
REMARK    1  A    between atoms: C3_4  and  O_7 
ROOT
ATOM      1  C   UNL d   1      -1.800   1.899   1.731  0.00  0.00    -0.033 A 
ATOM      2  C1  UNL d   1      -1.343   0.700   2.282  0.00  0.00     0.039 A 
ATOM      3  C2  UNL d   1      -0.485  -0.124   1.551  0.00  0.00    -0.080 A 
ATOM      4  C3  UNL d   1      -0.093   0.261   0.272  0.00  0.00     0.150 A 
ATOM      5  C4  UNL d   1      -0.542   1.456  -0.282  0.00  0.00    -0.007 A 
ATOM      6  C5  UNL d   1      -1.399   2.277   0.450  0.00  0.00     0.039 A 
ENDROOT
BRANCH   4   7
ATOM      7  O   UNL d   1       0.738  -0.512  -0.482  0.00  0.00    -0.526 OA
ATOM      8  H5  UNL d   1       0.944  -1.320   0.018  0.00  0.00     0.418 HD
ENDBRANCH   4   7
TORSDOF 1
ENDMDL
