MODEL 1
REMARK minimizedAffinity -3.23450208
REMARK minimizedRMSD -1
REMARK  1 active torsions:
REMARK  status: ('A' for Active; 'I' for Inactive)
REMARK    1  A    between atoms: C3_4  and  O_7 
ROOT
ATOM      1  C   UNL d   1       0.026   0.169   0.147  0.00  0.00    -0.033 A 
ATOM      2  C1  UNL d   1      -0.184   1.426  -0.425  0.00  0.00     0.039 A 
ATOM      3  C2  UNL d   1      -1.075   2.323   0.167  0.00  0.00    -0.080 A 
ATOM      4  C3  UNL d   1      -1.749   1.953   1.327  0.00  0.00     0.150 A 
ATOM      5  C4  UNL d   1      -1.541   0.704   1.904  0.00  0.00    -0.007 A 
ATOM      6  C5  UNL d   1      -0.651  -0.191   1.312  0.00  0.00     0.039 A 
ENDROOT
BRANCH   4   7
ATOM      7  O   UNL d   1      -2.632   2.793   1.938  0.00  0.00    -0.526 OA
ATOM      8  H5  UNL d   1      -2.695   3.608   1.412  0.00  0.00     0.418 HD
ENDBRANCH   4   7
TORSDOF 1
ENDMDL
