MODEL 1
REMARK minimizedAffinity -2.24047899
REMARK minimizedRMSD -1
REMARK  1 active torsions:
REMARK  status: ('A' for Active; 'I' for Inactive)
REMARK    1  A    between atoms: C3_4  and  O_7 
ROOT
ATOM      1  C   UNL d   1      -0.560   1.234   1.246  0.00  0.00    -0.033 A 
ATOM      2  C1  UNL d   1      -0.002   0.009   1.616  0.00  0.00     0.039 A 
ATOM      3  C2  UNL d   1       0.175  -0.997   0.664  0.00  0.00    -0.080 A 
ATOM      4  C3  UNL d   1      -0.209  -0.765  -0.654  0.00  0.00     0.150 A 
ATOM      5  C4  UNL d   1      -0.762   0.454  -1.031  0.00  0.00    -0.007 A 
ATOM      6  C5  UNL d   1      -0.939   1.457  -0.078  0.00  0.00     0.039 A 
ENDROOT
BRANCH   4   7
ATOM      7  O   UNL d   1      -0.061  -1.718  -1.617  0.00  0.00    -0.526 OA
ATOM      8  H5  UNL d   1       0.307  -2.517  -1.206  0.00  0.00     0.418 HD
ENDBRANCH   4   7
TORSDOF 1
ENDMDL
