MODEL 1
REMARK minimizedAffinity -5.02960396
REMARK minimizedRMSD -1
REMARK  1 active torsions:
REMARK  status: ('A' for Active; 'I' for Inactive)
REMARK    1  A    between atoms: C3_4  and  O_7 
ROOT
ATOM      1  C   UNL d   1       0.282  -0.329   0.209  0.00  0.00    -0.033 A 
ATOM      2  C1  UNL d   1      -0.028   0.754  -0.616  0.00  0.00     0.039 A 
ATOM      3  C2  UNL d   1      -0.968   1.701  -0.204  0.00  0.00    -0.080 A 
ATOM      4  C3  UNL d   1      -1.589   1.554   1.033  0.00  0.00     0.150 A 
ATOM      5  C4  UNL d   1      -1.283   0.479   1.861  0.00  0.00    -0.007 A 
ATOM      6  C5  UNL d   1      -0.345  -0.466   1.448  0.00  0.00     0.039 A 
ENDROOT
BRANCH   4   7
ATOM      7  O   UNL d   1      -2.517   2.449   1.476  0.00  0.00    -0.526 OA
ATOM      8  H5  UNL d   1      -2.648   3.122   0.787  0.00  0.00     0.418 HD
ENDBRANCH   4   7
TORSDOF 1
ENDMDL
