MODEL 1
REMARK minimizedAffinity -0.957198203
REMARK minimizedRMSD -1
REMARK  1 active torsions:
REMARK  status: ('A' for Active; 'I' for Inactive)
REMARK    1  A    between atoms: C3_4  and  O_7 
ROOT
ATOM      1  C   UNL d   1       1.018  -1.300  -0.002  0.00  0.00    -0.033 A 
ATOM      2  C1  UNL d   1       1.117  -0.522  -1.157  0.00  0.00     0.039 A 
ATOM      3  C2  UNL d   1       0.330   0.622  -1.300  0.00  0.00    -0.080 A 
ATOM      4  C3  UNL d   1      -0.551   0.977  -0.282  0.00  0.00     0.150 A 
ATOM      5  C4  UNL d   1      -0.653   0.208   0.873  0.00  0.00    -0.007 A 
ATOM      6  C5  UNL d   1       0.134  -0.934   1.013  0.00  0.00     0.039 A 
ENDROOT
BRANCH   4   7
ATOM      7  O   UNL d   1      -1.344   2.082  -0.379  0.00  0.00    -0.526 OA
ATOM      8  H5  UNL d   1      -1.187   2.498  -1.243  0.00  0.00     0.418 HD
ENDBRANCH   4   7
TORSDOF 1
ENDMDL
