MODEL 1
REMARK minimizedAffinity -1.95798016
REMARK minimizedRMSD -1
REMARK  1 active torsions:
REMARK  status: ('A' for Active; 'I' for Inactive)
REMARK    1  A    between atoms: C3_4  and  O_7 
ROOT
ATOM      1  C   UNL d   1      -0.864  -0.656   1.565  0.00  0.00    -0.033 A 
ATOM      2  C1  UNL d   1      -0.654   0.684   1.897  0.00  0.00     0.039 A 
ATOM      3  C2  UNL d   1       0.019   1.527   1.011  0.00  0.00    -0.080 A 
ATOM      4  C3  UNL d   1       0.476   1.020  -0.203  0.00  0.00     0.150 A 
ATOM      5  C4  UNL d   1       0.266  -0.313  -0.542  0.00  0.00    -0.007 A 
ATOM      6  C5  UNL d   1      -0.406  -1.154   0.345  0.00  0.00     0.039 A 
ENDROOT
BRANCH   4   7
ATOM      7  O   UNL d   1       1.142   1.803  -1.097  0.00  0.00    -0.526 OA
ATOM      8  H5  UNL d   1       1.238   2.692  -0.716  0.00  0.00     0.418 HD
ENDBRANCH   4   7
TORSDOF 1
ENDMDL
