MODEL 1
REMARK minimizedAffinity -5.26465845
REMARK minimizedRMSD -1
REMARK  1 active torsions:
REMARK  status: ('A' for Active; 'I' for Inactive)
REMARK    1  A    between atoms: C3_4  and  O_7 
ROOT
ATOM      1  C   UNL d   1      -1.510   1.974   1.380  0.00  0.00    -0.033 A 
ATOM      2  C1  UNL d   1      -1.150   0.815   2.070  0.00  0.00     0.039 A 
ATOM      3  C2  UNL d   1      -0.400  -0.175   1.433  0.00  0.00    -0.080 A 
ATOM      4  C3  UNL d   1      -0.015   0.007   0.107  0.00  0.00     0.150 A 
ATOM      5  C4  UNL d   1      -0.366   1.161  -0.585  0.00  0.00    -0.007 A 
ATOM      6  C5  UNL d   1      -1.116   2.148   0.053  0.00  0.00     0.039 A 
ENDROOT
BRANCH   4   7
ATOM      7  O   UNL d   1       0.714  -0.933  -0.558  0.00  0.00    -0.526 OA
ATOM      8  H5  UNL d   1       0.858  -1.688   0.036  0.00  0.00     0.418 HD
ENDBRANCH   4   7
TORSDOF 1
ENDMDL
