MODEL 1
REMARK minimizedAffinity -4.76969337
REMARK minimizedRMSD -1
REMARK  1 active torsions:
REMARK  status: ('A' for Active; 'I' for Inactive)
REMARK    1  A    between atoms: C3_4  and  O_7 
ROOT
ATOM      1  C   UNL d   1       0.257   0.521  -0.380  0.00  0.00    -0.033 A 
ATOM      2  C1  UNL d   1      -0.137  -0.262   0.706  0.00  0.00     0.039 A 
ATOM      3  C2  UNL d   1      -1.119   0.201   1.583  0.00  0.00    -0.080 A 
ATOM      4  C3  UNL d   1      -1.699   1.447   1.363  0.00  0.00     0.150 A 
ATOM      5  C4  UNL d   1      -1.314   2.231   0.281  0.00  0.00    -0.007 A 
ATOM      6  C5  UNL d   1      -0.333   1.768  -0.594  0.00  0.00     0.039 A 
ENDROOT
BRANCH   4   7
ATOM      7  O   UNL d   1      -2.659   1.943   2.195  0.00  0.00    -0.526 OA
ATOM      8  H5  UNL d   1      -2.803   1.306   2.914  0.00  0.00     0.418 HD
ENDBRANCH   4   7
TORSDOF 1
ENDMDL
