MODEL 1
REMARK minimizedAffinity -3.56769061
REMARK minimizedRMSD -1
REMARK  1 active torsions:
REMARK  status: ('A' for Active; 'I' for Inactive)
REMARK    1  A    between atoms: C3_4  and  O_7 
ROOT
ATOM      1  C   UNL d   1       1.201   0.247  -0.533  0.00  0.00    -0.033 A 
ATOM      2  C1  UNL d   1       0.661   1.265  -1.321  0.00  0.00     0.039 A 
ATOM      3  C2  UNL d   1      -0.632   1.731  -1.073  0.00  0.00    -0.080 A 
ATOM      4  C3  UNL d   1      -1.371   1.174  -0.033  0.00  0.00     0.150 A 
ATOM      5  C4  UNL d   1      -0.837   0.163   0.759  0.00  0.00    -0.007 A 
ATOM      6  C5  UNL d   1       0.453  -0.303   0.508  0.00  0.00     0.039 A 
ENDROOT
BRANCH   4   7
ATOM      7  O   UNL d   1      -2.638   1.594   0.245  0.00  0.00    -0.526 OA
ATOM      8  H5  UNL d   1      -2.885   2.276  -0.402  0.00  0.00     0.418 HD
ENDBRANCH   4   7
TORSDOF 1
ENDMDL
