MODEL 1
REMARK minimizedAffinity -4.58425856
REMARK minimizedRMSD -1
REMARK  1 active torsions:
REMARK  status: ('A' for Active; 'I' for Inactive)
REMARK    1  A    between atoms: C3_4  and  O_7 
ROOT
ATOM      1  C   UNL d   1       0.364  -0.370   0.744  0.00  0.00    -0.033 A 
ATOM      2  C1  UNL d   1       0.017  -0.071   2.063  0.00  0.00     0.039 A 
ATOM      3  C2  UNL d   1      -1.021   0.825   2.327  0.00  0.00    -0.080 A 
ATOM      4  C3  UNL d   1      -1.703   1.413   1.266  0.00  0.00     0.150 A 
ATOM      5  C4  UNL d   1      -1.365   1.116  -0.050  0.00  0.00    -0.007 A 
ATOM      6  C5  UNL d   1      -0.328   0.222  -0.313  0.00  0.00     0.039 A 
ENDROOT
BRANCH   4   7
ATOM      7  O   UNL d   1      -2.720   2.297   1.474  0.00  0.00    -0.526 OA
ATOM      8  H5  UNL d   1      -2.823   2.427   2.432  0.00  0.00     0.418 HD
ENDBRANCH   4   7
TORSDOF 1
ENDMDL
