MODEL 1
REMARK minimizedAffinity -5.24951744
REMARK minimizedRMSD -1
REMARK  1 active torsions:
REMARK  status: ('A' for Active; 'I' for Inactive)
REMARK    1  A    between atoms: C3_4  and  O_7 
ROOT
ATOM      1  C   UNL d   1      -2.004   1.807   1.610  0.00  0.00    -0.033 A 
ATOM      2  C1  UNL d   1      -1.593   2.070   0.302  0.00  0.00     0.039 A 
ATOM      3  C2  UNL d   1      -0.712   1.199  -0.343  0.00  0.00    -0.080 A 
ATOM      4  C3  UNL d   1      -0.253   0.069   0.330  0.00  0.00     0.150 A 
ATOM      5  C4  UNL d   1      -0.662  -0.201   1.631  0.00  0.00    -0.007 A 
ATOM      6  C5  UNL d   1      -1.540   0.671   2.274  0.00  0.00     0.039 A 
ENDROOT
BRANCH   4   7
ATOM      7  O   UNL d   1       0.611  -0.807  -0.257  0.00  0.00    -0.526 OA
ATOM      8  H5  UNL d   1       0.828  -0.477  -1.145  0.00  0.00     0.418 HD
ENDBRANCH   4   7
TORSDOF 1
ENDMDL
