MODEL 1
REMARK minimizedAffinity -4.42901325
REMARK minimizedRMSD -1
REMARK  1 active torsions:
REMARK  status: ('A' for Active; 'I' for Inactive)
REMARK    1  A    between atoms: C3_4  and  O_7 
ROOT
ATOM      1  C   UNL d   1       0.303  -0.297   0.055  0.00  0.00    -0.033 A 
ATOM      2  C1  UNL d   1      -0.276  -0.864   1.192  0.00  0.00     0.039 A 
ATOM      3  C2  UNL d   1      -1.272  -0.176   1.888  0.00  0.00    -0.080 A 
ATOM      4  C3  UNL d   1      -1.680   1.076   1.437  0.00  0.00     0.150 A 
ATOM      5  C4  UNL d   1      -1.110   1.645   0.303  0.00  0.00    -0.007 A 
ATOM      6  C5  UNL d   1      -0.115   0.957  -0.391  0.00  0.00     0.039 A 
ENDROOT
BRANCH   4   7
ATOM      7  O   UNL d   1      -2.645   1.787   2.085  0.00  0.00    -0.526 OA
ATOM      8  H5  UNL d   1      -2.926   1.283   2.867  0.00  0.00     0.418 HD
ENDBRANCH   4   7
TORSDOF 1
ENDMDL
