MODEL 1
REMARK minimizedAffinity 2.33997226
REMARK minimizedRMSD -1
REMARK  1 active torsions:
REMARK  status: ('A' for Active; 'I' for Inactive)
REMARK    1  A    between atoms: C1_2  and  C2_3 
ROOT
ATOM      1  C2  UNL d   1       0.529  -0.811  -1.067  0.00  0.00    -0.073 A 
ATOM      2  C3  UNL d   1       1.171  -0.384   0.101  0.00  0.00    -0.002 A 
ATOM      3  C4  UNL d   1       2.498  -0.742   0.347  0.00  0.00     0.004 A 
ATOM      4  C5  UNL d   1       3.196  -1.523  -0.573  0.00  0.00    -0.004 A 
ATOM      5  C6  UNL d   1       2.576  -1.950  -1.752  0.00  0.00    -0.075 A 
ATOM      6  C7  UNL d   1       3.313  -2.793  -2.750  0.00  0.00     0.076 C 
ATOM      7  C8  UNL d   1       1.243  -1.589  -1.991  0.00  0.00     0.001 A 
ENDROOT
BRANCH   1   8
ATOM      8  C1  UNL d   1      -0.900  -0.422  -1.341  0.00  0.00     0.053 C 
ATOM      9  C   UNL d   1      -1.516  -1.258  -2.452  0.00  0.00     0.018 C 
ENDBRANCH   1   8
TORSDOF 1
ENDMDL
