MODEL 1
REMARK minimizedAffinity 7.95648289
REMARK minimizedRMSD -1
REMARK  1 active torsions:
REMARK  status: ('A' for Active; 'I' for Inactive)
REMARK    1  A    between atoms: C1_2  and  C2_3 
ROOT
ATOM      1  C2  UNL d   1       0.735  -1.743  -0.697  0.00  0.00    -0.073 A 
ATOM      2  C3  UNL d   1      -0.294  -1.037  -1.331  0.00  0.00    -0.002 A 
ATOM      3  C4  UNL d   1      -1.549  -1.623  -1.503  0.00  0.00     0.004 A 
ATOM      4  C5  UNL d   1      -1.790  -2.915  -1.036  0.00  0.00    -0.004 A 
ATOM      5  C6  UNL d   1      -0.778  -3.632  -0.389  0.00  0.00    -0.075 A 
ATOM      6  C7  UNL d   1      -1.021  -5.024   0.116  0.00  0.00     0.076 C 
ATOM      7  C8  UNL d   1       0.480  -3.038  -0.224  0.00  0.00     0.001 A 
ENDROOT
BRANCH   1   8
ATOM      8  C1  UNL d   1       2.089  -1.112  -0.504  0.00  0.00     0.053 C 
ATOM      9  C   UNL d   1       2.035   0.403  -0.621  0.00  0.00     0.018 C 
ENDBRANCH   1   8
TORSDOF 1
ENDMDL
