MODEL 1
REMARK minimizedAffinity 12.860384
REMARK minimizedRMSD -1
REMARK  1 active torsions:
REMARK  status: ('A' for Active; 'I' for Inactive)
REMARK    1  A    between atoms: C1_2  and  C2_3 
ROOT
ATOM      1  C2  UNL d   1      -2.158   0.505  -1.785  0.00  0.00    -0.073 A 
ATOM      2  C3  UNL d   1      -1.053  -0.336  -1.958  0.00  0.00    -0.002 A 
ATOM      3  C4  UNL d   1      -0.810  -0.935  -3.195  0.00  0.00     0.004 A 
ATOM      4  C5  UNL d   1      -1.663  -0.693  -4.271  0.00  0.00    -0.004 A 
ATOM      5  C6  UNL d   1      -2.766   0.154  -4.121  0.00  0.00    -0.075 A 
ATOM      6  C7  UNL d   1      -3.695   0.422  -5.269  0.00  0.00     0.076 C 
ATOM      7  C8  UNL d   1      -3.005   0.749  -2.875  0.00  0.00     0.001 A 
ENDROOT
BRANCH   1   8
ATOM      8  C1  UNL d   1      -2.421   1.158  -0.452  0.00  0.00     0.053 C 
ATOM      9  C   UNL d   1      -3.901   1.427  -0.232  0.00  0.00     0.018 C 
ENDBRANCH   1   8
TORSDOF 1
ENDMDL
