MODEL 1
REMARK minimizedAffinity 3.76900125
REMARK minimizedRMSD -1
REMARK  1 active torsions:
REMARK  status: ('A' for Active; 'I' for Inactive)
REMARK    1  A    between atoms: C1_2  and  C2_3 
ROOT
ATOM      1  C2  UNL d   1       4.644   2.159   0.802  0.00  0.00    -0.073 A 
ATOM      2  C3  UNL d   1       5.044   2.803  -0.375  0.00  0.00    -0.002 A 
ATOM      3  C4  UNL d   1       4.615   2.333  -1.617  0.00  0.00     0.004 A 
ATOM      4  C5  UNL d   1       3.777   1.221  -1.695  0.00  0.00    -0.004 A 
ATOM      5  C6  UNL d   1       3.357   0.571  -0.530  0.00  0.00    -0.075 A 
ATOM      6  C7  UNL d   1       2.457  -0.628  -0.597  0.00  0.00     0.076 C 
ATOM      7  C8  UNL d   1       3.794   1.047   0.713  0.00  0.00     0.001 A 
ENDROOT
BRANCH   1   8
ATOM      8  C1  UNL d   1       5.101   2.667   2.145  0.00  0.00     0.053 C 
ATOM      9  C   UNL d   1       3.939   2.853   3.108  0.00  0.00     0.018 C 
ENDBRANCH   1   8
TORSDOF 1
ENDMDL
