MODEL 1
REMARK minimizedAffinity 4.82621861
REMARK minimizedRMSD -1
REMARK  1 active torsions:
REMARK  status: ('A' for Active; 'I' for Inactive)
REMARK    1  A    between atoms: C1_2  and  C2_3 
ROOT
ATOM      1  C2  UNL d   1       4.620   3.641   1.016  0.00  0.00    -0.073 A 
ATOM      2  C3  UNL d   1       5.156   4.120  -0.185  0.00  0.00    -0.002 A 
ATOM      3  C4  UNL d   1       4.977   3.406  -1.370  0.00  0.00     0.004 A 
ATOM      4  C5  UNL d   1       4.255   2.212  -1.369  0.00  0.00    -0.004 A 
ATOM      5  C6  UNL d   1       3.701   1.724  -0.181  0.00  0.00    -0.075 A 
ATOM      6  C7  UNL d   1       2.924   0.441  -0.162  0.00  0.00     0.076 C 
ATOM      7  C8  UNL d   1       3.888   2.445   1.006  0.00  0.00     0.001 A 
ENDROOT
BRANCH   1   8
ATOM      8  C1  UNL d   1       4.805   4.412   2.298  0.00  0.00     0.053 C 
ATOM      9  C   UNL d   1       5.999   5.351   2.231  0.00  0.00     0.018 C 
ENDBRANCH   1   8
TORSDOF 1
ENDMDL
