MODEL 1
REMARK minimizedAffinity 13.4581432
REMARK minimizedRMSD -1
REMARK  1 active torsions:
REMARK  status: ('A' for Active; 'I' for Inactive)
REMARK    1  A    between atoms: C1_2  and  C2_3 
ROOT
ATOM      1  C2  UNL d   1       4.465  -1.346   0.424  0.00  0.00    -0.073 A 
ATOM      2  C3  UNL d   1       4.045  -0.104  -0.066  0.00  0.00    -0.002 A 
ATOM      3  C4  UNL d   1       2.924  -0.015  -0.892  0.00  0.00     0.004 A 
ATOM      4  C5  UNL d   1       2.208  -1.163  -1.230  0.00  0.00    -0.004 A 
ATOM      5  C6  UNL d   1       2.605  -2.412  -0.741  0.00  0.00    -0.075 A 
ATOM      6  C7  UNL d   1       1.847  -3.657  -1.098  0.00  0.00     0.076 C 
ATOM      7  C8  UNL d   1       3.734  -2.494   0.086  0.00  0.00     0.001 A 
ENDROOT
BRANCH   1   8
ATOM      8  C1  UNL d   1       5.671  -1.447   1.321  0.00  0.00     0.053 C 
ATOM      9  C   UNL d   1       5.735  -0.304   2.322  0.00  0.00     0.018 C 
ENDBRANCH   1   8
TORSDOF 1
ENDMDL
