MODEL 1
REMARK minimizedAffinity 12.6242485
REMARK minimizedRMSD -1
REMARK  1 active torsions:
REMARK  status: ('A' for Active; 'I' for Inactive)
REMARK    1  A    between atoms: C1_2  and  C2_3 
ROOT
ATOM      1  C2  UNL d   1       3.351   1.759   1.406  0.00  0.00    -0.073 A 
ATOM      2  C3  UNL d   1       2.667   0.538   1.432  0.00  0.00    -0.002 A 
ATOM      3  C4  UNL d   1       2.450  -0.174   0.251  0.00  0.00     0.004 A 
ATOM      4  C5  UNL d   1       2.920   0.323  -0.965  0.00  0.00    -0.004 A 
ATOM      5  C6  UNL d   1       3.615   1.536  -1.009  0.00  0.00    -0.075 A 
ATOM      6  C7  UNL d   1       4.124   2.086  -2.309  0.00  0.00     0.076 C 
ATOM      7  C8  UNL d   1       3.827   2.246   0.180  0.00  0.00     0.001 A 
ENDROOT
BRANCH   1   8
ATOM      8  C1  UNL d   1       3.593   2.527   2.679  0.00  0.00     0.053 C 
ATOM      9  C   UNL d   1       2.510   2.270   3.715  0.00  0.00     0.018 C 
ENDBRANCH   1   8
TORSDOF 1
ENDMDL
