MODEL 1
REMARK minimizedAffinity 2.64341474
REMARK minimizedRMSD -1
REMARK  0 active torsions:
REMARK  status: ('A' for Active; 'I' for Inactive)
ROOT
ATOM      1  C   UNL d   1       0.076   1.781   0.656  0.00  0.00     0.124 A 
ATOM      2  C1  UNL d   1       0.187   1.482  -0.695  0.00  0.00     0.062 A 
ATOM      3  C2  UNL d   1       0.400   0.169  -1.106  0.00  0.00     0.162 A 
ATOM      4  C3  UNL d   1       0.503  -0.855  -0.165  0.00  0.00    -0.034 A 
ATOM      5  C4  UNL d   1       0.391  -0.547   1.192  0.00  0.00     0.162 A 
ATOM      6  C5  UNL d   1       0.179   0.767   1.598  0.00  0.00     0.062 A 
ATOM      7  F   UNL d   1       0.072   1.054   2.903  0.00  0.00    -0.097 F 
ATOM      8  F1  UNL d   1       0.485  -1.507   2.123  0.00  0.00    -0.096 F 
ATOM      9  I   UNL d   1       0.821  -2.819  -0.776  0.00  0.00    -0.060 I 
ATOM     10  F2  UNL d   1       0.503  -0.091  -2.418  0.00  0.00    -0.096 F 
ATOM     11  F3  UNL d   1       0.089   2.460  -1.607  0.00  0.00    -0.097 F 
ATOM     12  F4  UNL d   1      -0.128   3.045   1.049  0.00  0.00    -0.092 F 
ENDROOT
TORSDOF 0
ENDMDL
