MODEL 1
REMARK minimizedAffinity 1.37868512
REMARK minimizedRMSD -1
REMARK  0 active torsions:
REMARK  status: ('A' for Active; 'I' for Inactive)
ROOT
ATOM      1  C   UNL d   1      -0.118  -2.878  -1.148  0.00  0.00     0.124 A 
ATOM      2  C1  UNL d   1       1.062  -2.408  -0.590  0.00  0.00     0.062 A 
ATOM      3  C2  UNL d   1       1.105  -1.147  -0.003  0.00  0.00     0.162 A 
ATOM      4  C3  UNL d   1      -0.037  -0.346   0.030  0.00  0.00    -0.034 A 
ATOM      5  C4  UNL d   1      -1.220  -0.826  -0.535  0.00  0.00     0.162 A 
ATOM      6  C5  UNL d   1      -1.258  -2.087  -1.120  0.00  0.00     0.062 A 
ATOM      7  F   UNL d   1      -2.399  -2.540  -1.659  0.00  0.00    -0.097 F 
ATOM      8  F1  UNL d   1      -2.336  -0.082  -0.521  0.00  0.00    -0.096 F 
ATOM      9  I   UNL d   1       0.024   1.540   0.906  0.00  0.00    -0.060 I 
ATOM     10  F2  UNL d   1       2.260  -0.718   0.529  0.00  0.00    -0.096 F 
ATOM     11  F3  UNL d   1       2.165  -3.170  -0.616  0.00  0.00    -0.097 F 
ATOM     12  F4  UNL d   1      -0.156  -4.092  -1.713  0.00  0.00    -0.092 F 
ENDROOT
TORSDOF 0
ENDMDL
