MODEL 1
REMARK minimizedAffinity -1.8878957
REMARK minimizedRMSD -1
REMARK  0 active torsions:
REMARK  status: ('A' for Active; 'I' for Inactive)
ROOT
ATOM      1  C   UNL d   1       0.026   2.332   0.422  0.00  0.00     0.124 A 
ATOM      2  C1  UNL d   1       0.200   2.031  -0.922  0.00  0.00     0.062 A 
ATOM      3  C2  UNL d   1       0.427   0.718  -1.321  0.00  0.00     0.162 A 
ATOM      4  C3  UNL d   1       0.480  -0.306  -0.376  0.00  0.00    -0.034 A 
ATOM      5  C4  UNL d   1       0.305   0.004   0.974  0.00  0.00     0.162 A 
ATOM      6  C5  UNL d   1       0.079   1.319   1.369  0.00  0.00     0.062 A 
ATOM      7  F   UNL d   1      -0.089   1.607   2.667  0.00  0.00    -0.097 F 
ATOM      8  F1  UNL d   1       0.350  -0.956   1.910  0.00  0.00    -0.096 F 
ATOM      9  I   UNL d   1       0.819  -2.272  -0.969  0.00  0.00    -0.060 I 
ATOM     10  F2  UNL d   1       0.591   0.456  -2.626  0.00  0.00    -0.096 F 
ATOM     11  F3  UNL d   1       0.151   3.009  -1.838  0.00  0.00    -0.097 F 
ATOM     12  F4  UNL d   1      -0.191   3.597   0.804  0.00  0.00    -0.092 F 
ENDROOT
TORSDOF 0
ENDMDL
