MODEL 1
REMARK minimizedAffinity -1.23103845
REMARK minimizedRMSD -1
REMARK  0 active torsions:
REMARK  status: ('A' for Active; 'I' for Inactive)
ROOT
ATOM      1  C   UNL d   1       0.170   2.109   0.596  0.00  0.00     0.124 A 
ATOM      2  C1  UNL d   1       0.089   1.861  -0.767  0.00  0.00     0.062 A 
ATOM      3  C2  UNL d   1       0.342   0.585  -1.262  0.00  0.00     0.162 A 
ATOM      4  C3  UNL d   1       0.677  -0.453  -0.394  0.00  0.00    -0.034 A 
ATOM      5  C4  UNL d   1       0.758  -0.196   0.976  0.00  0.00     0.162 A 
ATOM      6  C5  UNL d   1       0.505   1.081   1.466  0.00  0.00     0.062 A 
ATOM      7  F   UNL d   1       0.584   1.319   2.784  0.00  0.00    -0.097 F 
ATOM      8  F1  UNL d   1       1.078  -1.171   1.839  0.00  0.00    -0.096 F 
ATOM      9  I   UNL d   1       1.055  -2.363  -1.130  0.00  0.00    -0.060 I 
ATOM     10  F2  UNL d   1       0.256   0.374  -2.584  0.00  0.00    -0.096 F 
ATOM     11  F3  UNL d   1      -0.233   2.853  -1.610  0.00  0.00    -0.097 F 
ATOM     12  F4  UNL d   1      -0.072   3.338   1.070  0.00  0.00    -0.092 F 
ENDROOT
TORSDOF 0
ENDMDL
