MODEL 1
REMARK minimizedAffinity 1.4131887
REMARK minimizedRMSD -1
REMARK  0 active torsions:
REMARK  status: ('A' for Active; 'I' for Inactive)
ROOT
ATOM      1  C   UNL d   1      -0.516   2.382   0.853  0.00  0.00     0.124 A 
ATOM      2  C1  UNL d   1      -0.340   2.087  -0.492  0.00  0.00     0.062 A 
ATOM      3  C2  UNL d   1       0.075   0.816  -0.882  0.00  0.00     0.162 A 
ATOM      4  C3  UNL d   1       0.315  -0.170   0.075  0.00  0.00    -0.034 A 
ATOM      5  C4  UNL d   1       0.137   0.135   1.426  0.00  0.00     0.162 A 
ATOM      6  C5  UNL d   1      -0.277   1.406   1.810  0.00  0.00     0.062 A 
ATOM      7  F   UNL d   1      -0.447   1.689   3.110  0.00  0.00    -0.097 F 
ATOM      8  F1  UNL d   1       0.359  -0.790   2.372  0.00  0.00    -0.096 F 
ATOM      9  I   UNL d   1       0.935  -2.071  -0.503  0.00  0.00    -0.060 I 
ATOM     10  F2  UNL d   1       0.237   0.559  -2.188  0.00  0.00    -0.096 F 
ATOM     11  F3  UNL d   1      -0.569   3.028  -1.419  0.00  0.00    -0.097 F 
ATOM     12  F4  UNL d   1      -0.914   3.605   1.225  0.00  0.00    -0.092 F 
ENDROOT
TORSDOF 0
ENDMDL
