MODEL 1
REMARK minimizedAffinity -2.14356613
REMARK minimizedRMSD -1
REMARK  0 active torsions:
REMARK  status: ('A' for Active; 'I' for Inactive)
ROOT
ATOM      1  C   UNL d   1      -0.822   2.638   0.579  0.00  0.00     0.124 A 
ATOM      2  C1  UNL d   1      -0.597   1.571   1.438  0.00  0.00     0.062 A 
ATOM      3  C2  UNL d   1      -0.183   0.342   0.935  0.00  0.00     0.162 A 
ATOM      4  C3  UNL d   1       0.009   0.171  -0.436  0.00  0.00    -0.034 A 
ATOM      5  C4  UNL d   1      -0.221   1.248  -1.295  0.00  0.00     0.162 A 
ATOM      6  C5  UNL d   1      -0.634   2.475  -0.786  0.00  0.00     0.062 A 
ATOM      7  F   UNL d   1      -0.851   3.504  -1.618  0.00  0.00    -0.097 F 
ATOM      8  F1  UNL d   1      -0.046   1.119  -2.618  0.00  0.00    -0.096 F 
ATOM      9  I   UNL d   1       0.627  -1.666  -1.194  0.00  0.00    -0.060 I 
ATOM     10  F2  UNL d   1       0.027  -0.671   1.788  0.00  0.00    -0.096 F 
ATOM     11  F3  UNL d   1      -0.778   1.726   2.758  0.00  0.00    -0.097 F 
ATOM     12  F4  UNL d   1      -1.221   3.820   1.066  0.00  0.00    -0.092 F 
ENDROOT
TORSDOF 0
ENDMDL
