MODEL 1
REMARK minimizedAffinity -0.946085453
REMARK minimizedRMSD -1
REMARK  0 active torsions:
REMARK  status: ('A' for Active; 'I' for Inactive)
ROOT
ATOM      1  C   UNL d   1      -0.679   2.704   0.588  0.00  0.00     0.124 A 
ATOM      2  C1  UNL d   1      -0.868   1.645   1.464  0.00  0.00     0.062 A 
ATOM      3  C2  UNL d   1      -0.566   0.345   1.067  0.00  0.00     0.162 A 
ATOM      4  C3  UNL d   1      -0.071   0.097  -0.213  0.00  0.00    -0.034 A 
ATOM      5  C4  UNL d   1       0.116   1.168  -1.089  0.00  0.00     0.162 A 
ATOM      6  C5  UNL d   1      -0.187   2.465  -0.688  0.00  0.00     0.062 A 
ATOM      7  F   UNL d   1      -0.004   3.487  -1.536  0.00  0.00    -0.097 F 
ATOM      8  F1  UNL d   1       0.590   0.965  -2.328  0.00  0.00    -0.096 F 
ATOM      9  I   UNL d   1       0.381  -1.844  -0.811  0.00  0.00    -0.060 I 
ATOM     10  F2  UNL d   1      -0.759  -0.659   1.935  0.00  0.00    -0.096 F 
ATOM     11  F3  UNL d   1      -1.344   1.873   2.697  0.00  0.00    -0.097 F 
ATOM     12  F4  UNL d   1      -0.971   3.953   0.972  0.00  0.00    -0.092 F 
ENDROOT
TORSDOF 0
ENDMDL
