MODEL 1
REMARK minimizedAffinity -1.26480281
REMARK minimizedRMSD -1
REMARK  0 active torsions:
REMARK  status: ('A' for Active; 'I' for Inactive)
ROOT
ATOM      1  C   UNL d   1       0.165  -2.500  -2.566  0.00  0.00     0.124 A 
ATOM      2  C1  UNL d   1      -0.487  -3.122  -1.510  0.00  0.00     0.062 A 
ATOM      3  C2  UNL d   1      -0.621  -2.469  -0.288  0.00  0.00     0.162 A 
ATOM      4  C3  UNL d   1      -0.100  -1.187  -0.114  0.00  0.00    -0.034 A 
ATOM      5  C4  UNL d   1       0.556  -0.568  -1.180  0.00  0.00     0.162 A 
ATOM      6  C5  UNL d   1       0.686  -1.225  -2.400  0.00  0.00     0.062 A 
ATOM      7  F   UNL d   1       1.318  -0.622  -3.418  0.00  0.00    -0.097 F 
ATOM      8  F1  UNL d   1       1.068   0.664  -1.047  0.00  0.00    -0.096 F 
ATOM      9  I   UNL d   1      -0.297  -0.208   1.712  0.00  0.00    -0.060 I 
ATOM     10  F2  UNL d   1      -1.256  -3.094   0.715  0.00  0.00    -0.096 F 
ATOM     11  F3  UNL d   1      -0.991  -4.354  -1.668  0.00  0.00    -0.097 F 
ATOM     12  F4  UNL d   1       0.293  -3.130  -3.740  0.00  0.00    -0.092 F 
ENDROOT
TORSDOF 0
ENDMDL
