MODEL 1
REMARK minimizedAffinity -3.79922581
REMARK minimizedRMSD -1
REMARK  0 active torsions:
REMARK  status: ('A' for Active; 'I' for Inactive)
ROOT
ATOM      1  C   UNL d   1       0.238  -0.028   0.006  0.00  0.00     0.172 C 
ATOM      2  N   UNL d   1      -0.222   1.270   0.441  0.00  0.00    -0.070 N 
ATOM      3  C1  UNL d   1      -0.549   1.611   1.726  0.00  0.00    -0.004 A 
ATOM      4  C2  UNL d   1      -0.939   2.933   1.726  0.00  0.00    -0.047 A 
ATOM      5  C3  UNL d   1      -0.845   3.402   0.394  0.00  0.00    -0.047 A 
ATOM      6  C4  UNL d   1      -0.399   2.352  -0.380  0.00  0.00    -0.004 A 
ENDROOT
TORSDOF 0
ENDMDL
