MODEL 1
REMARK minimizedAffinity -3.06674933
REMARK minimizedRMSD -1
REMARK  0 active torsions:
REMARK  status: ('A' for Active; 'I' for Inactive)
ROOT
ATOM      1  C   UNL d   1      -1.686   1.986   0.175  0.00  0.00     0.172 C 
ATOM      2  N   UNL d   1      -0.883   1.013  -0.527  0.00  0.00    -0.070 N 
ATOM      3  C1  UNL d   1      -0.413  -0.162  -0.003  0.00  0.00    -0.004 A 
ATOM      4  C2  UNL d   1       0.306  -0.805  -0.988  0.00  0.00    -0.047 A 
ATOM      5  C3  UNL d   1       0.267   0.012  -2.143  0.00  0.00    -0.047 A 
ATOM      6  C4  UNL d   1      -0.476   1.131  -1.830  0.00  0.00    -0.004 A 
ENDROOT
TORSDOF 0
ENDMDL
