MODEL 1
REMARK minimizedAffinity -2.32107496
REMARK minimizedRMSD -1
REMARK  0 active torsions:
REMARK  status: ('A' for Active; 'I' for Inactive)
ROOT
ATOM      1  C   UNL d   1      -0.338   0.971   1.293  0.00  0.00     0.172 C 
ATOM      2  N   UNL d   1       0.083   0.680  -0.057  0.00  0.00    -0.070 N 
ATOM      3  C1  UNL d   1       0.889  -0.360  -0.436  0.00  0.00    -0.004 A 
ATOM      4  C2  UNL d   1       1.053  -0.291  -1.803  0.00  0.00    -0.047 A 
ATOM      5  C3  UNL d   1       0.321   0.830  -2.261  0.00  0.00    -0.047 A 
ATOM      6  C4  UNL d   1      -0.270   1.413  -1.160  0.00  0.00    -0.004 A 
ENDROOT
TORSDOF 0
ENDMDL
