MODEL 1
REMARK minimizedAffinity -3.87225294
REMARK minimizedRMSD -1
REMARK  0 active torsions:
REMARK  status: ('A' for Active; 'I' for Inactive)
ROOT
ATOM      1  C   UNL d   1       0.450  -0.109  -0.618  0.00  0.00     0.172 C 
ATOM      2  N   UNL d   1      -0.084   0.928   0.234  0.00  0.00    -0.070 N 
ATOM      3  C1  UNL d   1      -0.887   1.960  -0.172  0.00  0.00    -0.004 A 
ATOM      4  C2  UNL d   1      -1.180   2.727   0.934  0.00  0.00    -0.047 A 
ATOM      5  C3  UNL d   1      -0.531   2.136   2.044  0.00  0.00    -0.047 A 
ATOM      6  C4  UNL d   1       0.140   1.023   1.582  0.00  0.00    -0.004 A 
ENDROOT
TORSDOF 0
ENDMDL
