MODEL 1
REMARK minimizedAffinity -3.64126515
REMARK minimizedRMSD -1
REMARK  0 active torsions:
REMARK  status: ('A' for Active; 'I' for Inactive)
ROOT
ATOM      1  C   UNL d   1       0.011   0.308  -0.875  0.00  0.00     0.172 C 
ATOM      2  N   UNL d   1      -0.540   1.554  -0.397  0.00  0.00    -0.070 N 
ATOM      3  C1  UNL d   1      -0.850   1.842   0.905  0.00  0.00    -0.004 A 
ATOM      4  C2  UNL d   1      -1.348   3.127   0.946  0.00  0.00    -0.047 A 
ATOM      5  C3  UNL d   1      -1.337   3.627  -0.378  0.00  0.00    -0.047 A 
ATOM      6  C4  UNL d   1      -0.832   2.633  -1.189  0.00  0.00    -0.004 A 
ENDROOT
TORSDOF 0
ENDMDL
