MODEL 1
REMARK minimizedAffinity -2.92378616
REMARK minimizedRMSD -1
REMARK  0 active torsions:
REMARK  status: ('A' for Active; 'I' for Inactive)
ROOT
ATOM      1  C   UNL d   1      -0.636   1.532   1.434  0.00  0.00     0.172 C 
ATOM      2  N   UNL d   1      -0.089   0.963   0.225  0.00  0.00    -0.070 N 
ATOM      3  C1  UNL d   1      -0.255   1.464  -1.039  0.00  0.00    -0.004 A 
ATOM      4  C2  UNL d   1       0.421   0.639  -1.912  0.00  0.00    -0.047 A 
ATOM      5  C3  UNL d   1       1.012  -0.394  -1.147  0.00  0.00    -0.047 A 
ATOM      6  C4  UNL d   1       0.681  -0.169   0.173  0.00  0.00    -0.004 A 
ENDROOT
TORSDOF 0
ENDMDL
