MODEL 1
REMARK minimizedAffinity -4.30303621
REMARK minimizedRMSD -1
REMARK  0 active torsions:
REMARK  status: ('A' for Active; 'I' for Inactive)
ROOT
ATOM      1  C   UNL d   1       0.632   0.052  -0.728  0.00  0.00     0.172 C 
ATOM      2  N   UNL d   1      -0.154   1.166  -0.251  0.00  0.00    -0.070 N 
ATOM      3  C1  UNL d   1      -0.684   1.289   1.005  0.00  0.00    -0.004 A 
ATOM      4  C2  UNL d   1      -1.361   2.488   1.062  0.00  0.00    -0.047 A 
ATOM      5  C3  UNL d   1      -1.233   3.107  -0.204  0.00  0.00    -0.047 A 
ATOM      6  C4  UNL d   1      -0.481   2.267  -0.998  0.00  0.00    -0.004 A 
ENDROOT
TORSDOF 0
ENDMDL
