MODEL 1
REMARK minimizedAffinity -2.98696327
REMARK minimizedRMSD -1
REMARK  0 active torsions:
REMARK  status: ('A' for Active; 'I' for Inactive)
ROOT
ATOM      1  C   UNL d   1       0.375  -0.816  -0.663  0.00  0.00     0.172 C 
ATOM      2  N   UNL d   1       0.201   0.474  -0.038  0.00  0.00    -0.070 N 
ATOM      3  C1  UNL d   1       0.170   0.709   1.311  0.00  0.00    -0.004 A 
ATOM      4  C2  UNL d   1      -0.012   2.062   1.499  0.00  0.00    -0.047 A 
ATOM      5  C3  UNL d   1      -0.095   2.661   0.220  0.00  0.00    -0.047 A 
ATOM      6  C4  UNL d   1       0.040   1.655  -0.714  0.00  0.00    -0.004 A 
ENDROOT
TORSDOF 0
ENDMDL
