MODEL 1
REMARK minimizedAffinity -2.64393902
REMARK minimizedRMSD -1
REMARK  0 active torsions:
REMARK  status: ('A' for Active; 'I' for Inactive)
ROOT
ATOM      1  C   UNL d   1       0.422  -0.558  -1.072  0.00  0.00     0.172 C 
ATOM      2  N   UNL d   1      -0.001   0.340  -0.023  0.00  0.00    -0.070 N 
ATOM      3  C1  UNL d   1       0.710   0.635   1.110  0.00  0.00    -0.004 A 
ATOM      4  C2  UNL d   1      -0.032   1.527   1.853  0.00  0.00    -0.047 A 
ATOM      5  C3  UNL d   1      -1.231   1.775   1.144  0.00  0.00    -0.047 A 
ATOM      6  C4  UNL d   1      -1.186   1.027  -0.014  0.00  0.00    -0.004 A 
ENDROOT
TORSDOF 0
ENDMDL
