MODEL 1
REMARK minimizedAffinity -2.90449142
REMARK minimizedRMSD -1
REMARK  0 active torsions:
REMARK  status: ('A' for Active; 'I' for Inactive)
ROOT
ATOM      1  C   UNL d   1      -1.174   2.434   1.418  0.00  0.00     0.172 C 
ATOM      2  N   UNL d   1      -0.602   1.575   0.408  0.00  0.00    -0.070 N 
ATOM      3  C1  UNL d   1      -0.469   1.883  -0.920  0.00  0.00    -0.004 A 
ATOM      4  C2  UNL d   1       0.120   0.806  -1.546  0.00  0.00    -0.047 A 
ATOM      5  C3  UNL d   1       0.347  -0.184  -0.561  0.00  0.00    -0.047 A 
ATOM      6  C4  UNL d   1      -0.109   0.318   0.640  0.00  0.00    -0.004 A 
ENDROOT
TORSDOF 0
ENDMDL
