MODEL 1
REMARK minimizedAffinity -2.45219254
REMARK minimizedRMSD -1
REMARK  0 active torsions:
REMARK  status: ('A' for Active; 'I' for Inactive)
ROOT
ATOM      1  C   UNL d   1      -0.616   1.900   1.676  0.00  0.00     0.172 C 
ATOM      2  N   UNL d   1      -0.051   1.309   0.485  0.00  0.00    -0.070 N 
ATOM      3  C1  UNL d   1      -0.031   1.881  -0.758  0.00  0.00    -0.004 A 
ATOM      4  C2  UNL d   1       0.594   1.003  -1.617  0.00  0.00    -0.047 A 
ATOM      5  C3  UNL d   1       0.961  -0.137  -0.864  0.00  0.00    -0.047 A 
ATOM      6  C4  UNL d   1       0.550   0.079   0.434  0.00  0.00    -0.004 A 
ENDROOT
TORSDOF 0
ENDMDL
