MODEL 1
REMARK minimizedAffinity -3.16642213
REMARK minimizedRMSD -1
REMARK  0 active torsions:
REMARK  status: ('A' for Active; 'I' for Inactive)
ROOT
ATOM      1  C   UNL d   1      -0.040  -0.129  -0.756  0.00  0.00     0.172 C 
ATOM      2  N   UNL d   1      -0.526   0.923   0.105  0.00  0.00    -0.070 N 
ATOM      3  C1  UNL d   1      -0.661   0.843   1.465  0.00  0.00    -0.004 A 
ATOM      4  C2  UNL d   1      -1.153   2.050   1.912  0.00  0.00    -0.047 A 
ATOM      5  C3  UNL d   1      -1.321   2.884   0.782  0.00  0.00    -0.047 A 
ATOM      6  C4  UNL d   1      -0.925   2.161  -0.324  0.00  0.00    -0.004 A 
ENDROOT
TORSDOF 0
ENDMDL
