MODEL 1
REMARK minimizedAffinity 0.993594825
REMARK minimizedRMSD -1
REMARK  0 active torsions:
REMARK  status: ('A' for Active; 'I' for Inactive)
ROOT
ATOM      1  C   UNL d   1       0.389   1.936   2.019  0.00  0.00     0.172 C 
ATOM      2  N   UNL d   1       0.173   0.880   1.059  0.00  0.00    -0.070 N 
ATOM      3  C1  UNL d   1       1.002   0.569   0.014  0.00  0.00    -0.004 A 
ATOM      4  C2  UNL d   1       0.446  -0.495  -0.664  0.00  0.00    -0.047 A 
ATOM      5  C3  UNL d   1      -0.760  -0.833  -0.004  0.00  0.00    -0.047 A 
ATOM      6  C4  UNL d   1      -0.904   0.034   1.058  0.00  0.00    -0.004 A 
ENDROOT
TORSDOF 0
ENDMDL
