MODEL 1
REMARK minimizedAffinity -5.93237877
REMARK minimizedRMSD -1
REMARK  1 active torsions:
REMARK  status: ('A' for Active; 'I' for Inactive)
REMARK    1  A    between atoms: C1_2  and  C2_3 
ROOT
ATOM      1  C2  UNL d   1       0.033  -0.915  -0.382  0.00  0.00    -0.076 A 
ATOM      2  C3  UNL d   1      -0.122  -1.110   1.002  0.00  0.00     0.004 A 
ATOM      3  C4  UNL d   1      -0.076  -2.389   1.555  0.00  0.00    -0.003 A 
ATOM      4  C5  UNL d   1       0.126  -3.493   0.734  0.00  0.00     0.000 A 
ATOM      5  C6  UNL d   1       0.299  -3.316  -0.639  0.00  0.00     0.000 A 
ATOM      6  C7  UNL d   1       0.272  -2.032  -1.210  0.00  0.00    -0.073 A 
ATOM      7  C8  UNL d   1       0.458  -1.900  -2.697  0.00  0.00     0.078 C 
ENDROOT
BRANCH   1   8
ATOM      8  C1  UNL d   1      -0.053   0.492  -0.928  0.00  0.00     0.053 C 
ATOM      9  C   UNL d   1       0.717   1.494  -0.082  0.00  0.00     0.018 C 
ENDBRANCH   1   8
TORSDOF 1
ENDMDL
