MODEL 1
REMARK minimizedAffinity -6.22481108
REMARK minimizedRMSD -1
REMARK  1 active torsions:
REMARK  status: ('A' for Active; 'I' for Inactive)
REMARK    1  A    between atoms: C1_2  and  C2_3 
ROOT
ATOM      1  C2  UNL d   1      -0.028  -0.433  -0.353  0.00  0.00    -0.076 A 
ATOM      2  C3  UNL d   1      -0.563  -0.706   0.918  0.00  0.00     0.004 A 
ATOM      3  C4  UNL d   1      -0.622  -2.011   1.406  0.00  0.00    -0.003 A 
ATOM      4  C5  UNL d   1      -0.146  -3.063   0.631  0.00  0.00     0.000 A 
ATOM      5  C6  UNL d   1       0.404  -2.808  -0.625  0.00  0.00     0.000 A 
ATOM      6  C7  UNL d   1       0.485  -1.497  -1.125  0.00  0.00    -0.073 A 
ATOM      7  C8  UNL d   1       1.082  -1.281  -2.489  0.00  0.00     0.078 C 
ENDROOT
BRANCH   1   8
ATOM      8  C1  UNL d   1      -0.015   0.998  -0.841  0.00  0.00     0.053 C 
ATOM      9  C   UNL d   1       0.725   1.930   0.106  0.00  0.00     0.018 C 
ENDBRANCH   1   8
TORSDOF 1
ENDMDL
