MODEL 1
REMARK minimizedAffinity -6.70176792
REMARK minimizedRMSD -1
REMARK  1 active torsions:
REMARK  status: ('A' for Active; 'I' for Inactive)
REMARK    1  A    between atoms: C1_2  and  C2_3 
ROOT
ATOM      1  C2  UNL d   1       0.019  -0.819  -0.548  0.00  0.00    -0.076 A 
ATOM      2  C3  UNL d   1      -0.141  -0.998   0.837  0.00  0.00     0.004 A 
ATOM      3  C4  UNL d   1      -0.102  -2.270   1.405  0.00  0.00    -0.003 A 
ATOM      4  C5  UNL d   1       0.098  -3.384   0.597  0.00  0.00     0.000 A 
ATOM      5  C6  UNL d   1       0.277  -3.223  -0.777  0.00  0.00     0.000 A 
ATOM      6  C7  UNL d   1       0.256  -1.946  -1.363  0.00  0.00    -0.073 A 
ATOM      7  C8  UNL d   1       0.448  -1.832  -2.851  0.00  0.00     0.078 C 
ENDROOT
BRANCH   1   8
ATOM      8  C1  UNL d   1      -0.060   0.583  -1.111  0.00  0.00     0.053 C 
ATOM      9  C   UNL d   1       0.035   1.650  -0.032  0.00  0.00     0.018 C 
ENDBRANCH   1   8
TORSDOF 1
ENDMDL
