MODEL 1
REMARK minimizedAffinity -3.9859426
REMARK minimizedRMSD -1
REMARK  1 active torsions:
REMARK  status: ('A' for Active; 'I' for Inactive)
REMARK    1  A    between atoms: C1_2  and  C2_3 
ROOT
ATOM      1  C2  UNL d   1       1.274   1.100   0.760  0.00  0.00    -0.076 A 
ATOM      2  C3  UNL d   1       1.176  -0.141   1.414  0.00  0.00     0.004 A 
ATOM      3  C4  UNL d   1      -0.016  -0.864   1.406  0.00  0.00    -0.003 A 
ATOM      4  C5  UNL d   1      -1.128  -0.358   0.743  0.00  0.00     0.000 A 
ATOM      5  C6  UNL d   1      -1.044   0.863   0.075  0.00  0.00     0.000 A 
ATOM      6  C7  UNL d   1       0.155   1.596   0.059  0.00  0.00    -0.073 A 
ATOM      7  C8  UNL d   1       0.188   2.910  -0.673  0.00  0.00     0.078 C 
ENDROOT
BRANCH   1   8
ATOM      8  C1  UNL d   1       2.585   1.851   0.826  0.00  0.00     0.053 C 
ATOM      9  C   UNL d   1       2.674   2.761   2.042  0.00  0.00     0.018 C 
ENDBRANCH   1   8
TORSDOF 1
ENDMDL
