MODEL 1
REMARK minimizedAffinity -4.46253633
REMARK minimizedRMSD -1
REMARK  1 active torsions:
REMARK  status: ('A' for Active; 'I' for Inactive)
REMARK    1  A    between atoms: C1_2  and  C2_3 
ROOT
ATOM      1  C2  UNL d   1       0.103  -0.787  -0.324  0.00  0.00    -0.076 A 
ATOM      2  C3  UNL d   1       0.391  -1.038  -1.676  0.00  0.00     0.004 A 
ATOM      3  C4  UNL d   1       0.378  -2.336  -2.184  0.00  0.00    -0.003 A 
ATOM      4  C5  UNL d   1       0.076  -3.404  -1.347  0.00  0.00     0.000 A 
ATOM      5  C6  UNL d   1      -0.229  -3.172  -0.006  0.00  0.00     0.000 A 
ATOM      6  C7  UNL d   1      -0.237  -1.868   0.518  0.00  0.00    -0.073 A 
ATOM      7  C8  UNL d   1      -0.568  -1.676   1.972  0.00  0.00     0.078 C 
ENDROOT
BRANCH   1   8
ATOM      8  C1  UNL d   1       0.159   0.639   0.176  0.00  0.00     0.053 C 
ATOM      9  C   UNL d   1      -0.661   1.590  -0.682  0.00  0.00     0.018 C 
ENDBRANCH   1   8
TORSDOF 1
ENDMDL
