MODEL 1
REMARK minimizedAffinity -3.52675509
REMARK minimizedRMSD -1
REMARK  1 active torsions:
REMARK  status: ('A' for Active; 'I' for Inactive)
REMARK    1  A    between atoms: C1_2  and  C2_3 
ROOT
ATOM      1  C2  UNL d   1      -0.139  -0.172   0.047  0.00  0.00    -0.076 A 
ATOM      2  C3  UNL d   1       0.571  -0.878  -0.940  0.00  0.00     0.004 A 
ATOM      3  C4  UNL d   1       0.667  -2.268  -0.900  0.00  0.00    -0.003 A 
ATOM      4  C5  UNL d   1       0.054  -2.975   0.128  0.00  0.00     0.000 A 
ATOM      5  C6  UNL d   1      -0.669  -2.293   1.106  0.00  0.00     0.000 A 
ATOM      6  C7  UNL d   1      -0.789  -0.893   1.071  0.00  0.00    -0.073 A 
ATOM      7  C8  UNL d   1      -1.576  -0.209   2.155  0.00  0.00     0.078 C 
ENDROOT
BRANCH   1   8
ATOM      8  C1  UNL d   1      -0.185   1.337  -0.033  0.00  0.00     0.053 C 
ATOM      9  C   UNL d   1       1.178   1.948  -0.319  0.00  0.00     0.018 C 
ENDBRANCH   1   8
TORSDOF 1
ENDMDL
