MODEL 1
REMARK minimizedAffinity -5.23124647
REMARK minimizedRMSD -1
REMARK  1 active torsions:
REMARK  status: ('A' for Active; 'I' for Inactive)
REMARK    1  A    between atoms: C1_2  and  C2_3 
ROOT
ATOM      1  C2  UNL d   1      -0.159  -0.928  -0.505  0.00  0.00    -0.076 A 
ATOM      2  C3  UNL d   1      -0.289  -1.234   0.861  0.00  0.00     0.004 A 
ATOM      3  C4  UNL d   1      -0.152  -2.543   1.320  0.00  0.00    -0.003 A 
ATOM      4  C5  UNL d   1       0.118  -3.568   0.419  0.00  0.00     0.000 A 
ATOM      5  C6  UNL d   1       0.267  -3.280  -0.937  0.00  0.00     0.000 A 
ATOM      6  C7  UNL d   1       0.148  -1.964  -1.413  0.00  0.00    -0.073 A 
ATOM      7  C8  UNL d   1       0.312  -1.711  -2.887  0.00  0.00     0.078 C 
ENDROOT
BRANCH   1   8
ATOM      8  C1  UNL d   1      -0.346   0.506  -0.947  0.00  0.00     0.053 C 
ATOM      9  C   UNL d   1       0.368   1.493  -0.037  0.00  0.00     0.018 C 
ENDBRANCH   1   8
TORSDOF 1
ENDMDL
