MODEL 1
REMARK minimizedAffinity -5.24403477
REMARK minimizedRMSD -1
REMARK  1 active torsions:
REMARK  status: ('A' for Active; 'I' for Inactive)
REMARK    1  A    between atoms: C1_2  and  C2_3 
ROOT
ATOM      1  C2  UNL d   1      -0.013  -1.418  -0.844  0.00  0.00    -0.076 A 
ATOM      2  C3  UNL d   1      -0.431  -1.915   0.403  0.00  0.00     0.004 A 
ATOM      3  C4  UNL d   1      -0.590  -3.284   0.613  0.00  0.00    -0.003 A 
ATOM      4  C5  UNL d   1      -0.333  -4.178  -0.421  0.00  0.00     0.000 A 
ATOM      5  C6  UNL d   1       0.099  -3.703  -1.659  0.00  0.00     0.000 A 
ATOM      6  C7  UNL d   1       0.281  -2.328  -1.882  0.00  0.00    -0.073 A 
ATOM      7  C8  UNL d   1       0.743  -1.871  -3.238  0.00  0.00     0.078 C 
ENDROOT
BRANCH   1   8
ATOM      8  C1  UNL d   1       0.116   0.078  -1.020  0.00  0.00     0.053 C 
ATOM      9  C   UNL d   1       0.159   0.820   0.306  0.00  0.00     0.018 C 
ENDBRANCH   1   8
TORSDOF 1
ENDMDL
