MODEL 1
REMARK minimizedAffinity -0.890901029
REMARK minimizedRMSD -1
REMARK  1 active torsions:
REMARK  status: ('A' for Active; 'I' for Inactive)
REMARK    1  A    between atoms: C1_2  and  C2_3 
ROOT
ATOM      1  C2  UNL d   1      -3.514   0.058   0.917  0.00  0.00    -0.077 A 
ATOM      2  C3  UNL d   1      -2.400  -0.724   0.581  0.00  0.00     0.002 A 
ATOM      3  C4  UNL d   1      -1.363  -0.907   1.497  0.00  0.00     0.002 A 
ATOM      4  C5  UNL d   1      -1.431  -0.314   2.757  0.00  0.00    -0.004 A 
ATOM      5  C6  UNL d   1      -2.533   0.467   3.100  0.00  0.00     0.002 A 
ATOM      6  C7  UNL d   1      -3.570   0.652   2.185  0.00  0.00     0.002 A 
ENDROOT
BRANCH   1   7
ATOM      7  C1  UNL d   1      -4.656   0.216  -0.052  0.00  0.00     0.055 C 
ATOM      8  C   UNL d   1      -5.860   0.867   0.614  0.00  0.00     0.019 C 
ENDBRANCH   1   7
TORSDOF 1
ENDMDL
