MODEL 1
REMARK minimizedAffinity 1.74087274
REMARK minimizedRMSD -1
REMARK  1 active torsions:
REMARK  status: ('A' for Active; 'I' for Inactive)
REMARK    1  A    between atoms: C1_2  and  C2_3 
ROOT
ATOM      1  C2  UNL d   1      -1.853  -0.297  -5.347  0.00  0.00    -0.077 A 
ATOM      2  C3  UNL d   1      -1.317  -1.490  -4.843  0.00  0.00     0.002 A 
ATOM      3  C4  UNL d   1       0.056  -1.734  -4.919  0.00  0.00     0.002 A 
ATOM      4  C5  UNL d   1       0.903  -0.789  -5.494  0.00  0.00    -0.004 A 
ATOM      5  C6  UNL d   1       0.379   0.399  -6.000  0.00  0.00     0.002 A 
ATOM      6  C7  UNL d   1      -0.993   0.645  -5.926  0.00  0.00     0.002 A 
ENDROOT
BRANCH   1   7
ATOM      7  C1  UNL d   1      -3.327  -0.009  -5.222  0.00  0.00     0.055 C 
ATOM      8  C   UNL d   1      -4.156  -1.021  -6.000  0.00  0.00     0.019 C 
ENDBRANCH   1   7
TORSDOF 1
ENDMDL
