MODEL 1
REMARK minimizedAffinity 0.772119224
REMARK minimizedRMSD -1
REMARK  1 active torsions:
REMARK  status: ('A' for Active; 'I' for Inactive)
REMARK    1  A    between atoms: C1_2  and  C2_3 
ROOT
ATOM      1  C2  UNL d   1      -3.502   0.785   1.638  0.00  0.00    -0.077 A 
ATOM      2  C3  UNL d   1      -3.148  -0.288   0.808  0.00  0.00     0.002 A 
ATOM      3  C4  UNL d   1      -1.936  -0.957   0.998  0.00  0.00     0.002 A 
ATOM      4  C5  UNL d   1      -1.073  -0.562   2.018  0.00  0.00    -0.004 A 
ATOM      5  C6  UNL d   1      -1.416   0.506   2.846  0.00  0.00     0.002 A 
ATOM      6  C7  UNL d   1      -2.625   1.176   2.658  0.00  0.00     0.002 A 
ENDROOT
BRANCH   1   7
ATOM      7  C1  UNL d   1      -4.830   1.476   1.466  0.00  0.00     0.055 C 
ATOM      8  C   UNL d   1      -5.548   0.992   0.215  0.00  0.00     0.019 C 
ENDBRANCH   1   7
TORSDOF 1
ENDMDL
