MODEL 1
REMARK minimizedAffinity -0.0214788467
REMARK minimizedRMSD -1
REMARK  1 active torsions:
REMARK  status: ('A' for Active; 'I' for Inactive)
REMARK    1  A    between atoms: C1_2  and  C2_3 
ROOT
ATOM      1  C2  UNL d   1      -0.627  -0.487  -4.100  0.00  0.00    -0.077 A 
ATOM      2  C3  UNL d   1      -0.047  -1.574  -4.770  0.00  0.00     0.002 A 
ATOM      3  C4  UNL d   1       0.370  -2.700  -4.059  0.00  0.00     0.002 A 
ATOM      4  C5  UNL d   1       0.208  -2.753  -2.676  0.00  0.00    -0.004 A 
ATOM      5  C6  UNL d   1      -0.366  -1.677  -2.001  0.00  0.00     0.002 A 
ATOM      6  C7  UNL d   1      -0.783  -0.549  -2.710  0.00  0.00     0.002 A 
ENDROOT
BRANCH   1   7
ATOM      7  C1  UNL d   1      -1.123   0.709  -4.871  0.00  0.00     0.055 C 
ATOM      8  C   UNL d   1      -0.133   1.120  -5.951  0.00  0.00     0.019 C 
ENDBRANCH   1   7
TORSDOF 1
ENDMDL
