MODEL 1
REMARK minimizedAffinity -1.13227654
REMARK minimizedRMSD -1
REMARK  1 active torsions:
REMARK  status: ('A' for Active; 'I' for Inactive)
REMARK    1  A    between atoms: C1_2  and  C2_3 
ROOT
ATOM      1  C2  UNL d   1      -4.132   0.622   0.999  0.00  0.00    -0.077 A 
ATOM      2  C3  UNL d   1      -3.478  -0.231   0.099  0.00  0.00     0.002 A 
ATOM      3  C4  UNL d   1      -2.214  -0.741   0.402  0.00  0.00     0.002 A 
ATOM      4  C5  UNL d   1      -1.597  -0.408   1.606  0.00  0.00    -0.004 A 
ATOM      5  C6  UNL d   1      -2.238   0.441   2.506  0.00  0.00     0.002 A 
ATOM      6  C7  UNL d   1      -3.501   0.953   2.204  0.00  0.00     0.002 A 
ENDROOT
BRANCH   1   7
ATOM      7  C1  UNL d   1      -5.516   1.135   0.695  0.00  0.00     0.055 C 
ATOM      8  C   UNL d   1      -5.990   0.671  -0.674  0.00  0.00     0.019 C 
ENDBRANCH   1   7
TORSDOF 1
ENDMDL
