MODEL 1
REMARK minimizedAffinity 4.42717743
REMARK minimizedRMSD -1
REMARK  1 active torsions:
REMARK  status: ('A' for Active; 'I' for Inactive)
REMARK    1  A    between atoms: C1_2  and  C2_3 
ROOT
ATOM      1  C2  UNL d   1      -0.787  -1.990  -4.341  0.00  0.00    -0.073 A 
ATOM      2  C3  UNL d   1      -0.715  -2.295  -2.978  0.00  0.00    -0.002 A 
ATOM      3  C4  UNL d   1      -1.153  -3.535  -2.509  0.00  0.00     0.004 A 
ATOM      4  C5  UNL d   1      -1.660  -4.482  -3.398  0.00  0.00    -0.004 A 
ATOM      5  C6  UNL d   1      -1.729  -4.200  -4.766  0.00  0.00    -0.075 A 
ATOM      6  C7  UNL d   1      -2.274  -5.208  -5.735  0.00  0.00     0.076 C 
ATOM      7  C8  UNL d   1      -1.290  -2.953  -5.229  0.00  0.00     0.001 A 
ENDROOT
BRANCH   1   8
ATOM      8  C1  UNL d   1      -0.310  -0.656  -4.853  0.00  0.00     0.053 C 
ATOM      9  C   UNL d   1       0.903  -0.152  -4.087  0.00  0.00     0.018 C 
ENDBRANCH   1   8
TORSDOF 1
ENDMDL
