MODEL 1
REMARK minimizedAffinity 11.3468857
REMARK minimizedRMSD -1
REMARK  1 active torsions:
REMARK  status: ('A' for Active; 'I' for Inactive)
REMARK    1  A    between atoms: C1_2  and  C2_3 
ROOT
ATOM      1  C2  UNL d   1      -1.131  -2.694  -4.927  0.00  0.00    -0.073 A 
ATOM      2  C3  UNL d   1      -0.387  -1.559  -5.268  0.00  0.00    -0.002 A 
ATOM      3  C4  UNL d   1       0.148  -0.742  -4.271  0.00  0.00     0.004 A 
ATOM      4  C5  UNL d   1      -0.049  -1.054  -2.926  0.00  0.00    -0.004 A 
ATOM      5  C6  UNL d   1      -0.780  -2.191  -2.566  0.00  0.00    -0.075 A 
ATOM      6  C7  UNL d   1      -1.002  -2.540  -1.124  0.00  0.00     0.076 C 
ATOM      7  C8  UNL d   1      -1.316  -3.005  -3.573  0.00  0.00     0.001 A 
ENDROOT
BRANCH   1   8
ATOM      8  C1  UNL d   1      -1.705  -3.583  -6.000  0.00  0.00     0.053 C 
ATOM      9  C   UNL d   1      -2.237  -4.890  -5.433  0.00  0.00     0.018 C 
ENDBRANCH   1   8
TORSDOF 1
ENDMDL
