MODEL 1
REMARK minimizedAffinity 11.7041092
REMARK minimizedRMSD -1
REMARK  1 active torsions:
REMARK  status: ('A' for Active; 'I' for Inactive)
REMARK    1  A    between atoms: C1_2  and  C2_3 
ROOT
ATOM      1  C2  UNL d   1      -0.588  -1.748  -4.199  0.00  0.00    -0.073 A 
ATOM      2  C3  UNL d   1      -0.688  -1.924  -2.814  0.00  0.00    -0.002 A 
ATOM      3  C4  UNL d   1      -1.362  -3.029  -2.291  0.00  0.00     0.004 A 
ATOM      4  C5  UNL d   1      -1.936  -3.970  -3.145  0.00  0.00    -0.004 A 
ATOM      5  C6  UNL d   1      -1.837  -3.818  -4.532  0.00  0.00    -0.075 A 
ATOM      6  C7  UNL d   1      -2.451  -4.821  -5.464  0.00  0.00     0.076 C 
ATOM      7  C8  UNL d   1      -1.161  -2.705  -5.050  0.00  0.00     0.001 A 
ENDROOT
BRANCH   1   8
ATOM      8  C1  UNL d   1       0.144  -0.561  -4.769  0.00  0.00     0.053 C 
ATOM      9  C   UNL d   1       1.237  -0.064  -3.836  0.00  0.00     0.018 C 
ENDBRANCH   1   8
TORSDOF 1
ENDMDL
