MODEL 1
REMARK minimizedAffinity 6.83874941
REMARK minimizedRMSD -1
REMARK  1 active torsions:
REMARK  status: ('A' for Active; 'I' for Inactive)
REMARK    1  A    between atoms: C1_2  and  C2_3 
ROOT
ATOM      1  C2  UNL d   1       0.739   0.472   3.995  0.00  0.00    -0.073 A 
ATOM      2  C3  UNL d   1       0.573   0.113   2.653  0.00  0.00    -0.002 A 
ATOM      3  C4  UNL d   1       0.950  -1.156   2.211  0.00  0.00     0.004 A 
ATOM      4  C5  UNL d   1       1.489  -2.080   3.107  0.00  0.00    -0.004 A 
ATOM      5  C6  UNL d   1       1.652  -1.743   4.454  0.00  0.00    -0.075 A 
ATOM      6  C7  UNL d   1       2.232  -2.725   5.430  0.00  0.00     0.076 C 
ATOM      7  C8  UNL d   1       1.273  -0.466   4.890  0.00  0.00     0.001 A 
ENDROOT
BRANCH   1   8
ATOM      8  C1  UNL d   1       0.328   1.839   4.478  0.00  0.00     0.053 C 
ATOM      9  C   UNL d   1       0.353   1.939   5.995  0.00  0.00     0.018 C 
ENDBRANCH   1   8
TORSDOF 1
ENDMDL
