MODEL 1
REMARK minimizedAffinity 16.7602787
REMARK minimizedRMSD -1
REMARK  1 active torsions:
REMARK  status: ('A' for Active; 'I' for Inactive)
REMARK    1  A    between atoms: C1_2  and  C2_3 
ROOT
ATOM      1  C2  UNL d   1      -0.572  -2.799  -5.475  0.00  0.00    -0.073 A 
ATOM      2  C3  UNL d   1       0.632  -3.483  -5.676  0.00  0.00    -0.002 A 
ATOM      3  C4  UNL d   1       1.829  -2.962  -5.184  0.00  0.00     0.004 A 
ATOM      4  C5  UNL d   1       1.834  -1.757  -4.481  0.00  0.00    -0.004 A 
ATOM      5  C6  UNL d   1       0.639  -1.065  -4.260  0.00  0.00    -0.075 A 
ATOM      6  C7  UNL d   1       0.628   0.234  -3.508  0.00  0.00     0.076 C 
ATOM      7  C8  UNL d   1      -0.558  -1.593  -4.760  0.00  0.00     0.001 A 
ENDROOT
BRANCH   1   8
ATOM      8  C1  UNL d   1      -1.868  -3.361  -6.000  0.00  0.00     0.053 C 
ATOM      9  C   UNL d   1      -1.872  -4.881  -6.000  0.00  0.00     0.018 C 
ENDBRANCH   1   8
TORSDOF 1
ENDMDL
