MODEL 1
REMARK minimizedAffinity 4.19069624
REMARK minimizedRMSD -1
REMARK  0 active torsions:
REMARK  status: ('A' for Active; 'I' for Inactive)
ROOT
ATOM      1  C   UNL d   1      -0.018   1.415   2.620  0.00  0.00     0.020 A 
ATOM      2  C1  UNL d   1      -0.013   0.350   1.721  0.00  0.00     0.020 A 
ATOM      3  C2  UNL d   1      -1.192  -0.355   1.468  0.00  0.00     0.034 A 
ATOM      4  C3  UNL d   1      -2.379   0.003   2.116  0.00  0.00     0.017 A 
ATOM      5  C4  UNL d   1      -2.383   1.073   3.019  0.00  0.00     0.017 A 
ATOM      6  C5  UNL d   1      -1.200   1.776   3.268  0.00  0.00     0.034 A 
ATOM      7 Cl   UNL d   1      -3.809   1.574   3.857  0.00  0.00    -0.070 Cl
ATOM      8 Cl1  UNL d   1      -3.800  -0.913   1.756  0.00  0.00    -0.070 Cl
ENDROOT
TORSDOF 0
ENDMDL
