MODEL 1
REMARK minimizedAffinity 13.1175032
REMARK minimizedRMSD -1
REMARK  0 active torsions:
REMARK  status: ('A' for Active; 'I' for Inactive)
ROOT
ATOM      1  C   UNL d   1       3.387   1.848   0.343  0.00  0.00     0.020 A 
ATOM      2  C1  UNL d   1       4.217   1.199   1.256  0.00  0.00     0.020 A 
ATOM      3  C2  UNL d   1       4.297  -0.195   1.258  0.00  0.00     0.034 A 
ATOM      4  C3  UNL d   1       3.547  -0.945   0.345  0.00  0.00     0.017 A 
ATOM      5  C4  UNL d   1       2.715  -0.292  -0.571  0.00  0.00     0.017 A 
ATOM      6  C5  UNL d   1       2.638   1.104  -0.569  0.00  0.00     0.034 A 
ATOM      7 Cl   UNL d   1       1.759  -1.150  -1.729  0.00  0.00    -0.070 Cl
ATOM      8 Cl1  UNL d   1       3.696  -2.665   0.404  0.00  0.00    -0.070 Cl
ENDROOT
TORSDOF 0
ENDMDL
