MODEL 1
REMARK minimizedAffinity 7.56347609
REMARK minimizedRMSD -1
REMARK  0 active torsions:
REMARK  status: ('A' for Active; 'I' for Inactive)
ROOT
ATOM      1  C   UNL d   1       2.656  -0.046  -0.654  0.00  0.00     0.020 A 
ATOM      2  C1  UNL d   1       1.902   0.156  -1.809  0.00  0.00     0.020 A 
ATOM      3  C2  UNL d   1       1.344  -0.935  -2.478  0.00  0.00     0.034 A 
ATOM      4  C3  UNL d   1       1.539  -2.233  -1.993  0.00  0.00     0.017 A 
ATOM      5  C4  UNL d   1       2.297  -2.436  -0.834  0.00  0.00     0.017 A 
ATOM      6  C5  UNL d   1       2.853  -1.339  -0.167  0.00  0.00     0.034 A 
ATOM      7 Cl   UNL d   1       2.582  -4.008  -0.175  0.00  0.00    -0.070 Cl
ATOM      8 Cl1  UNL d   1       0.820  -3.536  -2.872  0.00  0.00    -0.070 Cl
ENDROOT
TORSDOF 0
ENDMDL
