MODEL 1
REMARK minimizedAffinity 13.3092299
REMARK minimizedRMSD -1
REMARK  0 active torsions:
REMARK  status: ('A' for Active; 'I' for Inactive)
ROOT
ATOM      1  C   UNL d   1       2.392  -1.415  -0.579  0.00  0.00     0.020 A 
ATOM      2  C1  UNL d   1       1.481  -1.324  -1.631  0.00  0.00     0.020 A 
ATOM      3  C2  UNL d   1       1.024  -2.484  -2.261  0.00  0.00     0.034 A 
ATOM      4  C3  UNL d   1       1.479  -3.739  -1.840  0.00  0.00     0.017 A 
ATOM      5  C4  UNL d   1       2.393  -3.829  -0.784  0.00  0.00     0.017 A 
ATOM      6  C5  UNL d   1       2.847  -2.664  -0.157  0.00  0.00     0.034 A 
ATOM      7 Cl   UNL d   1       2.999  -5.342  -0.209  0.00  0.00    -0.070 Cl
ATOM      8 Cl1  UNL d   1       0.872  -5.131  -2.665  0.00  0.00    -0.070 Cl
ENDROOT
TORSDOF 0
ENDMDL
