MODEL 1
REMARK minimizedAffinity 7.19489431
REMARK minimizedRMSD -1
REMARK  0 active torsions:
REMARK  status: ('A' for Active; 'I' for Inactive)
ROOT
ATOM      1  C   UNL d   1       2.884  -1.960  -0.073  0.00  0.00     0.020 A 
ATOM      2  C1  UNL d   1       1.977  -1.591  -1.066  0.00  0.00     0.020 A 
ATOM      3  C2  UNL d   1       1.533  -2.537  -1.993  0.00  0.00     0.034 A 
ATOM      4  C3  UNL d   1       1.995  -3.856  -1.928  0.00  0.00     0.017 A 
ATOM      5  C4  UNL d   1       2.905  -4.226  -0.931  0.00  0.00     0.017 A 
ATOM      6  C5  UNL d   1       3.347  -3.274  -0.006  0.00  0.00     0.034 A 
ATOM      7 Cl   UNL d   1       3.521  -5.834  -0.788  0.00  0.00    -0.070 Cl
ATOM      8 Cl1  UNL d   1       1.404  -4.973  -3.106  0.00  0.00    -0.070 Cl
ENDROOT
TORSDOF 0
ENDMDL
