MODEL 1
REMARK minimizedAffinity 8.434618
REMARK minimizedRMSD -1
REMARK  0 active torsions:
REMARK  status: ('A' for Active; 'I' for Inactive)
ROOT
ATOM      1  C   UNL d   1       4.419   2.948   1.246  0.00  0.00     0.020 A 
ATOM      2  C1  UNL d   1       4.666   2.353   0.009  0.00  0.00     0.020 A 
ATOM      3  C2  UNL d   1       3.745   1.451  -0.528  0.00  0.00     0.034 A 
ATOM      4  C3  UNL d   1       2.573   1.142   0.170  0.00  0.00     0.017 A 
ATOM      5  C4  UNL d   1       2.325   1.740   1.412  0.00  0.00     0.017 A 
ATOM      6  C5  UNL d   1       3.251   2.642   1.945  0.00  0.00     0.034 A 
ATOM      7 Cl   UNL d   1       0.901   1.408   2.333  0.00  0.00    -0.070 Cl
ATOM      8 Cl1  UNL d   1       1.478   0.019  -0.554  0.00  0.00    -0.070 Cl
ENDROOT
TORSDOF 0
ENDMDL
