MODEL 1
REMARK minimizedAffinity 10.8757095
REMARK minimizedRMSD -1
REMARK  0 active torsions:
REMARK  status: ('A' for Active; 'I' for Inactive)
ROOT
ATOM      1  C   UNL d   1       2.551  -0.477  -0.325  0.00  0.00     0.020 A 
ATOM      2  C1  UNL d   1       1.702  -0.280  -1.413  0.00  0.00     0.020 A 
ATOM      3  C2  UNL d   1       1.228  -1.376  -2.137  0.00  0.00     0.034 A 
ATOM      4  C3  UNL d   1       1.602  -2.674  -1.774  0.00  0.00     0.017 A 
ATOM      5  C4  UNL d   1       2.454  -2.872  -0.681  0.00  0.00     0.017 A 
ATOM      6  C5  UNL d   1       2.926  -1.771   0.041  0.00  0.00     0.034 A 
ATOM      7 Cl   UNL d   1       2.960  -4.445  -0.172  0.00  0.00    -0.070 Cl
ATOM      8 Cl1  UNL d   1       0.978  -3.983  -2.713  0.00  0.00    -0.070 Cl
ENDROOT
TORSDOF 0
ENDMDL
