MODEL 1
REMARK minimizedAffinity 16.421442
REMARK minimizedRMSD -1
REMARK  0 active torsions:
REMARK  status: ('A' for Active; 'I' for Inactive)
ROOT
ATOM      1  C   UNL d   1      -5.233   1.925   4.088  0.00  0.00     0.020 A 
ATOM      2  C1  UNL d   1      -5.034   2.249   5.429  0.00  0.00     0.020 A 
ATOM      3  C2  UNL d   1      -3.767   2.113   6.000  0.00  0.00     0.034 A 
ATOM      4  C3  UNL d   1      -2.694   1.651   5.229  0.00  0.00     0.017 A 
ATOM      5  C4  UNL d   1      -2.895   1.325   3.883  0.00  0.00     0.017 A 
ATOM      6  C5  UNL d   1      -4.166   1.464   3.317  0.00  0.00     0.034 A 
ATOM      7 Cl   UNL d   1      -1.620   0.749   2.869  0.00  0.00    -0.070 Cl
ATOM      8 Cl1  UNL d   1      -1.154   1.507   6.000  0.00  0.00    -0.070 Cl
ENDROOT
TORSDOF 0
ENDMDL
