MODEL 1
REMARK minimizedAffinity 20.759861
REMARK minimizedRMSD -1
REMARK  0 active torsions:
REMARK  status: ('A' for Active; 'I' for Inactive)
ROOT
ATOM      1  C   UNL d   1       3.847   0.892   0.274  0.00  0.00     0.020 A 
ATOM      2  C1  UNL d   1       2.528   0.741  -0.151  0.00  0.00     0.020 A 
ATOM      3  C2  UNL d   1       2.004  -0.537  -0.361  0.00  0.00     0.034 A 
ATOM      4  C3  UNL d   1       2.800  -1.668  -0.146  0.00  0.00     0.017 A 
ATOM      5  C4  UNL d   1       4.124  -1.515   0.281  0.00  0.00     0.017 A 
ATOM      6  C5  UNL d   1       4.643  -0.234   0.489  0.00  0.00     0.034 A 
ATOM      7 Cl   UNL d   1       5.167  -2.863   0.567  0.00  0.00    -0.070 Cl
ATOM      8 Cl1  UNL d   1       2.087  -3.217  -0.425  0.00  0.00    -0.070 Cl
ENDROOT
TORSDOF 0
ENDMDL
