MODEL 1
REMARK minimizedAffinity 7.77779293
REMARK minimizedRMSD -1
REMARK  0 active torsions:
REMARK  status: ('A' for Active; 'I' for Inactive)
ROOT
ATOM      1  C   UNL d   1      -2.157  -4.024  -5.906  0.00  0.00     0.020 A 
ATOM      2  C1  UNL d   1      -3.374  -4.189  -5.246  0.00  0.00     0.020 A 
ATOM      3  C2  UNL d   1      -3.411  -4.801  -3.991  0.00  0.00     0.034 A 
ATOM      4  C3  UNL d   1      -2.229  -5.252  -3.393  0.00  0.00     0.017 A 
ATOM      5  C4  UNL d   1      -1.007  -5.087  -4.057  0.00  0.00     0.017 A 
ATOM      6  C5  UNL d   1      -0.976  -4.472  -5.313  0.00  0.00     0.034 A 
ATOM      7 Cl   UNL d   1       0.493  -5.617  -3.382  0.00  0.00    -0.070 Cl
ATOM      8 Cl1  UNL d   1      -2.348  -6.000  -1.840  0.00  0.00    -0.070 Cl
ENDROOT
TORSDOF 0
ENDMDL
