MODEL 1
REMARK minimizedAffinity 17.9689407
REMARK minimizedRMSD -1
REMARK  0 active torsions:
REMARK  status: ('A' for Active; 'I' for Inactive)
ROOT
ATOM      1  C   UNL d   1       1.509  -2.746  -0.014  0.00  0.00     0.020 A 
ATOM      2  C1  UNL d   1       2.359  -1.658  -0.209  0.00  0.00     0.020 A 
ATOM      3  C2  UNL d   1       3.742  -1.848  -0.230  0.00  0.00     0.034 A 
ATOM      4  C3  UNL d   1       4.280  -3.128  -0.056  0.00  0.00     0.017 A 
ATOM      5  C4  UNL d   1       3.426  -4.220   0.140  0.00  0.00     0.017 A 
ATOM      6  C5  UNL d   1       2.042  -4.024   0.160  0.00  0.00     0.034 A 
ATOM      7 Cl   UNL d   1       4.015  -5.829   0.363  0.00  0.00    -0.070 Cl
ATOM      8 Cl1  UNL d   1       6.000  -3.289  -0.093  0.00  0.00    -0.070 Cl
ENDROOT
TORSDOF 0
ENDMDL
