MODEL 1
REMARK minimizedAffinity 10.6050367
REMARK minimizedRMSD -1
REMARK  0 active torsions:
REMARK  status: ('A' for Active; 'I' for Inactive)
ROOT
ATOM      1  C   UNL d   1       3.381   0.503   1.496  0.00  0.00     0.020 A 
ATOM      2  C1  UNL d   1       2.180  -0.026   1.024  0.00  0.00     0.020 A 
ATOM      3  C2  UNL d   1       2.124  -1.351   0.586  0.00  0.00     0.034 A 
ATOM      4  C3  UNL d   1       3.272  -2.151   0.619  0.00  0.00     0.017 A 
ATOM      5  C4  UNL d   1       4.477  -1.620   1.093  0.00  0.00     0.017 A 
ATOM      6  C5  UNL d   1       4.527  -0.293   1.530  0.00  0.00     0.034 A 
ATOM      7 Cl   UNL d   1       5.934  -2.546   1.163  0.00  0.00    -0.070 Cl
ATOM      8 Cl1  UNL d   1       3.131  -3.781   0.062  0.00  0.00    -0.070 Cl
ENDROOT
TORSDOF 0
ENDMDL
