MODEL 1
REMARK minimizedAffinity 13.5587463
REMARK minimizedRMSD -1
REMARK  0 active torsions:
REMARK  status: ('A' for Active; 'I' for Inactive)
ROOT
ATOM      1  C   UNL d   1       3.333  -4.918  -0.647  0.00  0.00     0.020 A 
ATOM      2  C1  UNL d   1       2.925  -6.000  -1.426  0.00  0.00     0.020 A 
ATOM      3  C2  UNL d   1       2.011  -5.807  -2.464  0.00  0.00     0.034 A 
ATOM      4  C3  UNL d   1       1.502  -4.529  -2.725  0.00  0.00     0.017 A 
ATOM      5  C4  UNL d   1       1.912  -3.444  -1.942  0.00  0.00     0.017 A 
ATOM      6  C5  UNL d   1       2.828  -3.643  -0.904  0.00  0.00     0.034 A 
ATOM      7 Cl   UNL d   1       1.328  -1.839  -2.204  0.00  0.00    -0.070 Cl
ATOM      8 Cl1  UNL d   1       0.375  -4.364  -4.024  0.00  0.00    -0.070 Cl
ENDROOT
TORSDOF 0
ENDMDL
