MODEL 1
REMARK minimizedAffinity 13.5549545
REMARK minimizedRMSD -1
REMARK  0 active torsions:
REMARK  status: ('A' for Active; 'I' for Inactive)
ROOT
ATOM      1  C   UNL d   1      -3.765   1.732   3.993  0.00  0.00     0.020 A 
ATOM      2  C1  UNL d   1      -3.016   1.281   5.079  0.00  0.00     0.020 A 
ATOM      3  C2  UNL d   1      -2.957  -0.084   5.367  0.00  0.00     0.034 A 
ATOM      4  C3  UNL d   1      -3.649  -1.003   4.570  0.00  0.00     0.017 A 
ATOM      5  C4  UNL d   1      -4.401  -0.549   3.480  0.00  0.00     0.017 A 
ATOM      6  C5  UNL d   1      -4.456   0.819   3.195  0.00  0.00     0.034 A 
ATOM      7 Cl   UNL d   1      -5.281  -1.622   2.450  0.00  0.00    -0.070 Cl
ATOM      8 Cl1  UNL d   1      -3.531  -2.676   4.985  0.00  0.00    -0.070 Cl
ENDROOT
TORSDOF 0
ENDMDL
