MODEL 1
REMARK minimizedAffinity 16.4660797
REMARK minimizedRMSD -1
REMARK  0 active torsions:
REMARK  status: ('A' for Active; 'I' for Inactive)
ROOT
ATOM      1  C   UNL d   1      -3.638  -3.609  -4.843  0.00  0.00     0.020 A 
ATOM      2  C1  UNL d   1      -2.539  -3.685  -5.698  0.00  0.00     0.020 A 
ATOM      3  C2  UNL d   1      -1.347  -4.261  -5.253  0.00  0.00     0.034 A 
ATOM      4  C3  UNL d   1      -1.251  -4.763  -3.950  0.00  0.00     0.017 A 
ATOM      5  C4  UNL d   1      -2.354  -4.686  -3.093  0.00  0.00     0.017 A 
ATOM      6  C5  UNL d   1      -3.545  -4.108  -3.543  0.00  0.00     0.034 A 
ATOM      7 Cl   UNL d   1      -2.312  -5.283  -1.472  0.00  0.00    -0.070 Cl
ATOM      8 Cl1  UNL d   1       0.254  -5.462  -3.468  0.00  0.00    -0.070 Cl
ENDROOT
TORSDOF 0
ENDMDL
