MODEL 1
REMARK minimizedAffinity 19.8661785
REMARK minimizedRMSD -1
REMARK  0 active torsions:
REMARK  status: ('A' for Active; 'I' for Inactive)
ROOT
ATOM      1  C   UNL d   1       4.464   1.652  -0.198  0.00  0.00     0.020 A 
ATOM      2  C1  UNL d   1       3.983   2.105   1.030  0.00  0.00     0.020 A 
ATOM      3  C2  UNL d   1       2.830   1.542   1.579  0.00  0.00     0.034 A 
ATOM      4  C3  UNL d   1       2.153   0.522   0.900  0.00  0.00     0.017 A 
ATOM      5  C4  UNL d   1       2.636   0.068  -0.332  0.00  0.00     0.017 A 
ATOM      6  C5  UNL d   1       3.791   0.636  -0.877  0.00  0.00     0.034 A 
ATOM      7 Cl   UNL d   1       1.855  -1.186  -1.229  0.00  0.00    -0.070 Cl
ATOM      8 Cl1  UNL d   1       0.733  -0.129   1.639  0.00  0.00    -0.070 Cl
ENDROOT
TORSDOF 0
ENDMDL
