MODEL 1
REMARK minimizedAffinity 3.08521128
REMARK minimizedRMSD -1
REMARK  0 active torsions:
REMARK  status: ('A' for Active; 'I' for Inactive)
ROOT
ATOM      1  C   UNL d   1       3.847  -5.059  -0.599  0.00  0.00     0.020 A 
ATOM      2  C1  UNL d   1       3.009  -5.998  -1.200  0.00  0.00     0.020 A 
ATOM      3  C2  UNL d   1       1.926  -5.574  -1.972  0.00  0.00     0.034 A 
ATOM      4  C3  UNL d   1       1.677  -4.208  -2.146  0.00  0.00     0.017 A 
ATOM      5  C4  UNL d   1       2.518  -3.266  -1.542  0.00  0.00     0.017 A 
ATOM      6  C5  UNL d   1       3.602  -3.696  -0.770  0.00  0.00     0.034 A 
ATOM      7 Cl   UNL d   1       2.275  -1.563  -1.710  0.00  0.00    -0.070 Cl
ATOM      8 Cl1  UNL d   1       0.320  -3.755  -3.114  0.00  0.00    -0.070 Cl
ENDROOT
TORSDOF 0
ENDMDL
