MODEL 1
REMARK minimizedAffinity 17.8868141
REMARK minimizedRMSD -1
REMARK  0 active torsions:
REMARK  status: ('A' for Active; 'I' for Inactive)
ROOT
ATOM      1  C   UNL d   1       2.287  -1.688  -0.472  0.00  0.00     0.020 A 
ATOM      2  C1  UNL d   1       1.504  -2.841  -0.528  0.00  0.00     0.020 A 
ATOM      3  C2  UNL d   1       2.096  -4.095  -0.363  0.00  0.00     0.034 A 
ATOM      4  C3  UNL d   1       3.474  -4.200  -0.143  0.00  0.00     0.017 A 
ATOM      5  C4  UNL d   1       4.259  -3.042  -0.087  0.00  0.00     0.017 A 
ATOM      6  C5  UNL d   1       3.661  -1.789  -0.252  0.00  0.00     0.034 A 
ATOM      7 Cl   UNL d   1       5.966  -3.090   0.182  0.00  0.00    -0.070 Cl
ATOM      8 Cl1  UNL d   1       4.139  -5.782   0.053  0.00  0.00    -0.070 Cl
ENDROOT
TORSDOF 0
ENDMDL
