MODEL 1
REMARK minimizedAffinity 18.2570858
REMARK minimizedRMSD -1
REMARK  0 active torsions:
REMARK  status: ('A' for Active; 'I' for Inactive)
ROOT
ATOM      1  C   UNL d   1       1.756  -0.395  -1.828  0.00  0.00     0.020 A 
ATOM      2  C1  UNL d   1       2.464  -0.476  -0.629  0.00  0.00     0.020 A 
ATOM      3  C2  UNL d   1       2.636  -1.712  -0.002  0.00  0.00     0.034 A 
ATOM      4  C3  UNL d   1       2.101  -2.872  -0.574  0.00  0.00     0.017 A 
ATOM      5  C4  UNL d   1       1.391  -2.789  -1.777  0.00  0.00     0.017 A 
ATOM      6  C5  UNL d   1       1.221  -1.549  -2.401  0.00  0.00     0.034 A 
ATOM      7 Cl   UNL d   1       0.702  -4.177  -2.543  0.00  0.00    -0.070 Cl
ATOM      8 Cl1  UNL d   1       2.353  -4.366   0.256  0.00  0.00    -0.070 Cl
ENDROOT
TORSDOF 0
ENDMDL
