MODEL 1
REMARK minimizedAffinity 1.89195859
REMARK minimizedRMSD -1
REMARK  0 active torsions:
REMARK  status: ('A' for Active; 'I' for Inactive)
ROOT
ATOM      1  C2' OXE d   1       4.831   3.353   0.319  0.00  0.00     0.078 C 
ATOM      2  C1' OXE d   1       2.357   2.082   0.701  0.00  0.00     0.078 C 
ATOM      3  C1  OXE d   1       3.607   1.285   0.977  0.00  0.00    -0.078 A 
ATOM      4  C2  OXE d   1       4.814   1.900   0.742  0.00  0.00    -0.078 A 
ATOM      5  C3  OXE d   1       5.998   1.228   1.033  0.00  0.00     0.003 A 
ATOM      6  C4  OXE d   1       5.973  -0.119   1.415  0.00  0.00    -0.002 A 
ATOM      7  C5  OXE d   1       4.756  -0.776   1.621  0.00  0.00    -0.002 A 
ATOM      8  C6  OXE d   1       3.566  -0.077   1.448  0.00  0.00     0.003 A 
ENDROOT
TORSDOF 0
ENDMDL
