MODEL 1
REMARK minimizedAffinity -1.41421509
REMARK minimizedRMSD -1
REMARK  0 active torsions:
REMARK  status: ('A' for Active; 'I' for Inactive)
ROOT
ATOM      1  C2' OXE d   1       3.400  -1.097   0.432  0.00  0.00     0.078 C 
ATOM      2  C1' OXE d   1       5.442  -1.363   2.340  0.00  0.00     0.078 C 
ATOM      3  C1  OXE d   1       5.222  -0.001   1.731  0.00  0.00    -0.078 A 
ATOM      4  C2  OXE d   1       4.252   0.110   0.764  0.00  0.00    -0.078 A 
ATOM      5  C3  OXE d   1       3.971   1.355   0.209  0.00  0.00     0.003 A 
ATOM      6  C4  OXE d   1       4.770   2.464   0.514  0.00  0.00    -0.002 A 
ATOM      7  C5  OXE d   1       5.789   2.363   1.467  0.00  0.00    -0.002 A 
ATOM      8  C6  OXE d   1       6.000   1.151   2.115  0.00  0.00     0.003 A 
ENDROOT
TORSDOF 0
ENDMDL
