MODEL 1
REMARK minimizedAffinity 5.94984913
REMARK minimizedRMSD -1
REMARK  0 active torsions:
REMARK  status: ('A' for Active; 'I' for Inactive)
ROOT
ATOM      1  C2' OXE d   1       0.602  -4.226  -3.868  0.00  0.00     0.078 C 
ATOM      2  C1' OXE d   1       2.134  -4.163  -1.517  0.00  0.00     0.078 C 
ATOM      3  C1  OXE d   1       0.659  -4.453  -1.388  0.00  0.00    -0.078 A 
ATOM      4  C2  OXE d   1      -0.092  -4.435  -2.539  0.00  0.00    -0.078 A 
ATOM      5  C3  OXE d   1      -1.446  -4.750  -2.483  0.00  0.00     0.003 A 
ATOM      6  C4  OXE d   1      -2.082  -4.933  -1.249  0.00  0.00    -0.002 A 
ATOM      7  C5  OXE d   1      -1.343  -4.915  -0.061  0.00  0.00    -0.002 A 
ATOM      8  C6  OXE d   1       0.032  -4.719  -0.117  0.00  0.00     0.003 A 
ENDROOT
TORSDOF 0
ENDMDL
