MODEL 1
REMARK minimizedAffinity 3.10953927
REMARK minimizedRMSD -1
REMARK  0 active torsions:
REMARK  status: ('A' for Active; 'I' for Inactive)
ROOT
ATOM      1  C2' OXE d   1      -4.786   1.851   4.384  0.00  0.00     0.078 C 
ATOM      2  C1' OXE d   1      -4.085  -0.838   3.980  0.00  0.00     0.078 C 
ATOM      3  C1  OXE d   1      -3.086   0.218   3.576  0.00  0.00    -0.078 A 
ATOM      4  C2  OXE d   1      -3.456   1.532   3.734  0.00  0.00    -0.078 A 
ATOM      5  C3  OXE d   1      -2.551   2.544   3.428  0.00  0.00     0.003 A 
ATOM      6  C4  OXE d   1      -1.328   2.241   2.818  0.00  0.00    -0.002 A 
ATOM      7  C5  OXE d   1      -0.948   0.911   2.611  0.00  0.00    -0.002 A 
ATOM      8  C6  OXE d   1      -1.796  -0.112   3.023  0.00  0.00     0.003 A 
ENDROOT
TORSDOF 0
ENDMDL
