MODEL 1
REMARK minimizedAffinity 5.80761433
REMARK minimizedRMSD -1
REMARK  0 active torsions:
REMARK  status: ('A' for Active; 'I' for Inactive)
ROOT
ATOM      1  C2' OXE d   1      -3.638  -0.233   3.729  0.00  0.00     0.078 C 
ATOM      2  C1' OXE d   1      -2.340   2.254   3.644  0.00  0.00     0.078 C 
ATOM      3  C1  OXE d   1      -3.580   2.137   4.494  0.00  0.00    -0.078 A 
ATOM      4  C2  OXE d   1      -4.235   0.929   4.493  0.00  0.00    -0.078 A 
ATOM      5  C3  OXE d   1      -5.353   0.750   5.304  0.00  0.00     0.003 A 
ATOM      6  C4  OXE d   1      -5.904   1.832   6.000  0.00  0.00    -0.002 A 
ATOM      7  C5  OXE d   1      -5.275   3.082   5.983  0.00  0.00    -0.002 A 
ATOM      8  C6  OXE d   1      -4.091   3.239   5.271  0.00  0.00     0.003 A 
ENDROOT
TORSDOF 0
ENDMDL
