MODEL 1
REMARK minimizedAffinity 7.40299511
REMARK minimizedRMSD -1
REMARK  0 active torsions:
REMARK  status: ('A' for Active; 'I' for Inactive)
ROOT
ATOM      1  C2' OXE d   1       3.118   2.316  -2.637  0.00  0.00     0.078 C 
ATOM      2  C1' OXE d   1       2.778   1.412  -0.001  0.00  0.00     0.078 C 
ATOM      3  C1  OXE d   1       2.924   0.375  -1.087  0.00  0.00    -0.078 A 
ATOM      4  C2  OXE d   1       3.043   0.826  -2.380  0.00  0.00    -0.078 A 
ATOM      5  C3  OXE d   1       3.236  -0.086  -3.413  0.00  0.00     0.003 A 
ATOM      6  C4  OXE d   1       3.155  -1.462  -3.168  0.00  0.00    -0.002 A 
ATOM      7  C5  OXE d   1       2.995  -1.943  -1.864  0.00  0.00    -0.002 A 
ATOM      8  C6  OXE d   1       2.920  -1.040  -0.809  0.00  0.00     0.003 A 
ENDROOT
TORSDOF 0
ENDMDL
