MODEL 1
REMARK minimizedAffinity 2.25569677
REMARK minimizedRMSD -1
REMARK  0 active torsions:
REMARK  status: ('A' for Active; 'I' for Inactive)
ROOT
ATOM      1  C2' OXE d   1       1.783  -3.016  -1.277  0.00  0.00     0.078 C 
ATOM      2  C1' OXE d   1       1.855  -4.996  -3.265  0.00  0.00     0.078 C 
ATOM      3  C1  OXE d   1       0.703  -5.018  -2.292  0.00  0.00    -0.078 A 
ATOM      4  C2  OXE d   1       0.700  -4.074  -1.294  0.00  0.00    -0.078 A 
ATOM      5  C3  OXE d   1      -0.368  -4.015  -0.403  0.00  0.00     0.003 A 
ATOM      6  C4  OXE d   1      -1.360  -5.003  -0.420  0.00  0.00    -0.002 A 
ATOM      7  C5  OXE d   1      -1.355  -5.998  -1.403  0.00  0.00    -0.002 A 
ATOM      8  C6  OXE d   1      -0.356  -5.994  -2.371  0.00  0.00     0.003 A 
ENDROOT
TORSDOF 0
ENDMDL
