MODEL 1
REMARK minimizedAffinity 9.52354813
REMARK minimizedRMSD -1
REMARK  0 active torsions:
REMARK  status: ('A' for Active; 'I' for Inactive)
ROOT
ATOM      1  C2' OXE d   1      -3.807   3.041   0.540  0.00  0.00     0.078 C 
ATOM      2  C1' OXE d   1      -3.954   1.652   2.975  0.00  0.00     0.078 C 
ATOM      3  C1  OXE d   1      -2.585   1.956   2.420  0.00  0.00    -0.078 A 
ATOM      4  C2  OXE d   1      -2.522   2.595   1.205  0.00  0.00    -0.078 A 
ATOM      5  C3  OXE d   1      -1.285   2.947   0.674  0.00  0.00     0.003 A 
ATOM      6  C4  OXE d   1      -0.102   2.521   1.290  0.00  0.00    -0.002 A 
ATOM      7  C5  OXE d   1      -0.144   1.835   2.508  0.00  0.00    -0.002 A 
ATOM      8  C6  OXE d   1      -1.373   1.582   3.107  0.00  0.00     0.003 A 
ENDROOT
TORSDOF 0
ENDMDL
