MODEL 1
REMARK minimizedAffinity 12.423439
REMARK minimizedRMSD -1
REMARK  0 active torsions:
REMARK  status: ('A' for Active; 'I' for Inactive)
ROOT
ATOM      1  C2' OXE d   1      -2.080   1.926   4.011  0.00  0.00     0.078 C 
ATOM      2  C1' OXE d   1      -4.360   0.718   2.905  0.00  0.00     0.078 C 
ATOM      3  C1  OXE d   1      -4.565   1.757   3.978  0.00  0.00    -0.078 A 
ATOM      4  C2  OXE d   1      -3.443   2.309   4.546  0.00  0.00    -0.078 A 
ATOM      5  C3  OXE d   1      -3.576   3.312   5.502  0.00  0.00     0.003 A 
ATOM      6  C4  OXE d   1      -4.840   3.654   5.999  0.00  0.00    -0.002 A 
ATOM      7  C5  OXE d   1      -5.994   3.076   5.462  0.00  0.00    -0.002 A 
ATOM      8  C6  OXE d   1      -5.877   2.159   4.423  0.00  0.00     0.003 A 
ENDROOT
TORSDOF 0
ENDMDL
