MODEL 1
REMARK minimizedAffinity 3.92331386
REMARK minimizedRMSD -1
REMARK  0 active torsions:
REMARK  status: ('A' for Active; 'I' for Inactive)
ROOT
ATOM      1  C2' OXE d   1      -3.851   2.090   3.752  0.00  0.00     0.078 C 
ATOM      2  C1' OXE d   1      -3.364  -0.551   2.937  0.00  0.00     0.078 C 
ATOM      3  C1  OXE d   1      -2.236   0.442   2.811  0.00  0.00    -0.078 A 
ATOM      4  C2  OXE d   1      -2.498   1.743   3.169  0.00  0.00    -0.078 A 
ATOM      5  C3  OXE d   1      -1.477   2.689   3.124  0.00  0.00     0.003 A 
ATOM      6  C4  OXE d   1      -0.232   2.362   2.575  0.00  0.00    -0.002 A 
ATOM      7  C5  OXE d   1       0.043   1.052   2.168  0.00  0.00    -0.002 A 
ATOM      8  C6  OXE d   1      -0.933   0.073   2.319  0.00  0.00     0.003 A 
ENDROOT
TORSDOF 0
ENDMDL
