MODEL 1
REMARK minimizedAffinity 6.24507475
REMARK minimizedRMSD -1
REMARK  0 active torsions:
REMARK  status: ('A' for Active; 'I' for Inactive)
ROOT
ATOM      1  C2' OXE d   1      -2.714   2.247   3.181  0.00  0.00     0.078 C 
ATOM      2  C1' OXE d   1      -4.198  -0.110   3.529  0.00  0.00     0.078 C 
ATOM      3  C1  OXE d   1      -4.601   1.100   4.334  0.00  0.00    -0.078 A 
ATOM      4  C2  OXE d   1      -3.840   2.236   4.192  0.00  0.00    -0.078 A 
ATOM      5  C3  OXE d   1      -4.201   3.397   4.870  0.00  0.00     0.003 A 
ATOM      6  C4  OXE d   1      -5.237   3.375   5.811  0.00  0.00    -0.002 A 
ATOM      7  C5  OXE d   1      -6.000   2.217   6.000  0.00  0.00    -0.002 A 
ATOM      8  C6  OXE d   1      -5.722   1.086   5.240  0.00  0.00     0.003 A 
ENDROOT
TORSDOF 0
ENDMDL
