MODEL 1
REMARK minimizedAffinity 0.362109095
REMARK minimizedRMSD -1
REMARK  0 active torsions:
REMARK  status: ('A' for Active; 'I' for Inactive)
ROOT
ATOM      1  C2' OXE d   1       0.291   2.633   1.534  0.00  0.00     0.078 C 
ATOM      2  C1' OXE d   1       0.152   0.485   3.336  0.00  0.00     0.078 C 
ATOM      3  C1  OXE d   1      -1.122   1.234   3.035  0.00  0.00    -0.078 A 
ATOM      4  C2  OXE d   1      -1.036   2.313   2.188  0.00  0.00    -0.078 A 
ATOM      5  C3  OXE d   1      -2.191   3.005   1.834  0.00  0.00     0.003 A 
ATOM      6  C4  OXE d   1      -3.412   2.708   2.451  0.00  0.00    -0.002 A 
ATOM      7  C5  OXE d   1      -3.514   1.639   3.347  0.00  0.00    -0.002 A 
ATOM      8  C6  OXE d   1      -2.389   0.866   3.616  0.00  0.00     0.003 A 
ENDROOT
TORSDOF 0
ENDMDL
