MODEL 1
REMARK minimizedAffinity 2.08978558
REMARK minimizedRMSD -1
REMARK  0 active torsions:
REMARK  status: ('A' for Active; 'I' for Inactive)
ROOT
ATOM      1  C2' OXE d   1       0.550  -3.967  -2.151  0.00  0.00     0.078 C 
ATOM      2  C1' OXE d   1      -0.606  -5.318   0.022  0.00  0.00     0.078 C 
ATOM      3  C1  OXE d   1      -1.488  -4.398  -0.784  0.00  0.00    -0.078 A 
ATOM      4  C2  OXE d   1      -0.903  -3.705  -1.817  0.00  0.00    -0.078 A 
ATOM      5  C3  OXE d   1      -1.684  -2.885  -2.626  0.00  0.00     0.003 A 
ATOM      6  C4  OXE d   1      -3.024  -2.640  -2.304  0.00  0.00    -0.002 A 
ATOM      7  C5  OXE d   1      -3.630  -3.305  -1.232  0.00  0.00    -0.002 A 
ATOM      8  C6  OXE d   1      -2.888  -4.218  -0.490  0.00  0.00     0.003 A 
ENDROOT
TORSDOF 0
ENDMDL
