MODEL 1
REMARK minimizedAffinity 10.9372587
REMARK minimizedRMSD -1
REMARK  0 active torsions:
REMARK  status: ('A' for Active; 'I' for Inactive)
ROOT
ATOM      1  C2' OXE d   1      -3.381   3.928   1.378  0.00  0.00     0.078 C 
ATOM      2  C1' OXE d   1      -3.850   2.569   3.789  0.00  0.00     0.078 C 
ATOM      3  C1  OXE d   1      -2.445   2.565   3.241  0.00  0.00    -0.078 A 
ATOM      4  C2  OXE d   1      -2.234   3.193   2.037  0.00  0.00    -0.078 A 
ATOM      5  C3  OXE d   1      -0.947   3.265   1.513  0.00  0.00     0.003 A 
ATOM      6  C4  OXE d   1       0.107   2.574   2.124  0.00  0.00    -0.002 A 
ATOM      7  C5  OXE d   1      -0.094   1.895   3.330  0.00  0.00    -0.002 A 
ATOM      8  C6  OXE d   1      -1.352   1.917   3.923  0.00  0.00     0.003 A 
ENDROOT
TORSDOF 0
ENDMDL
