MODEL 1
REMARK minimizedAffinity 7.33191967
REMARK minimizedRMSD -1
REMARK  0 active torsions:
REMARK  status: ('A' for Active; 'I' for Inactive)
ROOT
ATOM      1  C2' OXE d   1      -4.091  -3.835  -1.018  0.00  0.00     0.078 C 
ATOM      2  C1' OXE d   1      -4.752  -1.840   0.842  0.00  0.00     0.078 C 
ATOM      3  C1  OXE d   1      -4.155  -1.405  -0.473  0.00  0.00    -0.078 A 
ATOM      4  C2  OXE d   1      -3.792  -2.391  -1.358  0.00  0.00    -0.078 A 
ATOM      5  C3  OXE d   1      -3.287  -2.043  -2.608  0.00  0.00     0.003 A 
ATOM      6  C4  OXE d   1      -3.004  -0.705  -2.911  0.00  0.00    -0.002 A 
ATOM      7  C5  OXE d   1      -3.329   0.312  -2.007  0.00  0.00    -0.002 A 
ATOM      8  C6  OXE d   1      -3.944  -0.017  -0.804  0.00  0.00     0.003 A 
ENDROOT
TORSDOF 0
ENDMDL
