MODEL 1
REMARK minimizedAffinity 14.6030321
REMARK minimizedRMSD -1
REMARK  0 active torsions:
REMARK  status: ('A' for Active; 'I' for Inactive)
ROOT
ATOM      1  C2' OXE d   1      -3.930  -0.293  -1.449  0.00  0.00     0.078 C 
ATOM      2  C1' OXE d   1      -2.637  -1.916  -3.340  0.00  0.00     0.078 C 
ATOM      3  C1  OXE d   1      -2.790  -2.453  -1.939  0.00  0.00    -0.078 A 
ATOM      4  C2  OXE d   1      -3.382  -1.634  -1.009  0.00  0.00    -0.078 A 
ATOM      5  C3  OXE d   1      -3.598  -2.101   0.285  0.00  0.00     0.003 A 
ATOM      6  C4  OXE d   1      -3.079  -3.338   0.686  0.00  0.00    -0.002 A 
ATOM      7  C5  OXE d   1      -2.437  -4.172  -0.235  0.00  0.00    -0.002 A 
ATOM      8  C6  OXE d   1      -2.323  -3.764  -1.560  0.00  0.00     0.003 A 
ENDROOT
TORSDOF 0
ENDMDL
