MODEL 1
REMARK minimizedAffinity 5.64730167
REMARK minimizedRMSD -1
REMARK  0 active torsions:
REMARK  status: ('A' for Active; 'I' for Inactive)
ROOT
ATOM      1  C2' OXE d   1       4.285   5.165  -5.533  0.00  0.00     0.078 C 
ATOM      2  C1' OXE d   1       1.923   5.384  -4.032  0.00  0.00     0.078 C 
ATOM      3  C1  OXE d   1       2.676   4.079  -3.972  0.00  0.00    -0.078 A 
ATOM      4  C2  OXE d   1       3.806   3.964  -4.746  0.00  0.00    -0.078 A 
ATOM      5  C3  OXE d   1       4.568   2.801  -4.686  0.00  0.00     0.003 A 
ATOM      6  C4  OXE d   1       4.112   1.692  -3.964  0.00  0.00    -0.002 A 
ATOM      7  C5  OXE d   1       2.943   1.773  -3.200  0.00  0.00    -0.002 A 
ATOM      8  C6  OXE d   1       2.238   2.971  -3.159  0.00  0.00     0.003 A 
ENDROOT
TORSDOF 0
ENDMDL
