MODEL 1
REMARK minimizedAffinity 11.648509
REMARK minimizedRMSD -1
REMARK  0 active torsions:
REMARK  status: ('A' for Active; 'I' for Inactive)
ROOT
ATOM      1  C2' OXE d   1      -4.772   1.883   4.653  0.00  0.00     0.078 C 
ATOM      2  C1' OXE d   1      -3.771  -0.560   3.700  0.00  0.00     0.078 C 
ATOM      3  C1  OXE d   1      -3.069   0.704   3.269  0.00  0.00    -0.078 A 
ATOM      4  C2  OXE d   1      -3.594   1.897   3.702  0.00  0.00    -0.078 A 
ATOM      5  C3  OXE d   1      -2.953   3.090   3.379  0.00  0.00     0.003 A 
ATOM      6  C4  OXE d   1      -1.871   3.095   2.491  0.00  0.00    -0.002 A 
ATOM      7  C5  OXE d   1      -1.345   1.892   2.006  0.00  0.00    -0.002 A 
ATOM      8  C6  OXE d   1      -1.905   0.688   2.418  0.00  0.00     0.003 A 
ENDROOT
TORSDOF 0
ENDMDL
