MODEL 1
REMARK minimizedAffinity -4.29266882
REMARK minimizedRMSD -1
REMARK  1 active torsions:
REMARK  status: ('A' for Active; 'I' for Inactive)
REMARK    1  A    between atoms: C1_2  and  C2_3 
ROOT
ATOM      1  C2  UNL d   1      -0.022   0.122  -0.330  0.00  0.00    -0.073 A 
ATOM      2  C3  UNL d   1      -1.308  -0.232   0.092  0.00  0.00    -0.002 A 
ATOM      3  C4  UNL d   1      -1.495  -0.893   1.307  0.00  0.00     0.004 A 
ATOM      4  C5  UNL d   1      -0.400  -1.200   2.115  0.00  0.00    -0.004 A 
ATOM      5  C6  UNL d   1       0.893  -0.844   1.716  0.00  0.00    -0.075 A 
ATOM      6  C7  UNL d   1       2.081  -1.169   2.572  0.00  0.00     0.076 C 
ATOM      7  C8  UNL d   1       1.072  -0.183   0.493  0.00  0.00     0.001 A 
ENDROOT
BRANCH   1   8
ATOM      8  C1  UNL d   1       0.184   0.841  -1.638  0.00  0.00     0.053 C 
ATOM      9  C   UNL d   1      -0.981   1.758  -1.973  0.00  0.00     0.018 C 
ENDBRANCH   1   8
TORSDOF 1
ENDMDL
