MODEL 1
REMARK minimizedAffinity -5.21257877
REMARK minimizedRMSD -1
REMARK  1 active torsions:
REMARK  status: ('A' for Active; 'I' for Inactive)
REMARK    1  A    between atoms: C1_2  and  C2_3 
ROOT
ATOM      1  C2  UNL d   1       0.800  -0.417   1.496  0.00  0.00    -0.073 A 
ATOM      2  C3  UNL d   1      -0.575  -0.646   1.614  0.00  0.00    -0.002 A 
ATOM      3  C4  UNL d   1      -1.463  -0.101   0.686  0.00  0.00     0.004 A 
ATOM      4  C5  UNL d   1      -0.986   0.672  -0.372  0.00  0.00    -0.004 A 
ATOM      5  C6  UNL d   1       0.386   0.903  -0.514  0.00  0.00    -0.075 A 
ATOM      6  C7  UNL d   1       0.915   1.734  -1.646  0.00  0.00     0.076 C 
ATOM      7  C8  UNL d   1       1.271   0.354   0.423  0.00  0.00     0.001 A 
ENDROOT
BRANCH   1   8
ATOM      8  C1  UNL d   1       1.764  -1.008   2.492  0.00  0.00     0.053 C 
ATOM      9  C   UNL d   1       2.351  -2.323   2.004  0.00  0.00     0.018 C 
ENDBRANCH   1   8
TORSDOF 1
ENDMDL
