MODEL 1
REMARK minimizedAffinity -6.725739
REMARK minimizedRMSD -1
REMARK  1 active torsions:
REMARK  status: ('A' for Active; 'I' for Inactive)
REMARK    1  A    between atoms: C1_2  and  C2_3 
ROOT
ATOM      1  C2  UNL d   1       0.699  -0.668  -0.565  0.00  0.00    -0.073 A 
ATOM      2  C3  UNL d   1       1.880  -1.402  -0.714  0.00  0.00    -0.002 A 
ATOM      3  C4  UNL d   1       2.534  -1.921   0.405  0.00  0.00     0.004 A 
ATOM      4  C5  UNL d   1       2.011  -1.716   1.682  0.00  0.00    -0.004 A 
ATOM      5  C6  UNL d   1       0.824  -0.994   1.850  0.00  0.00    -0.075 A 
ATOM      6  C7  UNL d   1       0.249  -0.763   3.217  0.00  0.00     0.076 C 
ATOM      7  C8  UNL d   1       0.175  -0.475   0.722  0.00  0.00     0.001 A 
ENDROOT
BRANCH   1   8
ATOM      8  C1  UNL d   1      -0.014  -0.112  -1.770  0.00  0.00     0.053 C 
ATOM      9  C   UNL d   1      -0.096   1.406  -1.734  0.00  0.00     0.018 C 
ENDBRANCH   1   8
TORSDOF 1
ENDMDL
