MODEL 1
REMARK minimizedAffinity -5.76839256
REMARK minimizedRMSD -1
REMARK  1 active torsions:
REMARK  status: ('A' for Active; 'I' for Inactive)
REMARK    1  A    between atoms: C1_2  and  C2_3 
ROOT
ATOM      1  C2  UNL d   1       0.950  -1.029   1.464  0.00  0.00    -0.073 A 
ATOM      2  C3  UNL d   1      -0.027  -0.938   2.462  0.00  0.00    -0.002 A 
ATOM      3  C4  UNL d   1      -1.175  -0.172   2.257  0.00  0.00     0.004 A 
ATOM      4  C5  UNL d   1      -1.362   0.504   1.052  0.00  0.00    -0.004 A 
ATOM      5  C6  UNL d   1      -0.403   0.415   0.037  0.00  0.00    -0.075 A 
ATOM      6  C7  UNL d   1      -0.588   1.138  -1.265  0.00  0.00     0.076 C 
ATOM      7  C8  UNL d   1       0.748  -0.354   0.252  0.00  0.00     0.001 A 
ENDROOT
BRANCH   1   8
ATOM      8  C1  UNL d   1       2.188  -1.861   1.678  0.00  0.00     0.053 C 
ATOM      9  C   UNL d   1       2.834  -2.270   0.364  0.00  0.00     0.018 C 
ENDBRANCH   1   8
TORSDOF 1
ENDMDL
