MODEL 1
REMARK minimizedAffinity 3.22652364
REMARK minimizedRMSD -1
REMARK  0 active torsions:
REMARK  status: ('A' for Active; 'I' for Inactive)
ROOT
ATOM      1  C1  BNZ d   1       3.673   1.144  -1.124  0.00  0.00     0.000 A 
ATOM      2  C2  BNZ d   1       4.832   1.865  -1.241  0.00  0.00     0.000 A 
ATOM      3  C3  BNZ d   1       6.000   1.405  -0.701  0.00  0.00     0.000 A 
ATOM      4  C4  BNZ d   1       6.000   0.246  -0.010  0.00  0.00     0.000 A 
ATOM      5  C5  BNZ d   1       4.838  -0.488   0.124  0.00  0.00     0.000 A 
ATOM      6  C6  BNZ d   1       3.672  -0.041  -0.454  0.00  0.00     0.000 A 
ENDROOT
TORSDOF 0
ENDMDL
