MODEL 1
REMARK minimizedAffinity 3.80079961
REMARK minimizedRMSD -1
REMARK  0 active torsions:
REMARK  status: ('A' for Active; 'I' for Inactive)
ROOT
ATOM      1  C1  BNZ d   1       3.537  -1.063  -1.460  0.00  0.00     0.000 A 
ATOM      2  C2  BNZ d   1       4.395  -0.294  -2.200  0.00  0.00     0.000 A 
ATOM      3  C3  BNZ d   1       4.857   0.899  -1.718  0.00  0.00     0.000 A 
ATOM      4  C4  BNZ d   1       4.431   1.339  -0.516  0.00  0.00     0.000 A 
ATOM      5  C5  BNZ d   1       3.559   0.579   0.237  0.00  0.00     0.000 A 
ATOM      6  C6  BNZ d   1       3.126  -0.639  -0.234  0.00  0.00     0.000 A 
ENDROOT
TORSDOF 0
ENDMDL
