MODEL 1
REMARK minimizedAffinity 8.78649235
REMARK minimizedRMSD -1
REMARK  0 active torsions:
REMARK  status: ('A' for Active; 'I' for Inactive)
ROOT
ATOM      1  C1  BNZ d   1       6.000   5.955  -1.527  0.00  0.00     0.000 A 
ATOM      2  C2  BNZ d   1       5.226   5.040  -2.189  0.00  0.00     0.000 A 
ATOM      3  C3  BNZ d   1       4.429   4.169  -1.500  0.00  0.00     0.000 A 
ATOM      4  C4  BNZ d   1       4.437   4.187  -0.151  0.00  0.00     0.000 A 
ATOM      5  C5  BNZ d   1       5.218   5.098   0.531  0.00  0.00     0.000 A 
ATOM      6  C6  BNZ d   1       5.990   5.999  -0.167  0.00  0.00     0.000 A 
ENDROOT
TORSDOF 0
ENDMDL
