MODEL 1
REMARK minimizedAffinity 2.41586733
REMARK minimizedRMSD -1
REMARK  0 active torsions:
REMARK  status: ('A' for Active; 'I' for Inactive)
ROOT
ATOM      1  C1  BNZ d   1       3.766  -0.424  -0.726  0.00  0.00     0.000 A 
ATOM      2  C2  BNZ d   1       3.782   0.723  -1.475  0.00  0.00     0.000 A 
ATOM      3  C3  BNZ d   1       4.907   1.497  -1.545  0.00  0.00     0.000 A 
ATOM      4  C4  BNZ d   1       5.999   1.146  -0.837  0.00  0.00     0.000 A 
ATOM      5  C5  BNZ d   1       5.995  -0.002  -0.070  0.00  0.00     0.000 A 
ATOM      6  C6  BNZ d   1       4.875  -0.800  -0.032  0.00  0.00     0.000 A 
ENDROOT
TORSDOF 0
ENDMDL
