MODEL 1
REMARK minimizedAffinity 5.5942564
REMARK minimizedRMSD -1
REMARK  0 active torsions:
REMARK  status: ('A' for Active; 'I' for Inactive)
ROOT
ATOM      1  C1  BNZ d   1       1.197  -3.577  -0.506  0.00  0.00     0.000 A 
ATOM      2  C2  BNZ d   1       1.889  -2.872   0.443  0.00  0.00     0.000 A 
ATOM      3  C3  BNZ d   1       2.861  -1.981   0.082  0.00  0.00     0.000 A 
ATOM      4  C4  BNZ d   1       3.166  -1.825  -1.222  0.00  0.00     0.000 A 
ATOM      5  C5  BNZ d   1       2.484  -2.535  -2.190  0.00  0.00     0.000 A 
ATOM      6  C6  BNZ d   1       1.480  -3.402  -1.825  0.00  0.00     0.000 A 
ENDROOT
TORSDOF 0
ENDMDL
