MODEL 1
REMARK minimizedAffinity 5.26569557
REMARK minimizedRMSD -1
REMARK  0 active torsions:
REMARK  status: ('A' for Active; 'I' for Inactive)
ROOT
ATOM      1  C1  BNZ d   1       6.000  -0.382   0.004  0.00  0.00     0.000 A 
ATOM      2  C2  BNZ d   1       4.992   0.099  -0.789  0.00  0.00     0.000 A 
ATOM      3  C3  BNZ d   1       3.746  -0.461  -0.753  0.00  0.00     0.000 A 
ATOM      4  C4  BNZ d   1       3.519  -1.524   0.046  0.00  0.00     0.000 A 
ATOM      5  C5  BNZ d   1       4.527  -2.026   0.844  0.00  0.00     0.000 A 
ATOM      6  C6  BNZ d   1       5.770  -1.436   0.834  0.00  0.00     0.000 A 
ENDROOT
TORSDOF 0
ENDMDL
