MODEL 1
REMARK minimizedAffinity 7.29943037
REMARK minimizedRMSD -1
REMARK  0 active torsions:
REMARK  status: ('A' for Active; 'I' for Inactive)
ROOT
ATOM      1  C1  BNZ d   1      -0.024  -4.623   4.748  0.00  0.00     0.000 A 
ATOM      2  C2  BNZ d   1      -0.313  -3.810   3.685  0.00  0.00     0.000 A 
ATOM      3  C3  BNZ d   1       0.650  -3.013   3.130  0.00  0.00     0.000 A 
ATOM      4  C4  BNZ d   1       1.888  -3.001   3.664  0.00  0.00     0.000 A 
ATOM      5  C5  BNZ d   1       2.193  -3.808   4.742  0.00  0.00     0.000 A 
ATOM      6  C6  BNZ d   1       1.232  -4.637   5.273  0.00  0.00     0.000 A 
ENDROOT
TORSDOF 0
ENDMDL
