MODEL 1
REMARK minimizedAffinity 5.02646112
REMARK minimizedRMSD -1
REMARK  0 active torsions:
REMARK  status: ('A' for Active; 'I' for Inactive)
ROOT
ATOM      1  C1  BNZ d   1       6.000   5.648  -1.847  0.00  0.00     0.000 A 
ATOM      2  C2  BNZ d   1       5.890   4.386  -2.365  0.00  0.00     0.000 A 
ATOM      3  C3  BNZ d   1       5.769   3.300  -1.544  0.00  0.00     0.000 A 
ATOM      4  C4  BNZ d   1       5.798   3.473  -0.207  0.00  0.00     0.000 A 
ATOM      5  C5  BNZ d   1       5.917   4.739   0.331  0.00  0.00     0.000 A 
ATOM      6  C6  BNZ d   1       6.000   5.834  -0.499  0.00  0.00     0.000 A 
ENDROOT
TORSDOF 0
ENDMDL
