MODEL 1
REMARK minimizedAffinity 3.53897405
REMARK minimizedRMSD -1
REMARK  0 active torsions:
REMARK  status: ('A' for Active; 'I' for Inactive)
ROOT
ATOM      1  C1  BNZ d   1       5.996   0.121   0.003  0.00  0.00     0.000 A 
ATOM      2  C2  BNZ d   1       4.852  -0.632   0.005  0.00  0.00     0.000 A 
ATOM      3  C3  BNZ d   1       3.708  -0.169  -0.582  0.00  0.00     0.000 A 
ATOM      4  C4  BNZ d   1       3.697   1.061  -1.133  0.00  0.00     0.000 A 
ATOM      5  C5  BNZ d   1       4.839   1.837  -1.135  0.00  0.00     0.000 A 
ATOM      6  C6  BNZ d   1       6.000   1.352  -0.579  0.00  0.00     0.000 A 
ENDROOT
TORSDOF 0
ENDMDL
