MODEL 1
REMARK minimizedAffinity 3.07294607
REMARK minimizedRMSD -1
REMARK  0 active torsions:
REMARK  status: ('A' for Active; 'I' for Inactive)
ROOT
ATOM      1  C1  BNZ d   1       5.371  -0.027  -2.257  0.00  0.00     0.000 A 
ATOM      2  C2  BNZ d   1       4.732   0.497  -1.164  0.00  0.00     0.000 A 
ATOM      3  C3  BNZ d   1       3.519   0.011  -0.763  0.00  0.00     0.000 A 
ATOM      4  C4  BNZ d   1       2.929  -0.969  -1.477  0.00  0.00     0.000 A 
ATOM      5  C5  BNZ d   1       3.556  -1.501  -2.586  0.00  0.00     0.000 A 
ATOM      6  C6  BNZ d   1       4.794  -1.036  -2.964  0.00  0.00     0.000 A 
ENDROOT
TORSDOF 0
ENDMDL
