MODEL 1
REMARK minimizedAffinity 4.1793704
REMARK minimizedRMSD -1
REMARK  0 active torsions:
REMARK  status: ('A' for Active; 'I' for Inactive)
ROOT
ATOM      1  C1  BNZ d   1      -2.369   0.308  -3.836  0.00  0.00     0.000 A 
ATOM      2  C2  BNZ d   1      -2.140   1.142  -4.898  0.00  0.00     0.000 A 
ATOM      3  C3  BNZ d   1      -3.181   1.680  -5.602  0.00  0.00     0.000 A 
ATOM      4  C4  BNZ d   1      -4.446   1.353  -5.270  0.00  0.00     0.000 A 
ATOM      5  C5  BNZ d   1      -4.693   0.506  -4.208  0.00  0.00     0.000 A 
ATOM      6  C6  BNZ d   1      -3.644  -0.004  -3.477  0.00  0.00     0.000 A 
ENDROOT
TORSDOF 0
ENDMDL
