MODEL 1
REMARK minimizedAffinity 11.9688482
REMARK minimizedRMSD -1
REMARK  2 active torsions:
REMARK  status: ('A' for Active; 'I' for Inactive)
REMARK    1  A    between atoms: C2'_3  and  C1'_4 
REMARK    2  A    between atoms: C1'_4  and  C1_5 
ROOT
ATOM      1  C1  I4B d   1      -0.281  -1.375   2.905  0.00  0.00    -0.075 A 
ATOM      2  C2  I4B d   1      -0.557  -0.383   3.813  0.00  0.00     0.003 A 
ATOM      3  C3  I4B d   1      -1.836   0.222   3.841  0.00  0.00     0.002 A 
ATOM      4  C4  I4B d   1      -2.787  -0.156   2.915  0.00  0.00    -0.004 A 
ATOM      5  C5  I4B d   1      -2.513  -1.177   2.010  0.00  0.00     0.002 A 
ATOM      6  C6  I4B d   1      -1.256  -1.800   2.013  0.00  0.00     0.003 A 
ENDROOT
BRANCH   1   7
ATOM      7  C1' I4B d   1       1.092  -1.970   2.882  0.00  0.00     0.060 C 
BRANCH   7   8
ATOM      8  C2' I4B d   1       1.344  -2.509   1.489  0.00  0.00    -0.013 C 
ATOM      9  C4' I4B d   1       1.907  -1.444   0.586  0.00  0.00     0.013 C 
ATOM     10  C3' I4B d   1       2.283  -3.672   1.606  0.00  0.00     0.013 C 
ENDBRANCH   7   8
ENDBRANCH   1   7
TORSDOF 2
ENDMDL
