MODEL 1
REMARK minimizedAffinity 12.1460438
REMARK minimizedRMSD -1
REMARK  2 active torsions:
REMARK  status: ('A' for Active; 'I' for Inactive)
REMARK    1  A    between atoms: C2'_3  and  C1'_4 
REMARK    2  A    between atoms: C1'_4  and  C1_5 
ROOT
ATOM      1  C1  I4B d   1      -2.013  -0.257   2.603  0.00  0.00    -0.075 A 
ATOM      2  C2  I4B d   1      -0.787   0.165   3.054  0.00  0.00     0.003 A 
ATOM      3  C3  I4B d   1       0.127  -0.763   3.606  0.00  0.00     0.002 A 
ATOM      4  C4  I4B d   1      -0.242  -2.087   3.735  0.00  0.00    -0.004 A 
ATOM      5  C5  I4B d   1      -1.476  -2.517   3.257  0.00  0.00     0.002 A 
ATOM      6  C6  I4B d   1      -2.363  -1.599   2.676  0.00  0.00     0.003 A 
ENDROOT
BRANCH   1   7
ATOM      7  C1' I4B d   1      -2.968   0.756   2.055  0.00  0.00     0.060 C 
BRANCH   7   8
ATOM      8  C2' I4B d   1      -4.147   0.847   3.002  0.00  0.00    -0.013 C 
ATOM      9  C4' I4B d   1      -3.895   1.855   4.092  0.00  0.00     0.013 C 
ATOM     10  C3' I4B d   1      -5.360   1.210   2.199  0.00  0.00     0.013 C 
ENDBRANCH   7   8
ENDBRANCH   1   7
TORSDOF 2
ENDMDL
