MODEL 1
REMARK minimizedAffinity 7.00182009
REMARK minimizedRMSD -1
REMARK  2 active torsions:
REMARK  status: ('A' for Active; 'I' for Inactive)
REMARK    1  A    between atoms: C2'_3  and  C1'_4 
REMARK    2  A    between atoms: C1'_4  and  C1_5 
ROOT
ATOM      1  C1  I4B d   1      -0.718  -1.227   2.016  0.00  0.00    -0.075 A 
ATOM      2  C2  I4B d   1      -1.440  -0.476   2.910  0.00  0.00     0.003 A 
ATOM      3  C3  I4B d   1      -2.719   0.017   2.558  0.00  0.00     0.002 A 
ATOM      4  C4  I4B d   1      -3.214  -0.219   1.291  0.00  0.00    -0.004 A 
ATOM      5  C5  I4B d   1      -2.491  -0.999   0.394  0.00  0.00     0.002 A 
ATOM      6  C6  I4B d   1      -1.240  -1.517   0.762  0.00  0.00     0.003 A 
ENDROOT
BRANCH   1   7
ATOM      7  C1' I4B d   1       0.644  -1.704   2.409  0.00  0.00     0.060 C 
BRANCH   7   8
ATOM      8  C2' I4B d   1       1.227  -2.467   1.237  0.00  0.00    -0.013 C 
ATOM      9  C4' I4B d   1       2.079  -1.573   0.374  0.00  0.00     0.013 C 
ATOM     10  C3' I4B d   1       2.026  -3.613   1.782  0.00  0.00     0.013 C 
ENDBRANCH   7   8
ENDBRANCH   1   7
TORSDOF 2
ENDMDL
