MODEL 1
REMARK minimizedAffinity 16.6110115
REMARK minimizedRMSD -1
REMARK  2 active torsions:
REMARK  status: ('A' for Active; 'I' for Inactive)
REMARK    1  A    between atoms: C2'_3  and  C1'_4 
REMARK    2  A    between atoms: C1'_4  and  C1_5 
ROOT
ATOM      1  C1  I4B d   1       0.957  -1.573   0.062  0.00  0.00    -0.075 A 
ATOM      2  C2  I4B d   1       0.170  -1.366   1.167  0.00  0.00     0.003 A 
ATOM      3  C3  I4B d   1       0.512  -1.958   2.407  0.00  0.00     0.002 A 
ATOM      4  C4  I4B d   1       1.614  -2.786   2.484  0.00  0.00    -0.004 A 
ATOM      5  C5  I4B d   1       2.423  -2.977   1.368  0.00  0.00     0.002 A 
ATOM      6  C6  I4B d   1       2.100  -2.357   0.152  0.00  0.00     0.003 A 
ENDROOT
BRANCH   1   7
ATOM      7  C1' I4B d   1       0.548  -0.960  -1.239  0.00  0.00     0.060 C 
BRANCH   7   8
ATOM      8  C2' I4B d   1      -0.826  -0.348  -1.056  0.00  0.00    -0.013 C 
ATOM      9  C4' I4B d   1      -0.915   1.003  -1.716  0.00  0.00     0.013 C 
ATOM     10  C3' I4B d   1      -1.836  -1.298  -1.628  0.00  0.00     0.013 C 
ENDBRANCH   7   8
ENDBRANCH   1   7
TORSDOF 2
ENDMDL
