MODEL 1
REMARK minimizedAffinity 11.4169922
REMARK minimizedRMSD -1
REMARK  2 active torsions:
REMARK  status: ('A' for Active; 'I' for Inactive)
REMARK    1  A    between atoms: C2'_3  and  C1'_4 
REMARK    2  A    between atoms: C1'_4  and  C1_5 
ROOT
ATOM      1  C1  I4B d   1       5.924  -0.695  -1.928  0.00  0.00    -0.075 A 
ATOM      2  C2  I4B d   1       5.957   0.673  -1.825  0.00  0.00     0.003 A 
ATOM      3  C3  I4B d   1       5.924   1.477  -2.991  0.00  0.00     0.002 A 
ATOM      4  C4  I4B d   1       5.909   0.874  -4.232  0.00  0.00    -0.004 A 
ATOM      5  C5  I4B d   1       5.853  -0.513  -4.334  0.00  0.00     0.002 A 
ATOM      6  C6  I4B d   1       5.848  -1.303  -3.175  0.00  0.00     0.003 A 
ENDROOT
BRANCH   1   7
ATOM      7  C1' I4B d   1       5.994  -1.514  -0.678  0.00  0.00     0.060 C 
BRANCH   7   8
ATOM      8  C2' I4B d   1       5.352  -0.716   0.439  0.00  0.00    -0.013 C 
ATOM      9  C4' I4B d   1       5.975   0.650   0.561  0.00  0.00     0.013 C 
ATOM     10  C3' I4B d   1       3.883  -0.619   0.153  0.00  0.00     0.013 C 
ENDBRANCH   7   8
ENDBRANCH   1   7
TORSDOF 2
ENDMDL
