MODEL 1
REMARK minimizedAffinity -2.44323993
REMARK minimizedRMSD -1
REMARK  0 active torsions:
REMARK  status: ('A' for Active; 'I' for Inactive)
ROOT
ATOM      1  C1  BNZ d   1      -0.363   1.217   0.470  0.00  0.00     0.000 A 
ATOM      2  C2  BNZ d   1       0.231   1.229  -0.764  0.00  0.00     0.000 A 
ATOM      3  C3  BNZ d   1       0.395   0.072  -1.473  0.00  0.00     0.000 A 
ATOM      4  C4  BNZ d   1       0.003  -1.099  -0.931  0.00  0.00     0.000 A 
ATOM      5  C5  BNZ d   1      -0.588  -1.129   0.316  0.00  0.00     0.000 A 
ATOM      6  C6  BNZ d   1      -0.788   0.043   1.010  0.00  0.00     0.000 A 
ENDROOT
TORSDOF 0
ENDMDL
