MODEL 1
REMARK minimizedAffinity -3.1990819
REMARK minimizedRMSD -1
REMARK  0 active torsions:
REMARK  status: ('A' for Active; 'I' for Inactive)
ROOT
ATOM      1  C1  BNZ d   1       0.981   0.471   0.681  0.00  0.00     0.000 A 
ATOM      2  C2  BNZ d   1       2.097   1.148   1.095  0.00  0.00     0.000 A 
ATOM      3  C3  BNZ d   1       2.442   2.343   0.527  0.00  0.00     0.000 A 
ATOM      4  C4  BNZ d   1       1.694   2.839  -0.480  0.00  0.00     0.000 A 
ATOM      5  C5  BNZ d   1       0.571   2.164  -0.914  0.00  0.00     0.000 A 
ATOM      6  C6  BNZ d   1       0.205   0.981  -0.314  0.00  0.00     0.000 A 
ENDROOT
TORSDOF 0
ENDMDL
