MODEL 1
REMARK minimizedAffinity -3.31247854
REMARK minimizedRMSD -1
REMARK  0 active torsions:
REMARK  status: ('A' for Active; 'I' for Inactive)
ROOT
ATOM      1  C1  BNZ d   1      -0.030   1.245   0.047  0.00  0.00     0.000 A 
ATOM      2  C2  BNZ d   1       0.232  -0.036   0.454  0.00  0.00     0.000 A 
ATOM      3  C3  BNZ d   1       0.660  -0.980  -0.438  0.00  0.00     0.000 A 
ATOM      4  C4  BNZ d   1       0.786  -0.653  -1.740  0.00  0.00     0.000 A 
ATOM      5  C5  BNZ d   1       0.517   0.632  -2.167  0.00  0.00     0.000 A 
ATOM      6  C6  BNZ d   1       0.124   1.589  -1.260  0.00  0.00     0.000 A 
ENDROOT
TORSDOF 0
ENDMDL
