MODEL 1
REMARK minimizedAffinity -4.46433973
REMARK minimizedRMSD -1
REMARK  0 active torsions:
REMARK  status: ('A' for Active; 'I' for Inactive)
ROOT
ATOM      1  C1  BNZ d   1      -1.226  -2.332   0.911  0.00  0.00     0.000 A 
ATOM      2  C2  BNZ d   1      -1.180  -0.963   0.908  0.00  0.00     0.000 A 
ATOM      3  C3  BNZ d   1      -0.181  -0.298   0.255  0.00  0.00     0.000 A 
ATOM      4  C4  BNZ d   1       0.791  -1.001  -0.361  0.00  0.00     0.000 A 
ATOM      5  C5  BNZ d   1       0.764  -2.381  -0.359  0.00  0.00     0.000 A 
ATOM      6  C6  BNZ d   1      -0.265  -3.047   0.267  0.00  0.00     0.000 A 
ENDROOT
TORSDOF 0
ENDMDL
