MODEL 1
REMARK minimizedAffinity -2.72104812
REMARK minimizedRMSD -1
REMARK  0 active torsions:
REMARK  status: ('A' for Active; 'I' for Inactive)
ROOT
ATOM      1  C1  BNZ d   1       0.078   0.234   0.733  0.00  0.00     0.000 A 
ATOM      2  C2  BNZ d   1      -0.049   1.494   0.212  0.00  0.00     0.000 A 
ATOM      3  C3  BNZ d   1      -0.072   1.693  -1.140  0.00  0.00     0.000 A 
ATOM      4  C4  BNZ d   1       0.073   0.638  -1.968  0.00  0.00     0.000 A 
ATOM      5  C5  BNZ d   1       0.212  -0.637  -1.457  0.00  0.00     0.000 A 
ATOM      6  C6  BNZ d   1       0.195  -0.838  -0.096  0.00  0.00     0.000 A 
ENDROOT
TORSDOF 0
ENDMDL
