MODEL 1
REMARK minimizedAffinity -5.27880764
REMARK minimizedRMSD -1
REMARK  0 active torsions:
REMARK  status: ('A' for Active; 'I' for Inactive)
ROOT
ATOM      1  C1  BNZ d   1       0.495  -3.066  -1.037  0.00  0.00     0.000 A 
ATOM      2  C2  BNZ d   1       0.038  -3.112   0.253  0.00  0.00     0.000 A 
ATOM      3  C3  BNZ d   1      -0.272  -1.965   0.928  0.00  0.00     0.000 A 
ATOM      4  C4  BNZ d   1      -0.086  -0.772   0.327  0.00  0.00     0.000 A 
ATOM      5  C5  BNZ d   1       0.383  -0.708  -0.970  0.00  0.00     0.000 A 
ATOM      6  C6  BNZ d   1       0.657  -1.866  -1.660  0.00  0.00     0.000 A 
ENDROOT
TORSDOF 0
ENDMDL
