MODEL 1
REMARK minimizedAffinity -5.06561089
REMARK minimizedRMSD -1
REMARK  0 active torsions:
REMARK  status: ('A' for Active; 'I' for Inactive)
ROOT
ATOM      1  C1  BNZ d   1       0.887  -1.009  -0.961  0.00  0.00     0.000 A 
ATOM      2  C2  BNZ d   1       0.357   0.250  -0.859  0.00  0.00     0.000 A 
ATOM      3  C3  BNZ d   1      -0.545   0.552   0.123  0.00  0.00     0.000 A 
ATOM      4  C4  BNZ d   1      -0.945  -0.414   0.976  0.00  0.00     0.000 A 
ATOM      5  C5  BNZ d   1      -0.427  -1.690   0.879  0.00  0.00     0.000 A 
ATOM      6  C6  BNZ d   1       0.510  -1.980  -0.086  0.00  0.00     0.000 A 
ENDROOT
TORSDOF 0
ENDMDL
