MODEL 1
REMARK minimizedAffinity -3.36769032
REMARK minimizedRMSD -1
REMARK  0 active torsions:
REMARK  status: ('A' for Active; 'I' for Inactive)
ROOT
ATOM      1  C1  BNZ d   1      -0.362   0.818   0.039  0.00  0.00     0.000 A 
ATOM      2  C2  BNZ d   1       0.100   0.845  -1.250  0.00  0.00     0.000 A 
ATOM      3  C3  BNZ d   1       0.388  -0.314  -1.915  0.00  0.00     0.000 A 
ATOM      4  C4  BNZ d   1       0.251  -1.495  -1.279  0.00  0.00     0.000 A 
ATOM      5  C5  BNZ d   1      -0.205  -1.539   0.023  0.00  0.00     0.000 A 
ATOM      6  C6  BNZ d   1      -0.531  -0.372   0.677  0.00  0.00     0.000 A 
ENDROOT
TORSDOF 0
ENDMDL
