MODEL 1
REMARK minimizedAffinity -4.05747414
REMARK minimizedRMSD -1
REMARK  0 active torsions:
REMARK  status: ('A' for Active; 'I' for Inactive)
ROOT
ATOM      1  C1  BNZ d   1       0.531  -1.981  -0.307  0.00  0.00     0.000 A 
ATOM      2  C2  BNZ d   1       0.458  -0.631  -0.091  0.00  0.00     0.000 A 
ATOM      3  C3  BNZ d   1      -0.544  -0.097   0.671  0.00  0.00     0.000 A 
ATOM      4  C4  BNZ d   1      -1.492  -0.908   1.182  0.00  0.00     0.000 A 
ATOM      5  C5  BNZ d   1      -1.437  -2.271   0.966  0.00  0.00     0.000 A 
ATOM      6  C6  BNZ d   1      -0.406  -2.809   0.231  0.00  0.00     0.000 A 
ENDROOT
TORSDOF 0
ENDMDL
