MODEL 1
REMARK minimizedAffinity -4.12865591
REMARK minimizedRMSD -1
REMARK  0 active torsions:
REMARK  status: ('A' for Active; 'I' for Inactive)
ROOT
ATOM      1  C1  BNZ d   1      -0.116  -0.463   0.221  0.00  0.00     0.000 A 
ATOM      2  C2  BNZ d   1      -0.515  -1.368   1.168  0.00  0.00     0.000 A 
ATOM      3  C3  BNZ d   1      -0.545  -2.706   0.889  0.00  0.00     0.000 A 
ATOM      4  C4  BNZ d   1      -0.216  -3.133  -0.347  0.00  0.00     0.000 A 
ATOM      5  C5  BNZ d   1       0.180  -2.232  -1.316  0.00  0.00     0.000 A 
ATOM      6  C6  BNZ d   1       0.246  -0.890  -1.020  0.00  0.00     0.000 A 
ENDROOT
TORSDOF 0
ENDMDL
