MODEL 1
REMARK minimizedAffinity -3.48367286
REMARK minimizedRMSD -1
REMARK  0 active torsions:
REMARK  status: ('A' for Active; 'I' for Inactive)
ROOT
ATOM      1  C1  BNZ d   1       0.736   1.041  -1.451  0.00  0.00     0.000 A 
ATOM      2  C2  BNZ d   1       0.136  -0.126  -1.057  0.00  0.00     0.000 A 
ATOM      3  C3  BNZ d   1       0.032  -0.447   0.267  0.00  0.00     0.000 A 
ATOM      4  C4  BNZ d   1       0.563   0.378   1.193  0.00  0.00     0.000 A 
ATOM      5  C5  BNZ d   1       1.179   1.553   0.811  0.00  0.00     0.000 A 
ATOM      6  C6  BNZ d   1       1.247   1.892  -0.521  0.00  0.00     0.000 A 
ENDROOT
TORSDOF 0
ENDMDL
