MODEL 1
REMARK minimizedAffinity -4.82505131
REMARK minimizedRMSD -1
REMARK  0 active torsions:
REMARK  status: ('A' for Active; 'I' for Inactive)
ROOT
ATOM      1  C1  BNZ d   1       0.507  -1.877  -2.310  0.00  0.00     0.000 A 
ATOM      2  C2  BNZ d   1       0.364  -0.624  -1.777  0.00  0.00     0.000 A 
ATOM      3  C3  BNZ d   1       0.223  -0.449  -0.429  0.00  0.00     0.000 A 
ATOM      4  C4  BNZ d   1       0.184  -1.528   0.379  0.00  0.00     0.000 A 
ATOM      5  C5  BNZ d   1       0.318  -2.799  -0.144  0.00  0.00     0.000 A 
ATOM      6  C6  BNZ d   1       0.499  -2.969  -1.498  0.00  0.00     0.000 A 
ENDROOT
TORSDOF 0
ENDMDL
