MODEL 1
REMARK minimizedAffinity -3.51847744
REMARK minimizedRMSD -1
REMARK  0 active torsions:
REMARK  status: ('A' for Active; 'I' for Inactive)
ROOT
ATOM      1  C1  BNZ d   1      -1.200  -0.437   0.796  0.00  0.00     0.000 A 
ATOM      2  C2  BNZ d   1      -0.632  -1.669   0.980  0.00  0.00     0.000 A 
ATOM      3  C3  BNZ d   1       0.521  -2.013   0.332  0.00  0.00     0.000 A 
ATOM      4  C4  BNZ d   1       1.082  -1.141  -0.530  0.00  0.00     0.000 A 
ATOM      5  C5  BNZ d   1       0.517   0.102  -0.734  0.00  0.00     0.000 A 
ATOM      6  C6  BNZ d   1      -0.622   0.460  -0.050  0.00  0.00     0.000 A 
ENDROOT
TORSDOF 0
ENDMDL
