MODEL 1
REMARK minimizedAffinity -2.72773242
REMARK minimizedRMSD -1
REMARK  0 active torsions:
REMARK  status: ('A' for Active; 'I' for Inactive)
ROOT
ATOM      1  C1  BNZ d   1      -0.953  -0.158   0.825  0.00  0.00     0.000 A 
ATOM      2  C2  BNZ d   1      -1.516  -1.392   0.635  0.00  0.00     0.000 A 
ATOM      3  C3  BNZ d   1      -0.753  -2.525   0.685  0.00  0.00     0.000 A 
ATOM      4  C4  BNZ d   1       0.576  -2.420   0.883  0.00  0.00     0.000 A 
ATOM      5  C5  BNZ d   1       1.161  -1.183   1.067  0.00  0.00     0.000 A 
ATOM      6  C6  BNZ d   1       0.384  -0.048   1.055  0.00  0.00     0.000 A 
ENDROOT
TORSDOF 0
ENDMDL
