MODEL 1
REMARK minimizedAffinity -2.88419414
REMARK minimizedRMSD -1
REMARK  0 active torsions:
REMARK  status: ('A' for Active; 'I' for Inactive)
ROOT
ATOM      1  C1  BNZ d   1       1.561   4.255   0.935  0.00  0.00     0.000 A 
ATOM      2  C2  BNZ d   1       1.298   5.513   1.407  0.00  0.00     0.000 A 
ATOM      3  C3  BNZ d   1       0.048   5.849   1.844  0.00  0.00     0.000 A 
ATOM      4  C4  BNZ d   1      -0.946   4.940   1.772  0.00  0.00     0.000 A 
ATOM      5  C5  BNZ d   1      -0.699   3.670   1.290  0.00  0.00     0.000 A 
ATOM      6  C6  BNZ d   1       0.570   3.324   0.887  0.00  0.00     0.000 A 
ENDROOT
TORSDOF 0
ENDMDL
