MODEL 1
REMARK minimizedAffinity -2.14989567
REMARK minimizedRMSD -1
REMARK  0 active torsions:
REMARK  status: ('A' for Active; 'I' for Inactive)
ROOT
ATOM      1  C   UNL d   1       0.356   0.751  -0.561  0.00  0.00     0.172 C 
ATOM      2  N   UNL d   1       0.013  -0.453   0.159  0.00  0.00    -0.070 N 
ATOM      3  C1  UNL d   1      -1.027  -0.587   1.041  0.00  0.00    -0.004 A 
ATOM      4  C2  UNL d   1      -1.017  -1.882   1.511  0.00  0.00    -0.047 A 
ATOM      5  C3  UNL d   1       0.067  -2.549   0.891  0.00  0.00    -0.047 A 
ATOM      6  C4  UNL d   1       0.687  -1.641   0.060  0.00  0.00    -0.004 A 
ENDROOT
TORSDOF 0
ENDMDL
