MODEL 1
REMARK minimizedAffinity -3.95258451
REMARK minimizedRMSD -1
REMARK  0 active torsions:
REMARK  status: ('A' for Active; 'I' for Inactive)
ROOT
ATOM      1  C   UNL d   1       0.382   0.346   0.213  0.00  0.00     0.172 C 
ATOM      2  N   UNL d   1      -0.785  -0.321   0.742  0.00  0.00    -0.070 N 
ATOM      3  C1  UNL d   1      -1.813   0.282   1.415  0.00  0.00    -0.004 A 
ATOM      4  C2  UNL d   1      -2.728  -0.693   1.750  0.00  0.00    -0.047 A 
ATOM      5  C3  UNL d   1      -2.231  -1.925   1.263  0.00  0.00    -0.047 A 
ATOM      6  C4  UNL d   1      -1.027  -1.666   0.643  0.00  0.00    -0.004 A 
ENDROOT
TORSDOF 0
ENDMDL
