MODEL 1
REMARK minimizedAffinity -3.78333402
REMARK minimizedRMSD -1
REMARK  0 active torsions:
REMARK  status: ('A' for Active; 'I' for Inactive)
ROOT
ATOM      1  C   UNL d   1      -0.235  -2.189   1.473  0.00  0.00     0.172 C 
ATOM      2  N   UNL d   1      -1.383  -1.332   1.295  0.00  0.00    -0.070 N 
ATOM      3  C1  UNL d   1      -1.461  -0.015   1.664  0.00  0.00    -0.004 A 
ATOM      4  C2  UNL d   1      -2.715   0.445   1.325  0.00  0.00    -0.047 A 
ATOM      5  C3  UNL d   1      -3.416  -0.633   0.734  0.00  0.00    -0.047 A 
ATOM      6  C4  UNL d   1      -2.568  -1.720   0.728  0.00  0.00    -0.004 A 
ENDROOT
TORSDOF 0
ENDMDL
