MODEL 1
REMARK minimizedAffinity -3.27530503
REMARK minimizedRMSD -1
REMARK  0 active torsions:
REMARK  status: ('A' for Active; 'I' for Inactive)
ROOT
ATOM      1  C   UNL d   1       0.800   1.501  -0.207  0.00  0.00     0.172 C 
ATOM      2  N   UNL d   1       0.224   0.195   0.013  0.00  0.00    -0.070 N 
ATOM      3  C1  UNL d   1       0.926  -0.956   0.251  0.00  0.00    -0.004 A 
ATOM      4  C2  UNL d   1       0.016  -1.980   0.407  0.00  0.00    -0.047 A 
ATOM      5  C3  UNL d   1      -1.277  -1.424   0.258  0.00  0.00    -0.047 A 
ATOM      6  C4  UNL d   1      -1.119  -0.076   0.014  0.00  0.00    -0.004 A 
ENDROOT
TORSDOF 0
ENDMDL
