MODEL 1
REMARK minimizedAffinity -2.98566961
REMARK minimizedRMSD -1
REMARK  0 active torsions:
REMARK  status: ('A' for Active; 'I' for Inactive)
ROOT
ATOM      1  C   UNL d   1      -1.255  -2.195   0.880  0.00  0.00     0.172 C 
ATOM      2  N   UNL d   1      -0.541  -1.041   0.387  0.00  0.00    -0.070 N 
ATOM      3  C1  UNL d   1      -1.100   0.170   0.075  0.00  0.00    -0.004 A 
ATOM      4  C2  UNL d   1      -0.090   1.002  -0.358  0.00  0.00    -0.047 A 
ATOM      5  C3  UNL d   1       1.117   0.266  -0.305  0.00  0.00    -0.047 A 
ATOM      6  C4  UNL d   1       0.809  -0.996   0.160  0.00  0.00    -0.004 A 
ENDROOT
TORSDOF 0
ENDMDL
