MODEL 1
REMARK minimizedAffinity -3.69344592
REMARK minimizedRMSD -1
REMARK  0 active torsions:
REMARK  status: ('A' for Active; 'I' for Inactive)
ROOT
ATOM      1  C   UNL d   1       0.693   0.592  -0.055  0.00  0.00     0.172 C 
ATOM      2  N   UNL d   1      -0.005  -0.564   0.457  0.00  0.00    -0.070 N 
ATOM      3  C1  UNL d   1       0.578  -1.732   0.869  0.00  0.00    -0.004 A 
ATOM      4  C2  UNL d   1      -0.424  -2.580   1.287  0.00  0.00    -0.047 A 
ATOM      5  C3  UNL d   1      -1.653  -1.899   1.119  0.00  0.00    -0.047 A 
ATOM      6  C4  UNL d   1      -1.365  -0.652   0.604  0.00  0.00    -0.004 A 
ENDROOT
TORSDOF 0
ENDMDL
