MODEL 1
REMARK minimizedAffinity -2.18685961
REMARK minimizedRMSD -1
REMARK  0 active torsions:
REMARK  status: ('A' for Active; 'I' for Inactive)
ROOT
ATOM      1  C   UNL d   1       0.183   1.645  -0.619  0.00  0.00     0.172 C 
ATOM      2  N   UNL d   1       0.787   1.859  -1.913  0.00  0.00    -0.070 N 
ATOM      3  C1  UNL d   1       0.116   2.167  -3.066  0.00  0.00    -0.004 A 
ATOM      4  C2  UNL d   1       1.046   2.289  -4.076  0.00  0.00    -0.047 A 
ATOM      5  C3  UNL d   1       2.320   2.045  -3.510  0.00  0.00    -0.047 A 
ATOM      6  C4  UNL d   1       2.130   1.780  -2.170  0.00  0.00    -0.004 A 
ENDROOT
TORSDOF 0
ENDMDL
