MODEL 1
REMARK minimizedAffinity -2.78194237
REMARK minimizedRMSD -1
REMARK  0 active torsions:
REMARK  status: ('A' for Active; 'I' for Inactive)
ROOT
ATOM      1  C   UNL d   1      -5.060  -3.044  -4.963  0.00  0.00     0.172 C 
ATOM      2  N   UNL d   1      -3.896  -3.898  -4.926  0.00  0.00    -0.070 N 
ATOM      3  C1  UNL d   1      -3.051  -4.050  -3.859  0.00  0.00    -0.004 A 
ATOM      4  C2  UNL d   1      -2.070  -4.947  -4.223  0.00  0.00    -0.047 A 
ATOM      5  C3  UNL d   1      -2.334  -5.347  -5.555  0.00  0.00    -0.047 A 
ATOM      6  C4  UNL d   1      -3.470  -4.682  -5.966  0.00  0.00    -0.004 A 
ENDROOT
TORSDOF 0
ENDMDL
