MODEL 1
REMARK minimizedAffinity -3.41483498
REMARK minimizedRMSD -1
REMARK  0 active torsions:
REMARK  status: ('A' for Active; 'I' for Inactive)
ROOT
ATOM      1  C   UNL d   1       1.519  -1.335   0.091  0.00  0.00     0.172 C 
ATOM      2  N   UNL d   1       0.132  -1.443   0.478  0.00  0.00    -0.070 N 
ATOM      3  C1  UNL d   1      -0.429  -2.497   1.149  0.00  0.00    -0.004 A 
ATOM      4  C2  UNL d   1      -1.767  -2.218   1.327  0.00  0.00    -0.047 A 
ATOM      5  C3  UNL d   1      -2.019  -0.955   0.742  0.00  0.00    -0.047 A 
ATOM      6  C4  UNL d   1      -0.825  -0.498   0.223  0.00  0.00    -0.004 A 
ENDROOT
TORSDOF 0
ENDMDL
