MODEL 1
REMARK minimizedAffinity -3.83349395
REMARK minimizedRMSD -1
REMARK  0 active torsions:
REMARK  status: ('A' for Active; 'I' for Inactive)
ROOT
ATOM      1  C   UNL d   1       0.015   1.091   0.020  0.00  0.00     0.172 C 
ATOM      2  N   UNL d   1      -0.559  -0.147   0.493  0.00  0.00    -0.070 N 
ATOM      3  C1  UNL d   1      -1.864  -0.331   0.865  0.00  0.00    -0.004 A 
ATOM      4  C2  UNL d   1      -2.010  -1.646   1.252  0.00  0.00    -0.047 A 
ATOM      5  C3  UNL d   1      -0.750  -2.273   1.109  0.00  0.00    -0.047 A 
ATOM      6  C4  UNL d   1       0.130  -1.322   0.637  0.00  0.00    -0.004 A 
ENDROOT
TORSDOF 0
ENDMDL
