MODEL 1
REMARK minimizedAffinity -2.54822588
REMARK minimizedRMSD -1
REMARK  0 active torsions:
REMARK  status: ('A' for Active; 'I' for Inactive)
ROOT
ATOM      1  C   UNL d   1       4.469   1.774  -3.742  0.00  0.00     0.172 C 
ATOM      2  N   UNL d   1       3.165   1.935  -3.143  0.00  0.00    -0.070 N 
ATOM      3  C1  UNL d   1       1.977   1.994  -3.822  0.00  0.00    -0.004 A 
ATOM      4  C2  UNL d   1       0.969   2.152  -2.895  0.00  0.00    -0.047 A 
ATOM      5  C3  UNL d   1       1.572   2.189  -1.615  0.00  0.00    -0.047 A 
ATOM      6  C4  UNL d   1       2.932   2.052  -1.798  0.00  0.00    -0.004 A 
ENDROOT
TORSDOF 0
ENDMDL
