MODEL 1
REMARK minimizedAffinity -2.10671663
REMARK minimizedRMSD -1
REMARK  0 active torsions:
REMARK  status: ('A' for Active; 'I' for Inactive)
ROOT
ATOM      1  C   UNL d   1       1.102   2.224  -3.024  0.00  0.00     0.172 C 
ATOM      2  N   UNL d   1       0.799   1.251  -2.001  0.00  0.00    -0.070 N 
ATOM      3  C1  UNL d   1       0.901   1.454  -0.651  0.00  0.00    -0.004 A 
ATOM      4  C2  UNL d   1       0.523   0.289  -0.019  0.00  0.00    -0.047 A 
ATOM      5  C3  UNL d   1       0.184  -0.647  -1.024  0.00  0.00    -0.047 A 
ATOM      6  C4  UNL d   1       0.363  -0.026  -2.242  0.00  0.00    -0.004 A 
ENDROOT
TORSDOF 0
ENDMDL
