MODEL 1
REMARK minimizedAffinity -2.7721715
REMARK minimizedRMSD -1
REMARK  0 active torsions:
REMARK  status: ('A' for Active; 'I' for Inactive)
ROOT
ATOM      1  C   UNL d   1      -1.887   0.735   1.585  0.00  0.00     0.172 C 
ATOM      2  N   UNL d   1      -0.950  -0.279   1.161  0.00  0.00    -0.070 N 
ATOM      3  C1  UNL d   1      -0.975  -1.596   1.535  0.00  0.00    -0.004 A 
ATOM      4  C2  UNL d   1       0.081  -2.231   0.918  0.00  0.00    -0.047 A 
ATOM      5  C3  UNL d   1       0.765  -1.261   0.147  0.00  0.00    -0.047 A 
ATOM      6  C4  UNL d   1       0.106  -0.062   0.315  0.00  0.00    -0.004 A 
ENDROOT
TORSDOF 0
ENDMDL
