MODEL 1
REMARK minimizedAffinity -3.98939753
REMARK minimizedRMSD -1
REMARK  0 active torsions:
REMARK  status: ('A' for Active; 'I' for Inactive)
ROOT
ATOM      1  C   UNL d   1       0.826  -0.878   0.323  0.00  0.00     0.172 C 
ATOM      2  N   UNL d   1      -0.396  -1.335   0.943  0.00  0.00    -0.070 N 
ATOM      3  C1  UNL d   1      -0.599  -2.574   1.488  0.00  0.00    -0.004 A 
ATOM      4  C2  UNL d   1      -1.888  -2.615   1.975  0.00  0.00    -0.047 A 
ATOM      5  C3  UNL d   1      -2.480  -1.356   1.712  0.00  0.00    -0.047 A 
ATOM      6  C4  UNL d   1      -1.534  -0.583   1.073  0.00  0.00    -0.004 A 
ENDROOT
TORSDOF 0
ENDMDL
