MODEL 1
REMARK minimizedAffinity -4.02482033
REMARK minimizedRMSD -1
REMARK  0 active torsions:
REMARK  status: ('A' for Active; 'I' for Inactive)
ROOT
ATOM      1  C   UNL d   1      -0.072  -0.155   0.059  0.00  0.00     0.172 C 
ATOM      2  N   UNL d   1      -1.069  -0.889   0.803  0.00  0.00    -0.070 N 
ATOM      3  C1  UNL d   1      -2.283  -0.401   1.207  0.00  0.00    -0.004 A 
ATOM      4  C2  UNL d   1      -2.938  -1.407   1.885  0.00  0.00    -0.047 A 
ATOM      5  C3  UNL d   1      -2.087  -2.537   1.890  0.00  0.00    -0.047 A 
ATOM      6  C4  UNL d   1      -0.937  -2.189   1.213  0.00  0.00    -0.004 A 
ENDROOT
TORSDOF 0
ENDMDL
