MODEL 1
REMARK minimizedAffinity -3.39099598
REMARK minimizedRMSD -1
REMARK  0 active torsions:
REMARK  status: ('A' for Active; 'I' for Inactive)
ROOT
ATOM      1  C   UNL d   1      -1.148  -2.871   0.466  0.00  0.00     0.172 C 
ATOM      2  N   UNL d   1      -1.843  -1.712   0.974  0.00  0.00    -0.070 N 
ATOM      3  C1  UNL d   1      -1.695  -0.429   0.519  0.00  0.00    -0.004 A 
ATOM      4  C2  UNL d   1      -2.529   0.381   1.259  0.00  0.00    -0.047 A 
ATOM      5  C3  UNL d   1      -3.201  -0.444   2.192  0.00  0.00    -0.047 A 
ATOM      6  C4  UNL d   1      -2.758  -1.734   1.994  0.00  0.00    -0.004 A 
ENDROOT
TORSDOF 0
ENDMDL
