MODEL 1
REMARK minimizedAffinity -3.64471102
REMARK minimizedRMSD -1
REMARK  0 active torsions:
REMARK  status: ('A' for Active; 'I' for Inactive)
ROOT
ATOM      1  C   UNL d   1       0.242   0.807  -0.651  0.00  0.00     0.172 C 
ATOM      2  N   UNL d   1      -0.346  -0.394  -0.107  0.00  0.00    -0.070 N 
ATOM      3  C1  UNL d   1      -1.681  -0.594   0.128  0.00  0.00    -0.004 A 
ATOM      4  C2  UNL d   1      -1.833  -1.862   0.646  0.00  0.00    -0.047 A 
ATOM      5  C3  UNL d   1      -0.545  -2.444   0.725  0.00  0.00    -0.047 A 
ATOM      6  C4  UNL d   1       0.356  -1.514   0.253  0.00  0.00    -0.004 A 
ENDROOT
TORSDOF 0
ENDMDL
