MODEL 1
REMARK minimizedAffinity 2.64724755
REMARK minimizedRMSD -1
REMARK  0 active torsions:
REMARK  status: ('A' for Active; 'I' for Inactive)
ROOT
ATOM      1  C   UNL d   1       2.052   4.496  -5.899  0.00  0.00     0.020 A 
ATOM      2  C1  UNL d   1       1.517   3.427  -5.180  0.00  0.00     0.020 A 
ATOM      3  C2  UNL d   1       2.366   2.512  -4.554  0.00  0.00     0.034 A 
ATOM      4  C3  UNL d   1       3.754   2.663  -4.646  0.00  0.00     0.017 A 
ATOM      5  C4  UNL d   1       4.290   3.735  -5.368  0.00  0.00     0.017 A 
ATOM      6  C5  UNL d   1       3.436   4.649  -5.993  0.00  0.00     0.034 A 
ATOM      7 Cl   UNL d   1       5.993   3.987  -5.527  0.00  0.00    -0.070 Cl
ATOM      8 Cl1  UNL d   1       4.744   1.493  -3.848  0.00  0.00    -0.070 Cl
ENDROOT
TORSDOF 0
ENDMDL
