MODEL 1
REMARK minimizedAffinity 1.01057303
REMARK minimizedRMSD -1
REMARK  0 active torsions:
REMARK  status: ('A' for Active; 'I' for Inactive)
ROOT
ATOM      1  C   UNL d   1       2.601   5.612  -5.789  0.00  0.00     0.020 A 
ATOM      2  C1  UNL d   1       1.677   4.693  -5.293  0.00  0.00     0.020 A 
ATOM      3  C2  UNL d   1       2.077   3.386  -5.007  0.00  0.00     0.034 A 
ATOM      4  C3  UNL d   1       3.404   2.994  -5.217  0.00  0.00     0.017 A 
ATOM      5  C4  UNL d   1       4.331   3.917  -5.715  0.00  0.00     0.017 A 
ATOM      6  C5  UNL d   1       3.925   5.225  -5.999  0.00  0.00     0.034 A 
ATOM      7 Cl   UNL d   1       5.986   3.508  -6.000  0.00  0.00    -0.070 Cl
ATOM      8 Cl1  UNL d   1       3.830   1.362  -4.841  0.00  0.00    -0.070 Cl
ENDROOT
TORSDOF 0
ENDMDL
