MODEL 1
REMARK minimizedAffinity 1.75274527
REMARK minimizedRMSD -1
REMARK  0 active torsions:
REMARK  status: ('A' for Active; 'I' for Inactive)
ROOT
ATOM      1  C   UNL d   1       3.768   1.130  -5.257  0.00  0.00     0.020 A 
ATOM      2  C1  UNL d   1       4.981   1.578  -5.778  0.00  0.00     0.020 A 
ATOM      3  C2  UNL d   1       5.184   2.942  -6.000  0.00  0.00     0.034 A 
ATOM      4  C3  UNL d   1       4.173   3.862  -5.700  0.00  0.00     0.017 A 
ATOM      5  C4  UNL d   1       2.956   3.410  -5.178  0.00  0.00     0.017 A 
ATOM      6  C5  UNL d   1       2.758   2.044  -4.958  0.00  0.00     0.034 A 
ATOM      7 Cl   UNL d   1       1.661   4.485  -4.783  0.00  0.00    -0.070 Cl
ATOM      8 Cl1  UNL d   1       4.493   5.533  -6.000  0.00  0.00    -0.070 Cl
ENDROOT
TORSDOF 0
ENDMDL
