MODEL 1
REMARK minimizedAffinity -0.704328835
REMARK minimizedRMSD -1
REMARK  0 active torsions:
REMARK  status: ('A' for Active; 'I' for Inactive)
ROOT
ATOM      1  C   UNL d   1       6.000   4.442  -5.995  0.00  0.00     0.020 A 
ATOM      2  C1  UNL d   1       5.237   5.609  -6.000  0.00  0.00     0.020 A 
ATOM      3  C2  UNL d   1       3.847   5.534  -5.886  0.00  0.00     0.034 A 
ATOM      4  C3  UNL d   1       3.216   4.291  -5.766  0.00  0.00     0.017 A 
ATOM      5  C4  UNL d   1       3.983   3.120  -5.761  0.00  0.00     0.017 A 
ATOM      6  C5  UNL d   1       5.374   3.200  -5.876  0.00  0.00     0.034 A 
ATOM      7 Cl   UNL d   1       3.276   1.549  -5.617  0.00  0.00    -0.070 Cl
ATOM      8 Cl1  UNL d   1       1.494   4.274  -5.629  0.00  0.00    -0.070 Cl
ENDROOT
TORSDOF 0
ENDMDL
