MODEL 1
REMARK minimizedAffinity -4.01054573
REMARK minimizedRMSD -1
REMARK  0 active torsions:
REMARK  status: ('A' for Active; 'I' for Inactive)
ROOT
ATOM      1  C   UNL d   1       1.041   4.517  -4.937  0.00  0.00     0.020 A 
ATOM      2  C1  UNL d   1       1.603   5.551  -5.684  0.00  0.00     0.020 A 
ATOM      3  C2  UNL d   1       2.963   5.524  -6.000  0.00  0.00     0.034 A 
ATOM      4  C3  UNL d   1       3.765   4.461  -5.569  0.00  0.00     0.017 A 
ATOM      5  C4  UNL d   1       3.199   3.424  -4.819  0.00  0.00     0.017 A 
ATOM      6  C5  UNL d   1       1.837   3.456  -4.506  0.00  0.00     0.034 A 
ATOM      7 Cl   UNL d   1       4.125   2.078  -4.253  0.00  0.00    -0.070 Cl
ATOM      8 Cl1  UNL d   1       5.439   4.493  -5.996  0.00  0.00    -0.070 Cl
ENDROOT
TORSDOF 0
ENDMDL
