MODEL 1
REMARK minimizedAffinity -1.36946785
REMARK minimizedRMSD -1
REMARK  0 active torsions:
REMARK  status: ('A' for Active; 'I' for Inactive)
ROOT
ATOM      1  C   UNL d   1       4.823   5.198  -6.000  0.00  0.00     0.020 A 
ATOM      2  C1  UNL d   1       5.634   4.112  -5.672  0.00  0.00     0.020 A 
ATOM      3  C2  UNL d   1       5.056   2.884  -5.344  0.00  0.00     0.034 A 
ATOM      4  C3  UNL d   1       3.664   2.738  -5.343  0.00  0.00     0.017 A 
ATOM      5  C4  UNL d   1       2.851   3.829  -5.672  0.00  0.00     0.017 A 
ATOM      6  C5  UNL d   1       3.435   5.057  -6.000  0.00  0.00     0.034 A 
ATOM      7 Cl   UNL d   1       1.126   3.727  -5.692  0.00  0.00    -0.070 Cl
ATOM      8 Cl1  UNL d   1       3.018   1.191  -4.927  0.00  0.00    -0.070 Cl
ENDROOT
TORSDOF 0
ENDMDL
