MODEL 1
REMARK minimizedAffinity 7.24908495
REMARK minimizedRMSD -1
REMARK  0 active torsions:
REMARK  status: ('A' for Active; 'I' for Inactive)
ROOT
ATOM      1  C   UNL d   1       3.244   1.860  -5.633  0.00  0.00     0.020 A 
ATOM      2  C1  UNL d   1       4.123   2.508  -4.765  0.00  0.00     0.020 A 
ATOM      3  C2  UNL d   1       3.804   3.772  -4.264  0.00  0.00     0.034 A 
ATOM      4  C3  UNL d   1       2.604   4.392  -4.630  0.00  0.00     0.017 A 
ATOM      5  C4  UNL d   1       1.723   3.741  -5.500  0.00  0.00     0.017 A 
ATOM      6  C5  UNL d   1       2.047   2.475  -5.999  0.00  0.00     0.034 A 
ATOM      7 Cl   UNL d   1       0.223   4.442  -5.997  0.00  0.00    -0.070 Cl
ATOM      8 Cl1  UNL d   1       2.274   5.955  -3.971  0.00  0.00    -0.070 Cl
ENDROOT
TORSDOF 0
ENDMDL
