MODEL 1
REMARK minimizedAffinity -2.50894785
REMARK minimizedRMSD -1
REMARK  0 active torsions:
REMARK  status: ('A' for Active; 'I' for Inactive)
ROOT
ATOM      1  C   UNL d   1       1.875   5.661  -5.807  0.00  0.00     0.020 A 
ATOM      2  C1  UNL d   1       1.209   4.524  -5.350  0.00  0.00     0.020 A 
ATOM      3  C2  UNL d   1       1.925   3.355  -5.086  0.00  0.00     0.034 A 
ATOM      4  C3  UNL d   1       3.311   3.319  -5.279  0.00  0.00     0.017 A 
ATOM      5  C4  UNL d   1       3.978   4.460  -5.737  0.00  0.00     0.017 A 
ATOM      6  C5  UNL d   1       3.256   5.629  -6.000  0.00  0.00     0.034 A 
ATOM      7 Cl   UNL d   1       5.686   4.493  -5.999  0.00  0.00    -0.070 Cl
ATOM      8 Cl1  UNL d   1       4.132   1.839  -4.932  0.00  0.00    -0.070 Cl
ENDROOT
TORSDOF 0
ENDMDL
