MODEL 1
REMARK minimizedAffinity 1.38802958
REMARK minimizedRMSD -1
REMARK  0 active torsions:
REMARK  status: ('A' for Active; 'I' for Inactive)
ROOT
ATOM      1  C   UNL d   1       4.646   2.029  -5.888  0.00  0.00     0.020 A 
ATOM      2  C1  UNL d   1       3.359   1.557  -5.632  0.00  0.00     0.020 A 
ATOM      3  C2  UNL d   1       2.302   2.457  -5.485  0.00  0.00     0.034 A 
ATOM      4  C3  UNL d   1       2.529   3.833  -5.594  0.00  0.00     0.017 A 
ATOM      5  C4  UNL d   1       3.821   4.306  -5.851  0.00  0.00     0.017 A 
ATOM      6  C5  UNL d   1       4.876   3.401  -5.997  0.00  0.00     0.034 A 
ATOM      7 Cl   UNL d   1       4.179   5.991  -5.999  0.00  0.00    -0.070 Cl
ATOM      8 Cl1  UNL d   1       1.174   4.889  -5.402  0.00  0.00    -0.070 Cl
ENDROOT
TORSDOF 0
ENDMDL
