MODEL 1
REMARK minimizedAffinity 1.11075592
REMARK minimizedRMSD -1
REMARK  0 active torsions:
REMARK  status: ('A' for Active; 'I' for Inactive)
ROOT
ATOM      1  C   UNL d   1       5.001   5.999  -5.913  0.00  0.00     0.020 A 
ATOM      2  C1  UNL d   1       5.797   4.856  -5.976  0.00  0.00     0.020 A 
ATOM      3  C2  UNL d   1       5.203   3.593  -6.000  0.00  0.00     0.034 A 
ATOM      4  C3  UNL d   1       3.809   3.469  -5.961  0.00  0.00     0.017 A 
ATOM      5  C4  UNL d   1       3.011   4.618  -5.898  0.00  0.00     0.017 A 
ATOM      6  C5  UNL d   1       3.612   5.880  -5.874  0.00  0.00     0.034 A 
ATOM      7 Cl   UNL d   1       1.285   4.546  -5.847  0.00  0.00    -0.070 Cl
ATOM      8 Cl1  UNL d   1       3.142   1.876  -5.995  0.00  0.00    -0.070 Cl
ENDROOT
TORSDOF 0
ENDMDL
