MODEL 1
REMARK minimizedAffinity -3.22195792
REMARK minimizedRMSD -1
REMARK  0 active torsions:
REMARK  status: ('A' for Active; 'I' for Inactive)
ROOT
ATOM      1  C   UNL d   1       1.991   5.332  -5.776  0.00  0.00     0.020 A 
ATOM      2  C1  UNL d   1       1.650   3.990  -5.934  0.00  0.00     0.020 A 
ATOM      3  C2  UNL d   1       2.651   3.018  -6.000  0.00  0.00     0.034 A 
ATOM      4  C3  UNL d   1       3.998   3.389  -5.909  0.00  0.00     0.017 A 
ATOM      5  C4  UNL d   1       4.339   4.737  -5.750  0.00  0.00     0.017 A 
ATOM      6  C5  UNL d   1       3.332   5.705  -5.684  0.00  0.00     0.034 A 
ATOM      7 Cl   UNL d   1       5.978   5.270  -5.630  0.00  0.00    -0.070 Cl
ATOM      8 Cl1  UNL d   1       5.184   2.135  -5.998  0.00  0.00    -0.070 Cl
ENDROOT
TORSDOF 0
ENDMDL
