MODEL 1
REMARK minimizedAffinity 10.8227186
REMARK minimizedRMSD -1
REMARK  0 active torsions:
REMARK  status: ('A' for Active; 'I' for Inactive)
ROOT
ATOM      1  C   UNL d   1       0.253   4.316  -5.869  0.00  0.00     0.020 A 
ATOM      2  C1  UNL d   1       0.645   5.654  -5.847  0.00  0.00     0.020 A 
ATOM      3  C2  UNL d   1       2.002   5.985  -5.872  0.00  0.00     0.034 A 
ATOM      4  C3  UNL d   1       2.971   4.977  -5.919  0.00  0.00     0.017 A 
ATOM      5  C4  UNL d   1       2.577   3.634  -5.940  0.00  0.00     0.017 A 
ATOM      6  C5  UNL d   1       1.217   3.309  -5.915  0.00  0.00     0.034 A 
ATOM      7 Cl   UNL d   1       3.715   2.335  -5.998  0.00  0.00    -0.070 Cl
ATOM      8 Cl1  UNL d   1       4.630   5.458  -5.948  0.00  0.00    -0.070 Cl
ENDROOT
TORSDOF 0
ENDMDL
