MODEL 1
REMARK minimizedAffinity 0.586436212
REMARK minimizedRMSD -1
REMARK  0 active torsions:
REMARK  status: ('A' for Active; 'I' for Inactive)
ROOT
ATOM      1  C   UNL d   1       3.400   5.998  -5.969  0.00  0.00     0.020 A 
ATOM      2  C1  UNL d   1       4.659   5.398  -5.949  0.00  0.00     0.020 A 
ATOM      3  C2  UNL d   1       4.769   4.006  -5.924  0.00  0.00     0.034 A 
ATOM      4  C3  UNL d   1       3.619   3.209  -5.921  0.00  0.00     0.017 A 
ATOM      5  C4  UNL d   1       2.356   3.812  -5.941  0.00  0.00     0.017 A 
ATOM      6  C5  UNL d   1       2.251   5.206  -5.966  0.00  0.00     0.034 A 
ATOM      7 Cl   UNL d   1       0.891   2.895  -5.938  0.00  0.00    -0.070 Cl
ATOM      8 Cl1  UNL d   1       3.829   1.495  -5.891  0.00  0.00    -0.070 Cl
ENDROOT
TORSDOF 0
ENDMDL
