MODEL 1
REMARK minimizedAffinity -1.35568631
REMARK minimizedRMSD -1
REMARK  0 active torsions:
REMARK  status: ('A' for Active; 'I' for Inactive)
ROOT
ATOM      1  C   UNL d   1       4.983   6.000  -6.000  0.00  0.00     0.020 A 
ATOM      2  C1  UNL d   1       5.891   4.942  -6.000  0.00  0.00     0.020 A 
ATOM      3  C2  UNL d   1       5.428   3.624  -5.999  0.00  0.00     0.034 A 
ATOM      4  C3  UNL d   1       4.053   3.361  -5.999  0.00  0.00     0.017 A 
ATOM      5  C4  UNL d   1       3.142   4.424  -5.999  0.00  0.00     0.017 A 
ATOM      6  C5  UNL d   1       3.611   5.741  -6.000  0.00  0.00     0.034 A 
ATOM      7 Cl   UNL d   1       1.431   4.178  -5.999  0.00  0.00    -0.070 Cl
ATOM      8 Cl1  UNL d   1       3.551   1.708  -5.999  0.00  0.00    -0.070 Cl
ENDROOT
TORSDOF 0
ENDMDL
