MODEL 1
REMARK minimizedAffinity -2.27962327
REMARK minimizedRMSD -1
REMARK  1 active torsions:
REMARK  status: ('A' for Active; 'I' for Inactive)
REMARK    1  A    between atoms: C1_2  and  C2_3 
ROOT
ATOM      1  C2  UNL d   1       1.131   0.059   0.076  0.00  0.00    -0.073 A 
ATOM      2  C3  UNL d   1       1.610  -0.973   0.892  0.00  0.00    -0.002 A 
ATOM      3  C4  UNL d   1       0.722  -1.860   1.500  0.00  0.00     0.004 A 
ATOM      4  C5  UNL d   1      -0.652  -1.730   1.295  0.00  0.00    -0.004 A 
ATOM      5  C6  UNL d   1      -1.149  -0.712   0.474  0.00  0.00    -0.075 A 
ATOM      6  C7  UNL d   1      -2.624  -0.557   0.245  0.00  0.00     0.076 C 
ATOM      7  C8  UNL d   1      -0.250   0.177  -0.131  0.00  0.00     0.001 A 
ENDROOT
BRANCH   1   8
ATOM      8  C1  UNL d   1       2.087   1.016  -0.588  0.00  0.00     0.053 C 
ATOM      9  C   UNL d   1       2.348   2.246   0.265  0.00  0.00     0.018 C 
ENDBRANCH   1   8
TORSDOF 1
ENDMDL
