MODEL 1
REMARK minimizedAffinity -4.14077759
REMARK minimizedRMSD -1
REMARK  1 active torsions:
REMARK  status: ('A' for Active; 'I' for Inactive)
REMARK    1  A    between atoms: C1_2  and  C2_3 
ROOT
ATOM      1  C2  UNL d   1       2.663   1.279   0.071  0.00  0.00    -0.073 A 
ATOM      2  C3  UNL d   1       2.234   1.589   1.366  0.00  0.00    -0.002 A 
ATOM      3  C4  UNL d   1       2.478   2.852   1.906  0.00  0.00     0.004 A 
ATOM      4  C5  UNL d   1       3.146   3.820   1.155  0.00  0.00    -0.004 A 
ATOM      5  C6  UNL d   1       3.572   3.532  -0.146  0.00  0.00    -0.075 A 
ATOM      6  C7  UNL d   1       4.294   4.561  -0.966  0.00  0.00     0.076 C 
ATOM      7  C8  UNL d   1       3.326   2.260  -0.680  0.00  0.00     0.001 A 
ENDROOT
BRANCH   1   8
ATOM      8  C1  UNL d   1       2.397  -0.082  -0.519  0.00  0.00     0.053 C 
ATOM      9  C   UNL d   1       3.330  -0.394  -1.678  0.00  0.00     0.018 C 
ENDBRANCH   1   8
TORSDOF 1
ENDMDL
