MODEL 1
REMARK minimizedAffinity -4.93987751
REMARK minimizedRMSD -1
REMARK  1 active torsions:
REMARK  status: ('A' for Active; 'I' for Inactive)
REMARK    1  A    between atoms: C1_2  and  C2_3 
ROOT
ATOM      1  C2  UNL d   1       3.310   1.331   3.096  0.00  0.00    -0.073 A 
ATOM      2  C3  UNL d   1       3.420   2.688   2.772  0.00  0.00    -0.002 A 
ATOM      3  C4  UNL d   1       2.723   3.211   1.681  0.00  0.00     0.004 A 
ATOM      4  C5  UNL d   1       1.905   2.386   0.910  0.00  0.00    -0.004 A 
ATOM      5  C6  UNL d   1       1.773   1.030   1.225  0.00  0.00    -0.075 A 
ATOM      6  C7  UNL d   1       0.899   0.128   0.404  0.00  0.00     0.076 C 
ATOM      7  C8  UNL d   1       2.478   0.511   2.320  0.00  0.00     0.001 A 
ENDROOT
BRANCH   1   8
ATOM      8  C1  UNL d   1       4.056   0.764   4.276  0.00  0.00     0.053 C 
ATOM      9  C   UNL d   1       5.536   1.110   4.235  0.00  0.00     0.018 C 
ENDBRANCH   1   8
TORSDOF 1
ENDMDL
