MODEL 1
REMARK minimizedAffinity -5.24826288
REMARK minimizedRMSD -1
REMARK  1 active torsions:
REMARK  status: ('A' for Active; 'I' for Inactive)
REMARK    1  A    between atoms: C1_2  and  C2_3 
ROOT
ATOM      1  C2  UNL d   1       2.719  -0.232  -1.386  0.00  0.00    -0.073 A 
ATOM      2  C3  UNL d   1       1.903  -0.767  -0.382  0.00  0.00    -0.002 A 
ATOM      3  C4  UNL d   1       1.659  -0.045   0.787  0.00  0.00     0.004 A 
ATOM      4  C5  UNL d   1       2.220   1.220   0.961  0.00  0.00    -0.004 A 
ATOM      5  C6  UNL d   1       3.029   1.776  -0.035  0.00  0.00    -0.075 A 
ATOM      6  C7  UNL d   1       3.643   3.134   0.138  0.00  0.00     0.076 C 
ATOM      7  C8  UNL d   1       3.272   1.044  -1.205  0.00  0.00     0.001 A 
ENDROOT
BRANCH   1   8
ATOM      8  C1  UNL d   1       2.981  -1.005  -2.652  0.00  0.00     0.053 C 
ATOM      9  C   UNL d   1       2.214  -0.437  -3.836  0.00  0.00     0.018 C 
ENDBRANCH   1   8
TORSDOF 1
ENDMDL
