MODEL 1
REMARK minimizedAffinity -1.14835525
REMARK minimizedRMSD -1
REMARK  1 active torsions:
REMARK  status: ('A' for Active; 'I' for Inactive)
REMARK    1  A    between atoms: C1_2  and  C2_3 
ROOT
ATOM      1  C2  UNL d   1       2.471   1.561   1.131  0.00  0.00    -0.073 A 
ATOM      2  C3  UNL d   1       2.242   2.153   2.378  0.00  0.00    -0.002 A 
ATOM      3  C4  UNL d   1       2.683   3.451   2.634  0.00  0.00     0.004 A 
ATOM      4  C5  UNL d   1       3.351   4.174   1.645  0.00  0.00    -0.004 A 
ATOM      5  C6  UNL d   1       3.578   3.604   0.388  0.00  0.00    -0.075 A 
ATOM      6  C7  UNL d   1       4.297   4.367  -0.686  0.00  0.00     0.076 C 
ATOM      7  C8  UNL d   1       3.135   2.298   0.140  0.00  0.00     0.001 A 
ENDROOT
BRANCH   1   8
ATOM      8  C1  UNL d   1       1.991   0.161   0.848  0.00  0.00     0.053 C 
ATOM      9  C   UNL d   1       0.583   0.146   0.274  0.00  0.00     0.018 C 
ENDBRANCH   1   8
TORSDOF 1
ENDMDL
