MODEL 1
REMARK minimizedAffinity -0.566176355
REMARK minimizedRMSD -1
REMARK  1 active torsions:
REMARK  status: ('A' for Active; 'I' for Inactive)
REMARK    1  A    between atoms: C1_2  and  C2_3 
ROOT
ATOM      1  C2  UNL d   1       1.331  -0.016   0.959  0.00  0.00    -0.073 A 
ATOM      2  C3  UNL d   1       1.914  -0.306  -0.280  0.00  0.00    -0.002 A 
ATOM      3  C4  UNL d   1       2.814   0.587  -0.862  0.00  0.00     0.004 A 
ATOM      4  C5  UNL d   1       3.145   1.775  -0.211  0.00  0.00    -0.004 A 
ATOM      5  C6  UNL d   1       2.582   2.077   1.034  0.00  0.00    -0.075 A 
ATOM      6  C7  UNL d   1       2.927   3.352   1.747  0.00  0.00     0.076 C 
ATOM      7  C8  UNL d   1       1.677   1.176   1.611  0.00  0.00     0.001 A 
ENDROOT
BRANCH   1   8
ATOM      8  C1  UNL d   1       0.363  -0.980   1.595  0.00  0.00     0.053 C 
ATOM      9  C   UNL d   1      -1.083  -0.596   1.327  0.00  0.00     0.018 C 
ENDBRANCH   1   8
TORSDOF 1
ENDMDL
