MODEL 1
REMARK minimizedAffinity 1.91076267
REMARK minimizedRMSD -1
REMARK  1 active torsions:
REMARK  status: ('A' for Active; 'I' for Inactive)
REMARK    1  A    between atoms: C1_2  and  C2_3 
ROOT
ATOM      1  C2  UNL d   1       1.063  -0.235  -1.063  0.00  0.00    -0.073 A 
ATOM      2  C3  UNL d   1       0.245  -0.149  -2.196  0.00  0.00    -0.002 A 
ATOM      3  C4  UNL d   1       0.768  -0.401  -3.464  0.00  0.00     0.004 A 
ATOM      4  C5  UNL d   1       2.111  -0.747  -3.614  0.00  0.00    -0.004 A 
ATOM      5  C6  UNL d   1       2.942  -0.850  -2.493  0.00  0.00    -0.075 A 
ATOM      6  C7  UNL d   1       4.389  -1.219  -2.637  0.00  0.00     0.076 C 
ATOM      7  C8  UNL d   1       2.410  -0.593  -1.223  0.00  0.00     0.001 A 
ENDROOT
BRANCH   1   8
ATOM      8  C1  UNL d   1       0.501   0.029   0.309  0.00  0.00     0.053 C 
ATOM      9  C   UNL d   1      -0.108  -1.221   0.926  0.00  0.00     0.018 C 
ENDBRANCH   1   8
TORSDOF 1
ENDMDL
