MODEL 1
REMARK minimizedAffinity 0.689890027
REMARK minimizedRMSD -1
REMARK  1 active torsions:
REMARK  status: ('A' for Active; 'I' for Inactive)
REMARK    1  A    between atoms: C1_2  and  C2_3 
ROOT
ATOM      1  C2  UNL d   1       1.008   0.734   0.877  0.00  0.00    -0.073 A 
ATOM      2  C3  UNL d   1       0.018   1.190  -0.001  0.00  0.00    -0.002 A 
ATOM      3  C4  UNL d   1      -1.120   0.418  -0.242  0.00  0.00     0.004 A 
ATOM      4  C5  UNL d   1      -1.283  -0.811   0.396  0.00  0.00    -0.004 A 
ATOM      5  C6  UNL d   1      -0.310  -1.279   1.286  0.00  0.00    -0.075 A 
ATOM      6  C7  UNL d   1      -0.469  -2.600   1.979  0.00  0.00     0.076 C 
ATOM      7  C8  UNL d   1       0.831  -0.500   1.521  0.00  0.00     0.001 A 
ENDROOT
BRANCH   1   8
ATOM      8  C1  UNL d   1       2.235   1.566   1.146  0.00  0.00     0.053 C 
ATOM      9  C   UNL d   1       2.219   2.172   2.540  0.00  0.00     0.018 C 
ENDBRANCH   1   8
TORSDOF 1
ENDMDL
