MODEL 1
REMARK minimizedAffinity -3.89369893
REMARK minimizedRMSD -1
REMARK  1 active torsions:
REMARK  status: ('A' for Active; 'I' for Inactive)
REMARK    1  A    between atoms: C1_2  and  C2_3 
ROOT
ATOM      1  C2  UNL d   1       0.992  -0.234  -1.265  0.00  0.00    -0.073 A 
ATOM      2  C3  UNL d   1       1.244  -0.179   0.111  0.00  0.00    -0.002 A 
ATOM      3  C4  UNL d   1       0.240  -0.503   1.024  0.00  0.00     0.004 A 
ATOM      4  C5  UNL d   1      -1.022  -0.891   0.573  0.00  0.00    -0.004 A 
ATOM      5  C6  UNL d   1      -1.289  -0.964  -0.798  0.00  0.00    -0.075 A 
ATOM      6  C7  UNL d   1      -2.641  -1.378  -1.300  0.00  0.00     0.076 C 
ATOM      7  C8  UNL d   1      -0.276  -0.635  -1.709  0.00  0.00     0.001 A 
ENDROOT
BRANCH   1   8
ATOM      8  C1  UNL d   1       2.075   0.108  -2.255  0.00  0.00     0.053 C 
ATOM      9  C   UNL d   1       2.324  -1.022  -3.241  0.00  0.00     0.018 C 
ENDBRANCH   1   8
TORSDOF 1
ENDMDL
