MODEL 1
REMARK minimizedAffinity -1.74503887
REMARK minimizedRMSD -1
REMARK  1 active torsions:
REMARK  status: ('A' for Active; 'I' for Inactive)
REMARK    1  A    between atoms: C1_2  and  C2_3 
ROOT
ATOM      1  C2  UNL d   1       0.388   0.007  -0.251  0.00  0.00    -0.073 A 
ATOM      2  C3  UNL d   1       0.626   0.043  -1.630  0.00  0.00    -0.002 A 
ATOM      3  C4  UNL d   1      -0.412  -0.199  -2.531  0.00  0.00     0.004 A 
ATOM      4  C5  UNL d   1      -1.698  -0.471  -2.065  0.00  0.00    -0.004 A 
ATOM      5  C6  UNL d   1      -1.958  -0.499  -0.691  0.00  0.00    -0.075 A 
ATOM      6  C7  UNL d   1      -3.336  -0.793  -0.173  0.00  0.00     0.076 C 
ATOM      7  C8  UNL d   1      -0.910  -0.259   0.208  0.00  0.00     0.001 A 
ENDROOT
BRANCH   1   8
ATOM      8  C1  UNL d   1       1.504   0.273   0.726  0.00  0.00     0.053 C 
ATOM      9  C   UNL d   1       2.301   1.513   0.355  0.00  0.00     0.018 C 
ENDBRANCH   1   8
TORSDOF 1
ENDMDL
