MODEL 1
REMARK minimizedAffinity -5.18442154
REMARK minimizedRMSD -1
REMARK  1 active torsions:
REMARK  status: ('A' for Active; 'I' for Inactive)
REMARK    1  A    between atoms: C1_2  and  C2_3 
ROOT
ATOM      1  C2  UNL d   1       0.294   0.353  -0.246  0.00  0.00    -0.073 A 
ATOM      2  C3  UNL d   1       1.171  -0.260  -1.148  0.00  0.00    -0.002 A 
ATOM      3  C4  UNL d   1       2.512   0.123  -1.199  0.00  0.00     0.004 A 
ATOM      4  C5  UNL d   1       2.991   1.117  -0.346  0.00  0.00    -0.004 A 
ATOM      5  C6  UNL d   1       2.133   1.734   0.570  0.00  0.00    -0.075 A 
ATOM      6  C7  UNL d   1       2.632   2.807   1.493  0.00  0.00     0.076 C 
ATOM      7  C8  UNL d   1       0.787   1.345   0.614  0.00  0.00     0.001 A 
ENDROOT
BRANCH   1   8
ATOM      8  C1  UNL d   1      -1.153  -0.062  -0.182  0.00  0.00     0.053 C 
ATOM      9  C   UNL d   1      -1.402  -1.097   0.903  0.00  0.00     0.018 C 
ENDBRANCH   1   8
TORSDOF 1
ENDMDL
