MODEL 1
REMARK minimizedAffinity -4.23413038
REMARK minimizedRMSD -1
REMARK  0 active torsions:
REMARK  status: ('A' for Active; 'I' for Inactive)
ROOT
ATOM      1  C   UNL d   1      -0.062  -1.562   0.076  0.00  0.00     0.078 C 
ATOM      2  C1  UNL d   1      -0.225  -0.073   0.016  0.00  0.00    -0.077 A 
ATOM      3  C2  UNL d   1       0.566   0.706  -0.837  0.00  0.00    -0.001 A 
ATOM      4  C3  UNL d   1       0.410   2.093  -0.875  0.00  0.00     0.003 A 
ATOM      5  C4  UNL d   1      -0.536   2.713  -0.061  0.00  0.00    -0.005 A 
ATOM      6  C5  UNL d   1      -1.326   1.947   0.793  0.00  0.00     0.003 A 
ATOM      7  C6  UNL d   1      -1.171   0.560   0.833  0.00  0.00    -0.001 A 
ENDROOT
TORSDOF 0
ENDMDL
