MODEL 1
REMARK minimizedAffinity -3.71237946
REMARK minimizedRMSD -1
REMARK  0 active torsions:
REMARK  status: ('A' for Active; 'I' for Inactive)
ROOT
ATOM      1  C   UNL d   1      -0.647  -1.203   0.635  0.00  0.00     0.078 C 
ATOM      2  C1  UNL d   1      -0.311   0.182   0.170  0.00  0.00    -0.077 A 
ATOM      3  C2  UNL d   1      -1.106   1.277   0.529  0.00  0.00    -0.001 A 
ATOM      4  C3  UNL d   1      -0.786   2.559   0.081  0.00  0.00     0.003 A 
ATOM      5  C4  UNL d   1       0.328   2.759  -0.731  0.00  0.00    -0.005 A 
ATOM      6  C5  UNL d   1       1.124   1.675  -1.096  0.00  0.00     0.003 A 
ATOM      7  C6  UNL d   1       0.806   0.392  -0.649  0.00  0.00    -0.001 A 
ENDROOT
TORSDOF 0
ENDMDL
