MODEL 1
REMARK minimizedAffinity -4.98304462
REMARK minimizedRMSD -1
REMARK  0 active torsions:
REMARK  status: ('A' for Active; 'I' for Inactive)
ROOT
ATOM      1  C   UNL d   1      -0.028  -1.224   0.269  0.00  0.00     0.078 C 
ATOM      2  C1  UNL d   1      -0.092   0.271   0.176  0.00  0.00    -0.077 A 
ATOM      3  C2  UNL d   1       0.955   1.003  -0.397  0.00  0.00    -0.001 A 
ATOM      4  C3  UNL d   1       0.887   2.396  -0.467  0.00  0.00     0.003 A 
ATOM      5  C4  UNL d   1      -0.226   3.068   0.035  0.00  0.00    -0.005 A 
ATOM      6  C5  UNL d   1      -1.272   2.348   0.609  0.00  0.00     0.003 A 
ATOM      7  C6  UNL d   1      -1.205   0.955   0.680  0.00  0.00    -0.001 A 
ENDROOT
TORSDOF 0
ENDMDL
