MODEL 1
REMARK minimizedAffinity -4.99832487
REMARK minimizedRMSD -1
REMARK  0 active torsions:
REMARK  status: ('A' for Active; 'I' for Inactive)
ROOT
ATOM      1  C   UNL d   1       0.132  -0.684   0.646  0.00  0.00     0.078 C 
ATOM      2  C1  UNL d   1       0.905   0.591   0.480  0.00  0.00    -0.077 A 
ATOM      3  C2  UNL d   1       0.286   1.751  -0.003  0.00  0.00    -0.001 A 
ATOM      4  C3  UNL d   1       1.020   2.927  -0.163  0.00  0.00     0.003 A 
ATOM      5  C4  UNL d   1       2.376   2.956   0.158  0.00  0.00    -0.005 A 
ATOM      6  C5  UNL d   1       3.000   1.806   0.637  0.00  0.00     0.003 A 
ATOM      7  C6  UNL d   1       2.268   0.628   0.797  0.00  0.00    -0.001 A 
ENDROOT
TORSDOF 0
ENDMDL
