MODEL 1
REMARK minimizedAffinity -3.08198428
REMARK minimizedRMSD -1
REMARK  0 active torsions:
REMARK  status: ('A' for Active; 'I' for Inactive)
ROOT
ATOM      1  C   UNL d   1       0.584  -0.960   0.078  0.00  0.00     0.078 C 
ATOM      2  C1  UNL d   1      -0.015   0.381   0.382  0.00  0.00    -0.077 A 
ATOM      3  C2  UNL d   1      -1.054   0.512   1.312  0.00  0.00    -0.001 A 
ATOM      4  C3  UNL d   1      -1.609   1.765   1.577  0.00  0.00     0.003 A 
ATOM      5  C4  UNL d   1      -1.132   2.896   0.917  0.00  0.00    -0.005 A 
ATOM      6  C5  UNL d   1      -0.100   2.774  -0.011  0.00  0.00     0.003 A 
ATOM      7  C6  UNL d   1       0.456   1.522  -0.278  0.00  0.00    -0.001 A 
ENDROOT
TORSDOF 0
ENDMDL
