MODEL 1
REMARK minimizedAffinity -4.32671499
REMARK minimizedRMSD -1
REMARK  0 active torsions:
REMARK  status: ('A' for Active; 'I' for Inactive)
ROOT
ATOM      1  C   UNL d   1       2.552   2.117   1.185  0.00  0.00     0.078 C 
ATOM      2  C1  UNL d   1       1.166   1.681   0.815  0.00  0.00    -0.077 A 
ATOM      3  C2  UNL d   1       0.852   0.324   0.668  0.00  0.00    -0.001 A 
ATOM      4  C3  UNL d   1      -0.440  -0.067   0.313  0.00  0.00     0.003 A 
ATOM      5  C4  UNL d   1      -1.428   0.892   0.102  0.00  0.00    -0.005 A 
ATOM      6  C5  UNL d   1      -1.125   2.245   0.243  0.00  0.00     0.003 A 
ATOM      7  C6  UNL d   1       0.167   2.638   0.598  0.00  0.00    -0.001 A 
ENDROOT
TORSDOF 0
ENDMDL
