MODEL 1
REMARK minimizedAffinity -5.02608585
REMARK minimizedRMSD -1
REMARK  0 active torsions:
REMARK  status: ('A' for Active; 'I' for Inactive)
ROOT
ATOM      1  C   UNL d   1       0.086  -1.187   0.118  0.00  0.00     0.078 C 
ATOM      2  C1  UNL d   1       0.116   0.311   0.071  0.00  0.00    -0.077 A 
ATOM      3  C2  UNL d   1      -0.931   1.071   0.607  0.00  0.00    -0.001 A 
ATOM      4  C3  UNL d   1      -0.894   2.465   0.547  0.00  0.00     0.003 A 
ATOM      5  C4  UNL d   1       0.187   3.111  -0.050  0.00  0.00    -0.005 A 
ATOM      6  C5  UNL d   1       1.233   2.363  -0.588  0.00  0.00     0.003 A 
ATOM      7  C6  UNL d   1       1.197   0.969  -0.529  0.00  0.00    -0.001 A 
ENDROOT
TORSDOF 0
ENDMDL
