MODEL 1
REMARK minimizedAffinity -1.58126247
REMARK minimizedRMSD -1
REMARK  0 active torsions:
REMARK  status: ('A' for Active; 'I' for Inactive)
ROOT
ATOM      1  C   UNL d   1       2.677  -0.011   0.729  0.00  0.00     0.078 C 
ATOM      2  C1  UNL d   1       1.284   0.545   0.743  0.00  0.00    -0.077 A 
ATOM      3  C2  UNL d   1       0.195  -0.227   0.320  0.00  0.00    -0.001 A 
ATOM      4  C3  UNL d   1      -1.094   0.307   0.329  0.00  0.00     0.003 A 
ATOM      5  C4  UNL d   1      -1.307   1.616   0.759  0.00  0.00    -0.005 A 
ATOM      6  C5  UNL d   1      -0.229   2.392   1.180  0.00  0.00     0.003 A 
ATOM      7  C6  UNL d   1       1.061   1.860   1.171  0.00  0.00    -0.001 A 
ENDROOT
TORSDOF 0
ENDMDL
