MODEL 1
REMARK minimizedAffinity -4.65102434
REMARK minimizedRMSD -1
REMARK  0 active torsions:
REMARK  status: ('A' for Active; 'I' for Inactive)
ROOT
ATOM      1  C   UNL d   1       0.418  -0.895   0.444  0.00  0.00     0.078 C 
ATOM      2  C1  UNL d   1       0.087   0.545   0.191  0.00  0.00    -0.077 A 
ATOM      3  C2  UNL d   1      -0.599   1.306   1.145  0.00  0.00    -0.001 A 
ATOM      4  C3  UNL d   1      -0.909   2.643   0.892  0.00  0.00     0.003 A 
ATOM      5  C4  UNL d   1      -0.538   3.231  -0.317  0.00  0.00    -0.005 A 
ATOM      6  C5  UNL d   1       0.142   2.480  -1.273  0.00  0.00     0.003 A 
ATOM      7  C6  UNL d   1       0.453   1.143  -1.022  0.00  0.00    -0.001 A 
ENDROOT
TORSDOF 0
ENDMDL
