MODEL 1
REMARK minimizedAffinity -4.26239443
REMARK minimizedRMSD -1
REMARK  0 active torsions:
REMARK  status: ('A' for Active; 'I' for Inactive)
ROOT
ATOM      1  C   UNL d   1      -0.135  -1.394  -0.109  0.00  0.00     0.078 C 
ATOM      2  C1  UNL d   1      -0.047   0.103  -0.101  0.00  0.00    -0.077 A 
ATOM      3  C2  UNL d   1       0.627   0.792  -1.117  0.00  0.00    -0.001 A 
ATOM      4  C3  UNL d   1       0.709   2.185  -1.092  0.00  0.00     0.003 A 
ATOM      5  C4  UNL d   1       0.120   2.901  -0.052  0.00  0.00    -0.005 A 
ATOM      6  C5  UNL d   1      -0.551   2.225   0.965  0.00  0.00     0.003 A 
ATOM      7  C6  UNL d   1      -0.634   0.832   0.941  0.00  0.00    -0.001 A 
ENDROOT
TORSDOF 0
ENDMDL
