MODEL 1
REMARK minimizedAffinity -5.09906292
REMARK minimizedRMSD -1
REMARK  0 active torsions:
REMARK  status: ('A' for Active; 'I' for Inactive)
ROOT
ATOM      1  C   UNL d   1       0.469   3.544  -0.583  0.00  0.00     0.078 C 
ATOM      2  C1  UNL d   1       0.200   2.145  -0.116  0.00  0.00    -0.077 A 
ATOM      3  C2  UNL d   1       1.039   1.087  -0.487  0.00  0.00    -0.001 A 
ATOM      4  C3  UNL d   1       0.771  -0.212  -0.052  0.00  0.00     0.003 A 
ATOM      5  C4  UNL d   1      -0.337  -0.466   0.754  0.00  0.00    -0.005 A 
ATOM      6  C5  UNL d   1      -1.179   0.580   1.126  0.00  0.00     0.003 A 
ATOM      7  C6  UNL d   1      -0.913   1.880   0.693  0.00  0.00    -0.001 A 
ENDROOT
TORSDOF 0
ENDMDL
