MODEL 1
REMARK minimizedAffinity -5.53247166
REMARK minimizedRMSD -1
REMARK  0 active torsions:
REMARK  status: ('A' for Active; 'I' for Inactive)
ROOT
ATOM      1  C   UNL d   1      -0.063  -0.948   0.048  0.00  0.00     0.078 C 
ATOM      2  C1  UNL d   1      -0.034   0.550   0.103  0.00  0.00    -0.077 A 
ATOM      3  C2  UNL d   1      -1.160   1.279   0.506  0.00  0.00    -0.001 A 
ATOM      4  C3  UNL d   1      -1.121   2.674   0.543  0.00  0.00     0.003 A 
ATOM      5  C4  UNL d   1       0.040   3.352   0.178  0.00  0.00    -0.005 A 
ATOM      6  C5  UNL d   1       1.165   2.635  -0.226  0.00  0.00     0.003 A 
ATOM      7  C6  UNL d   1       1.128   1.240  -0.264  0.00  0.00    -0.001 A 
ENDROOT
TORSDOF 0
ENDMDL
