MODEL 1
REMARK minimizedAffinity -4.31548166
REMARK minimizedRMSD -1
REMARK  0 active torsions:
REMARK  status: ('A' for Active; 'I' for Inactive)
ROOT
ATOM      1  C   UNL d   1       0.926   2.474  -0.931  0.00  0.00     0.078 C 
ATOM      2  C1  UNL d   1       0.927   1.103  -0.323  0.00  0.00    -0.077 A 
ATOM      3  C2  UNL d   1       2.096   0.557   0.221  0.00  0.00    -0.001 A 
ATOM      4  C3  UNL d   1       2.085  -0.724   0.775  0.00  0.00     0.003 A 
ATOM      5  C4  UNL d   1       0.908  -1.470   0.789  0.00  0.00    -0.005 A 
ATOM      6  C5  UNL d   1      -0.260  -0.936   0.248  0.00  0.00     0.003 A 
ATOM      7  C6  UNL d   1      -0.250   0.345  -0.306  0.00  0.00    -0.001 A 
ENDROOT
TORSDOF 0
ENDMDL
