MODEL 1
REMARK minimizedAffinity -4.86363745
REMARK minimizedRMSD -1
REMARK  0 active torsions:
REMARK  status: ('A' for Active; 'I' for Inactive)
ROOT
ATOM      1  C   UNL d   1      -0.418  -1.265  -0.157  0.00  0.00     0.078 C 
ATOM      2  C1  UNL d   1      -0.284   0.223  -0.026  0.00  0.00    -0.077 A 
ATOM      3  C2  UNL d   1      -1.143   0.954   0.804  0.00  0.00    -0.001 A 
ATOM      4  C3  UNL d   1      -1.013   2.340   0.910  0.00  0.00     0.003 A 
ATOM      5  C4  UNL d   1      -0.026   3.007   0.187  0.00  0.00    -0.005 A 
ATOM      6  C5  UNL d   1       0.832   2.288  -0.643  0.00  0.00     0.003 A 
ATOM      7  C6  UNL d   1       0.704   0.903  -0.749  0.00  0.00    -0.001 A 
ENDROOT
TORSDOF 0
ENDMDL
