MODEL 1
REMARK minimizedAffinity -5.24632072
REMARK minimizedRMSD -1
REMARK  0 active torsions:
REMARK  status: ('A' for Active; 'I' for Inactive)
ROOT
ATOM      1  C   UNL d   1      -0.228  -1.453  -0.137  0.00  0.00     0.078 C 
ATOM      2  C1  UNL d   1      -0.126   0.043  -0.163  0.00  0.00    -0.077 A 
ATOM      3  C2  UNL d   1      -1.166   0.845   0.322  0.00  0.00    -0.001 A 
ATOM      4  C3  UNL d   1      -1.061   2.236   0.283  0.00  0.00     0.003 A 
ATOM      5  C4  UNL d   1       0.081   2.837  -0.243  0.00  0.00    -0.005 A 
ATOM      6  C5  UNL d   1       1.120   2.047  -0.731  0.00  0.00     0.003 A 
ATOM      7  C6  UNL d   1       1.017   0.656  -0.692  0.00  0.00    -0.001 A 
ENDROOT
TORSDOF 0
ENDMDL
