MODEL 1
REMARK minimizedAffinity -2.86526489
REMARK minimizedRMSD -1
REMARK  0 active torsions:
REMARK  status: ('A' for Active; 'I' for Inactive)
ROOT
ATOM      1  O1  BZF d   1       1.564   1.534   0.708  0.00  0.00    -0.204 OA
ATOM      2  C2  BZF d   1       0.920   2.656   0.224  0.00  0.00     0.174 A 
ATOM      3  C3  BZF d   1      -0.384   2.397  -0.007  0.00  0.00    -0.012 A 
ATOM      4  C3A BZF d   1      -0.586   1.054   0.443  0.00  0.00    -0.107 A 
ATOM      5  C4  BZF d   1      -1.677   0.234   0.491  0.00  0.00     0.055 A 
ATOM      6  C5  BZF d   1      -1.523  -1.047   0.919  0.00  0.00    -0.016 A 
ATOM      7  C6  BZF d   1      -0.293  -1.541   1.302  0.00  0.00     0.022 A 
ATOM      8  C7  BZF d   1       0.817  -0.764   1.277  0.00  0.00     0.029 A 
ATOM      9  C7A BZF d   1       0.659   0.540   0.876  0.00  0.00     0.058 A 
ENDROOT
TORSDOF 0
ENDMDL
