MODEL 1
REMARK minimizedAffinity -2.02005744
REMARK minimizedRMSD -1
REMARK  0 active torsions:
REMARK  status: ('A' for Active; 'I' for Inactive)
ROOT
ATOM      1  O1  BZF d   1      -1.110  -0.978   0.227  0.00  0.00    -0.204 OA
ATOM      2  C2  BZF d   1      -0.471  -1.599   1.282  0.00  0.00     0.174 A 
ATOM      3  C3  BZF d   1       0.430  -0.771   1.850  0.00  0.00    -0.012 A 
ATOM      4  C3A BZF d   1       0.282   0.474   1.161  0.00  0.00    -0.107 A 
ATOM      5  C4  BZF d   1       0.890   1.691   1.282  0.00  0.00     0.055 A 
ATOM      6  C5  BZF d   1       0.568   2.680   0.407  0.00  0.00    -0.016 A 
ATOM      7  C6  BZF d   1      -0.351   2.484  -0.603  0.00  0.00     0.022 A 
ATOM      8  C7  BZF d   1      -0.983   1.296  -0.760  0.00  0.00     0.029 A 
ATOM      9  C7A BZF d   1      -0.685   0.305   0.144  0.00  0.00     0.058 A 
ENDROOT
TORSDOF 0
ENDMDL
