MODEL 1
REMARK minimizedAffinity 3.66286206
REMARK minimizedRMSD -1
REMARK  0 active torsions:
REMARK  status: ('A' for Active; 'I' for Inactive)
ROOT
ATOM      1  O1  BZF d   1      -3.177  -4.886  -2.025  0.00  0.00    -0.204 OA
ATOM      2  C2  BZF d   1      -4.081  -3.918  -1.633  0.00  0.00     0.174 A 
ATOM      3  C3  BZF d   1      -3.736  -3.398  -0.437  0.00  0.00    -0.012 A 
ATOM      4  C3A BZF d   1      -2.492  -4.019  -0.101  0.00  0.00    -0.107 A 
ATOM      5  C4  BZF d   1      -1.640  -3.902   0.960  0.00  0.00     0.055 A 
ATOM      6  C5  BZF d   1      -0.545  -4.704   1.020  0.00  0.00    -0.016 A 
ATOM      7  C6  BZF d   1      -0.274  -5.636   0.040  0.00  0.00     0.022 A 
ATOM      8  C7  BZF d   1      -1.087  -5.785  -1.035  0.00  0.00     0.029 A 
ATOM      9  C7A BZF d   1      -2.176  -4.953  -1.114  0.00  0.00     0.058 A 
ENDROOT
TORSDOF 0
ENDMDL
