MODEL 1
REMARK minimizedAffinity -3.11446571
REMARK minimizedRMSD -1
REMARK  0 active torsions:
REMARK  status: ('A' for Active; 'I' for Inactive)
ROOT
ATOM      1  O1  BZF d   1       0.310   0.602  -0.836  0.00  0.00    -0.204 OA
ATOM      2  C2  BZF d   1       0.435   1.145   0.429  0.00  0.00     0.174 A 
ATOM      3  C3  BZF d   1       0.059   0.255   1.370  0.00  0.00    -0.012 A 
ATOM      4  C3A BZF d   1      -0.235  -0.948   0.655  0.00  0.00    -0.107 A 
ATOM      5  C4  BZF d   1      -0.645  -2.193   1.039  0.00  0.00     0.055 A 
ATOM      6  C5  BZF d   1      -0.914  -3.124   0.087  0.00  0.00    -0.016 A 
ATOM      7  C6  BZF d   1      -0.789  -2.843  -1.258  0.00  0.00     0.022 A 
ATOM      8  C7  BZF d   1      -0.381  -1.624  -1.688  0.00  0.00     0.029 A 
ATOM      9  C7A BZF d   1      -0.077  -0.692  -0.727  0.00  0.00     0.058 A 
ENDROOT
TORSDOF 0
ENDMDL
