MODEL 1
REMARK minimizedAffinity -1.24871194
REMARK minimizedRMSD -1
REMARK  0 active torsions:
REMARK  status: ('A' for Active; 'I' for Inactive)
ROOT
ATOM      1  O1  BZF d   1      -0.270   0.652  -1.358  0.00  0.00    -0.204 OA
ATOM      2  C2  BZF d   1       0.120   1.852  -0.795  0.00  0.00     0.174 A 
ATOM      3  C3  BZF d   1       0.162   1.757   0.550  0.00  0.00    -0.012 A 
ATOM      4  C3A BZF d   1      -0.135   0.388   0.841  0.00  0.00    -0.107 A 
ATOM      5  C4  BZF d   1      -0.227  -0.326   2.001  0.00  0.00     0.055 A 
ATOM      6  C5  BZF d   1      -0.608  -1.630   1.945  0.00  0.00    -0.016 A 
ATOM      7  C6  BZF d   1      -0.909  -2.248   0.749  0.00  0.00     0.022 A 
ATOM      8  C7  BZF d   1      -0.827  -1.581  -0.428  0.00  0.00     0.029 A 
ATOM      9  C7A BZF d   1      -0.411  -0.273  -0.378  0.00  0.00     0.058 A 
ENDROOT
TORSDOF 0
ENDMDL
