MODEL 1
REMARK minimizedAffinity 1.84359801
REMARK minimizedRMSD -1
REMARK  0 active torsions:
REMARK  status: ('A' for Active; 'I' for Inactive)
ROOT
ATOM      1  O1  BZF d   1      -0.335  -0.907  -1.401  0.00  0.00    -0.204 OA
ATOM      2  C2  BZF d   1       0.147   0.383  -1.503  0.00  0.00     0.174 A 
ATOM      3  C3  BZF d   1      -0.204   1.113  -0.425  0.00  0.00    -0.012 A 
ATOM      4  C3A BZF d   1      -0.875   0.197   0.447  0.00  0.00    -0.107 A 
ATOM      5  C4  BZF d   1      -1.443   0.321   1.682  0.00  0.00     0.055 A 
ATOM      6  C5  BZF d   1      -2.081  -0.749   2.226  0.00  0.00    -0.016 A 
ATOM      7  C6  BZF d   1      -2.173  -1.954   1.562  0.00  0.00     0.022 A 
ATOM      8  C7  BZF d   1      -1.621  -2.127   0.337  0.00  0.00     0.029 A 
ATOM      9  C7A BZF d   1      -0.947  -1.058  -0.202  0.00  0.00     0.058 A 
ENDROOT
TORSDOF 0
ENDMDL
