MODEL 1
REMARK minimizedAffinity -4.81749105
REMARK minimizedRMSD -1
REMARK  0 active torsions:
REMARK  status: ('A' for Active; 'I' for Inactive)
ROOT
ATOM      1  O1  BZF d   1       0.172  -2.940  -1.660  0.00  0.00    -0.204 OA
ATOM      2  C2  BZF d   1       0.373  -3.718  -0.536  0.00  0.00     0.174 A 
ATOM      3  C3  BZF d   1       0.487  -2.947   0.565  0.00  0.00    -0.012 A 
ATOM      4  C3A BZF d   1       0.256  -1.609   0.114  0.00  0.00    -0.107 A 
ATOM      5  C4  BZF d   1       0.221  -0.399   0.745  0.00  0.00     0.055 A 
ATOM      6  C5  BZF d   1       0.043   0.727   0.004  0.00  0.00    -0.016 A 
ATOM      7  C6  BZF d   1      -0.097   0.679  -1.367  0.00  0.00     0.022 A 
ATOM      8  C7  BZF d   1      -0.074  -0.499  -2.037  0.00  0.00     0.029 A 
ATOM      9  C7A BZF d   1       0.072  -1.641  -1.288  0.00  0.00     0.058 A 
ENDROOT
TORSDOF 0
ENDMDL
