MODEL 1
REMARK minimizedAffinity 7.1017518
REMARK minimizedRMSD -1
REMARK  0 active torsions:
REMARK  status: ('A' for Active; 'I' for Inactive)
ROOT
ATOM      1  O1  BZF d   1      -1.983  -2.691   1.586  0.00  0.00    -0.204 OA
ATOM      2  C2  BZF d   1      -1.816  -3.255   0.336  0.00  0.00     0.174 A 
ATOM      3  C3  BZF d   1      -1.483  -2.315  -0.573  0.00  0.00    -0.012 A 
ATOM      4  C3A BZF d   1      -1.349  -1.102   0.173  0.00  0.00    -0.107 A 
ATOM      5  C4  BZF d   1      -1.018   0.178  -0.168  0.00  0.00     0.055 A 
ATOM      6  C5  BZF d   1      -1.049   1.145   0.786  0.00  0.00    -0.016 A 
ATOM      7  C6  BZF d   1      -1.410   0.869   2.088  0.00  0.00     0.022 A 
ATOM      8  C7  BZF d   1      -1.742  -0.387   2.476  0.00  0.00     0.029 A 
ATOM      9  C7A BZF d   1      -1.680  -1.372   1.521  0.00  0.00     0.058 A 
ENDROOT
TORSDOF 0
ENDMDL
