MODEL 1
REMARK minimizedAffinity -1.27373111
REMARK minimizedRMSD -1
REMARK  0 active torsions:
REMARK  status: ('A' for Active; 'I' for Inactive)
ROOT
ATOM      1  O1  BZF d   1      -1.281  -0.834  -0.184  0.00  0.00    -0.204 OA
ATOM      2  C2  BZF d   1      -1.129  -0.439   1.131  0.00  0.00     0.174 A 
ATOM      3  C3  BZF d   1      -0.034   0.333   1.275  0.00  0.00    -0.012 A 
ATOM      4  C3A BZF d   1       0.484   0.504  -0.048  0.00  0.00    -0.107 A 
ATOM      5  C4  BZF d   1       1.552   1.184  -0.558  0.00  0.00     0.055 A 
ATOM      6  C5  BZF d   1       1.824   1.088  -1.886  0.00  0.00    -0.016 A 
ATOM      7  C6  BZF d   1       1.052   0.318  -2.731  0.00  0.00     0.022 A 
ATOM      8  C7  BZF d   1      -0.021  -0.371  -2.272  0.00  0.00     0.029 A 
ATOM      9  C7A BZF d   1      -0.317  -0.250  -0.936  0.00  0.00     0.058 A 
ENDROOT
TORSDOF 0
ENDMDL
