MODEL 1
REMARK minimizedAffinity 0.421549678
REMARK minimizedRMSD -1
REMARK  0 active torsions:
REMARK  status: ('A' for Active; 'I' for Inactive)
ROOT
ATOM      1  O1  BZF d   1      -0.454  -2.132  -2.148  0.00  0.00    -0.204 OA
ATOM      2  C2  BZF d   1       0.251  -1.190  -2.874  0.00  0.00     0.174 A 
ATOM      3  C3  BZF d   1       0.408  -0.056  -2.160  0.00  0.00    -0.012 A 
ATOM      4  C3A BZF d   1      -0.159  -0.338  -0.877  0.00  0.00    -0.107 A 
ATOM      5  C4  BZF d   1      -0.290   0.390   0.271  0.00  0.00     0.055 A 
ATOM      6  C5  BZF d   1      -0.958  -0.151   1.323  0.00  0.00    -0.016 A 
ATOM      7  C6  BZF d   1      -1.511  -1.414   1.261  0.00  0.00     0.022 A 
ATOM      8  C7  BZF d   1      -1.401  -2.176   0.145  0.00  0.00     0.029 A 
ATOM      9  C7A BZF d   1      -0.699  -1.644  -0.908  0.00  0.00     0.058 A 
ENDROOT
TORSDOF 0
ENDMDL
