MODEL 1
REMARK minimizedAffinity -2.19652128
REMARK minimizedRMSD -1
REMARK  0 active torsions:
REMARK  status: ('A' for Active; 'I' for Inactive)
ROOT
ATOM      1  O1  BZF d   1       1.502   2.491   2.264  0.00  0.00    -0.204 OA
ATOM      2  C2  BZF d   1       1.634   3.527   1.360  0.00  0.00     0.174 A 
ATOM      3  C3  BZF d   1       1.134   3.178   0.157  0.00  0.00    -0.012 A 
ATOM      4  C3A BZF d   1       0.576   1.874   0.345  0.00  0.00    -0.107 A 
ATOM      5  C4  BZF d   1      -0.078   1.005  -0.481  0.00  0.00     0.055 A 
ATOM      6  C5  BZF d   1      -0.428  -0.220  -0.006  0.00  0.00    -0.016 A 
ATOM      7  C6  BZF d   1      -0.134  -0.610   1.284  0.00  0.00     0.022 A 
ATOM      8  C7  BZF d   1       0.509   0.220   2.141  0.00  0.00     0.029 A 
ATOM      9  C7A BZF d   1       0.834   1.470   1.675  0.00  0.00     0.058 A 
ENDROOT
TORSDOF 0
ENDMDL
