MODEL 1
REMARK minimizedAffinity -3.17241526
REMARK minimizedRMSD -1
REMARK  0 active torsions:
REMARK  status: ('A' for Active; 'I' for Inactive)
ROOT
ATOM      1  O1  BZF d   1       1.844   2.234   1.865  0.00  0.00    -0.204 OA
ATOM      2  C2  BZF d   1       1.902   3.119   0.805  0.00  0.00     0.174 A 
ATOM      3  C3  BZF d   1       1.267   2.616  -0.273  0.00  0.00    -0.012 A 
ATOM      4  C3A BZF d   1       0.703   1.377   0.167  0.00  0.00    -0.107 A 
ATOM      5  C4  BZF d   1      -0.057   0.421  -0.446  0.00  0.00     0.055 A 
ATOM      6  C5  BZF d   1      -0.381  -0.705   0.242  0.00  0.00    -0.016 A 
ATOM      7  C6  BZF d   1       0.040  -0.911   1.539  0.00  0.00     0.022 A 
ATOM      8  C7  BZF d   1       0.791   0.010   2.190  0.00  0.00     0.029 A 
ATOM      9  C7A BZF d   1       1.093   1.164   1.509  0.00  0.00     0.058 A 
ENDROOT
TORSDOF 0
ENDMDL
