MODEL 1
REMARK minimizedAffinity -3.83332515
REMARK minimizedRMSD -1
REMARK  0 active torsions:
REMARK  status: ('A' for Active; 'I' for Inactive)
ROOT
ATOM      1  O1  BZF d   1       0.162   0.550  -2.111  0.00  0.00    -0.204 OA
ATOM      2  C2  BZF d   1       0.543   1.760  -1.564  0.00  0.00     0.174 A 
ATOM      3  C3  BZF d   1       0.486   1.715  -0.217  0.00  0.00    -0.012 A 
ATOM      4  C3A BZF d   1       0.129   0.366   0.100  0.00  0.00    -0.107 A 
ATOM      5  C4  BZF d   1      -0.067  -0.302   1.274  0.00  0.00     0.055 A 
ATOM      6  C5  BZF d   1      -0.479  -1.596   1.237  0.00  0.00    -0.016 A 
ATOM      7  C6  BZF d   1      -0.709  -2.251   0.045  0.00  0.00     0.022 A 
ATOM      8  C7  BZF d   1      -0.524  -1.631  -1.146  0.00  0.00     0.029 A 
ATOM      9  C7A BZF d   1      -0.075  -0.333  -1.112  0.00  0.00     0.058 A 
ENDROOT
TORSDOF 0
ENDMDL
