MODEL 1
REMARK minimizedAffinity -1.61484516
REMARK minimizedRMSD -1
REMARK  0 active torsions:
REMARK  status: ('A' for Active; 'I' for Inactive)
ROOT
ATOM      1  O1  BZF d   1      -0.785  -2.456   0.868  0.00  0.00    -0.204 OA
ATOM      2  C2  BZF d   1      -0.879  -1.556   1.913  0.00  0.00     0.174 A 
ATOM      3  C3  BZF d   1      -0.687  -0.295   1.476  0.00  0.00    -0.012 A 
ATOM      4  C3A BZF d   1      -0.550  -0.404   0.056  0.00  0.00    -0.107 A 
ATOM      5  C4  BZF d   1      -0.355   0.507  -0.941  0.00  0.00     0.055 A 
ATOM      6  C5  BZF d   1      -0.191   0.067  -2.216  0.00  0.00    -0.016 A 
ATOM      7  C6  BZF d   1      -0.212  -1.277  -2.528  0.00  0.00     0.022 A 
ATOM      8  C7  BZF d   1      -0.408  -2.219  -1.573  0.00  0.00     0.029 A 
ATOM      9  C7A BZF d   1      -0.607  -1.775  -0.289  0.00  0.00     0.058 A 
ENDROOT
TORSDOF 0
ENDMDL
