MODEL 1
REMARK minimizedAffinity -3.43259358
REMARK minimizedRMSD -1
REMARK  0 active torsions:
REMARK  status: ('A' for Active; 'I' for Inactive)
ROOT
ATOM      1  O1  BZF d   1       1.549   3.146  -0.946  0.00  0.00    -0.204 OA
ATOM      2  C2  BZF d   1       2.363   3.627   0.061  0.00  0.00     0.174 A 
ATOM      3  C3  BZF d   1       2.270   2.854   1.162  0.00  0.00    -0.012 A 
ATOM      4  C3A BZF d   1       1.409   1.772   0.791  0.00  0.00    -0.107 A 
ATOM      5  C4  BZF d   1       0.948   0.670   1.452  0.00  0.00     0.055 A 
ATOM      6  C5  BZF d   1       0.063  -0.152   0.828  0.00  0.00    -0.016 A 
ATOM      7  C6  BZF d   1      -0.384   0.101  -0.452  0.00  0.00     0.022 A 
ATOM      8  C7  BZF d   1       0.049   1.179  -1.150  0.00  0.00     0.029 A 
ATOM      9  C7A BZF d   1       0.968   1.993  -0.535  0.00  0.00     0.058 A 
ENDROOT
TORSDOF 0
ENDMDL
