MODEL 1
REMARK minimizedAffinity -3.60314274
REMARK minimizedRMSD -1
REMARK  0 active torsions:
REMARK  status: ('A' for Active; 'I' for Inactive)
ROOT
ATOM      1  O1  BZF d   1       1.522   2.155   2.251  0.00  0.00    -0.204 OA
ATOM      2  C2  BZF d   1       1.555   3.388   1.630  0.00  0.00     0.174 A 
ATOM      3  C3  BZF d   1       1.084   3.301   0.369  0.00  0.00    -0.012 A 
ATOM      4  C3A BZF d   1       0.649   1.945   0.223  0.00  0.00    -0.107 A 
ATOM      5  C4  BZF d   1       0.074   1.249  -0.802  0.00  0.00     0.055 A 
ATOM      6  C5  BZF d   1      -0.160  -0.080  -0.648  0.00  0.00    -0.016 A 
ATOM      7  C6  BZF d   1       0.173  -0.746   0.514  0.00  0.00     0.022 A 
ATOM      8  C7  BZF d   1       0.741  -0.097   1.559  0.00  0.00     0.029 A 
ATOM      9  C7A BZF d   1       0.949   1.253   1.419  0.00  0.00     0.058 A 
ENDROOT
TORSDOF 0
ENDMDL
