MODEL 1
REMARK minimizedAffinity -2.79677439
REMARK minimizedRMSD -1
REMARK  0 active torsions:
REMARK  status: ('A' for Active; 'I' for Inactive)
ROOT
ATOM      1  O1  BZF d   1       0.157  -1.781  -2.458  0.00  0.00    -0.204 OA
ATOM      2  C2  BZF d   1      -0.302  -3.054  -2.734  0.00  0.00     0.174 A 
ATOM      3  C3  BZF d   1      -0.827  -3.624  -1.630  0.00  0.00    -0.012 A 
ATOM      4  C3A BZF d   1      -0.771  -2.611  -0.621  0.00  0.00    -0.107 A 
ATOM      5  C4  BZF d   1      -1.159  -2.566   0.687  0.00  0.00     0.055 A 
ATOM      6  C5  BZF d   1      -0.897  -1.450   1.417  0.00  0.00    -0.016 A 
ATOM      7  C6  BZF d   1      -0.245  -0.363   0.871  0.00  0.00     0.022 A 
ATOM      8  C7  BZF d   1       0.153  -0.358  -0.424  0.00  0.00     0.029 A 
ATOM      9  C7A BZF d   1      -0.139  -1.472  -1.172  0.00  0.00     0.058 A 
ENDROOT
TORSDOF 0
ENDMDL
