MODEL 1
REMARK minimizedAffinity -1.86047316
REMARK minimizedRMSD -1
REMARK  0 active torsions:
REMARK  status: ('A' for Active; 'I' for Inactive)
ROOT
ATOM      1  O1  BZF d   1      -0.232   0.764  -1.056  0.00  0.00    -0.204 OA
ATOM      2  C2  BZF d   1       0.608   1.673  -0.443  0.00  0.00     0.174 A 
ATOM      3  C3  BZF d   1       0.799   1.349   0.853  0.00  0.00    -0.012 A 
ATOM      4  C3A BZF d   1       0.104   0.112   1.038  0.00  0.00    -0.107 A 
ATOM      5  C4  BZF d   1      -0.063  -0.720   2.108  0.00  0.00     0.055 A 
ATOM      6  C5  BZF d   1      -0.860  -1.812   1.977  0.00  0.00    -0.016 A 
ATOM      7  C6  BZF d   1      -1.509  -2.100   0.794  0.00  0.00     0.022 A 
ATOM      8  C7  BZF d   1      -1.371  -1.307  -0.296  0.00  0.00     0.029 A 
ATOM      9  C7A BZF d   1      -0.539  -0.220  -0.177  0.00  0.00     0.058 A 
ENDROOT
TORSDOF 0
ENDMDL
