MODEL 1
REMARK minimizedAffinity -2.70271349
REMARK minimizedRMSD -1
REMARK  0 active torsions:
REMARK  status: ('A' for Active; 'I' for Inactive)
ROOT
ATOM      1  O1  BZF d   1       0.223   0.767  -1.400  0.00  0.00    -0.204 OA
ATOM      2  C2  BZF d   1       0.188   1.691  -0.373  0.00  0.00     0.174 A 
ATOM      3  C3  BZF d   1      -0.200   1.109   0.780  0.00  0.00    -0.012 A 
ATOM      4  C3A BZF d   1      -0.333  -0.282   0.474  0.00  0.00    -0.107 A 
ATOM      5  C4  BZF d   1      -0.677  -1.377   1.213  0.00  0.00     0.055 A 
ATOM      6  C5  BZF d   1      -0.784  -2.583   0.596  0.00  0.00    -0.016 A 
ATOM      7  C6  BZF d   1      -0.560  -2.729  -0.757  0.00  0.00     0.022 A 
ATOM      8  C7  BZF d   1      -0.211  -1.673  -1.531  0.00  0.00     0.029 A 
ATOM      9  C7A BZF d   1      -0.070  -0.459  -0.904  0.00  0.00     0.058 A 
ENDROOT
TORSDOF 0
ENDMDL
