MODEL 1
REMARK minimizedAffinity 0.739297032
REMARK minimizedRMSD -1
REMARK  2 active torsions:
REMARK  status: ('A' for Active; 'I' for Inactive)
REMARK    1  A    between atoms: C2'_3  and  C1'_4 
REMARK    2  A    between atoms: C1'_4  and  C1_5 
ROOT
ATOM      1  C1  I4B d   1       0.266   3.592   0.354  0.00  0.00    -0.075 A 
ATOM      2  C2  I4B d   1      -0.632   2.577   0.566  0.00  0.00     0.003 A 
ATOM      3  C3  I4B d   1      -0.766   2.000   1.853  0.00  0.00     0.002 A 
ATOM      4  C4  I4B d   1       0.049   2.432   2.879  0.00  0.00    -0.004 A 
ATOM      5  C5  I4B d   1       0.944   3.478   2.668  0.00  0.00     0.002 A 
ATOM      6  C6  I4B d   1       1.045   4.070   1.400  0.00  0.00     0.003 A 
ENDROOT
BRANCH   1   7
ATOM      7  C1' I4B d   1       0.405   4.156  -1.025  0.00  0.00     0.060 C 
BRANCH   7   8
ATOM      8  C2' I4B d   1      -0.693   3.562  -1.884  0.00  0.00    -0.013 C 
ATOM      9  C4' I4B d   1      -1.745   4.588  -2.210  0.00  0.00     0.013 C 
ATOM     10  C3' I4B d   1      -0.062   3.019  -3.131  0.00  0.00     0.013 C 
ENDBRANCH   7   8
ENDBRANCH   1   7
TORSDOF 2
ENDMDL
