MODEL 1
REMARK minimizedAffinity 3.06948256
REMARK minimizedRMSD -1
REMARK  2 active torsions:
REMARK  status: ('A' for Active; 'I' for Inactive)
REMARK    1  A    between atoms: C2'_3  and  C1'_4 
REMARK    2  A    between atoms: C1'_4  and  C1_5 
ROOT
ATOM      1  C1  I4B d   1      -0.163   3.454   0.697  0.00  0.00    -0.075 A 
ATOM      2  C2  I4B d   1       0.907   3.777   1.494  0.00  0.00     0.003 A 
ATOM      3  C3  I4B d   1       1.161   3.044   2.678  0.00  0.00     0.002 A 
ATOM      4  C4  I4B d   1       0.298   2.034   3.051  0.00  0.00    -0.004 A 
ATOM      5  C5  I4B d   1      -0.773   1.693   2.230  0.00  0.00     0.002 A 
ATOM      6  C6  I4B d   1      -0.998   2.398   1.039  0.00  0.00     0.003 A 
ENDROOT
BRANCH   1   7
ATOM      7  C1' I4B d   1      -0.421   4.270  -0.529  0.00  0.00     0.060 C 
BRANCH   7   8
ATOM      8  C2' I4B d   1       0.302   3.615  -1.688  0.00  0.00    -0.013 C 
ATOM      9  C4' I4B d   1      -0.558   3.589  -2.924  0.00  0.00     0.013 C 
ATOM     10  C3' I4B d   1       1.573   4.373  -1.929  0.00  0.00     0.013 C 
ENDBRANCH   7   8
ENDBRANCH   1   7
TORSDOF 2
ENDMDL
