MODEL 1
REMARK minimizedAffinity 7.19460583
REMARK minimizedRMSD -1
REMARK  2 active torsions:
REMARK  status: ('A' for Active; 'I' for Inactive)
REMARK    1  A    between atoms: C2'_3  and  C1'_4 
REMARK    2  A    between atoms: C1'_4  and  C1_5 
ROOT
ATOM      1  C1  I4B d   1      -4.604  -3.106   5.193  0.00  0.00    -0.075 A 
ATOM      2  C2  I4B d   1      -5.303  -3.970   6.000  0.00  0.00     0.003 A 
ATOM      3  C3  I4B d   1      -5.991  -5.071   5.437  0.00  0.00     0.002 A 
ATOM      4  C4  I4B d   1      -5.997  -5.241   4.067  0.00  0.00    -0.004 A 
ATOM      5  C5  I4B d   1      -5.270  -4.378   3.253  0.00  0.00     0.002 A 
ATOM      6  C6  I4B d   1      -4.559  -3.310   3.820  0.00  0.00     0.003 A 
ENDROOT
BRANCH   1   7
ATOM      7  C1' I4B d   1      -3.916  -1.934   5.818  0.00  0.00     0.060 C 
BRANCH   7   8
ATOM      8  C2' I4B d   1      -2.996  -1.325   4.779  0.00  0.00    -0.013 C 
ATOM      9  C4' I4B d   1      -2.954   0.176   4.901  0.00  0.00     0.013 C 
ATOM     10  C3' I4B d   1      -1.633  -1.922   4.960  0.00  0.00     0.013 C 
ENDBRANCH   7   8
ENDBRANCH   1   7
TORSDOF 2
ENDMDL
