MODEL 1
REMARK minimizedAffinity 15.938221
REMARK minimizedRMSD -1
REMARK  2 active torsions:
REMARK  status: ('A' for Active; 'I' for Inactive)
REMARK    1  A    between atoms: C2'_3  and  C1'_4 
REMARK    2  A    between atoms: C1'_4  and  C1_5 
ROOT
ATOM      1  C1  I4B d   1      -5.111  -3.611   3.000  0.00  0.00    -0.075 A 
ATOM      2  C2  I4B d   1      -5.650  -3.544   1.739  0.00  0.00     0.003 A 
ATOM      3  C3  I4B d   1      -5.582  -2.340   0.998  0.00  0.00     0.002 A 
ATOM      4  C4  I4B d   1      -5.015  -1.220   1.571  0.00  0.00    -0.004 A 
ATOM      5  C5  I4B d   1      -4.449  -1.296   2.840  0.00  0.00     0.002 A 
ATOM      6  C6  I4B d   1      -4.486  -2.502   3.555  0.00  0.00     0.003 A 
ENDROOT
BRANCH   1   7
ATOM      7  C1' I4B d   1      -5.229  -4.889   3.768  0.00  0.00     0.060 C 
BRANCH   7   8
ATOM      8  C2' I4B d   1      -5.680  -4.549   5.174  0.00  0.00    -0.013 C 
ATOM      9  C4' I4B d   1      -5.961  -5.794   5.973  0.00  0.00     0.013 C 
ATOM     10  C3' I4B d   1      -4.605  -3.724   5.818  0.00  0.00     0.013 C 
ENDBRANCH   7   8
ENDBRANCH   1   7
TORSDOF 2
ENDMDL
