MODEL 1
REMARK minimizedAffinity 16.54426
REMARK minimizedRMSD -1
REMARK  2 active torsions:
REMARK  status: ('A' for Active; 'I' for Inactive)
REMARK    1  A    between atoms: C2'_3  and  C1'_4 
REMARK    2  A    between atoms: C1'_4  and  C1_5 
ROOT
ATOM      1  C1  I4B d   1      -3.855  -3.075   5.351  0.00  0.00    -0.075 A 
ATOM      2  C2  I4B d   1      -3.547  -4.183   4.602  0.00  0.00     0.003 A 
ATOM      3  C3  I4B d   1      -4.473  -5.249   4.493  0.00  0.00     0.002 A 
ATOM      4  C4  I4B d   1      -5.665  -5.188   5.186  0.00  0.00    -0.004 A 
ATOM      5  C5  I4B d   1      -5.984  -4.054   5.926  0.00  0.00     0.002 A 
ATOM      6  C6  I4B d   1      -5.079  -2.985   6.000  0.00  0.00     0.003 A 
ENDROOT
BRANCH   1   7
ATOM      7  C1' I4B d   1      -2.841  -1.982   5.471  0.00  0.00     0.060 C 
BRANCH   7   8
ATOM      8  C2' I4B d   1      -2.173  -1.815   4.121  0.00  0.00    -0.013 C 
ATOM      9  C4' I4B d   1      -2.066  -0.361   3.742  0.00  0.00     0.013 C 
ATOM     10  C3' I4B d   1      -0.820  -2.457   4.191  0.00  0.00     0.013 C 
ENDBRANCH   7   8
ENDBRANCH   1   7
TORSDOF 2
ENDMDL
