MODEL 1
REMARK minimizedAffinity 6.61527014
REMARK minimizedRMSD -1
REMARK  2 active torsions:
REMARK  status: ('A' for Active; 'I' for Inactive)
REMARK    1  A    between atoms: C2'_3  and  C1'_4 
REMARK    2  A    between atoms: C1'_4  and  C1_5 
ROOT
ATOM      1  C1  I4B d   1      -0.451   2.465   0.115  0.00  0.00    -0.075 A 
ATOM      2  C2  I4B d   1       0.025   3.726   0.374  0.00  0.00     0.003 A 
ATOM      3  C3  I4B d   1      -0.052   4.734  -0.617  0.00  0.00     0.002 A 
ATOM      4  C4  I4B d   1      -0.563   4.427  -1.862  0.00  0.00    -0.004 A 
ATOM      5  C5  I4B d   1      -1.066   3.154  -2.115  0.00  0.00     0.002 A 
ATOM      6  C6  I4B d   1      -1.022   2.170  -1.117  0.00  0.00     0.003 A 
ENDROOT
BRANCH   1   7
ATOM      7  C1' I4B d   1      -0.325   1.415   1.173  0.00  0.00     0.060 C 
BRANCH   7   8
ATOM      8  C2' I4B d   1      -1.217   1.810   2.332  0.00  0.00    -0.013 C 
ATOM      9  C4' I4B d   1      -2.188   0.711   2.672  0.00  0.00     0.013 C 
ATOM     10  C3' I4B d   1      -0.338   2.138   3.502  0.00  0.00     0.013 C 
ENDBRANCH   7   8
ENDBRANCH   1   7
TORSDOF 2
ENDMDL
