MODEL 1
REMARK minimizedAffinity 14.8515129
REMARK minimizedRMSD -1
REMARK  2 active torsions:
REMARK  status: ('A' for Active; 'I' for Inactive)
REMARK    1  A    between atoms: C2'_3  and  C1'_4 
REMARK    2  A    between atoms: C1'_4  and  C1_5 
ROOT
ATOM      1  C1  I4B d   1       4.242  -3.423  -4.253  0.00  0.00    -0.075 A 
ATOM      2  C2  I4B d   1       5.571  -3.682  -4.033  0.00  0.00     0.003 A 
ATOM      3  C3  I4B d   1       5.996  -4.228  -2.797  0.00  0.00     0.002 A 
ATOM      4  C4  I4B d   1       5.070  -4.450  -1.798  0.00  0.00    -0.004 A 
ATOM      5  C5  I4B d   1       3.719  -4.208  -2.032  0.00  0.00     0.002 A 
ATOM      6  C6  I4B d   1       3.300  -3.703  -3.271  0.00  0.00     0.003 A 
ENDROOT
BRANCH   1   7
ATOM      7  C1' I4B d   1       3.832  -2.815  -5.557  0.00  0.00     0.060 C 
BRANCH   7   8
ATOM      8  C2' I4B d   1       2.456  -2.207  -5.378  0.00  0.00    -0.013 C 
ATOM      9  C4' I4B d   1       2.379  -0.838  -5.999  0.00  0.00     0.013 C 
ATOM     10  C3' I4B d   1       1.455  -3.138  -5.994  0.00  0.00     0.013 C 
ENDBRANCH   7   8
ENDBRANCH   1   7
TORSDOF 2
ENDMDL
