MODEL 1
REMARK minimizedAffinity 16.5689144
REMARK minimizedRMSD -1
REMARK  2 active torsions:
REMARK  status: ('A' for Active; 'I' for Inactive)
REMARK    1  A    between atoms: C2'_3  and  C1'_4 
REMARK    2  A    between atoms: C1'_4  and  C1_5 
ROOT
ATOM      1  C1  I4B d   1      -2.233   4.406   0.724  0.00  0.00    -0.075 A 
ATOM      2  C2  I4B d   1      -1.571   3.264   0.349  0.00  0.00     0.003 A 
ATOM      3  C3  I4B d   1      -0.229   3.333  -0.096  0.00  0.00     0.002 A 
ATOM      4  C4  I4B d   1       0.392   4.561  -0.198  0.00  0.00    -0.004 A 
ATOM      5  C5  I4B d   1      -0.273   5.715   0.204  0.00  0.00     0.002 A 
ATOM      6  C6  I4B d   1      -1.590   5.637   0.680  0.00  0.00     0.003 A 
ENDROOT
BRANCH   1   7
ATOM      7  C1' I4B d   1      -3.661   4.302   1.159  0.00  0.00     0.060 C 
BRANCH   7   8
ATOM      8  C2' I4B d   1      -4.212   5.707   1.292  0.00  0.00    -0.013 C 
ATOM      9  C4' I4B d   1      -5.283   5.972   0.267  0.00  0.00     0.013 C 
ATOM     10  C3' I4B d   1      -4.745   5.865   2.685  0.00  0.00     0.013 C 
ENDBRANCH   7   8
ENDBRANCH   1   7
TORSDOF 2
ENDMDL
