MODEL 1
REMARK minimizedAffinity -2.70393801
REMARK minimizedRMSD -1
REMARK  2 active torsions:
REMARK  status: ('A' for Active; 'I' for Inactive)
REMARK    1  A    between atoms: C2'_3  and  C1'_4 
REMARK    2  A    between atoms: C1'_4  and  C1_5 
ROOT
ATOM      1  C1  I4B d   1      -5.291  -0.896  -1.057  0.00  0.00    -0.075 A 
ATOM      2  C2  I4B d   1      -6.000  -0.682  -2.213  0.00  0.00     0.003 A 
ATOM      3  C3  I4B d   1      -5.428   0.064  -3.272  0.00  0.00     0.002 A 
ATOM      4  C4  I4B d   1      -4.173   0.615  -3.115  0.00  0.00    -0.004 A 
ATOM      5  C5  I4B d   1      -3.446   0.378  -1.951  0.00  0.00     0.002 A 
ATOM      6  C6  I4B d   1      -4.003  -0.393  -0.921  0.00  0.00     0.003 A 
ENDROOT
BRANCH   1   7
ATOM      7  C1' I4B d   1      -5.938  -1.660   0.054  0.00  0.00     0.060 C 
BRANCH   7   8
ATOM      8  C2' I4B d   1      -5.262  -3.013   0.147  0.00  0.00    -0.013 C 
ATOM      9  C4' I4B d   1      -5.240  -3.515   1.566  0.00  0.00     0.013 C 
ATOM     10  C3' I4B d   1      -5.999  -3.961  -0.752  0.00  0.00     0.013 C 
ENDBRANCH   7   8
ENDBRANCH   1   7
TORSDOF 2
ENDMDL
