MODEL 1
REMARK minimizedAffinity -1.81469822
REMARK minimizedRMSD -1
REMARK  2 active torsions:
REMARK  status: ('A' for Active; 'I' for Inactive)
REMARK    1  A    between atoms: C2'_3  and  C1'_4 
REMARK    2  A    between atoms: C1'_4  and  C1_5 
ROOT
ATOM      1  C1  I4B d   1      -3.966  -3.239   4.364  0.00  0.00    -0.075 A 
ATOM      2  C2  I4B d   1      -3.761  -2.536   5.525  0.00  0.00     0.003 A 
ATOM      3  C3  I4B d   1      -2.447  -2.204   5.935  0.00  0.00     0.002 A 
ATOM      4  C4  I4B d   1      -1.372  -2.635   5.185  0.00  0.00    -0.004 A 
ATOM      5  C5  I4B d   1      -1.582  -3.328   3.996  0.00  0.00     0.002 A 
ATOM      6  C6  I4B d   1      -2.888  -3.621   3.576  0.00  0.00     0.003 A 
ENDROOT
BRANCH   1   7
ATOM      7  C1' I4B d   1      -5.365  -3.601   3.978  0.00  0.00     0.060 C 
BRANCH   7   8
ATOM      8  C2' I4B d   1      -5.299  -4.810   3.067  0.00  0.00    -0.013 C 
ATOM      9  C4' I4B d   1      -5.982  -5.999   3.690  0.00  0.00     0.013 C 
ATOM     10  C3' I4B d   1      -5.938  -4.442   1.762  0.00  0.00     0.013 C 
ENDBRANCH   7   8
ENDBRANCH   1   7
TORSDOF 2
ENDMDL
