MODEL 1
REMARK minimizedAffinity 2.68836641
REMARK minimizedRMSD -1
REMARK  2 active torsions:
REMARK  status: ('A' for Active; 'I' for Inactive)
REMARK    1  A    between atoms: C2'_3  and  C1'_4 
REMARK    2  A    between atoms: C1'_4  and  C1_5 
ROOT
ATOM      1  C1  I4B d   1      -0.885   0.671   1.985  0.00  0.00    -0.075 A 
ATOM      2  C2  I4B d   1      -0.621   1.525   3.027  0.00  0.00     0.003 A 
ATOM      3  C3  I4B d   1      -0.077   2.808   2.777  0.00  0.00     0.002 A 
ATOM      4  C4  I4B d   1       0.232   3.175   1.484  0.00  0.00    -0.004 A 
ATOM      5  C5  I4B d   1      -0.058   2.318   0.426  0.00  0.00     0.002 A 
ATOM      6  C6  I4B d   1      -0.632   1.062   0.677  0.00  0.00     0.003 A 
ENDROOT
BRANCH   1   7
ATOM      7  C1' I4B d   1      -1.429  -0.689   2.288  0.00  0.00     0.060 C 
BRANCH   7   8
ATOM      8  C2' I4B d   1      -0.307  -1.519   2.877  0.00  0.00    -0.013 C 
ATOM      9  C4' I4B d   1      -0.839  -2.558   3.829  0.00  0.00     0.013 C 
ATOM     10  C3' I4B d   1       0.442  -2.156   1.745  0.00  0.00     0.013 C 
ENDBRANCH   7   8
ENDBRANCH   1   7
TORSDOF 2
ENDMDL
