MODEL 1
REMARK minimizedAffinity 5.46780586
REMARK minimizedRMSD -1
REMARK  1 active torsions:
REMARK  status: ('A' for Active; 'I' for Inactive)
REMARK    1  A    between atoms: C1_2  and  C2_3 
ROOT
ATOM      1  C2  UNL d   1       1.935  -2.023  -1.870  0.00  0.00    -0.081 A 
ATOM      2  C3  UNL d   1       2.787  -2.242  -0.781  0.00  0.00     0.006 A 
ATOM      3  C4  UNL d   1       3.240  -3.529  -0.485  0.00  0.00     0.002 A 
ATOM      4  C5  UNL d   1       2.856  -4.617  -1.276  0.00  0.00    -0.080 A 
ATOM      5  C6  UNL d   1       3.359  -6.000  -0.987  0.00  0.00     0.076 C 
ATOM      6  C7  UNL d   1       1.990  -4.401  -2.353  0.00  0.00     0.002 A 
ATOM      7  C8  UNL d   1       1.536  -3.114  -2.650  0.00  0.00     0.006 A 
ENDROOT
BRANCH   1   8
ATOM      8  C1  UNL d   1       1.496  -0.626  -2.231  0.00  0.00     0.054 C 
ATOM      9  C   UNL d   1       2.225   0.416  -1.395  0.00  0.00     0.018 C 
ENDBRANCH   1   8
TORSDOF 1
ENDMDL
