MODEL 1
REMARK minimizedAffinity 6.73835421
REMARK minimizedRMSD -1
REMARK  1 active torsions:
REMARK  status: ('A' for Active; 'I' for Inactive)
REMARK    1  A    between atoms: C1_2  and  C2_3 
ROOT
ATOM      1  C2  UNL d   1      -2.485  -4.768  -4.856  0.00  0.00    -0.081 A 
ATOM      2  C3  UNL d   1      -3.500  -5.331  -5.639  0.00  0.00     0.006 A 
ATOM      3  C4  UNL d   1      -4.620  -4.577  -5.997  0.00  0.00     0.002 A 
ATOM      4  C5  UNL d   1      -4.740  -3.246  -5.585  0.00  0.00    -0.080 A 
ATOM      5  C6  UNL d   1      -5.923  -2.416  -5.987  0.00  0.00     0.076 C 
ATOM      6  C7  UNL d   1      -3.735  -2.688  -4.788  0.00  0.00     0.002 A 
ATOM      7  C8  UNL d   1      -2.615  -3.442  -4.429  0.00  0.00     0.006 A 
ENDROOT
BRANCH   1   8
ATOM      8  C1  UNL d   1      -1.246  -5.558  -4.523  0.00  0.00     0.054 C 
ATOM      9  C   UNL d   1      -0.828  -5.348  -3.074  0.00  0.00     0.018 C 
ENDBRANCH   1   8
TORSDOF 1
ENDMDL
