MODEL 1
REMARK minimizedAffinity 12.9015121
REMARK minimizedRMSD -1
REMARK  1 active torsions:
REMARK  status: ('A' for Active; 'I' for Inactive)
REMARK    1  A    between atoms: C1_2  and  C2_3 
ROOT
ATOM      1  C2  UNL d   1       2.087  -2.466  -2.165  0.00  0.00    -0.081 A 
ATOM      2  C3  UNL d   1       2.995  -2.387  -1.102  0.00  0.00     0.006 A 
ATOM      3  C4  UNL d   1       3.318  -3.526  -0.361  0.00  0.00     0.002 A 
ATOM      4  C5  UNL d   1       2.746  -4.763  -0.675  0.00  0.00    -0.080 A 
ATOM      5  C6  UNL d   1       3.107  -5.999   0.093  0.00  0.00     0.076 C 
ATOM      6  C7  UNL d   1       1.826  -4.839  -1.726  0.00  0.00     0.002 A 
ATOM      7  C8  UNL d   1       1.502  -3.700  -2.467  0.00  0.00     0.006 A 
ENDROOT
BRANCH   1   8
ATOM      8  C1  UNL d   1       1.786  -1.252  -3.008  0.00  0.00     0.054 C 
ATOM      9  C   UNL d   1       1.122  -0.158  -2.184  0.00  0.00     0.018 C 
ENDBRANCH   1   8
TORSDOF 1
ENDMDL
