MODEL 1
REMARK minimizedAffinity 12.2965813
REMARK minimizedRMSD -1
REMARK  1 active torsions:
REMARK  status: ('A' for Active; 'I' for Inactive)
REMARK    1  A    between atoms: C1_2  and  C2_3 
ROOT
ATOM      1  C2  UNL d   1      -2.675   2.269  -4.124  0.00  0.00    -0.081 A 
ATOM      2  C3  UNL d   1      -2.042   3.460  -3.748  0.00  0.00     0.006 A 
ATOM      3  C4  UNL d   1      -2.384   4.668  -4.361  0.00  0.00     0.002 A 
ATOM      4  C5  UNL d   1      -3.368   4.706  -5.355  0.00  0.00    -0.080 A 
ATOM      5  C6  UNL d   1      -3.766   6.000  -6.000  0.00  0.00     0.076 C 
ATOM      6  C7  UNL d   1      -3.988   3.513  -5.743  0.00  0.00     0.002 A 
ATOM      7  C8  UNL d   1      -3.646   2.305  -5.130  0.00  0.00     0.006 A 
ENDROOT
BRANCH   1   8
ATOM      8  C1  UNL d   1      -2.355   0.976  -3.419  0.00  0.00     0.054 C 
ATOM      9  C   UNL d   1      -2.945  -0.218  -4.157  0.00  0.00     0.018 C 
ENDBRANCH   1   8
TORSDOF 1
ENDMDL
