MODEL 1
REMARK minimizedAffinity 18.9972019
REMARK minimizedRMSD -1
REMARK  1 active torsions:
REMARK  status: ('A' for Active; 'I' for Inactive)
REMARK    1  A    between atoms: C1_2  and  C2_3 
ROOT
ATOM      1  C2  UNL d   1      -1.976   0.944   2.681  0.00  0.00    -0.081 A 
ATOM      2  C3  UNL d   1      -3.021   0.013   2.642  0.00  0.00     0.006 A 
ATOM      3  C4  UNL d   1      -4.322   0.394   2.977  0.00  0.00     0.002 A 
ATOM      4  C5  UNL d   1      -4.602   1.714   3.348  0.00  0.00    -0.080 A 
ATOM      5  C6  UNL d   1      -6.000   2.144   3.681  0.00  0.00     0.076 C 
ATOM      6  C7  UNL d   1      -3.555   2.640   3.404  0.00  0.00     0.002 A 
ATOM      7  C8  UNL d   1      -2.253   2.259   3.070  0.00  0.00     0.006 A 
ENDROOT
BRANCH   1   8
ATOM      8  C1  UNL d   1      -0.583   0.551   2.258  0.00  0.00     0.054 C 
ATOM      9  C   UNL d   1       0.469   1.362   3.001  0.00  0.00     0.018 C 
ENDBRANCH   1   8
TORSDOF 1
ENDMDL
