MODEL 1
REMARK minimizedAffinity 12.6989803
REMARK minimizedRMSD -1
REMARK  1 active torsions:
REMARK  status: ('A' for Active; 'I' for Inactive)
REMARK    1  A    between atoms: C1_2  and  C2_3 
ROOT
ATOM      1  C2  UNL d   1       3.660   0.126   0.050  0.00  0.00    -0.081 A 
ATOM      2  C3  UNL d   1       4.556  -0.723   0.710  0.00  0.00     0.006 A 
ATOM      3  C4  UNL d   1       4.334  -2.102   0.741  0.00  0.00     0.002 A 
ATOM      4  C5  UNL d   1       3.216  -2.655   0.106  0.00  0.00    -0.080 A 
ATOM      5  C6  UNL d   1       2.982  -4.136   0.106  0.00  0.00     0.076 C 
ATOM      6  C7  UNL d   1       2.311  -1.804  -0.538  0.00  0.00     0.002 A 
ATOM      7  C8  UNL d   1       2.533  -0.426  -0.569  0.00  0.00     0.006 A 
ENDROOT
BRANCH   1   8
ATOM      8  C1  UNL d   1       3.931   1.606  -0.040  0.00  0.00     0.054 C 
ATOM      9  C   UNL d   1       3.814   2.274   1.323  0.00  0.00     0.018 C 
ENDBRANCH   1   8
TORSDOF 1
ENDMDL
