MODEL 1
REMARK minimizedAffinity 22.0788765
REMARK minimizedRMSD -1
REMARK  1 active torsions:
REMARK  status: ('A' for Active; 'I' for Inactive)
REMARK    1  A    between atoms: C1_2  and  C2_3 
ROOT
ATOM      1  C2  UNL d   1      -3.681  -3.382  -4.154  0.00  0.00    -0.081 A 
ATOM      2  C3  UNL d   1      -2.506  -2.652  -4.371  0.00  0.00     0.006 A 
ATOM      3  C4  UNL d   1      -1.314  -3.027  -3.748  0.00  0.00     0.002 A 
ATOM      4  C5  UNL d   1      -1.274  -4.142  -2.904  0.00  0.00    -0.080 A 
ATOM      5  C6  UNL d   1       0.006  -4.574  -2.253  0.00  0.00     0.076 C 
ATOM      6  C7  UNL d   1      -2.452  -4.862  -2.674  0.00  0.00     0.002 A 
ATOM      7  C8  UNL d   1      -3.645  -4.486  -3.296  0.00  0.00     0.006 A 
ENDROOT
BRANCH   1   8
ATOM      8  C1  UNL d   1      -4.953  -3.018  -4.876  0.00  0.00     0.054 C 
ATOM      9  C   UNL d   1      -5.252  -4.000  -6.000  0.00  0.00     0.018 C 
ENDBRANCH   1   8
TORSDOF 1
ENDMDL
