MODEL 1
REMARK minimizedAffinity 17.5920658
REMARK minimizedRMSD -1
REMARK  1 active torsions:
REMARK  status: ('A' for Active; 'I' for Inactive)
REMARK    1  A    between atoms: C1_2  and  C2_3 
ROOT
ATOM      1  C2  UNL d   1       1.466  -4.132  -2.184  0.00  0.00    -0.081 A 
ATOM      2  C3  UNL d   1       2.022  -4.626  -0.997  0.00  0.00     0.006 A 
ATOM      3  C4  UNL d   1       2.698  -3.773  -0.122  0.00  0.00     0.002 A 
ATOM      4  C5  UNL d   1       2.823  -2.410  -0.415  0.00  0.00    -0.080 A 
ATOM      5  C6  UNL d   1       3.520  -1.477   0.530  0.00  0.00     0.076 C 
ATOM      6  C7  UNL d   1       2.283  -1.920  -1.609  0.00  0.00     0.002 A 
ATOM      7  C8  UNL d   1       1.607  -2.773  -2.484  0.00  0.00     0.006 A 
ENDROOT
BRANCH   1   8
ATOM      8  C1  UNL d   1       0.681  -5.038  -3.098  0.00  0.00     0.054 C 
ATOM      9  C   UNL d   1      -0.789  -5.080  -2.705  0.00  0.00     0.018 C 
ENDBRANCH   1   8
TORSDOF 1
ENDMDL
