MODEL 1
REMARK minimizedAffinity 12.9617634
REMARK minimizedRMSD -1
REMARK  1 active torsions:
REMARK  status: ('A' for Active; 'I' for Inactive)
REMARK    1  A    between atoms: C1_2  and  C2_3 
ROOT
ATOM      1  C2  UNL d   1       0.556  -3.047  -2.218  0.00  0.00    -0.081 A 
ATOM      2  C3  UNL d   1       1.115  -3.292  -0.957  0.00  0.00     0.006 A 
ATOM      3  C4  UNL d   1       1.872  -2.309  -0.315  0.00  0.00     0.002 A 
ATOM      4  C5  UNL d   1       2.075  -1.063  -0.918  0.00  0.00    -0.080 A 
ATOM      5  C6  UNL d   1       2.860   0.011  -0.226  0.00  0.00     0.076 C 
ATOM      6  C7  UNL d   1       1.532  -0.825  -2.185  0.00  0.00     0.002 A 
ATOM      7  C8  UNL d   1       0.776  -1.808  -2.828  0.00  0.00     0.006 A 
ENDROOT
BRANCH   1   8
ATOM      8  C1  UNL d   1      -0.314  -4.082  -2.884  0.00  0.00     0.054 C 
ATOM      9  C   UNL d   1      -1.528  -4.418  -2.030  0.00  0.00     0.018 C 
ENDBRANCH   1   8
TORSDOF 1
ENDMDL
