MODEL 1
REMARK minimizedAffinity 15.5175428
REMARK minimizedRMSD -1
REMARK  1 active torsions:
REMARK  status: ('A' for Active; 'I' for Inactive)
REMARK    1  A    between atoms: C1_2  and  C2_3 
ROOT
ATOM      1  C2  UNL d   1      -2.754  -4.627  -3.557  0.00  0.00    -0.081 A 
ATOM      2  C3  UNL d   1      -2.852  -3.249  -3.782  0.00  0.00     0.006 A 
ATOM      3  C4  UNL d   1      -3.875  -2.734  -4.582  0.00  0.00     0.002 A 
ATOM      4  C5  UNL d   1      -4.820  -3.586  -5.163  0.00  0.00    -0.080 A 
ATOM      5  C6  UNL d   1      -5.941  -3.043  -5.999  0.00  0.00     0.076 C 
ATOM      6  C7  UNL d   1      -4.712  -4.965  -4.952  0.00  0.00     0.002 A 
ATOM      7  C8  UNL d   1      -3.689  -5.481  -4.152  0.00  0.00     0.006 A 
ENDROOT
BRANCH   1   8
ATOM      8  C1  UNL d   1      -1.691  -5.180  -2.642  0.00  0.00     0.054 C 
ATOM      9  C   UNL d   1      -0.449  -4.301  -2.642  0.00  0.00     0.018 C 
ENDBRANCH   1   8
TORSDOF 1
ENDMDL
