MODEL 1
REMARK minimizedAffinity 25.8220654
REMARK minimizedRMSD -1
REMARK  1 active torsions:
REMARK  status: ('A' for Active; 'I' for Inactive)
REMARK    1  A    between atoms: C1_2  and  C2_3 
ROOT
ATOM      1  C2  UNL d   1      -3.264   1.502   3.402  0.00  0.00    -0.081 A 
ATOM      2  C3  UNL d   1      -2.453   1.254   4.516  0.00  0.00     0.006 A 
ATOM      3  C4  UNL d   1      -1.062   1.240   4.391  0.00  0.00     0.002 A 
ATOM      4  C5  UNL d   1      -0.458   1.483   3.153  0.00  0.00    -0.080 A 
ATOM      5  C6  UNL d   1       1.035   1.501   3.011  0.00  0.00     0.076 C 
ATOM      6  C7  UNL d   1      -1.268   1.714   2.036  0.00  0.00     0.002 A 
ATOM      7  C8  UNL d   1      -2.659   1.727   2.160  0.00  0.00     0.006 A 
ENDROOT
BRANCH   1   8
ATOM      8  C1  UNL d   1      -4.762   1.582   3.546  0.00  0.00     0.054 C 
ATOM      9  C   UNL d   1      -5.218   3.010   3.807  0.00  0.00     0.018 C 
ENDBRANCH   1   8
TORSDOF 1
ENDMDL
