MODEL 1
REMARK minimizedAffinity -4.95026875
REMARK minimizedRMSD -1
REMARK  3 active torsions:
REMARK  status: ('A' for Active; 'I' for Inactive)
REMARK    1  A    between atoms: C3'_2  and  C2'_3 
REMARK    2  A    between atoms: C2'_3  and  C1'_4 
REMARK    3  A    between atoms: C1'_4  and  C1_5 
ROOT
ATOM      1  C1  N4B d   1       0.378  -0.220   0.690  0.00  0.00    -0.075 A 
ATOM      2  C2  N4B d   1      -1.001   0.084   0.692  0.00  0.00     0.002 A 
ATOM      3  C3  N4B d   1      -1.564   0.715   1.774  0.00  0.00     0.002 A 
ATOM      4  C4  N4B d   1      -0.774   1.035   2.868  0.00  0.00    -0.004 A 
ATOM      5  C5  N4B d   1       0.562   0.761   2.848  0.00  0.00     0.002 A 
ATOM      6  C6  N4B d   1       1.142   0.130   1.766  0.00  0.00     0.002 A 
ENDROOT
BRANCH   1   7
ATOM      7  C1' N4B d   1       1.022  -0.986  -0.433  0.00  0.00     0.057 C 
BRANCH   7   8
ATOM      8  C2' N4B d   1       0.465  -0.487  -1.763  0.00  0.00     0.009 C 
BRANCH   8   9
ATOM      9  C3' N4B d   1       1.500   0.295  -2.554  0.00  0.00     0.004 C 
ATOM     10  C4' N4B d   1       1.081   0.542  -3.973  0.00  0.00     0.003 C 
ENDBRANCH   8   9
ENDBRANCH   7   8
ENDBRANCH   1   7
TORSDOF 3
ENDMDL
