MODEL 1
REMARK minimizedAffinity -5.08225679
REMARK minimizedRMSD -1
REMARK  3 active torsions:
REMARK  status: ('A' for Active; 'I' for Inactive)
REMARK    1  A    between atoms: C3'_2  and  C2'_3 
REMARK    2  A    between atoms: C2'_3  and  C1'_4 
REMARK    3  A    between atoms: C1'_4  and  C1_5 
ROOT
ATOM      1  C1  N4B d   1       0.360   0.538   1.102  0.00  0.00    -0.075 A 
ATOM      2  C2  N4B d   1       1.545  -0.090   0.660  0.00  0.00     0.002 A 
ATOM      3  C3  N4B d   1       1.576  -0.714  -0.563  0.00  0.00     0.002 A 
ATOM      4  C4  N4B d   1       0.434  -0.739  -1.350  0.00  0.00    -0.004 A 
ATOM      5  C5  N4B d   1      -0.699  -0.108  -0.927  0.00  0.00     0.002 A 
ATOM      6  C6  N4B d   1      -0.744   0.527   0.299  0.00  0.00     0.002 A 
ENDROOT
BRANCH   1   7
ATOM      7  C1' N4B d   1       0.252   1.159   2.468  0.00  0.00     0.057 C 
BRANCH   7   8
ATOM      8  C2' N4B d   1      -1.194   1.067   2.947  0.00  0.00     0.009 C 
BRANCH   8   9
ATOM      9  C3' N4B d   1      -1.467  -0.233   3.684  0.00  0.00     0.004 C 
ATOM     10  C4' N4B d   1      -2.848  -0.762   3.436  0.00  0.00     0.003 C 
ENDBRANCH   8   9
ENDBRANCH   7   8
ENDBRANCH   1   7
TORSDOF 3
ENDMDL
