MODEL 1
REMARK minimizedAffinity -6.09214115
REMARK minimizedRMSD -1
REMARK  3 active torsions:
REMARK  status: ('A' for Active; 'I' for Inactive)
REMARK    1  A    between atoms: C3'_2  and  C2'_3 
REMARK    2  A    between atoms: C2'_3  and  C1'_4 
REMARK    3  A    between atoms: C1'_4  and  C1_5 
ROOT
ATOM      1  C1  N4B d   1       0.161   0.355   1.057  0.00  0.00    -0.075 A 
ATOM      2  C2  N4B d   1      -0.728   0.913   2.002  0.00  0.00     0.002 A 
ATOM      3  C3  N4B d   1      -0.310   1.130   3.292  0.00  0.00     0.002 A 
ATOM      4  C4  N4B d   1       0.980   0.782   3.663  0.00  0.00    -0.004 A 
ATOM      5  C5  N4B d   1       1.840   0.268   2.738  0.00  0.00     0.002 A 
ATOM      6  C6  N4B d   1       1.435   0.048   1.436  0.00  0.00     0.002 A 
ENDROOT
BRANCH   1   7
ATOM      7  C1' N4B d   1      -0.277   0.020  -0.343  0.00  0.00     0.057 C 
BRANCH   7   8
ATOM      8  C2' N4B d   1       0.644  -1.056  -0.911  0.00  0.00     0.009 C 
BRANCH   8   9
ATOM      9  C3' N4B d   1       0.570  -1.125  -2.427  0.00  0.00     0.004 C 
ATOM     10  C4' N4B d   1       1.621  -0.292  -3.097  0.00  0.00     0.003 C 
ENDBRANCH   8   9
ENDBRANCH   7   8
ENDBRANCH   1   7
TORSDOF 3
ENDMDL
