MODEL 1
REMARK minimizedAffinity -4.81333208
REMARK minimizedRMSD -1
REMARK  3 active torsions:
REMARK  status: ('A' for Active; 'I' for Inactive)
REMARK    1  A    between atoms: C3'_2  and  C2'_3 
REMARK    2  A    between atoms: C2'_3  and  C1'_4 
REMARK    3  A    between atoms: C1'_4  and  C1_5 
ROOT
ATOM      1  C1  N4B d   1       0.704   0.154   1.054  0.00  0.00    -0.075 A 
ATOM      2  C2  N4B d   1       1.570   0.104   2.169  0.00  0.00     0.002 A 
ATOM      3  C3  N4B d   1       1.207   0.708   3.348  0.00  0.00     0.002 A 
ATOM      4  C4  N4B d   1      -0.003   1.380   3.430  0.00  0.00    -0.004 A 
ATOM      5  C5  N4B d   1      -0.844   1.402   2.357  0.00  0.00     0.002 A 
ATOM      6  C6  N4B d   1      -0.495   0.797   1.167  0.00  0.00     0.002 A 
ENDROOT
BRANCH   1   7
ATOM      7  C1' N4B d   1       1.095  -0.418  -0.281  0.00  0.00     0.057 C 
BRANCH   7   8
ATOM      8  C2' N4B d   1      -0.123  -0.420  -1.201  0.00  0.00     0.009 C 
BRANCH   8   9
ATOM      9  C3' N4B d   1       0.243  -0.788  -2.628  0.00  0.00     0.004 C 
ATOM     10  C4' N4B d   1       0.264   0.397  -3.547  0.00  0.00     0.003 C 
ENDBRANCH   8   9
ENDBRANCH   7   8
ENDBRANCH   1   7
TORSDOF 3
ENDMDL
