MODEL 1
REMARK minimizedAffinity -2.99715805
REMARK minimizedRMSD -1
REMARK  0 active torsions:
REMARK  status: ('A' for Active; 'I' for Inactive)
ROOT
ATOM      1  C   UNL d   1      -0.368   0.007  -2.235  0.00  0.00     0.172 C 
ATOM      2  N   UNL d   1      -0.335   1.431  -2.475  0.00  0.00    -0.070 N 
ATOM      3  C1  UNL d   1       0.533   2.080  -3.312  0.00  0.00    -0.004 A 
ATOM      4  C2  UNL d   1       0.240   3.425  -3.262  0.00  0.00    -0.047 A 
ATOM      5  C3  UNL d   1      -0.840   3.591  -2.364  0.00  0.00    -0.047 A 
ATOM      6  C4  UNL d   1      -1.177   2.340  -1.891  0.00  0.00    -0.004 A 
ENDROOT
TORSDOF 0
ENDMDL
