MODEL 1
REMARK minimizedAffinity -3.38504505
REMARK minimizedRMSD -1
REMARK  0 active torsions:
REMARK  status: ('A' for Active; 'I' for Inactive)
ROOT
ATOM      1  C   UNL d   1      -0.089   0.155  -0.630  0.00  0.00     0.172 C 
ATOM      2  N   UNL d   1       0.282  -0.301   0.689  0.00  0.00    -0.070 N 
ATOM      3  C1  UNL d   1       1.399  -1.030   0.997  0.00  0.00    -0.004 A 
ATOM      4  C2  UNL d   1       1.391  -1.263   2.355  0.00  0.00    -0.047 A 
ATOM      5  C3  UNL d   1       0.227  -0.653   2.882  0.00  0.00    -0.047 A 
ATOM      6  C4  UNL d   1      -0.440  -0.064   1.828  0.00  0.00    -0.004 A 
ENDROOT
TORSDOF 0
ENDMDL
