MODEL 1
REMARK minimizedAffinity -3.04210854
REMARK minimizedRMSD -1
REMARK  0 active torsions:
REMARK  status: ('A' for Active; 'I' for Inactive)
ROOT
ATOM      1  C   UNL d   1      -0.101   0.183  -0.987  0.00  0.00     0.172 C 
ATOM      2  N   UNL d   1       0.396  -0.062   0.347  0.00  0.00    -0.070 N 
ATOM      3  C1  UNL d   1      -0.273   0.205   1.511  0.00  0.00    -0.004 A 
ATOM      4  C2  UNL d   1       0.537  -0.171   2.560  0.00  0.00    -0.047 A 
ATOM      5  C3  UNL d   1       1.735  -0.683   2.007  0.00  0.00    -0.047 A 
ATOM      6  C4  UNL d   1       1.621  -0.603   0.636  0.00  0.00    -0.004 A 
ENDROOT
TORSDOF 0
ENDMDL
