MODEL 1
REMARK minimizedAffinity 0.0138393743
REMARK minimizedRMSD -1
REMARK  0 active torsions:
REMARK  status: ('A' for Active; 'I' for Inactive)
ROOT
ATOM      1  C   UNL d   1      -0.277   2.827  -2.636  0.00  0.00     0.172 C 
ATOM      2  N   UNL d   1      -0.495   1.624  -1.867  0.00  0.00    -0.070 N 
ATOM      3  C1  UNL d   1       0.021   1.366  -0.626  0.00  0.00    -0.004 A 
ATOM      4  C2  UNL d   1      -0.418   0.119  -0.237  0.00  0.00    -0.047 A 
ATOM      5  C3  UNL d   1      -1.226  -0.390  -1.281  0.00  0.00    -0.047 A 
ATOM      6  C4  UNL d   1      -1.256   0.562  -2.278  0.00  0.00    -0.004 A 
ENDROOT
TORSDOF 0
ENDMDL
