MODEL 1
REMARK minimizedAffinity -2.86951232
REMARK minimizedRMSD -1
REMARK  0 active torsions:
REMARK  status: ('A' for Active; 'I' for Inactive)
ROOT
ATOM      1  C   UNL d   1      -0.634   0.573  -1.058  0.00  0.00     0.172 C 
ATOM      2  N   UNL d   1      -0.248   0.115   0.256  0.00  0.00    -0.070 N 
ATOM      3  C1  UNL d   1       1.035  -0.112   0.678  0.00  0.00    -0.004 A 
ATOM      4  C2  UNL d   1       0.980  -0.539   1.987  0.00  0.00    -0.047 A 
ATOM      5  C3  UNL d   1      -0.383  -0.570   2.365  0.00  0.00    -0.047 A 
ATOM      6  C4  UNL d   1      -1.121  -0.161   1.275  0.00  0.00    -0.004 A 
ENDROOT
TORSDOF 0
ENDMDL
