MODEL 1
REMARK minimizedAffinity -1.9960283
REMARK minimizedRMSD -1
REMARK  0 active torsions:
REMARK  status: ('A' for Active; 'I' for Inactive)
ROOT
ATOM      1  C   UNL d   1      -0.553   2.228  -2.274  0.00  0.00     0.172 C 
ATOM      2  N   UNL d   1      -0.217   1.130  -1.399  0.00  0.00    -0.070 N 
ATOM      3  C1  UNL d   1      -0.101  -0.182  -1.772  0.00  0.00    -0.004 A 
ATOM      4  C2  UNL d   1       0.232  -0.912  -0.651  0.00  0.00    -0.047 A 
ATOM      5  C3  UNL d   1       0.317  -0.008   0.433  0.00  0.00    -0.047 A 
ATOM      6  C4  UNL d   1       0.034   1.250  -0.057  0.00  0.00    -0.004 A 
ENDROOT
TORSDOF 0
ENDMDL
