MODEL 1
REMARK minimizedAffinity 6.59183359
REMARK minimizedRMSD -1
REMARK  3 active torsions:
REMARK  status: ('A' for Active; 'I' for Inactive)
REMARK    1  A    between atoms: C3'_2  and  C2'_3 
REMARK    2  A    between atoms: C2'_3  and  C1'_4 
REMARK    3  A    between atoms: C1'_4  and  C1_5 
ROOT
ATOM      1  C1  N4B d   1      -5.284  -2.269  -4.337  0.00  0.00    -0.075 A 
ATOM      2  C2  N4B d   1      -5.469  -3.009  -3.149  0.00  0.00     0.002 A 
ATOM      3  C3  N4B d   1      -4.880  -2.592  -1.981  0.00  0.00     0.002 A 
ATOM      4  C4  N4B d   1      -4.088  -1.453  -1.981  0.00  0.00    -0.004 A 
ATOM      5  C5  N4B d   1      -3.935  -0.730  -3.127  0.00  0.00     0.002 A 
ATOM      6  C6  N4B d   1      -4.525  -1.135  -4.307  0.00  0.00     0.002 A 
ENDROOT
BRANCH   1   7
ATOM      7  C1' N4B d   1      -5.838  -2.732  -5.657  0.00  0.00     0.057 C 
BRANCH   7   8
ATOM      8  C2' N4B d   1      -5.479  -4.201  -5.862  0.00  0.00     0.009 C 
BRANCH   8   9
ATOM      9  C3' N4B d   1      -3.977  -4.428  -5.835  0.00  0.00     0.004 C 
ATOM     10  C4' N4B d   1      -3.605  -5.872  -5.997  0.00  0.00     0.003 C 
ENDBRANCH   8   9
ENDBRANCH   7   8
ENDBRANCH   1   7
TORSDOF 3
ENDMDL
