MODEL 1
REMARK minimizedAffinity 0.59949398
REMARK minimizedRMSD -1
REMARK  3 active torsions:
REMARK  status: ('A' for Active; 'I' for Inactive)
REMARK    1  A    between atoms: C3'_2  and  C2'_3 
REMARK    2  A    between atoms: C2'_3  and  C1'_4 
REMARK    3  A    between atoms: C1'_4  and  C1_5 
ROOT
ATOM      1  C1  N4B d   1      -5.263  -3.659  -4.388  0.00  0.00    -0.075 A 
ATOM      2  C2  N4B d   1      -5.954  -4.890  -4.358  0.00  0.00     0.002 A 
ATOM      3  C3  N4B d   1      -5.538  -5.931  -5.150  0.00  0.00     0.002 A 
ATOM      4  C4  N4B d   1      -4.449  -5.760  -5.992  0.00  0.00    -0.004 A 
ATOM      5  C5  N4B d   1      -3.771  -4.576  -5.997  0.00  0.00     0.002 A 
ATOM      6  C6  N4B d   1      -4.176  -3.522  -5.203  0.00  0.00     0.002 A 
ENDROOT
BRANCH   1   7
ATOM      7  C1' N4B d   1      -5.733  -2.464  -3.604  0.00  0.00     0.057 C 
BRANCH   7   8
ATOM      8  C2' N4B d   1      -5.997  -2.885  -2.161  0.00  0.00     0.009 C 
BRANCH   8   9
ATOM      9  C3' N4B d   1      -5.132  -2.115  -1.178  0.00  0.00     0.004 C 
ATOM     10  C4' N4B d   1      -5.838  -1.825   0.113  0.00  0.00     0.003 C 
ENDBRANCH   8   9
ENDBRANCH   7   8
ENDBRANCH   1   7
TORSDOF 3
ENDMDL
