MODEL 1
REMARK minimizedAffinity 14.3841619
REMARK minimizedRMSD -1
REMARK  3 active torsions:
REMARK  status: ('A' for Active; 'I' for Inactive)
REMARK    1  A    between atoms: C3'_2  and  C2'_3 
REMARK    2  A    between atoms: C2'_3  and  C1'_4 
REMARK    3  A    between atoms: C1'_4  and  C1_5 
ROOT
ATOM      1  C1  N4B d   1       2.219   4.238  -3.358  0.00  0.00    -0.075 A 
ATOM      2  C2  N4B d   1       3.372   3.579  -3.839  0.00  0.00     0.002 A 
ATOM      3  C3  N4B d   1       3.752   3.728  -5.150  0.00  0.00     0.002 A 
ATOM      4  C4  N4B d   1       2.987   4.513  -6.000  0.00  0.00    -0.004 A 
ATOM      5  C5  N4B d   1       1.890   5.167  -5.521  0.00  0.00     0.002 A 
ATOM      6  C6  N4B d   1       1.498   5.028  -4.205  0.00  0.00     0.002 A 
ENDROOT
BRANCH   1   7
ATOM      7  C1' N4B d   1       1.717   4.036  -1.955  0.00  0.00     0.057 C 
BRANCH   7   8
ATOM      8  C2' N4B d   1       0.815   2.805  -1.918  0.00  0.00     0.009 C 
BRANCH   8   9
ATOM      9  C3' N4B d   1       1.501   1.618  -1.264  0.00  0.00     0.004 C 
ATOM     10  C4' N4B d   1       2.219   0.746  -2.250  0.00  0.00     0.003 C 
ENDBRANCH   8   9
ENDBRANCH   7   8
ENDBRANCH   1   7
TORSDOF 3
ENDMDL
