MODEL 1
REMARK minimizedAffinity 7.27707815
REMARK minimizedRMSD -1
REMARK  3 active torsions:
REMARK  status: ('A' for Active; 'I' for Inactive)
REMARK    1  A    between atoms: C3'_2  and  C2'_3 
REMARK    2  A    between atoms: C2'_3  and  C1'_4 
REMARK    3  A    between atoms: C1'_4  and  C1_5 
ROOT
ATOM      1  C1  N4B d   1      -5.281  -3.399  -4.836  0.00  0.00    -0.075 A 
ATOM      2  C2  N4B d   1      -5.988  -4.620  -4.877  0.00  0.00     0.002 A 
ATOM      3  C3  N4B d   1      -5.412  -5.729  -5.448  0.00  0.00     0.002 A 
ATOM      4  C4  N4B d   1      -4.142  -5.636  -5.998  0.00  0.00    -0.004 A 
ATOM      5  C5  N4B d   1      -3.455  -4.459  -5.931  0.00  0.00     0.002 A 
ATOM      6  C6  N4B d   1      -4.021  -3.338  -5.357  0.00  0.00     0.002 A 
ENDROOT
BRANCH   1   7
ATOM      7  C1' N4B d   1      -5.902  -2.139  -4.300  0.00  0.00     0.057 C 
BRANCH   7   8
ATOM      8  C2' N4B d   1      -4.957  -1.508  -3.282  0.00  0.00     0.009 C 
BRANCH   8   9
ATOM      9  C3' N4B d   1      -4.098  -0.420  -3.903  0.00  0.00     0.004 C 
ATOM     10  C4' N4B d   1      -3.547   0.537  -2.887  0.00  0.00     0.003 C 
ENDBRANCH   8   9
ENDBRANCH   7   8
ENDBRANCH   1   7
TORSDOF 3
ENDMDL
