MODEL 1
REMARK minimizedAffinity 9.77104378
REMARK minimizedRMSD -1
REMARK  3 active torsions:
REMARK  status: ('A' for Active; 'I' for Inactive)
REMARK    1  A    between atoms: C3'_2  and  C2'_3 
REMARK    2  A    between atoms: C2'_3  and  C1'_4 
REMARK    3  A    between atoms: C1'_4  and  C1_5 
ROOT
ATOM      1  C1  N4B d   1       3.230  -5.991   3.641  0.00  0.00    -0.075 A 
ATOM      2  C2  N4B d   1       3.828  -5.997   2.361  0.00  0.00     0.002 A 
ATOM      3  C3  N4B d   1       5.196  -5.999   2.243  0.00  0.00     0.002 A 
ATOM      4  C4  N4B d   1       5.983  -5.978   3.385  0.00  0.00    -0.004 A 
ATOM      5  C5  N4B d   1       5.398  -5.998   4.617  0.00  0.00     0.002 A 
ATOM      6  C6  N4B d   1       4.024  -5.999   4.751  0.00  0.00     0.002 A 
ENDROOT
BRANCH   1   7
ATOM      7  C1' N4B d   1       1.739  -5.901   3.820  0.00  0.00     0.057 C 
BRANCH   7   8
ATOM      8  C2' N4B d   1       1.203  -4.742   2.984  0.00  0.00     0.009 C 
BRANCH   8   9
ATOM      9  C3' N4B d   1       0.412  -5.226   1.782  0.00  0.00     0.004 C 
ATOM     10  C4' N4B d   1      -0.024  -4.107   0.884  0.00  0.00     0.003 C 
ENDBRANCH   8   9
ENDBRANCH   7   8
ENDBRANCH   1   7
TORSDOF 3
ENDMDL
