MODEL 1
REMARK minimizedAffinity 7.27014446
REMARK minimizedRMSD -1
REMARK  3 active torsions:
REMARK  status: ('A' for Active; 'I' for Inactive)
REMARK    1  A    between atoms: C3'_2  and  C2'_3 
REMARK    2  A    between atoms: C2'_3  and  C1'_4 
REMARK    3  A    between atoms: C1'_4  and  C1_5 
ROOT
ATOM      1  C1  N4B d   1      -4.933   3.771   3.764  0.00  0.00    -0.075 A 
ATOM      2  C2  N4B d   1      -3.836   4.615   4.043  0.00  0.00     0.002 A 
ATOM      3  C3  N4B d   1      -3.850   5.414   5.161  0.00  0.00     0.002 A 
ATOM      4  C4  N4B d   1      -4.954   5.399   6.000  0.00  0.00    -0.004 A 
ATOM      5  C5  N4B d   1      -5.999   4.562   5.737  0.00  0.00     0.002 A 
ATOM      6  C6  N4B d   1      -5.996   3.752   4.620  0.00  0.00     0.002 A 
ENDROOT
BRANCH   1   7
ATOM      7  C1' N4B d   1      -5.000   2.944   2.510  0.00  0.00     0.057 C 
BRANCH   7   8
ATOM      8  C2' N4B d   1      -3.607   2.853   1.895  0.00  0.00     0.009 C 
BRANCH   8   9
ATOM      9  C3' N4B d   1      -3.549   1.840   0.765  0.00  0.00     0.004 C 
ATOM     10  C4' N4B d   1      -3.290   0.444   1.248  0.00  0.00     0.003 C 
ENDBRANCH   8   9
ENDBRANCH   7   8
ENDBRANCH   1   7
TORSDOF 3
ENDMDL
