MODEL 1
REMARK minimizedAffinity 1.59043169
REMARK minimizedRMSD -1
REMARK  3 active torsions:
REMARK  status: ('A' for Active; 'I' for Inactive)
REMARK    1  A    between atoms: C3'_2  and  C2'_3 
REMARK    2  A    between atoms: C2'_3  and  C1'_4 
REMARK    3  A    between atoms: C1'_4  and  C1_5 
ROOT
ATOM      1  C1  N4B d   1      -3.831  -1.027   0.699  0.00  0.00    -0.075 A 
ATOM      2  C2  N4B d   1      -2.504  -1.264   1.122  0.00  0.00     0.002 A 
ATOM      3  C3  N4B d   1      -1.657  -0.207   1.350  0.00  0.00     0.002 A 
ATOM      4  C4  N4B d   1      -2.107   1.089   1.145  0.00  0.00    -0.004 A 
ATOM      5  C5  N4B d   1      -3.397   1.310   0.762  0.00  0.00     0.002 A 
ATOM      6  C6  N4B d   1      -4.261   0.258   0.533  0.00  0.00     0.002 A 
ENDROOT
BRANCH   1   7
ATOM      7  C1' N4B d   1      -4.768  -2.152   0.355  0.00  0.00     0.057 C 
BRANCH   7   8
ATOM      8  C2' N4B d   1      -4.298  -2.818  -0.935  0.00  0.00     0.009 C 
BRANCH   8   9
ATOM      9  C3' N4B d   1      -3.425  -4.031  -0.663  0.00  0.00     0.004 C 
ATOM     10  C4' N4B d   1      -1.986  -3.673  -0.440  0.00  0.00     0.003 C 
ENDBRANCH   8   9
ENDBRANCH   7   8
ENDBRANCH   1   7
TORSDOF 3
ENDMDL
