MODEL 1
REMARK minimizedAffinity 8.99333
REMARK minimizedRMSD -1
REMARK  1 active torsions:
REMARK  status: ('A' for Active; 'I' for Inactive)
REMARK    1  A    between atoms: C3_4  and  O_7 
ROOT
ATOM      1  C   UNL d   1      -2.755   0.497  -0.781  0.00  0.00    -0.033 A 
ATOM      2  C1  UNL d   1      -1.726   1.429  -0.631  0.00  0.00     0.039 A 
ATOM      3  C2  UNL d   1      -0.435   1.121  -1.063  0.00  0.00    -0.080 A 
ATOM      4  C3  UNL d   1      -0.185  -0.119  -1.643  0.00  0.00     0.150 A 
ATOM      5  C4  UNL d   1      -1.206  -1.051  -1.799  0.00  0.00    -0.007 A 
ATOM      6  C5  UNL d   1      -2.495  -0.743  -1.366  0.00  0.00     0.039 A 
ENDROOT
BRANCH   4   7
ATOM      7  O   UNL d   1       1.060  -0.467  -2.075  0.00  0.00    -0.526 OA
ATOM      8  H5  UNL d   1       1.669   0.264  -1.877  0.00  0.00     0.418 HD
ENDBRANCH   4   7
TORSDOF 1
ENDMDL
