MODEL 1
REMARK minimizedAffinity 8.02077198
REMARK minimizedRMSD -1
REMARK  1 active torsions:
REMARK  status: ('A' for Active; 'I' for Inactive)
REMARK    1  A    between atoms: C3_4  and  O_7 
ROOT
ATOM      1  C   UNL d   1      -5.655  -1.638   5.999  0.00  0.00    -0.033 A 
ATOM      2  C1  UNL d   1      -4.963  -2.223   4.937  0.00  0.00     0.039 A 
ATOM      3  C2  UNL d   1      -4.618  -1.459   3.821  0.00  0.00    -0.080 A 
ATOM      4  C3  UNL d   1      -4.969  -0.112   3.779  0.00  0.00     0.150 A 
ATOM      5  C4  UNL d   1      -5.655   0.478   4.836  0.00  0.00    -0.007 A 
ATOM      6  C5  UNL d   1      -5.999  -0.287   5.949  0.00  0.00     0.039 A 
ENDROOT
BRANCH   4   7
ATOM      7  O   UNL d   1      -4.658   0.673   2.709  0.00  0.00    -0.526 OA
ATOM      8  H5  UNL d   1      -4.211   0.123   2.044  0.00  0.00     0.418 HD
ENDBRANCH   4   7
TORSDOF 1
ENDMDL
