MODEL 1
REMARK minimizedAffinity 3.93537283
REMARK minimizedRMSD -1
REMARK  1 active torsions:
REMARK  status: ('A' for Active; 'I' for Inactive)
REMARK    1  A    between atoms: C3_4  and  O_7 
ROOT
ATOM      1  C   UNL d   1      -0.686   5.409  -0.438  0.00  0.00    -0.033 A 
ATOM      2  C1  UNL d   1      -0.985   5.014  -1.743  0.00  0.00     0.039 A 
ATOM      3  C2  UNL d   1      -0.996   3.659  -2.079  0.00  0.00    -0.080 A 
ATOM      4  C3  UNL d   1      -0.707   2.711  -1.102  0.00  0.00     0.150 A 
ATOM      5  C4  UNL d   1      -0.411   3.097   0.201  0.00  0.00    -0.007 A 
ATOM      6  C5  UNL d   1      -0.400   4.451   0.534  0.00  0.00     0.039 A 
ENDROOT
BRANCH   4   7
ATOM      7  O   UNL d   1      -0.700   1.377  -1.383  0.00  0.00    -0.526 OA
ATOM      8  H5  UNL d   1      -0.894   1.261  -2.329  0.00  0.00     0.418 HD
ENDBRANCH   4   7
TORSDOF 1
ENDMDL
