MODEL 1
REMARK minimizedAffinity 1.25465107
REMARK minimizedRMSD -1
REMARK  1 active torsions:
REMARK  status: ('A' for Active; 'I' for Inactive)
REMARK    1  A    between atoms: C3_4  and  O_7 
ROOT
ATOM      1  C   UNL d   1       0.497   2.402   3.057  0.00  0.00    -0.033 A 
ATOM      2  C1  UNL d   1       1.567   3.002   2.391  0.00  0.00     0.039 A 
ATOM      3  C2  UNL d   1       1.372   3.589   1.139  0.00  0.00    -0.080 A 
ATOM      4  C3  UNL d   1       0.103   3.571   0.566  0.00  0.00     0.150 A 
ATOM      5  C4  UNL d   1      -0.969   2.978   1.226  0.00  0.00    -0.007 A 
ATOM      6  C5  UNL d   1      -0.771   2.391   2.475  0.00  0.00     0.039 A 
ENDROOT
BRANCH   4   7
ATOM      7  O   UNL d   1      -0.136   4.127  -0.655  0.00  0.00    -0.526 OA
ATOM      8  H5  UNL d   1       0.703   4.473  -1.005  0.00  0.00     0.418 HD
ENDBRANCH   4   7
TORSDOF 1
ENDMDL
