MODEL 1
REMARK minimizedAffinity 3.66575551
REMARK minimizedRMSD -1
REMARK  1 active torsions:
REMARK  status: ('A' for Active; 'I' for Inactive)
REMARK    1  A    between atoms: C3_4  and  O_7 
ROOT
ATOM      1  C   UNL d   1      -0.550   4.120  -1.432  0.00  0.00    -0.033 A 
ATOM      2  C1  UNL d   1      -1.088   4.950  -0.447  0.00  0.00     0.039 A 
ATOM      3  C2  UNL d   1      -1.405   4.431   0.810  0.00  0.00    -0.080 A 
ATOM      4  C3  UNL d   1      -1.178   3.082   1.069  0.00  0.00     0.150 A 
ATOM      5  C4  UNL d   1      -0.639   2.250   0.093  0.00  0.00    -0.007 A 
ATOM      6  C5  UNL d   1      -0.324   2.770  -1.161  0.00  0.00     0.039 A 
ENDROOT
BRANCH   4   7
ATOM      7  O   UNL d   1      -1.476   2.529   2.279  0.00  0.00    -0.526 OA
ATOM      8  H5  UNL d   1      -1.868   3.216   2.843  0.00  0.00     0.418 HD
ENDBRANCH   4   7
TORSDOF 1
ENDMDL
