MODEL 1
REMARK minimizedAffinity 1.60424757
REMARK minimizedRMSD -1
REMARK  1 active torsions:
REMARK  status: ('A' for Active; 'I' for Inactive)
REMARK    1  A    between atoms: C3_4  and  O_7 
ROOT
ATOM      1  C   UNL d   1       0.801  -1.077  -3.140  0.00  0.00    -0.033 A 
ATOM      2  C1  UNL d   1      -0.231  -1.334  -4.044  0.00  0.00     0.039 A 
ATOM      3  C2  UNL d   1      -1.555  -1.383  -3.601  0.00  0.00    -0.080 A 
ATOM      4  C3  UNL d   1      -1.832  -1.173  -2.253  0.00  0.00     0.150 A 
ATOM      5  C4  UNL d   1      -0.809  -0.913  -1.347  0.00  0.00    -0.007 A 
ATOM      6  C5  UNL d   1       0.512  -0.865  -1.791  0.00  0.00     0.039 A 
ENDROOT
BRANCH   4   7
ATOM      7  O   UNL d   1      -3.107  -1.216  -1.773  0.00  0.00    -0.526 OA
ATOM      8  H5  UNL d   1      -3.705  -1.434  -2.507  0.00  0.00     0.418 HD
ENDBRANCH   4   7
TORSDOF 1
ENDMDL
