MODEL 1
REMARK minimizedAffinity 10.2135839
REMARK minimizedRMSD -1
REMARK  1 active torsions:
REMARK  status: ('A' for Active; 'I' for Inactive)
REMARK    1  A    between atoms: C3_4  and  O_7 
ROOT
ATOM      1  C   UNL d   1      -3.195   0.311  -1.026  0.00  0.00    -0.033 A 
ATOM      2  C1  UNL d   1      -3.028  -0.999  -1.479  0.00  0.00     0.039 A 
ATOM      3  C2  UNL d   1      -1.753  -1.473  -1.794  0.00  0.00    -0.080 A 
ATOM      4  C3  UNL d   1      -0.656  -0.628  -1.652  0.00  0.00     0.150 A 
ATOM      5  C4  UNL d   1      -0.815   0.677  -1.199  0.00  0.00    -0.007 A 
ATOM      6  C5  UNL d   1      -2.088   1.149  -0.885  0.00  0.00     0.039 A 
ENDROOT
BRANCH   4   7
ATOM      7  O   UNL d   1       0.607  -1.044  -1.953  0.00  0.00    -0.526 OA
ATOM      8  H5  UNL d   1       0.561  -1.958  -2.281  0.00  0.00     0.418 HD
ENDBRANCH   4   7
TORSDOF 1
ENDMDL
