MODEL 1
REMARK minimizedAffinity 3.21604824
REMARK minimizedRMSD -1
REMARK  1 active torsions:
REMARK  status: ('A' for Active; 'I' for Inactive)
REMARK    1  A    between atoms: N_2  and  C1_3 
ROOT
ATOM      1  C1  UNL d   1       3.035   1.912  -4.081  0.00  0.00     0.143 A 
ATOM      2  C2  UNL d   1       2.511   2.012  -5.374  0.00  0.00    -0.057 A 
ATOM      3  C3  UNL d   1       1.879   0.923  -5.988  0.00  0.00     0.033 A 
ATOM      4  C4  UNL d   1       1.787  -0.297  -5.327  0.00  0.00    -0.042 A 
ATOM      5  C5  UNL d   1       2.323  -0.427  -4.051  0.00  0.00     0.033 A 
ATOM      6  C6  UNL d   1       2.947   0.666  -3.441  0.00  0.00    -0.057 A 
ENDROOT
BRANCH   1   7
ATOM      7  N   UNL d   1       3.762   2.929  -3.456  0.00  0.00    -0.732 N 
ATOM      8  C   UNL d   1       4.970   2.626  -2.719  0.00  0.00     0.284 C 
ATOM      9  H3  UNL d   1       3.822   3.770  -4.025  0.00  0.00     0.395 HD
ENDBRANCH   1   7
TORSDOF 1
ENDMDL
