MODEL 1
REMARK minimizedAffinity 5.68306112
REMARK minimizedRMSD -1
REMARK  1 active torsions:
REMARK  status: ('A' for Active; 'I' for Inactive)
REMARK    1  A    between atoms: N_2  and  C1_3 
ROOT
ATOM      1  C1  UNL d   1       0.688   1.366   1.178  0.00  0.00     0.143 A 
ATOM      2  C2  UNL d   1       0.443   0.034   0.826  0.00  0.00    -0.057 A 
ATOM      3  C3  UNL d   1      -0.853  -0.417   0.547  0.00  0.00     0.033 A 
ATOM      4  C4  UNL d   1      -1.934   0.452   0.645  0.00  0.00    -0.042 A 
ATOM      5  C5  UNL d   1      -1.718   1.774   1.017  0.00  0.00     0.033 A 
ATOM      6  C6  UNL d   1      -0.421   2.220   1.288  0.00  0.00    -0.057 A 
ENDROOT
BRANCH   1   7
ATOM      7  N   UNL d   1       1.940   1.851   1.562  0.00  0.00    -0.732 N 
ATOM      8  C   UNL d   1       2.076   2.700   2.727  0.00  0.00     0.284 C 
ATOM      9  H3  UNL d   1       2.673   1.151   1.470  0.00  0.00     0.395 HD
ENDBRANCH   1   7
TORSDOF 1
ENDMDL
