MODEL 1
REMARK minimizedAffinity -1.82980919
REMARK minimizedRMSD -1
REMARK  1 active torsions:
REMARK  status: ('A' for Active; 'I' for Inactive)
REMARK    1  A    between atoms: N_2  and  C1_3 
ROOT
ATOM      1  C1  UNL d   1      -2.978   4.048  -5.994  0.00  0.00     0.143 A 
ATOM      2  C2  UNL d   1      -4.114   3.231  -5.974  0.00  0.00    -0.057 A 
ATOM      3  C3  UNL d   1      -5.403   3.779  -5.992  0.00  0.00     0.033 A 
ATOM      4  C4  UNL d   1      -5.578   5.159  -6.000  0.00  0.00    -0.042 A 
ATOM      5  C5  UNL d   1      -4.464   5.990  -5.994  0.00  0.00     0.033 A 
ATOM      6  C6  UNL d   1      -3.180   5.437  -5.983  0.00  0.00    -0.057 A 
ENDROOT
BRANCH   1   7
ATOM      7  N   UNL d   1      -1.672   3.566  -5.878  0.00  0.00    -0.732 N 
ATOM      8  C   UNL d   1      -1.395   2.151  -6.000  0.00  0.00     0.284 C 
ATOM      9  H3  UNL d   1      -0.995   4.164  -6.345  0.00  0.00     0.395 HD
ENDBRANCH   1   7
TORSDOF 1
ENDMDL
