MODEL 1
REMARK minimizedAffinity 5.55276823
REMARK minimizedRMSD -1
REMARK  1 active torsions:
REMARK  status: ('A' for Active; 'I' for Inactive)
REMARK    1  A    between atoms: N_2  and  C1_3 
ROOT
ATOM      1  C1  UNL d   1       1.180   2.878   2.148  0.00  0.00     0.143 A 
ATOM      2  C2  UNL d   1       1.312   1.821   1.242  0.00  0.00    -0.057 A 
ATOM      3  C3  UNL d   1       0.232   1.399   0.457  0.00  0.00     0.033 A 
ATOM      4  C4  UNL d   1      -1.011   2.009   0.587  0.00  0.00    -0.042 A 
ATOM      5  C5  UNL d   1      -1.172   3.046   1.500  0.00  0.00     0.033 A 
ATOM      6  C6  UNL d   1      -0.088   3.468   2.276  0.00  0.00    -0.057 A 
ENDROOT
BRANCH   1   7
ATOM      7  N   UNL d   1       2.189   3.280   3.027  0.00  0.00    -0.732 N 
ATOM      8  C   UNL d   1       3.569   3.325   2.593  0.00  0.00     0.284 C 
ATOM      9  H3  UNL d   1       1.909   4.069   3.606  0.00  0.00     0.395 HD
ENDBRANCH   1   7
TORSDOF 1
ENDMDL
