MODEL 1
REMARK minimizedAffinity 6.28821325
REMARK minimizedRMSD -1
REMARK  1 active torsions:
REMARK  status: ('A' for Active; 'I' for Inactive)
REMARK    1  A    between atoms: N_2  and  C1_3 
ROOT
ATOM      1  C1  UNL d   1      -0.785   2.905   1.774  0.00  0.00     0.143 A 
ATOM      2  C2  UNL d   1      -1.438   3.164   2.984  0.00  0.00    -0.057 A 
ATOM      3  C3  UNL d   1      -0.719   3.456   4.150  0.00  0.00     0.033 A 
ATOM      4  C4  UNL d   1       0.672   3.467   4.132  0.00  0.00    -0.042 A 
ATOM      5  C5  UNL d   1       1.342   3.188   2.946  0.00  0.00     0.033 A 
ATOM      6  C6  UNL d   1       0.618   2.903   1.784  0.00  0.00    -0.057 A 
ENDROOT
BRANCH   1   7
ATOM      7  N   UNL d   1      -1.441   2.511   0.605  0.00  0.00    -0.732 N 
ATOM      8  C   UNL d   1      -1.815   1.129   0.400  0.00  0.00     0.284 C 
ATOM      9  H3  UNL d   1      -2.148   3.181   0.312  0.00  0.00     0.395 HD
ENDBRANCH   1   7
TORSDOF 1
ENDMDL
