MODEL 1
REMARK minimizedAffinity -2.1349194
REMARK minimizedRMSD -1
REMARK  1 active torsions:
REMARK  status: ('A' for Active; 'I' for Inactive)
REMARK    1  A    between atoms: N_2  and  C1_3 
ROOT
ATOM      1  C1  UNL d   1       0.343   0.960   0.553  0.00  0.00     0.143 A 
ATOM      2  C2  UNL d   1      -0.630  -0.035   0.704  0.00  0.00    -0.057 A 
ATOM      3  C3  UNL d   1      -1.968   0.291   0.952  0.00  0.00     0.033 A 
ATOM      4  C4  UNL d   1      -2.354   1.621   1.083  0.00  0.00    -0.042 A 
ATOM      5  C5  UNL d   1      -1.400   2.625   0.962  0.00  0.00     0.033 A 
ATOM      6  C6  UNL d   1      -0.066   2.294   0.707  0.00  0.00    -0.057 A 
ENDROOT
BRANCH   1   7
ATOM      7  N   UNL d   1       1.707   0.697   0.403  0.00  0.00    -0.732 N 
ATOM      8  C   UNL d   1       2.692   1.486   1.111  0.00  0.00     0.284 C 
ATOM      9  H3  UNL d   1       1.911  -0.300   0.381  0.00  0.00     0.395 HD
ENDBRANCH   1   7
TORSDOF 1
ENDMDL
