MODEL 1
REMARK minimizedAffinity -0.78297627
REMARK minimizedRMSD -1
REMARK  1 active torsions:
REMARK  status: ('A' for Active; 'I' for Inactive)
REMARK    1  A    between atoms: N_2  and  C1_3 
ROOT
ATOM      1  C1  UNL d   1       1.379   2.647   1.581  0.00  0.00     0.143 A 
ATOM      2  C2  UNL d   1       1.806   1.544   0.834  0.00  0.00    -0.057 A 
ATOM      3  C3  UNL d   1       0.919   0.838   0.011  0.00  0.00     0.033 A 
ATOM      4  C4  UNL d   1      -0.420   1.206  -0.056  0.00  0.00    -0.042 A 
ATOM      5  C5  UNL d   1      -0.872   2.284   0.698  0.00  0.00     0.033 A 
ATOM      6  C6  UNL d   1       0.019   2.989   1.512  0.00  0.00    -0.057 A 
ENDROOT
BRANCH   1   7
ATOM      7  N   UNL d   1       2.189   3.329   2.493  0.00  0.00    -0.732 N 
ATOM      8  C   UNL d   1       3.622   3.390   2.303  0.00  0.00     0.284 C 
ATOM      9  H3  UNL d   1       1.773   4.204   2.803  0.00  0.00     0.395 HD
ENDBRANCH   1   7
TORSDOF 1
ENDMDL
