MODEL 1
REMARK minimizedAffinity -0.730800688
REMARK minimizedRMSD -1
REMARK  1 active torsions:
REMARK  status: ('A' for Active; 'I' for Inactive)
REMARK    1  A    between atoms: N_2  and  C1_3 
ROOT
ATOM      1  C1  UNL d   1      -3.014   3.550  -5.997  0.00  0.00     0.143 A 
ATOM      2  C2  UNL d   1      -4.412   3.584  -5.990  0.00  0.00    -0.057 A 
ATOM      3  C3  UNL d   1      -5.108   4.796  -5.907  0.00  0.00     0.033 A 
ATOM      4  C4  UNL d   1      -4.415   5.997  -5.799  0.00  0.00    -0.042 A 
ATOM      5  C5  UNL d   1      -3.025   5.985  -5.779  0.00  0.00     0.033 A 
ATOM      6  C6  UNL d   1      -2.335   4.772  -5.870  0.00  0.00    -0.057 A 
ENDROOT
BRANCH   1   7
ATOM      7  N   UNL d   1      -2.265   2.371  -5.979  0.00  0.00    -0.732 N 
ATOM      8  C   UNL d   1      -0.818   2.416  -5.997  0.00  0.00     0.284 C 
ATOM      9  H3  UNL d   1      -2.651   1.675  -5.344  0.00  0.00     0.395 HD
ENDBRANCH   1   7
TORSDOF 1
ENDMDL
