MODEL 1
REMARK minimizedAffinity 0.601580501
REMARK minimizedRMSD -1
REMARK  1 active torsions:
REMARK  status: ('A' for Active; 'I' for Inactive)
REMARK    1  A    between atoms: N_2  and  C1_3 
ROOT
ATOM      1  C1  UNL d   1       1.203   3.425  -4.966  0.00  0.00     0.143 A 
ATOM      2  C2  UNL d   1       1.937   4.044  -5.983  0.00  0.00    -0.057 A 
ATOM      3  C3  UNL d   1       3.336   4.000  -6.000  0.00  0.00     0.033 A 
ATOM      4  C4  UNL d   1       4.030   3.357  -4.980  0.00  0.00    -0.042 A 
ATOM      5  C5  UNL d   1       3.322   2.756  -3.945  0.00  0.00     0.033 A 
ATOM      6  C6  UNL d   1       1.924   2.798  -3.938  0.00  0.00    -0.057 A 
ENDROOT
BRANCH   1   7
ATOM      7  N   UNL d   1      -0.185   3.518  -4.841  0.00  0.00    -0.732 N 
ATOM      8  C   UNL d   1      -1.041   3.379  -6.000  0.00  0.00     0.284 C 
ATOM      9  H3  UNL d   1      -0.532   3.046  -4.009  0.00  0.00     0.395 HD
ENDBRANCH   1   7
TORSDOF 1
ENDMDL
