MODEL 1
REMARK minimizedAffinity 2.90419459
REMARK minimizedRMSD -1
REMARK  1 active torsions:
REMARK  status: ('A' for Active; 'I' for Inactive)
REMARK    1  A    between atoms: N_2  and  C1_3 
ROOT
ATOM      1  C1  UNL d   1      -1.089   2.851   1.841  0.00  0.00     0.143 A 
ATOM      2  C2  UNL d   1      -1.443   3.104   3.171  0.00  0.00    -0.057 A 
ATOM      3  C3  UNL d   1      -0.468   3.323   4.152  0.00  0.00     0.033 A 
ATOM      4  C4  UNL d   1       0.882   3.263   3.826  0.00  0.00    -0.042 A 
ATOM      5  C5  UNL d   1       1.258   2.988   2.516  0.00  0.00     0.033 A 
ATOM      6  C6  UNL d   1       0.280   2.777   1.538  0.00  0.00    -0.057 A 
ENDROOT
BRANCH   1   7
ATOM      7  N   UNL d   1      -2.008   2.529   0.839  0.00  0.00    -0.732 N 
ATOM      8  C   UNL d   1      -2.653   1.234   0.821  0.00  0.00     0.284 C 
ATOM      9  H3  UNL d   1      -2.626   3.305   0.615  0.00  0.00     0.395 HD
ENDBRANCH   1   7
TORSDOF 1
ENDMDL
