MODEL 1
REMARK minimizedAffinity -3.36733103
REMARK minimizedRMSD -1
REMARK  1 active torsions:
REMARK  status: ('A' for Active; 'I' for Inactive)
REMARK    1  A    between atoms: N_2  and  C1_3 
ROOT
ATOM      1  C1  UNL d   1      -2.853   3.972  -5.435  0.00  0.00     0.143 A 
ATOM      2  C2  UNL d   1      -4.013   3.383  -5.950  0.00  0.00    -0.057 A 
ATOM      3  C3  UNL d   1      -5.223   4.085  -6.000  0.00  0.00     0.033 A 
ATOM      4  C4  UNL d   1      -5.302   5.383  -5.507  0.00  0.00    -0.042 A 
ATOM      5  C5  UNL d   1      -4.168   5.980  -4.968  0.00  0.00     0.033 A 
ATOM      6  C6  UNL d   1      -2.961   5.277  -4.927  0.00  0.00    -0.057 A 
ENDROOT
BRANCH   1   7
ATOM      7  N   UNL d   1      -1.644   3.293  -5.267  0.00  0.00    -0.732 N 
ATOM      8  C   UNL d   1      -1.376   2.074  -5.999  0.00  0.00     0.284 C 
ATOM      9  H3  UNL d   1      -0.849   3.925  -5.207  0.00  0.00     0.395 HD
ENDBRANCH   1   7
TORSDOF 1
ENDMDL
