MODEL 1
REMARK minimizedAffinity 5.78104687
REMARK minimizedRMSD -1
REMARK  1 active torsions:
REMARK  status: ('A' for Active; 'I' for Inactive)
REMARK    1  A    between atoms: N_2  and  C1_3 
ROOT
ATOM      1  C1  UNL d   1       1.785   2.917   2.582  0.00  0.00     0.143 A 
ATOM      2  C2  UNL d   1       0.638   2.636   1.832  0.00  0.00    -0.057 A 
ATOM      3  C3  UNL d   1      -0.641   2.915   2.328  0.00  0.00     0.033 A 
ATOM      4  C4  UNL d   1      -0.797   3.456   3.600  0.00  0.00    -0.042 A 
ATOM      5  C5  UNL d   1       0.327   3.721   4.374  0.00  0.00     0.033 A 
ATOM      6  C6  UNL d   1       1.602   3.446   3.870  0.00  0.00    -0.057 A 
ENDROOT
BRANCH   1   7
ATOM      7  N   UNL d   1       3.078   2.571   2.185  0.00  0.00    -0.732 N 
ATOM      8  C   UNL d   1       4.215   3.360   2.608  0.00  0.00     0.284 C 
ATOM      9  H3  UNL d   1       3.237   1.567   2.210  0.00  0.00     0.395 HD
ENDBRANCH   1   7
TORSDOF 1
ENDMDL
