MODEL 1
REMARK minimizedAffinity 3.26945758
REMARK minimizedRMSD -1
REMARK  1 active torsions:
REMARK  status: ('A' for Active; 'I' for Inactive)
REMARK    1  A    between atoms: N_2  and  C1_3 
ROOT
ATOM      1  C1  UNL d   1      -0.004  -1.919  -0.338  0.00  0.00     0.143 A 
ATOM      2  C2  UNL d   1       0.346  -2.166  -1.670  0.00  0.00    -0.057 A 
ATOM      3  C3  UNL d   1      -0.378  -3.071  -2.455  0.00  0.00     0.033 A 
ATOM      4  C4  UNL d   1      -1.450  -3.770  -1.911  0.00  0.00    -0.042 A 
ATOM      5  C5  UNL d   1      -1.801  -3.559  -0.583  0.00  0.00     0.033 A 
ATOM      6  C6  UNL d   1      -1.078  -2.649   0.195  0.00  0.00    -0.057 A 
ENDROOT
BRANCH   1   7
ATOM      7  N   UNL d   1       0.736  -1.105   0.523  0.00  0.00    -0.732 N 
ATOM      8  C   UNL d   1       1.432   0.060   0.019  0.00  0.00     0.284 C 
ATOM      9  H3  UNL d   1       0.270  -0.957   1.415  0.00  0.00     0.395 HD
ENDBRANCH   1   7
TORSDOF 1
ENDMDL
