MODEL 1
REMARK minimizedAffinity 0.788511097
REMARK minimizedRMSD -1
REMARK  0 active torsions:
REMARK  status: ('A' for Active; 'I' for Inactive)
ROOT
ATOM      1  C2' OXE d   1       2.014  -5.636   3.195  0.00  0.00     0.078 C 
ATOM      2  C1' OXE d   1       2.044  -5.981   5.981  0.00  0.00     0.078 C 
ATOM      3  C1  OXE d   1       3.371  -5.916   5.265  0.00  0.00    -0.078 A 
ATOM      4  C2  OXE d   1       3.346  -5.794   3.897  0.00  0.00    -0.078 A 
ATOM      5  C3  OXE d   1       4.541  -5.674   3.193  0.00  0.00     0.003 A 
ATOM      6  C4  OXE d   1       5.768  -5.830   3.849  0.00  0.00    -0.002 A 
ATOM      7  C5  OXE d   1       5.815  -5.995   5.238  0.00  0.00    -0.002 A 
ATOM      8  C6  OXE d   1       4.629  -5.997   5.964  0.00  0.00     0.003 A 
ENDROOT
TORSDOF 0
ENDMDL
