MODEL 1
REMARK minimizedAffinity 11.7088003
REMARK minimizedRMSD -1
REMARK  0 active torsions:
REMARK  status: ('A' for Active; 'I' for Inactive)
ROOT
ATOM      1  C2' OXE d   1       2.702   3.072  -1.865  0.00  0.00     0.078 C 
ATOM      2  C1' OXE d   1       3.896   4.248  -4.117  0.00  0.00     0.078 C 
ATOM      3  C1  OXE d   1       3.509   2.793  -4.205  0.00  0.00    -0.078 A 
ATOM      4  C2  OXE d   1       2.968   2.213  -3.082  0.00  0.00    -0.078 A 
ATOM      5  C3  OXE d   1       2.544   0.888  -3.127  0.00  0.00     0.003 A 
ATOM      6  C4  OXE d   1       2.803   0.098  -4.253  0.00  0.00    -0.002 A 
ATOM      7  C5  OXE d   1       3.388   0.658  -5.394  0.00  0.00    -0.002 A 
ATOM      8  C6  OXE d   1       3.708   2.012  -5.401  0.00  0.00     0.003 A 
ENDROOT
TORSDOF 0
ENDMDL
