MODEL 1
REMARK minimizedAffinity 3.15549278
REMARK minimizedRMSD -1
REMARK  0 active torsions:
REMARK  status: ('A' for Active; 'I' for Inactive)
ROOT
ATOM      1  C2' OXE d   1       0.301  -2.605  -4.437  0.00  0.00     0.078 C 
ATOM      2  C1' OXE d   1       2.600  -1.166  -5.160  0.00  0.00     0.078 C 
ATOM      3  C1  OXE d   1       1.783  -0.651  -4.001  0.00  0.00    -0.078 A 
ATOM      4  C2  OXE d   1       0.635  -1.335  -3.684  0.00  0.00    -0.078 A 
ATOM      5  C3  OXE d   1      -0.126  -0.935  -2.589  0.00  0.00     0.003 A 
ATOM      6  C4  OXE d   1       0.184   0.245  -1.903  0.00  0.00    -0.002 A 
ATOM      7  C5  OXE d   1       1.328   0.979  -2.236  0.00  0.00    -0.002 A 
ATOM      8  C6  OXE d   1       2.160   0.522  -3.252  0.00  0.00     0.003 A 
ENDROOT
TORSDOF 0
ENDMDL
