MODEL 1
REMARK minimizedAffinity 7.40895939
REMARK minimizedRMSD -1
REMARK  0 active torsions:
REMARK  status: ('A' for Active; 'I' for Inactive)
ROOT
ATOM      1  C2' OXE d   1       1.788   3.347  -0.738  0.00  0.00     0.078 C 
ATOM      2  C1' OXE d   1       2.111   1.237  -2.561  0.00  0.00     0.078 C 
ATOM      3  C1  OXE d   1       2.631   2.596  -2.959  0.00  0.00    -0.078 A 
ATOM      4  C2  OXE d   1       2.427   3.633  -2.080  0.00  0.00    -0.078 A 
ATOM      5  C3  OXE d   1       2.935   4.895  -2.374  0.00  0.00     0.003 A 
ATOM      6  C4  OXE d   1       3.515   5.153  -3.622  0.00  0.00    -0.002 A 
ATOM      7  C5  OXE d   1       3.697   4.120  -4.547  0.00  0.00    -0.002 A 
ATOM      8  C6  OXE d   1       3.300   2.830  -4.215  0.00  0.00     0.003 A 
ENDROOT
TORSDOF 0
ENDMDL
