MODEL 1
REMARK minimizedAffinity 14.7317238
REMARK minimizedRMSD -1
REMARK  0 active torsions:
REMARK  status: ('A' for Active; 'I' for Inactive)
ROOT
ATOM      1  C2' OXE d   1      -1.580  -0.274  -5.331  0.00  0.00     0.078 C 
ATOM      2  C1' OXE d   1       0.992  -1.395  -5.248  0.00  0.00     0.078 C 
ATOM      3  C1  OXE d   1      -0.168  -2.316  -5.530  0.00  0.00    -0.078 A 
ATOM      4  C2  OXE d   1      -1.427  -1.768  -5.523  0.00  0.00    -0.078 A 
ATOM      5  C3  OXE d   1      -2.527  -2.563  -5.831  0.00  0.00     0.003 A 
ATOM      6  C4  OXE d   1      -2.379  -3.945  -5.997  0.00  0.00    -0.002 A 
ATOM      7  C5  OXE d   1      -1.109  -4.531  -5.970  0.00  0.00    -0.002 A 
ATOM      8  C6  OXE d   1       0.009  -3.726  -5.780  0.00  0.00     0.003 A 
ENDROOT
TORSDOF 0
ENDMDL
