MODEL 1
REMARK minimizedAffinity 13.7004566
REMARK minimizedRMSD -1
REMARK  0 active torsions:
REMARK  status: ('A' for Active; 'I' for Inactive)
ROOT
ATOM      1  C2' OXE d   1      -5.627  -2.219  -2.226  0.00  0.00     0.078 C 
ATOM      2  C1' OXE d   1      -4.224  -2.222   0.206  0.00  0.00     0.078 C 
ATOM      3  C1  OXE d   1      -4.531  -3.555  -0.431  0.00  0.00    -0.078 A 
ATOM      4  C2  OXE d   1      -5.258  -3.546  -1.597  0.00  0.00    -0.078 A 
ATOM      5  C3  OXE d   1      -5.521  -4.744  -2.255  0.00  0.00     0.003 A 
ATOM      6  C4  OXE d   1      -5.185  -5.967  -1.662  0.00  0.00    -0.002 A 
ATOM      7  C5  OXE d   1      -4.479  -6.000  -0.455  0.00  0.00    -0.002 A 
ATOM      8  C6  OXE d   1      -4.108  -4.804   0.151  0.00  0.00     0.003 A 
ENDROOT
TORSDOF 0
ENDMDL
