MODEL 1
REMARK minimizedAffinity 14.6844168
REMARK minimizedRMSD -1
REMARK  0 active torsions:
REMARK  status: ('A' for Active; 'I' for Inactive)
ROOT
ATOM      1  C2' OXE d   1       2.876   4.251  -5.972  0.00  0.00     0.078 C 
ATOM      2  C1' OXE d   1       5.105   4.636  -4.309  0.00  0.00     0.078 C 
ATOM      3  C1  OXE d   1       3.886   3.978  -3.711  0.00  0.00    -0.078 A 
ATOM      4  C2  OXE d   1       2.784   3.836  -4.519  0.00  0.00    -0.078 A 
ATOM      5  C3  OXE d   1       1.652   3.187  -4.034  0.00  0.00     0.003 A 
ATOM      6  C4  OXE d   1       1.571   2.815  -2.686  0.00  0.00    -0.002 A 
ATOM      7  C5  OXE d   1       2.668   2.987  -1.836  0.00  0.00    -0.002 A 
ATOM      8  C6  OXE d   1       3.845   3.527  -2.342  0.00  0.00     0.003 A 
ENDROOT
TORSDOF 0
ENDMDL
