MODEL 1
REMARK minimizedAffinity 11.5808163
REMARK minimizedRMSD -1
REMARK  0 active torsions:
REMARK  status: ('A' for Active; 'I' for Inactive)
ROOT
ATOM      1  C2' OXE d   1       2.281   1.872  -1.303  0.00  0.00     0.078 C 
ATOM      2  C1' OXE d   1      -0.336   0.911  -0.979  0.00  0.00     0.078 C 
ATOM      3  C1  OXE d   1       0.560   0.194  -1.958  0.00  0.00    -0.078 A 
ATOM      4  C2  OXE d   1       1.824   0.700  -2.145  0.00  0.00    -0.078 A 
ATOM      5  C3  OXE d   1       2.710   0.045  -2.996  0.00  0.00     0.003 A 
ATOM      6  C4  OXE d   1       2.276  -1.032  -3.778  0.00  0.00    -0.002 A 
ATOM      7  C5  OXE d   1       0.980  -1.538  -3.633  0.00  0.00    -0.002 A 
ATOM      8  C6  OXE d   1       0.125  -0.964  -2.698  0.00  0.00     0.003 A 
ENDROOT
TORSDOF 0
ENDMDL
