MODEL 1
REMARK minimizedAffinity 8.45641804
REMARK minimizedRMSD -1
REMARK  0 active torsions:
REMARK  status: ('A' for Active; 'I' for Inactive)
ROOT
ATOM      1  C2' OXE d   1       2.266   2.779  -1.313  0.00  0.00     0.078 C 
ATOM      2  C1' OXE d   1       0.016   1.151  -0.901  0.00  0.00     0.078 C 
ATOM      3  C1  OXE d   1       0.963   0.774  -2.013  0.00  0.00    -0.078 A 
ATOM      4  C2  OXE d   1       2.036   1.603  -2.237  0.00  0.00    -0.078 A 
ATOM      5  C3  OXE d   1       2.970   1.272  -3.215  0.00  0.00     0.003 A 
ATOM      6  C4  OXE d   1       2.746   0.188  -4.072  0.00  0.00    -0.002 A 
ATOM      7  C5  OXE d   1       1.638  -0.647  -3.886  0.00  0.00    -0.002 A 
ATOM      8  C6  OXE d   1       0.762  -0.392  -2.836  0.00  0.00     0.003 A 
ENDROOT
TORSDOF 0
ENDMDL
