MODEL 1
REMARK minimizedAffinity 14.8489342
REMARK minimizedRMSD -1
REMARK  0 active torsions:
REMARK  status: ('A' for Active; 'I' for Inactive)
ROOT
ATOM      1  C2' OXE d   1       1.644   2.186   1.461  0.00  0.00     0.078 C 
ATOM      2  C1' OXE d   1       1.400   0.903   3.946  0.00  0.00     0.078 C 
ATOM      3  C1  OXE d   1       0.216   0.862   3.014  0.00  0.00    -0.078 A 
ATOM      4  C2  OXE d   1       0.327   1.532   1.819  0.00  0.00    -0.078 A 
ATOM      5  C3  OXE d   1      -0.716   1.479   0.899  0.00  0.00     0.003 A 
ATOM      6  C4  OXE d   1      -1.934   0.880   1.242  0.00  0.00    -0.002 A 
ATOM      7  C5  OXE d   1      -2.083   0.226   2.470  0.00  0.00    -0.002 A 
ATOM      8  C6  OXE d   1      -1.006   0.171   3.348  0.00  0.00     0.003 A 
ENDROOT
TORSDOF 0
ENDMDL
