MODEL 1
REMARK minimizedAffinity 11.8523731
REMARK minimizedRMSD -1
REMARK  0 active torsions:
REMARK  status: ('A' for Active; 'I' for Inactive)
ROOT
ATOM      1  C2' OXE d   1       2.006   3.352  -1.567  0.00  0.00     0.078 C 
ATOM      2  C1' OXE d   1      -0.302   1.761  -1.423  0.00  0.00     0.078 C 
ATOM      3  C1  OXE d   1       0.855   1.248  -2.243  0.00  0.00    -0.078 A 
ATOM      4  C2  OXE d   1       1.963   2.055  -2.346  0.00  0.00    -0.078 A 
ATOM      5  C3  OXE d   1       3.080   1.606  -3.045  0.00  0.00     0.003 A 
ATOM      6  C4  OXE d   1       3.028   0.410  -3.771  0.00  0.00    -0.002 A 
ATOM      7  C5  OXE d   1       1.895  -0.408  -3.712  0.00  0.00    -0.002 A 
ATOM      8  C6  OXE d   1       0.818  -0.024  -2.920  0.00  0.00     0.003 A 
ENDROOT
TORSDOF 0
ENDMDL
