MODEL 1
REMARK minimizedAffinity 13.3040476
REMARK minimizedRMSD -1
REMARK  0 active torsions:
REMARK  status: ('A' for Active; 'I' for Inactive)
ROOT
ATOM      1  C2' OXE d   1       5.965   3.740  -4.742  0.00  0.00     0.078 C 
ATOM      2  C1' OXE d   1       3.978   2.206  -5.999  0.00  0.00     0.078 C 
ATOM      3  C1  OXE d   1       3.577   3.541  -5.422  0.00  0.00    -0.078 A 
ATOM      4  C2  OXE d   1       4.545   4.263  -4.768  0.00  0.00    -0.078 A 
ATOM      5  C3  OXE d   1       4.242   5.525  -4.265  0.00  0.00     0.003 A 
ATOM      6  C4  OXE d   1       2.924   5.998  -4.284  0.00  0.00    -0.002 A 
ATOM      7  C5  OXE d   1       1.914   5.260  -4.910  0.00  0.00    -0.002 A 
ATOM      8  C6  OXE d   1       2.232   4.051  -5.520  0.00  0.00     0.003 A 
ENDROOT
TORSDOF 0
ENDMDL
