MODEL 1
REMARK minimizedAffinity 13.0639477
REMARK minimizedRMSD -1
REMARK  0 active torsions:
REMARK  status: ('A' for Active; 'I' for Inactive)
ROOT
ATOM      1  C2' OXE d   1       1.514   3.354  -1.496  0.00  0.00     0.078 C 
ATOM      2  C1' OXE d   1       3.265   1.303  -2.273  0.00  0.00     0.078 C 
ATOM      3  C1  OXE d   1       3.396   2.638  -2.962  0.00  0.00    -0.078 A 
ATOM      4  C2  OXE d   1       2.504   3.622  -2.609  0.00  0.00    -0.078 A 
ATOM      5  C3  OXE d   1       2.615   4.889  -3.174  0.00  0.00     0.003 A 
ATOM      6  C4  OXE d   1       3.527   5.125  -4.209  0.00  0.00    -0.002 A 
ATOM      7  C5  OXE d   1       4.418   4.125  -4.613  0.00  0.00    -0.002 A 
ATOM      8  C6  OXE d   1       4.394   2.892  -3.971  0.00  0.00     0.003 A 
ENDROOT
TORSDOF 0
ENDMDL
