MODEL 1
REMARK minimizedAffinity 16.4593239
REMARK minimizedRMSD -1
REMARK  0 active torsions:
REMARK  status: ('A' for Active; 'I' for Inactive)
ROOT
ATOM      1  C2' OXE d   1       2.791   0.602  -5.927  0.00  0.00     0.078 C 
ATOM      2  C1' OXE d   1       2.902  -2.196  -5.729  0.00  0.00     0.078 C 
ATOM      3  C1  OXE d   1       2.203  -1.439  -4.627  0.00  0.00    -0.078 A 
ATOM      4  C2  OXE d   1       2.195  -0.068  -4.708  0.00  0.00    -0.078 A 
ATOM      5  C3  OXE d   1       1.517   0.676  -3.747  0.00  0.00     0.003 A 
ATOM      6  C4  OXE d   1       0.976   0.049  -2.617  0.00  0.00    -0.002 A 
ATOM      7  C5  OXE d   1       1.009  -1.344  -2.494  0.00  0.00    -0.002 A 
ATOM      8  C6  OXE d   1       1.580  -2.104  -3.509  0.00  0.00     0.003 A 
ENDROOT
TORSDOF 0
ENDMDL
