MODEL 1
REMARK minimizedAffinity 14.7788363
REMARK minimizedRMSD -1
REMARK  0 active torsions:
REMARK  status: ('A' for Active; 'I' for Inactive)
ROOT
ATOM      1  C2' OXE d   1       5.956   3.353  -4.884  0.00  0.00     0.078 C 
ATOM      2  C1' OXE d   1       3.752   2.019  -5.999  0.00  0.00     0.078 C 
ATOM      3  C1  OXE d   1       3.540   3.422  -5.488  0.00  0.00    -0.078 A 
ATOM      4  C2  OXE d   1       4.612   4.050  -4.902  0.00  0.00    -0.078 A 
ATOM      5  C3  OXE d   1       4.485   5.365  -4.463  0.00  0.00     0.003 A 
ATOM      6  C4  OXE d   1       3.237   5.998  -4.473  0.00  0.00    -0.002 A 
ATOM      7  C5  OXE d   1       2.122   5.362  -5.030  0.00  0.00    -0.002 A 
ATOM      8  C6  OXE d   1       2.266   4.093  -5.579  0.00  0.00     0.003 A 
ENDROOT
TORSDOF 0
ENDMDL
