MODEL 1
REMARK minimizedAffinity 11.2704458
REMARK minimizedRMSD -1
REMARK  0 active torsions:
REMARK  status: ('A' for Active; 'I' for Inactive)
ROOT
ATOM      1  C2' OXE d   1      -0.069  -3.110  -5.998  0.00  0.00     0.078 C 
ATOM      2  C1' OXE d   1      -0.018  -5.917  -6.000  0.00  0.00     0.078 C 
ATOM      3  C1  OXE d   1      -1.364  -5.238  -5.986  0.00  0.00    -0.078 A 
ATOM      4  C2  OXE d   1      -1.380  -3.865  -5.938  0.00  0.00    -0.078 A 
ATOM      5  C3  OXE d   1      -2.595  -3.187  -5.978  0.00  0.00     0.003 A 
ATOM      6  C4  OXE d   1      -3.802  -3.893  -5.912  0.00  0.00    -0.002 A 
ATOM      7  C5  OXE d   1      -3.809  -5.291  -5.920  0.00  0.00    -0.002 A 
ATOM      8  C6  OXE d   1      -2.602  -5.978  -5.999  0.00  0.00     0.003 A 
ENDROOT
TORSDOF 0
ENDMDL
