MODEL 1
REMARK minimizedAffinity 6.00830173
REMARK minimizedRMSD -1
REMARK  2 active torsions:
REMARK  status: ('A' for Active; 'I' for Inactive)
REMARK    1  A    between atoms: C1_2  and  C2_3 
REMARK    2  A    between atoms: C2_3  and  C3_4 
ROOT
ATOM      1  C3  UNL d   1       3.260   4.532  -4.994  0.00  0.00    -0.075 A 
ATOM      2  C4  UNL d   1       2.222   3.808  -4.389  0.00  0.00     0.002 A 
ATOM      3  C5  UNL d   1       0.891   4.169  -4.597  0.00  0.00     0.002 A 
ATOM      4  C6  UNL d   1       0.581   5.263  -5.403  0.00  0.00    -0.004 A 
ATOM      5  C7  UNL d   1       1.604   5.999  -5.996  0.00  0.00     0.002 A 
ATOM      6  C8  UNL d   1       2.937   5.637  -5.793  0.00  0.00     0.002 A 
ENDROOT
BRANCH   1   7
ATOM      7  C2  UNL d   1       4.701   4.127  -4.796  0.00  0.00     0.056 C 
BRANCH   7   8
ATOM      8  C1  UNL d   1       4.918   3.128  -3.655  0.00  0.00     0.007 C 
ATOM      9  C   UNL d   1       5.978   3.576  -2.658  0.00  0.00     0.009 C 
ENDBRANCH   7   8
ENDBRANCH   1   7
TORSDOF 2
ENDMDL
