MODEL 1
REMARK minimizedAffinity -3.2975359
REMARK minimizedRMSD -1
REMARK  2 active torsions:
REMARK  status: ('A' for Active; 'I' for Inactive)
REMARK    1  A    between atoms: C1_2  and  C2_3 
REMARK    2  A    between atoms: C2_3  and  C3_4 
ROOT
ATOM      1  C3  UNL d   1      -1.270   5.981  -3.967  0.00  0.00    -0.075 A 
ATOM      2  C4  UNL d   1      -0.543   5.998  -2.768  0.00  0.00     0.002 A 
ATOM      3  C5  UNL d   1      -1.204   5.999  -1.539  0.00  0.00     0.002 A 
ATOM      4  C6  UNL d   1      -2.596   5.994  -1.494  0.00  0.00    -0.004 A 
ATOM      5  C7  UNL d   1      -3.328   5.994  -2.679  0.00  0.00     0.002 A 
ATOM      6  C8  UNL d   1      -2.670   5.988  -3.910  0.00  0.00     0.002 A 
ENDROOT
BRANCH   1   7
ATOM      7  C2  UNL d   1      -0.560   5.950  -5.300  0.00  0.00     0.056 C 
BRANCH   7   8
ATOM      8  C1  UNL d   1       0.688   5.061  -5.322  0.00  0.00     0.007 C 
ATOM      9  C   UNL d   1       1.963   5.824  -5.654  0.00  0.00     0.009 C 
ENDBRANCH   7   8
ENDBRANCH   1   7
TORSDOF 2
ENDMDL
