MODEL 1
REMARK minimizedAffinity 4.7742157
REMARK minimizedRMSD -1
REMARK  2 active torsions:
REMARK  status: ('A' for Active; 'I' for Inactive)
REMARK    1  A    between atoms: C1_2  and  C2_3 
REMARK    2  A    between atoms: C2_3  and  C3_4 
ROOT
ATOM      1  C3  UNL d   1      -0.352   0.376  -0.706  0.00  0.00    -0.075 A 
ATOM      2  C4  UNL d   1      -0.202  -0.229   0.550  0.00  0.00     0.002 A 
ATOM      3  C5  UNL d   1       0.710   0.279   1.477  0.00  0.00     0.002 A 
ATOM      4  C6  UNL d   1       1.488   1.389   1.156  0.00  0.00    -0.004 A 
ATOM      5  C7  UNL d   1       1.360   1.988  -0.095  0.00  0.00     0.002 A 
ATOM      6  C8  UNL d   1       0.445   1.485  -1.023  0.00  0.00     0.002 A 
ENDROOT
BRANCH   1   7
ATOM      7  C2  UNL d   1      -1.357  -0.150  -1.702  0.00  0.00     0.056 C 
BRANCH   7   8
ATOM      8  C1  UNL d   1      -2.654  -0.663  -1.067  0.00  0.00     0.007 C 
ATOM      9  C   UNL d   1      -3.225  -1.886  -1.773  0.00  0.00     0.009 C 
ENDBRANCH   7   8
ENDBRANCH   1   7
TORSDOF 2
ENDMDL
