MODEL 1
REMARK minimizedAffinity -0.829056442
REMARK minimizedRMSD -1
REMARK  2 active torsions:
REMARK  status: ('A' for Active; 'I' for Inactive)
REMARK    1  A    between atoms: C1_2  and  C2_3 
REMARK    2  A    between atoms: C2_3  and  C3_4 
ROOT
ATOM      1  C3  UNL d   1      -1.752   5.984  -4.246  0.00  0.00    -0.075 A 
ATOM      2  C4  UNL d   1      -3.075   5.982  -4.712  0.00  0.00     0.002 A 
ATOM      3  C5  UNL d   1      -4.142   5.995  -3.814  0.00  0.00     0.002 A 
ATOM      4  C6  UNL d   1      -3.902   5.999  -2.442  0.00  0.00    -0.004 A 
ATOM      5  C7  UNL d   1      -2.592   5.984  -1.968  0.00  0.00     0.002 A 
ATOM      6  C8  UNL d   1      -1.522   5.976  -2.864  0.00  0.00     0.002 A 
ENDROOT
BRANCH   1   7
ATOM      7  C2  UNL d   1      -0.592   5.999  -5.213  0.00  0.00     0.056 C 
BRANCH   7   8
ATOM      8  C1  UNL d   1       0.779   5.857  -4.545  0.00  0.00     0.007 C 
ATOM      9  C   UNL d   1       1.260   4.415  -4.463  0.00  0.00     0.009 C 
ENDBRANCH   7   8
ENDBRANCH   1   7
TORSDOF 2
ENDMDL
