MODEL 1
REMARK minimizedAffinity -2.56179357
REMARK minimizedRMSD -1
REMARK  2 active torsions:
REMARK  status: ('A' for Active; 'I' for Inactive)
REMARK    1  A    between atoms: C1_2  and  C2_3 
REMARK    2  A    between atoms: C2_3  and  C3_4 
ROOT
ATOM      1  C3  UNL d   1       1.154   1.553   2.048  0.00  0.00    -0.075 A 
ATOM      2  C4  UNL d   1       1.508   2.451   1.030  0.00  0.00     0.002 A 
ATOM      3  C5  UNL d   1       2.848   2.654   0.699  0.00  0.00     0.002 A 
ATOM      4  C6  UNL d   1       3.850   1.971   1.387  0.00  0.00    -0.004 A 
ATOM      5  C7  UNL d   1       3.510   1.090   2.411  0.00  0.00     0.002 A 
ATOM      6  C8  UNL d   1       2.170   0.882   2.741  0.00  0.00     0.002 A 
ENDROOT
BRANCH   1   7
ATOM      7  C2  UNL d   1      -0.296   1.307   2.391  0.00  0.00     0.056 C 
BRANCH   7   8
ATOM      8  C1  UNL d   1      -1.072   0.548   1.310  0.00  0.00     0.007 C 
ATOM      9  C   UNL d   1      -0.195  -0.381   0.481  0.00  0.00     0.009 C 
ENDBRANCH   7   8
ENDBRANCH   1   7
TORSDOF 2
ENDMDL
