MODEL 1
REMARK minimizedAffinity -4.67088985
REMARK minimizedRMSD -1
REMARK  2 active torsions:
REMARK  status: ('A' for Active; 'I' for Inactive)
REMARK    1  A    between atoms: C1_2  and  C2_3 
REMARK    2  A    between atoms: C2_3  and  C3_4 
ROOT
ATOM      1  C3  UNL d   1      -1.123   5.687  -3.529  0.00  0.00    -0.075 A 
ATOM      2  C4  UNL d   1      -1.636   5.623  -4.832  0.00  0.00     0.002 A 
ATOM      3  C5  UNL d   1      -3.005   5.759  -5.062  0.00  0.00     0.002 A 
ATOM      4  C6  UNL d   1      -3.878   5.950  -3.993  0.00  0.00    -0.004 A 
ATOM      5  C7  UNL d   1      -3.382   5.999  -2.693  0.00  0.00     0.002 A 
ATOM      6  C8  UNL d   1      -2.011   5.867  -2.460  0.00  0.00     0.002 A 
ENDROOT
BRANCH   1   7
ATOM      7  C2  UNL d   1       0.361   5.570  -3.276  0.00  0.00     0.056 C 
BRANCH   7   8
ATOM      8  C1  UNL d   1       1.190   5.306  -4.538  0.00  0.00     0.007 C 
ATOM      9  C   UNL d   1       2.638   5.760  -4.410  0.00  0.00     0.009 C 
ENDBRANCH   7   8
ENDBRANCH   1   7
TORSDOF 2
ENDMDL
