MODEL 1
REMARK minimizedAffinity -1.79368865
REMARK minimizedRMSD -1
REMARK  2 active torsions:
REMARK  status: ('A' for Active; 'I' for Inactive)
REMARK    1  A    between atoms: C1_2  and  C2_3 
REMARK    2  A    between atoms: C2_3  and  C3_4 
ROOT
ATOM      1  C3  UNL d   1      -0.057   5.891  -3.502  0.00  0.00    -0.075 A 
ATOM      2  C4  UNL d   1      -0.560   5.917  -4.810  0.00  0.00     0.002 A 
ATOM      3  C5  UNL d   1       0.307   5.966  -5.902  0.00  0.00     0.002 A 
ATOM      4  C6  UNL d   1       1.685   5.999  -5.700  0.00  0.00    -0.004 A 
ATOM      5  C7  UNL d   1       2.196   5.991  -4.404  0.00  0.00     0.002 A 
ATOM      6  C8  UNL d   1       1.331   5.938  -3.310  0.00  0.00     0.002 A 
ENDROOT
BRANCH   1   7
ATOM      7  C2  UNL d   1      -0.989   5.809  -2.316  0.00  0.00     0.056 C 
BRANCH   7   8
ATOM      8  C1  UNL d   1      -2.470   5.962  -2.676  0.00  0.00     0.007 C 
ATOM      9  C   UNL d   1      -3.384   5.997  -1.458  0.00  0.00     0.009 C 
ENDBRANCH   7   8
ENDBRANCH   1   7
TORSDOF 2
ENDMDL
