MODEL 1
REMARK minimizedAffinity -0.645825863
REMARK minimizedRMSD -1
REMARK  2 active torsions:
REMARK  status: ('A' for Active; 'I' for Inactive)
REMARK    1  A    between atoms: C1_2  and  C2_3 
REMARK    2  A    between atoms: C2_3  and  C3_4 
ROOT
ATOM      1  C3  UNL d   1      -1.408   5.908  -2.477  0.00  0.00    -0.075 A 
ATOM      2  C4  UNL d   1      -2.096   5.941  -1.256  0.00  0.00     0.002 A 
ATOM      3  C5  UNL d   1      -3.491   5.979  -1.229  0.00  0.00     0.002 A 
ATOM      4  C6  UNL d   1      -4.213   5.996  -2.420  0.00  0.00    -0.004 A 
ATOM      5  C7  UNL d   1      -3.539   5.980  -3.640  0.00  0.00     0.002 A 
ATOM      6  C8  UNL d   1      -2.144   5.937  -3.669  0.00  0.00     0.002 A 
ENDROOT
BRANCH   1   7
ATOM      7  C2  UNL d   1       0.100   5.836  -2.513  0.00  0.00     0.056 C 
BRANCH   7   8
ATOM      8  C1  UNL d   1       0.699   5.993  -3.914  0.00  0.00     0.007 C 
ATOM      9  C   UNL d   1       2.222   5.988  -3.920  0.00  0.00     0.009 C 
ENDBRANCH   7   8
ENDBRANCH   1   7
TORSDOF 2
ENDMDL
