MODEL 1
REMARK minimizedAffinity 0.857551217
REMARK minimizedRMSD -1
REMARK  2 active torsions:
REMARK  status: ('A' for Active; 'I' for Inactive)
REMARK    1  A    between atoms: C1_2  and  C2_3 
REMARK    2  A    between atoms: C2_3  and  C3_4 
ROOT
ATOM      1  C3  UNL d   1       0.936  -0.203  -0.114  0.00  0.00    -0.075 A 
ATOM      2  C4  UNL d   1      -0.200  -0.461   0.668  0.00  0.00     0.002 A 
ATOM      3  C5  UNL d   1      -0.420   0.243   1.852  0.00  0.00     0.002 A 
ATOM      4  C6  UNL d   1       0.496   1.204   2.275  0.00  0.00    -0.004 A 
ATOM      5  C7  UNL d   1       1.636   1.457   1.515  0.00  0.00     0.002 A 
ATOM      6  C8  UNL d   1       1.856   0.757   0.327  0.00  0.00     0.002 A 
ENDROOT
BRANCH   1   7
ATOM      7  C2  UNL d   1       1.164  -0.941  -1.411  0.00  0.00     0.056 C 
BRANCH   7   8
ATOM      8  C1  UNL d   1       1.884  -0.113  -2.481  0.00  0.00     0.007 C 
ATOM      9  C   UNL d   1       1.129  -0.051  -3.802  0.00  0.00     0.009 C 
ENDBRANCH   7   8
ENDBRANCH   1   7
TORSDOF 2
ENDMDL
