MODEL 1
REMARK minimizedAffinity 2.32740521
REMARK minimizedRMSD -1
REMARK  2 active torsions:
REMARK  status: ('A' for Active; 'I' for Inactive)
REMARK    1  A    between atoms: C1_2  and  C2_3 
REMARK    2  A    between atoms: C2_3  and  C3_4 
ROOT
ATOM      1  C3  UNL d   1      -0.961   5.953  -4.517  0.00  0.00    -0.075 A 
ATOM      2  C4  UNL d   1      -2.332   5.995  -4.810  0.00  0.00     0.002 A 
ATOM      3  C5  UNL d   1      -3.276   6.000  -3.783  0.00  0.00     0.002 A 
ATOM      4  C6  UNL d   1      -2.863   5.953  -2.453  0.00  0.00    -0.004 A 
ATOM      5  C7  UNL d   1      -1.505   5.894  -2.151  0.00  0.00     0.002 A 
ATOM      6  C8  UNL d   1      -0.558   5.894  -3.176  0.00  0.00     0.002 A 
ENDROOT
BRANCH   1   7
ATOM      7  C2  UNL d   1       0.066   5.977  -5.623  0.00  0.00     0.056 C 
BRANCH   7   8
ATOM      8  C1  UNL d   1       1.391   5.298  -5.259  0.00  0.00     0.007 C 
ATOM      9  C   UNL d   1       2.607   6.000  -5.849  0.00  0.00     0.009 C 
ENDBRANCH   7   8
ENDBRANCH   1   7
TORSDOF 2
ENDMDL
