MODEL 1
REMARK minimizedAffinity -5.35579014
REMARK minimizedRMSD -1
REMARK  1 active torsions:
REMARK  status: ('A' for Active; 'I' for Inactive)
REMARK    1  A    between atoms: C1_2  and  C2_3 
ROOT
ATOM      1  C2  UNL d   1       0.163  -0.514  -0.072  0.00  0.00    -0.081 A 
ATOM      2  C3  UNL d   1      -0.472  -0.466   1.175  0.00  0.00     0.006 A 
ATOM      3  C4  UNL d   1      -1.054   0.721   1.628  0.00  0.00     0.002 A 
ATOM      4  C5  UNL d   1      -1.018   1.875   0.838  0.00  0.00    -0.080 A 
ATOM      5  C6  UNL d   1      -1.666   3.147   1.299  0.00  0.00     0.076 C 
ATOM      6  C7  UNL d   1      -0.369   1.831  -0.400  0.00  0.00     0.002 A 
ATOM      7  C8  UNL d   1       0.214   0.646  -0.853  0.00  0.00     0.006 A 
ENDROOT
BRANCH   1   8
ATOM      8  C1  UNL d   1       0.735  -1.809  -0.591  0.00  0.00     0.054 C 
ATOM      9  C   UNL d   1      -0.009  -2.285  -1.831  0.00  0.00     0.018 C 
ENDBRANCH   1   8
TORSDOF 1
ENDMDL
