MODEL 1
REMARK minimizedAffinity -5.10540485
REMARK minimizedRMSD -1
REMARK  1 active torsions:
REMARK  status: ('A' for Active; 'I' for Inactive)
REMARK    1  A    between atoms: C1_2  and  C2_3 
ROOT
ATOM      1  C2  UNL d   1       0.175  -0.775  -0.411  0.00  0.00    -0.081 A 
ATOM      2  C3  UNL d   1      -0.145  -0.779   0.953  0.00  0.00     0.006 A 
ATOM      3  C4  UNL d   1      -0.812   0.305   1.527  0.00  0.00     0.002 A 
ATOM      4  C5  UNL d   1      -1.178   1.407   0.747  0.00  0.00    -0.080 A 
ATOM      5  C6  UNL d   1      -1.922   2.564   1.345  0.00  0.00     0.076 C 
ATOM      6  C7  UNL d   1      -0.844   1.420  -0.611  0.00  0.00     0.002 A 
ATOM      7  C8  UNL d   1      -0.176   0.336  -1.186  0.00  0.00     0.006 A 
ENDROOT
BRANCH   1   8
ATOM      8  C1  UNL d   1       0.837  -1.970  -1.047  0.00  0.00     0.054 C 
ATOM      9  C   UNL d   1       0.119  -2.387  -2.323  0.00  0.00     0.018 C 
ENDBRANCH   1   8
TORSDOF 1
ENDMDL
