MODEL 1
REMARK minimizedAffinity -3.67067122
REMARK minimizedRMSD -1
REMARK  1 active torsions:
REMARK  status: ('A' for Active; 'I' for Inactive)
REMARK    1  A    between atoms: C1_2  and  C2_3 
ROOT
ATOM      1  C2  UNL d   1       0.346  -0.990  -0.233  0.00  0.00    -0.081 A 
ATOM      2  C3  UNL d   1       0.205  -1.047   1.159  0.00  0.00     0.006 A 
ATOM      3  C4  UNL d   1      -0.491  -0.047   1.842  0.00  0.00     0.002 A 
ATOM      4  C5  UNL d   1      -1.063   1.022   1.145  0.00  0.00    -0.080 A 
ATOM      5  C6  UNL d   1      -1.838   2.086   1.864  0.00  0.00     0.076 C 
ATOM      6  C7  UNL d   1      -0.908   1.089  -0.243  0.00  0.00     0.002 A 
ATOM      7  C8  UNL d   1      -0.212   0.090  -0.927  0.00  0.00     0.006 A 
ENDROOT
BRANCH   1   8
ATOM      8  C1  UNL d   1       1.039  -2.100  -0.980  0.00  0.00     0.054 C 
ATOM      9  C   UNL d   1       0.359  -2.380  -2.313  0.00  0.00     0.018 C 
ENDBRANCH   1   8
TORSDOF 1
ENDMDL
