MODEL 1
REMARK minimizedAffinity -2.41302061
REMARK minimizedRMSD -1
REMARK  1 active torsions:
REMARK  status: ('A' for Active; 'I' for Inactive)
REMARK    1  A    between atoms: C1_2  and  C2_3 
ROOT
ATOM      1  C2  UNL d   1       0.552  -1.207  -0.671  0.00  0.00    -0.081 A 
ATOM      2  C3  UNL d   1       0.067  -1.509   0.607  0.00  0.00     0.006 A 
ATOM      3  C4  UNL d   1      -0.620  -0.547   1.350  0.00  0.00     0.002 A 
ATOM      4  C5  UNL d   1      -0.841   0.731   0.825  0.00  0.00    -0.080 A 
ATOM      5  C6  UNL d   1      -1.603   1.764   1.600  0.00  0.00     0.076 C 
ATOM      6  C7  UNL d   1      -0.341   1.039  -0.444  0.00  0.00     0.002 A 
ATOM      7  C8  UNL d   1       0.347   0.078  -1.188  0.00  0.00     0.006 A 
ENDROOT
BRANCH   1   8
ATOM      8  C1  UNL d   1       1.237  -2.262  -1.501  0.00  0.00     0.054 C 
ATOM      9  C   UNL d   1       0.361  -2.707  -2.663  0.00  0.00     0.018 C 
ENDBRANCH   1   8
TORSDOF 1
ENDMDL
