MODEL 1
REMARK minimizedAffinity -5.38922739
REMARK minimizedRMSD -1
REMARK  1 active torsions:
REMARK  status: ('A' for Active; 'I' for Inactive)
REMARK    1  A    between atoms: C1_2  and  C2_3 
ROOT
ATOM      1  C2  UNL d   1       0.438  -1.146  -0.052  0.00  0.00    -0.081 A 
ATOM      2  C3  UNL d   1      -0.089  -1.194   1.244  0.00  0.00     0.006 A 
ATOM      3  C4  UNL d   1      -0.874  -0.145   1.729  0.00  0.00     0.002 A 
ATOM      4  C5  UNL d   1      -1.150   0.966   0.924  0.00  0.00    -0.080 A 
ATOM      5  C6  UNL d   1      -2.015   2.085   1.422  0.00  0.00     0.076 C 
ATOM      6  C7  UNL d   1      -0.608   1.022  -0.365  0.00  0.00     0.002 A 
ATOM      7  C8  UNL d   1       0.177  -0.026  -0.850  0.00  0.00     0.006 A 
ENDROOT
BRANCH   1   8
ATOM      8  C1  UNL d   1       1.230  -2.305  -0.601  0.00  0.00     0.054 C 
ATOM      9  C   UNL d   1       0.398  -3.137  -1.566  0.00  0.00     0.018 C 
ENDBRANCH   1   8
TORSDOF 1
ENDMDL
