MODEL 1
REMARK minimizedAffinity -4.34844732
REMARK minimizedRMSD -1
REMARK  1 active torsions:
REMARK  status: ('A' for Active; 'I' for Inactive)
REMARK    1  A    between atoms: C1_2  and  C2_3 
ROOT
ATOM      1  C2  UNL d   1       0.217  -0.386  -0.542  0.00  0.00    -0.081 A 
ATOM      2  C3  UNL d   1       0.315  -0.432   0.854  0.00  0.00     0.006 A 
ATOM      3  C4  UNL d   1      -0.421   0.454   1.645  0.00  0.00     0.002 A 
ATOM      4  C5  UNL d   1      -1.272   1.394   1.054  0.00  0.00    -0.080 A 
ATOM      5  C6  UNL d   1      -2.090   2.331   1.892  0.00  0.00     0.076 C 
ATOM      6  C7  UNL d   1      -1.356   1.451  -0.341  0.00  0.00     0.002 A 
ATOM      7  C8  UNL d   1      -0.620   0.566  -1.132  0.00  0.00     0.006 A 
ENDROOT
BRANCH   1   8
ATOM      8  C1  UNL d   1       0.960  -1.383  -1.395  0.00  0.00     0.054 C 
ATOM      9  C   UNL d   1       0.196  -1.693  -2.675  0.00  0.00     0.018 C 
ENDBRANCH   1   8
TORSDOF 1
ENDMDL
