MODEL 1
REMARK minimizedAffinity -2.94174457
REMARK minimizedRMSD -1
REMARK  1 active torsions:
REMARK  status: ('A' for Active; 'I' for Inactive)
REMARK    1  A    between atoms: C1_2  and  C2_3 
ROOT
ATOM      1  C2  UNL d   1      -0.799   1.561   0.788  0.00  0.00    -0.081 A 
ATOM      2  C3  UNL d   1      -0.285   1.721  -0.505  0.00  0.00     0.006 A 
ATOM      3  C4  UNL d   1       0.379   0.668  -1.139  0.00  0.00     0.002 A 
ATOM      4  C5  UNL d   1       0.533  -0.564  -0.494  0.00  0.00    -0.080 A 
ATOM      5  C6  UNL d   1       1.217  -1.712  -1.174  0.00  0.00     0.076 C 
ATOM      6  C7  UNL d   1       0.036  -0.718   0.805  0.00  0.00     0.002 A 
ATOM      7  C8  UNL d   1      -0.628   0.335   1.439  0.00  0.00     0.006 A 
ENDROOT
BRANCH   1   8
ATOM      8  C1  UNL d   1      -1.572   2.674   1.448  0.00  0.00     0.054 C 
ATOM      9  C   UNL d   1      -0.639   3.700   2.074  0.00  0.00     0.018 C 
ENDBRANCH   1   8
TORSDOF 1
ENDMDL
