MODEL 1
REMARK minimizedAffinity -5.43684149
REMARK minimizedRMSD -1
REMARK  1 active torsions:
REMARK  status: ('A' for Active; 'I' for Inactive)
REMARK    1  A    between atoms: C1_2  and  C2_3 
ROOT
ATOM      1  C2  UNL d   1       0.297  -0.983  -0.228  0.00  0.00    -0.081 A 
ATOM      2  C3  UNL d   1      -0.155  -1.169   1.084  0.00  0.00     0.006 A 
ATOM      3  C4  UNL d   1      -1.033  -0.252   1.667  0.00  0.00     0.002 A 
ATOM      4  C5  UNL d   1      -1.479   0.861   0.947  0.00  0.00    -0.080 A 
ATOM      5  C6  UNL d   1      -2.445   1.837   1.551  0.00  0.00     0.076 C 
ATOM      6  C7  UNL d   1      -1.014   1.057  -0.358  0.00  0.00     0.002 A 
ATOM      7  C8  UNL d   1      -0.136   0.141  -0.942  0.00  0.00     0.006 A 
ENDROOT
BRANCH   1   8
ATOM      8  C1  UNL d   1       1.192  -2.004  -0.882  0.00  0.00     0.054 C 
ATOM      9  C   UNL d   1       0.469  -2.737  -2.003  0.00  0.00     0.018 C 
ENDBRANCH   1   8
TORSDOF 1
ENDMDL
