MODEL 1
REMARK minimizedAffinity -3.40590572
REMARK minimizedRMSD -1
REMARK  1 active torsions:
REMARK  status: ('A' for Active; 'I' for Inactive)
REMARK    1  A    between atoms: C1_2  and  C2_3 
ROOT
ATOM      1  C2  UNL d   1       0.762  -1.102  -0.732  0.00  0.00    -0.081 A 
ATOM      2  C3  UNL d   1       0.380  -1.178   0.613  0.00  0.00     0.006 A 
ATOM      3  C4  UNL d   1      -0.400  -0.170   1.185  0.00  0.00     0.002 A 
ATOM      4  C5  UNL d   1      -0.817   0.925   0.421  0.00  0.00    -0.080 A 
ATOM      5  C6  UNL d   1      -1.680   1.998   1.015  0.00  0.00     0.076 C 
ATOM      6  C7  UNL d   1      -0.420   1.010  -0.918  0.00  0.00     0.002 A 
ATOM      7  C8  UNL d   1       0.360   0.003  -1.490  0.00  0.00     0.006 A 
ENDROOT
BRANCH   1   8
ATOM      8  C1  UNL d   1       1.549  -2.219  -1.369  0.00  0.00     0.054 C 
ATOM      9  C   UNL d   1       0.787  -2.839  -2.532  0.00  0.00     0.018 C 
ENDBRANCH   1   8
TORSDOF 1
ENDMDL
