MODEL 1
REMARK minimizedAffinity -2.60764265
REMARK minimizedRMSD -1
REMARK  1 active torsions:
REMARK  status: ('A' for Active; 'I' for Inactive)
REMARK    1  A    between atoms: C1_2  and  C2_3 
ROOT
ATOM      1  C2  UNL d   1      -0.028  -0.552  -0.118  0.00  0.00    -0.081 A 
ATOM      2  C3  UNL d   1      -0.439  -0.544   1.220  0.00  0.00     0.006 A 
ATOM      3  C4  UNL d   1      -1.192   0.520   1.723  0.00  0.00     0.002 A 
ATOM      4  C5  UNL d   1      -1.552   1.588   0.896  0.00  0.00    -0.080 A 
ATOM      5  C6  UNL d   1      -2.385   2.722   1.416  0.00  0.00     0.076 C 
ATOM      6  C7  UNL d   1      -1.126   1.589  -0.437  0.00  0.00     0.002 A 
ATOM      7  C8  UNL d   1      -0.374   0.526  -0.941  0.00  0.00     0.006 A 
ENDROOT
BRANCH   1   8
ATOM      8  C1  UNL d   1       0.728  -1.729  -0.681  0.00  0.00     0.054 C 
ATOM      9  C   UNL d   1      -0.058  -2.412  -1.790  0.00  0.00     0.018 C 
ENDBRANCH   1   8
TORSDOF 1
ENDMDL
