MODEL 1
REMARK minimizedAffinity -1.89950752
REMARK minimizedRMSD -1
REMARK  1 active torsions:
REMARK  status: ('A' for Active; 'I' for Inactive)
REMARK    1  A    between atoms: C1_2  and  C2_3 
ROOT
ATOM      1  C2  UNL d   1       0.954  -1.241  -0.294  0.00  0.00    -0.081 A 
ATOM      2  C3  UNL d   1       0.825   0.072  -0.764  0.00  0.00     0.006 A 
ATOM      3  C4  UNL d   1       0.099   1.017  -0.035  0.00  0.00     0.002 A 
ATOM      4  C5  UNL d   1      -0.502   0.668   1.179  0.00  0.00    -0.080 A 
ATOM      5  C6  UNL d   1      -1.258   1.681   1.987  0.00  0.00     0.076 C 
ATOM      6  C7  UNL d   1      -0.388  -0.648   1.640  0.00  0.00     0.002 A 
ATOM      7  C8  UNL d   1       0.337  -1.593   0.911  0.00  0.00     0.006 A 
ENDROOT
BRANCH   1   8
ATOM      8  C1  UNL d   1       1.790  -2.245  -1.046  0.00  0.00     0.054 C 
ATOM      9  C   UNL d   1       0.960  -3.449  -1.468  0.00  0.00     0.018 C 
ENDBRANCH   1   8
TORSDOF 1
ENDMDL
