MODEL 1
REMARK minimizedAffinity -3.58226085
REMARK minimizedRMSD -1
REMARK  1 active torsions:
REMARK  status: ('A' for Active; 'I' for Inactive)
REMARK    1  A    between atoms: C1_2  and  C2_3 
ROOT
ATOM      1  C2  UNL d   1       0.389   0.059  -0.088  0.00  0.00    -0.081 A 
ATOM      2  C3  UNL d   1      -0.306  -0.171   1.106  0.00  0.00     0.006 A 
ATOM      3  C4  UNL d   1      -1.152   0.807   1.633  0.00  0.00     0.002 A 
ATOM      4  C5  UNL d   1      -1.324   2.028   0.972  0.00  0.00    -0.080 A 
ATOM      5  C6  UNL d   1      -2.253   3.075   1.512  0.00  0.00     0.076 C 
ATOM      6  C7  UNL d   1      -0.617   2.265  -0.211  0.00  0.00     0.002 A 
ATOM      7  C8  UNL d   1       0.230   1.288  -0.739  0.00  0.00     0.006 A 
ENDROOT
BRANCH   1   8
ATOM      8  C1  UNL d   1       1.252  -1.018  -0.693  0.00  0.00     0.054 C 
ATOM      9  C   UNL d   1       0.431  -1.965  -1.557  0.00  0.00     0.018 C 
ENDBRANCH   1   8
TORSDOF 1
ENDMDL
