MODEL 1
REMARK minimizedAffinity -1.84438968
REMARK minimizedRMSD -1
REMARK  1 active torsions:
REMARK  status: ('A' for Active; 'I' for Inactive)
REMARK    1  A    between atoms: C1_2  and  C2_3 
ROOT
ATOM      1  C2  UNL d   1       0.660  -0.405  -0.030  0.00  0.00    -0.081 A 
ATOM      2  C3  UNL d   1       0.167  -0.495   1.277  0.00  0.00     0.006 A 
ATOM      3  C4  UNL d   1      -0.889   0.319   1.693  0.00  0.00     0.002 A 
ATOM      4  C5  UNL d   1      -1.473   1.231   0.808  0.00  0.00    -0.080 A 
ATOM      5  C6  UNL d   1      -2.627   2.090   1.234  0.00  0.00     0.076 C 
ATOM      6  C7  UNL d   1      -0.969   1.335  -0.492  0.00  0.00     0.002 A 
ATOM      7  C8  UNL d   1       0.087   0.521  -0.909  0.00  0.00     0.006 A 
ENDROOT
BRANCH   1   8
ATOM      8  C1  UNL d   1       1.756  -1.327  -0.501  0.00  0.00     0.054 C 
ATOM      9  C   UNL d   1       1.190  -2.502  -1.287  0.00  0.00     0.018 C 
ENDBRANCH   1   8
TORSDOF 1
ENDMDL
