MODEL 1
REMARK minimizedAffinity -3.79747462
REMARK minimizedRMSD -1
REMARK  1 active torsions:
REMARK  status: ('A' for Active; 'I' for Inactive)
REMARK    1  A    between atoms: C1_2  and  C2_3 
ROOT
ATOM      1  C2  UNL d   1       0.455  -0.881  -0.760  0.00  0.00    -0.081 A 
ATOM      2  C3  UNL d   1       0.185  -1.124   0.593  0.00  0.00     0.006 A 
ATOM      3  C4  UNL d   1      -0.643  -0.261   1.315  0.00  0.00     0.002 A 
ATOM      4  C5  UNL d   1      -1.221   0.852   0.696  0.00  0.00    -0.080 A 
ATOM      5  C6  UNL d   1      -2.136   1.769   1.452  0.00  0.00     0.076 C 
ATOM      6  C7  UNL d   1      -0.938   1.104  -0.650  0.00  0.00     0.002 A 
ATOM      7  C8  UNL d   1      -0.109   0.243  -1.373  0.00  0.00     0.006 A 
ENDROOT
BRANCH   1   8
ATOM      8  C1  UNL d   1       1.295  -1.845  -1.558  0.00  0.00     0.054 C 
ATOM      9  C   UNL d   1       0.468  -2.546  -2.627  0.00  0.00     0.018 C 
ENDBRANCH   1   8
TORSDOF 1
ENDMDL
