MODEL 1
REMARK minimizedAffinity 8.58430004
REMARK minimizedRMSD -1
REMARK  0 active torsions:
REMARK  status: ('A' for Active; 'I' for Inactive)
ROOT
ATOM      1  C   UNL d   1       0.997  -2.907  -1.502  0.00  0.00     0.023 A 
ATOM      2  C1  UNL d   1       2.203  -3.186  -0.858  0.00  0.00     0.003 A 
ATOM      3  C2  UNL d   1       3.101  -2.154  -0.577  0.00  0.00     0.048 A 
ATOM      4  C3  UNL d   1       2.787  -0.846  -0.943  0.00  0.00     0.023 A 
ATOM      5  C4  UNL d   1       1.582  -0.562  -1.587  0.00  0.00     0.048 A 
ATOM      6  C5  UNL d   1       0.687  -1.597  -1.866  0.00  0.00     0.003 A 
ATOM      7  I   UNL d   1       4.122   0.692  -0.526  0.00  0.00    -0.146 I 
ENDROOT
TORSDOF 0
ENDMDL
