MODEL 1
REMARK minimizedAffinity 21.4869461
REMARK minimizedRMSD -1
REMARK  0 active torsions:
REMARK  status: ('A' for Active; 'I' for Inactive)
ROOT
ATOM      1  C   UNL d   1      -1.991  -4.453  -3.300  0.00  0.00     0.023 A 
ATOM      2  C1  UNL d   1      -1.243  -5.576  -3.655  0.00  0.00     0.003 A 
ATOM      3  C2  UNL d   1      -0.119  -5.932  -2.907  0.00  0.00     0.048 A 
ATOM      4  C3  UNL d   1       0.251  -5.162  -1.805  0.00  0.00     0.023 A 
ATOM      5  C4  UNL d   1      -0.495  -4.038  -1.446  0.00  0.00     0.048 A 
ATOM      6  C5  UNL d   1      -1.617  -3.685  -2.197  0.00  0.00     0.003 A 
ATOM      7  I   UNL d   1       1.923  -5.692  -0.690  0.00  0.00    -0.146 I 
ENDROOT
TORSDOF 0
ENDMDL
