MODEL 1
REMARK minimizedAffinity 11.2148724
REMARK minimizedRMSD -1
REMARK  0 active torsions:
REMARK  status: ('A' for Active; 'I' for Inactive)
ROOT
ATOM      1  C   UNL d   1      -3.620   2.091   4.137  0.00  0.00     0.023 A 
ATOM      2  C1  UNL d   1      -3.952   1.150   3.162  0.00  0.00     0.003 A 
ATOM      3  C2  UNL d   1      -4.118  -0.191   3.512  0.00  0.00     0.048 A 
ATOM      4  C3  UNL d   1      -3.953  -0.585   4.839  0.00  0.00     0.023 A 
ATOM      5  C4  UNL d   1      -3.622   0.353   5.819  0.00  0.00     0.048 A 
ATOM      6  C5  UNL d   1      -3.456   1.693   5.464  0.00  0.00     0.003 A 
ATOM      7  I   UNL d   1      -4.200  -2.581   5.363  0.00  0.00    -0.146 I 
ENDROOT
TORSDOF 0
ENDMDL
