MODEL 1
REMARK minimizedAffinity 11.1273079
REMARK minimizedRMSD -1
REMARK  0 active torsions:
REMARK  status: ('A' for Active; 'I' for Inactive)
ROOT
ATOM      1  C   UNL d   1       0.731  -3.015  -1.803  0.00  0.00     0.023 A 
ATOM      2  C1  UNL d   1       1.529  -3.120  -0.664  0.00  0.00     0.003 A 
ATOM      3  C2  UNL d   1       2.137  -1.983  -0.128  0.00  0.00     0.048 A 
ATOM      4  C3  UNL d   1       1.943  -0.744  -0.737  0.00  0.00     0.023 A 
ATOM      5  C4  UNL d   1       1.145  -0.634  -1.877  0.00  0.00     0.048 A 
ATOM      6  C5  UNL d   1       0.540  -1.773  -2.409  0.00  0.00     0.003 A 
ATOM      7  I   UNL d   1       2.847   0.950   0.059  0.00  0.00    -0.146 I 
ENDROOT
TORSDOF 0
ENDMDL
