MODEL 1
REMARK minimizedAffinity 11.7864084
REMARK minimizedRMSD -1
REMARK  0 active torsions:
REMARK  status: ('A' for Active; 'I' for Inactive)
ROOT
ATOM      1  C   UNL d   1       3.444   0.259  -0.711  0.00  0.00     0.023 A 
ATOM      2  C1  UNL d   1       3.871   1.125   0.296  0.00  0.00     0.003 A 
ATOM      3  C2  UNL d   1       2.992   1.505   1.312  0.00  0.00     0.048 A 
ATOM      4  C3  UNL d   1       1.687   1.013   1.316  0.00  0.00     0.023 A 
ATOM      5  C4  UNL d   1       1.255   0.146   0.312  0.00  0.00     0.048 A 
ATOM      6  C5  UNL d   1       2.138  -0.230  -0.703  0.00  0.00     0.003 A 
ATOM      7  I   UNL d   1       0.376   1.576   2.828  0.00  0.00    -0.146 I 
ENDROOT
TORSDOF 0
ENDMDL
