MODEL 1
REMARK minimizedAffinity 10.0270023
REMARK minimizedRMSD -1
REMARK  0 active torsions:
REMARK  status: ('A' for Active; 'I' for Inactive)
ROOT
ATOM      1  C   UNL d   1       3.325  -0.802  -0.957  0.00  0.00     0.023 A 
ATOM      2  C1  UNL d   1       3.241  -2.131  -0.542  0.00  0.00     0.003 A 
ATOM      3  C2  UNL d   1       2.118  -2.895  -0.868  0.00  0.00     0.048 A 
ATOM      4  C3  UNL d   1       1.085  -2.324  -1.610  0.00  0.00     0.023 A 
ATOM      5  C4  UNL d   1       1.166  -0.994  -2.028  0.00  0.00     0.048 A 
ATOM      6  C5  UNL d   1       2.289  -0.234  -1.698  0.00  0.00     0.003 A 
ATOM      7  I   UNL d   1      -0.587  -3.459  -2.097  0.00  0.00    -0.146 I 
ENDROOT
TORSDOF 0
ENDMDL
