MODEL 1
REMARK minimizedAffinity 22.4012642
REMARK minimizedRMSD -1
REMARK  0 active torsions:
REMARK  status: ('A' for Active; 'I' for Inactive)
ROOT
ATOM      1  C   UNL d   1       1.573  -4.542  -0.023  0.00  0.00     0.023 A 
ATOM      2  C1  UNL d   1       1.873  -5.693  -0.753  0.00  0.00     0.003 A 
ATOM      3  C2  UNL d   1       1.145  -6.000  -1.905  0.00  0.00     0.048 A 
ATOM      4  C3  UNL d   1       0.121  -5.151  -2.322  0.00  0.00     0.023 A 
ATOM      5  C4  UNL d   1      -0.181  -3.998  -1.596  0.00  0.00     0.048 A 
ATOM      6  C5  UNL d   1       0.548  -3.695  -0.444  0.00  0.00     0.003 A 
ATOM      7  I   UNL d   1      -0.963  -5.605  -4.036  0.00  0.00    -0.146 I 
ENDROOT
TORSDOF 0
ENDMDL
