MODEL 1
REMARK minimizedAffinity 14.262146
REMARK minimizedRMSD -1
REMARK  0 active torsions:
REMARK  status: ('A' for Active; 'I' for Inactive)
ROOT
ATOM      1  C   UNL d   1      -3.288   1.501   3.003  0.00  0.00     0.023 A 
ATOM      2  C1  UNL d   1      -4.359   1.062   2.225  0.00  0.00     0.003 A 
ATOM      3  C2  UNL d   1      -5.135  -0.019   2.648  0.00  0.00     0.048 A 
ATOM      4  C3  UNL d   1      -4.834  -0.656   3.852  0.00  0.00     0.023 A 
ATOM      5  C4  UNL d   1      -3.764  -0.220   4.635  0.00  0.00     0.048 A 
ATOM      6  C5  UNL d   1      -2.991   0.861   4.206  0.00  0.00     0.003 A 
ATOM      7  I   UNL d   1      -5.988  -2.265   4.485  0.00  0.00    -0.146 I 
ENDROOT
TORSDOF 0
ENDMDL
