MODEL 1
REMARK minimizedAffinity 10.0015125
REMARK minimizedRMSD -1
REMARK  0 active torsions:
REMARK  status: ('A' for Active; 'I' for Inactive)
ROOT
ATOM      1  C   UNL d   1       2.029  -0.476  -1.260  0.00  0.00     0.023 A 
ATOM      2  C1  UNL d   1       1.406  -0.468  -2.508  0.00  0.00     0.003 A 
ATOM      3  C2  UNL d   1       0.428  -1.419  -2.808  0.00  0.00     0.048 A 
ATOM      4  C3  UNL d   1       0.077  -2.374  -1.855  0.00  0.00     0.023 A 
ATOM      5  C4  UNL d   1       0.697  -2.385  -0.604  0.00  0.00     0.048 A 
ATOM      6  C5  UNL d   1       1.675  -1.434  -0.309  0.00  0.00     0.003 A 
ATOM      7  I   UNL d   1      -1.378  -3.790  -2.299  0.00  0.00    -0.146 I 
ENDROOT
TORSDOF 0
ENDMDL
