MODEL 1
REMARK minimizedAffinity 19.7756119
REMARK minimizedRMSD -1
REMARK  0 active torsions:
REMARK  status: ('A' for Active; 'I' for Inactive)
ROOT
ATOM      1  C   UNL d   1       1.143   6.000  -0.484  0.00  0.00     0.023 A 
ATOM      2  C1  UNL d   1       1.876   5.448  -1.534  0.00  0.00     0.003 A 
ATOM      3  C2  UNL d   1       2.255   4.104  -1.493  0.00  0.00     0.048 A 
ATOM      4  C3  UNL d   1       1.896   3.318  -0.398  0.00  0.00     0.023 A 
ATOM      5  C4  UNL d   1       1.162   3.867   0.655  0.00  0.00     0.048 A 
ATOM      6  C5  UNL d   1       0.787   5.210   0.610  0.00  0.00     0.003 A 
ATOM      7  I   UNL d   1       2.459   1.319  -0.334  0.00  0.00    -0.146 I 
ENDROOT
TORSDOF 0
ENDMDL
