MODEL 1
REMARK minimizedAffinity 15.9304171
REMARK minimizedRMSD -1
REMARK  0 active torsions:
REMARK  status: ('A' for Active; 'I' for Inactive)
ROOT
ATOM      1  C   UNL d   1       4.827  -5.537  -0.909  0.00  0.00     0.023 A 
ATOM      2  C1  UNL d   1       5.094  -4.173  -0.796  0.00  0.00     0.003 A 
ATOM      3  C2  UNL d   1       4.043  -3.262  -0.676  0.00  0.00     0.048 A 
ATOM      4  C3  UNL d   1       2.726  -3.722  -0.668  0.00  0.00     0.023 A 
ATOM      5  C4  UNL d   1       2.455  -5.087  -0.780  0.00  0.00     0.048 A 
ATOM      6  C5  UNL d   1       3.509  -5.994  -0.901  0.00  0.00     0.003 A 
ATOM      7  I   UNL d   1       1.160  -2.368  -0.490  0.00  0.00    -0.146 I 
ENDROOT
TORSDOF 0
ENDMDL
