MODEL 1
REMARK minimizedAffinity 13.0119982
REMARK minimizedRMSD -1
REMARK  0 active torsions:
REMARK  status: ('A' for Active; 'I' for Inactive)
ROOT
ATOM      1  C   UNL d   1       1.756   1.322   5.208  0.00  0.00     0.023 A 
ATOM      2  C1  UNL d   1       1.480   0.923   3.900  0.00  0.00     0.003 A 
ATOM      3  C2  UNL d   1       0.191   1.067   3.382  0.00  0.00     0.048 A 
ATOM      4  C3  UNL d   1      -0.816   1.612   4.177  0.00  0.00     0.023 A 
ATOM      5  C4  UNL d   1      -0.544   2.014   5.486  0.00  0.00     0.048 A 
ATOM      6  C5  UNL d   1       0.745   1.867   6.000  0.00  0.00     0.003 A 
ATOM      7  I   UNL d   1      -2.735   1.828   3.408  0.00  0.00    -0.146 I 
ENDROOT
TORSDOF 0
ENDMDL
