MODEL 1
REMARK minimizedAffinity 21.3169708
REMARK minimizedRMSD -1
REMARK  0 active torsions:
REMARK  status: ('A' for Active; 'I' for Inactive)
ROOT
ATOM      1  C   UNL d   1       4.292   1.432  -0.403  0.00  0.00     0.023 A 
ATOM      2  C1  UNL d   1       4.013   0.313   0.382  0.00  0.00     0.003 A 
ATOM      3  C2  UNL d   1       2.933  -0.512   0.064  0.00  0.00     0.048 A 
ATOM      4  C3  UNL d   1       2.135  -0.213  -1.040  0.00  0.00     0.023 A 
ATOM      5  C4  UNL d   1       2.411   0.906  -1.828  0.00  0.00     0.048 A 
ATOM      6  C5  UNL d   1       3.492   1.728  -1.506  0.00  0.00     0.003 A 
ATOM      7  I   UNL d   1       0.526  -1.440  -1.515  0.00  0.00    -0.146 I 
ENDROOT
TORSDOF 0
ENDMDL
