MODEL 1
REMARK minimizedAffinity 10.5095367
REMARK minimizedRMSD -1
REMARK  0 active torsions:
REMARK  status: ('A' for Active; 'I' for Inactive)
ROOT
ATOM      1  C   UNL d   1       0.537  -2.251  -1.452  0.00  0.00     0.023 A 
ATOM      2  C1  UNL d   1       0.880  -1.180  -2.277  0.00  0.00     0.003 A 
ATOM      3  C2  UNL d   1       1.959  -0.358  -1.944  0.00  0.00     0.048 A 
ATOM      4  C3  UNL d   1       2.691  -0.613  -0.785  0.00  0.00     0.023 A 
ATOM      5  C4  UNL d   1       2.352  -1.685   0.043  0.00  0.00     0.048 A 
ATOM      6  C5  UNL d   1       1.272  -2.503  -0.293  0.00  0.00     0.003 A 
ATOM      7  I   UNL d   1       4.297   0.609  -0.288  0.00  0.00    -0.146 I 
ENDROOT
TORSDOF 0
ENDMDL
