MODEL 1
REMARK minimizedAffinity 12.4494553
REMARK minimizedRMSD -1
REMARK  0 active torsions:
REMARK  status: ('A' for Active; 'I' for Inactive)
ROOT
ATOM      1  C   UNL d   1      -3.023   1.489   3.635  0.00  0.00     0.023 A 
ATOM      2  C1  UNL d   1      -1.841   1.347   4.361  0.00  0.00     0.003 A 
ATOM      3  C2  UNL d   1      -0.621   1.221   3.693  0.00  0.00     0.048 A 
ATOM      4  C3  UNL d   1      -0.591   1.240   2.299  0.00  0.00     0.023 A 
ATOM      5  C4  UNL d   1      -1.771   1.383   1.568  0.00  0.00     0.048 A 
ATOM      6  C5  UNL d   1      -2.989   1.507   2.240  0.00  0.00     0.003 A 
ATOM      7  I   UNL d   1       1.224   1.054   1.303  0.00  0.00    -0.146 I 
ENDROOT
TORSDOF 0
ENDMDL
