MODEL 1
REMARK minimizedAffinity 15.4791536
REMARK minimizedRMSD -1
REMARK  0 active torsions:
REMARK  status: ('A' for Active; 'I' for Inactive)
ROOT
ATOM      1  C   UNL d   1       1.707   0.390  -0.652  0.00  0.00     0.023 A 
ATOM      2  C1  UNL d   1       1.812   0.224  -2.034  0.00  0.00     0.003 A 
ATOM      3  C2  UNL d   1       1.285  -0.916  -2.643  0.00  0.00     0.048 A 
ATOM      4  C3  UNL d   1       0.652  -1.886  -1.866  0.00  0.00     0.023 A 
ATOM      5  C4  UNL d   1       0.544  -1.723  -0.484  0.00  0.00     0.048 A 
ATOM      6  C5  UNL d   1       1.074  -0.582   0.121  0.00  0.00     0.003 A 
ATOM      7  I   UNL d   1      -0.134  -3.583  -2.771  0.00  0.00    -0.146 I 
ENDROOT
TORSDOF 0
ENDMDL
