MODEL 1
REMARK minimizedAffinity 16.5312309
REMARK minimizedRMSD -1
REMARK  0 active torsions:
REMARK  status: ('A' for Active; 'I' for Inactive)
ROOT
ATOM      1  C   UNL d   1      -0.381   0.713  -0.499  0.00  0.00     0.124 A 
ATOM      2  C1  UNL d   1      -0.363   0.310   0.829  0.00  0.00     0.062 A 
ATOM      3  C2  UNL d   1      -1.130  -0.776   1.242  0.00  0.00     0.162 A 
ATOM      4  C3  UNL d   1      -1.921  -1.468   0.325  0.00  0.00    -0.034 A 
ATOM      5  C4  UNL d   1      -1.934  -1.057  -1.010  0.00  0.00     0.162 A 
ATOM      6  C5  UNL d   1      -1.166   0.029  -1.417  0.00  0.00     0.062 A 
ATOM      7  F   UNL d   1      -1.184   0.416  -2.701  0.00  0.00    -0.097 F 
ATOM      8  F1  UNL d   1      -2.683  -1.700  -1.918  0.00  0.00    -0.096 F 
ATOM      9  I   UNL d   1      -3.069  -3.092   0.938  0.00  0.00    -0.060 I 
ATOM     10  F2  UNL d   1      -1.094  -1.142   2.531  0.00  0.00    -0.096 F 
ATOM     11  F3  UNL d   1       0.393   0.970   1.718  0.00  0.00    -0.097 F 
ATOM     12  F4  UNL d   1       0.357   1.758  -0.893  0.00  0.00    -0.092 F 
ENDROOT
TORSDOF 0
ENDMDL
