MODEL 1
REMARK minimizedAffinity 13.5226202
REMARK minimizedRMSD -1
REMARK  0 active torsions:
REMARK  status: ('A' for Active; 'I' for Inactive)
ROOT
ATOM      1  C   UNL d   1      -2.883  -1.889  -3.562  0.00  0.00     0.124 A 
ATOM      2  C1  UNL d   1      -2.638  -0.799  -2.739  0.00  0.00     0.062 A 
ATOM      3  C2  UNL d   1      -1.332  -0.442  -2.420  0.00  0.00     0.162 A 
ATOM      4  C3  UNL d   1      -0.258  -1.176  -2.924  0.00  0.00    -0.034 A 
ATOM      5  C4  UNL d   1      -0.512  -2.272  -3.750  0.00  0.00     0.162 A 
ATOM      6  C5  UNL d   1      -1.820  -2.625  -4.067  0.00  0.00     0.062 A 
ATOM      7  F   UNL d   1      -2.054  -3.679  -4.862  0.00  0.00    -0.097 F 
ATOM      8  F1  UNL d   1       0.497  -3.000  -4.252  0.00  0.00    -0.096 F 
ATOM      9  I   UNL d   1       1.697  -0.646  -2.448  0.00  0.00    -0.060 I 
ATOM     10  F2  UNL d   1      -1.125   0.617  -1.622  0.00  0.00    -0.096 F 
ATOM     11  F3  UNL d   1      -3.664  -0.087  -2.250  0.00  0.00    -0.097 F 
ATOM     12  F4  UNL d   1      -4.141  -2.231  -3.867  0.00  0.00    -0.092 F 
ENDROOT
TORSDOF 0
ENDMDL
