MODEL 1
REMARK minimizedAffinity 18.1170254
REMARK minimizedRMSD -1
REMARK  0 active torsions:
REMARK  status: ('A' for Active; 'I' for Inactive)
ROOT
ATOM      1  C   UNL d   1       1.241  -5.996   2.234  0.00  0.00     0.124 A 
ATOM      2  C1  UNL d   1       0.565  -5.996   1.022  0.00  0.00     0.062 A 
ATOM      3  C2  UNL d   1      -0.827  -5.997   0.997  0.00  0.00     0.162 A 
ATOM      4  C3  UNL d   1      -1.552  -5.998   2.188  0.00  0.00    -0.034 A 
ATOM      5  C4  UNL d   1      -0.865  -5.999   3.403  0.00  0.00     0.162 A 
ATOM      6  C5  UNL d   1       0.526  -5.997   3.423  0.00  0.00     0.062 A 
ATOM      7  F   UNL d   1       1.177  -5.998   4.595  0.00  0.00    -0.097 F 
ATOM      8  F1  UNL d   1      -1.531  -5.999   4.567  0.00  0.00    -0.096 F 
ATOM      9  I   UNL d   1      -3.633  -6.000   2.155  0.00  0.00    -0.060 I 
ATOM     10  F2  UNL d   1      -1.454  -5.997  -0.189  0.00  0.00    -0.096 F 
ATOM     11  F3  UNL d   1       1.253  -5.995  -0.129  0.00  0.00    -0.097 F 
ATOM     12  F4  UNL d   1       2.580  -5.996   2.255  0.00  0.00    -0.092 F 
ENDROOT
TORSDOF 0
ENDMDL
