MODEL 1
REMARK minimizedAffinity 15.3365374
REMARK minimizedRMSD -1
REMARK  0 active torsions:
REMARK  status: ('A' for Active; 'I' for Inactive)
ROOT
ATOM      1  C   UNL d   1       1.523  -5.805   3.512  0.00  0.00     0.124 A 
ATOM      2  C1  UNL d   1       0.265  -5.782   4.099  0.00  0.00     0.062 A 
ATOM      3  C2  UNL d   1      -0.878  -5.831   3.307  0.00  0.00     0.162 A 
ATOM      4  C3  UNL d   1      -0.769  -5.905   1.918  0.00  0.00    -0.034 A 
ATOM      5  C4  UNL d   1       0.499  -5.927   1.335  0.00  0.00     0.162 A 
ATOM      6  C5  UNL d   1       1.639  -5.878   2.131  0.00  0.00     0.062 A 
ATOM      7  F   UNL d   1       2.853  -5.900   1.563  0.00  0.00    -0.097 F 
ATOM      8  F1  UNL d   1       0.640  -5.997   0.003  0.00  0.00    -0.096 F 
ATOM      9  I   UNL d   1      -2.476  -5.978   0.729  0.00  0.00    -0.060 I 
ATOM     10  F2  UNL d   1      -2.080  -5.807   3.901  0.00  0.00    -0.096 F 
ATOM     11  F3  UNL d   1       0.150  -5.711   5.433  0.00  0.00    -0.097 F 
ATOM     12  F4  UNL d   1       2.621  -5.757   4.277  0.00  0.00    -0.092 F 
ENDROOT
TORSDOF 0
ENDMDL
