MODEL 1
REMARK minimizedAffinity 8.32485008
REMARK minimizedRMSD -1
REMARK  0 active torsions:
REMARK  status: ('A' for Active; 'I' for Inactive)
ROOT
ATOM      1  C   UNL d   1      -4.543  -5.982   1.253  0.00  0.00     0.124 A 
ATOM      2  C1  UNL d   1      -3.505  -5.974   0.331  0.00  0.00     0.062 A 
ATOM      3  C2  UNL d   1      -2.183  -5.975   0.766  0.00  0.00     0.162 A 
ATOM      4  C3  UNL d   1      -1.891  -5.984   2.130  0.00  0.00    -0.034 A 
ATOM      5  C4  UNL d   1      -2.940  -5.991   3.051  0.00  0.00     0.162 A 
ATOM      6  C5  UNL d   1      -4.260  -5.990   2.611  0.00  0.00     0.062 A 
ATOM      7  F   UNL d   1      -5.261  -5.997   3.503  0.00  0.00    -0.097 F 
ATOM      8  F1  UNL d   1      -2.695  -5.999   4.369  0.00  0.00    -0.096 F 
ATOM      9  I   UNL d   1       0.085  -5.984   2.784  0.00  0.00    -0.060 I 
ATOM     10  F2  UNL d   1      -1.200  -5.967  -0.147  0.00  0.00    -0.096 F 
ATOM     11  F3  UNL d   1      -3.777  -5.966  -0.982  0.00  0.00    -0.097 F 
ATOM     12  F4  UNL d   1      -5.815  -5.981   0.831  0.00  0.00    -0.092 F 
ENDROOT
TORSDOF 0
ENDMDL
