MODEL 1
REMARK minimizedAffinity 26.0408115
REMARK minimizedRMSD -1
REMARK  0 active torsions:
REMARK  status: ('A' for Active; 'I' for Inactive)
ROOT
ATOM      1  C   UNL d   1       1.253  -5.518   4.137  0.00  0.00     0.124 A 
ATOM      2  C1  UNL d   1      -0.028  -5.442   4.666  0.00  0.00     0.062 A 
ATOM      3  C2  UNL d   1      -1.137  -5.540   3.831  0.00  0.00     0.162 A 
ATOM      4  C3  UNL d   1      -0.970  -5.716   2.458  0.00  0.00    -0.034 A 
ATOM      5  C4  UNL d   1       0.321  -5.790   1.933  0.00  0.00     0.162 A 
ATOM      6  C5  UNL d   1       1.427  -5.692   2.771  0.00  0.00     0.062 A 
ATOM      7  F   UNL d   1       2.663  -5.766   2.258  0.00  0.00    -0.097 F 
ATOM      8  F1  UNL d   1       0.517  -5.959   0.617  0.00  0.00    -0.096 F 
ATOM      9  I   UNL d   1      -2.626  -5.862   1.205  0.00  0.00    -0.060 I 
ATOM     10  F2  UNL d   1      -2.363  -5.463   4.370  0.00  0.00    -0.096 F 
ATOM     11  F3  UNL d   1      -0.198  -5.273   5.986  0.00  0.00    -0.097 F 
ATOM     12  F4  UNL d   1       2.319  -5.423   4.943  0.00  0.00    -0.092 F 
ENDROOT
TORSDOF 0
ENDMDL
