MODEL 1
REMARK minimizedAffinity 25.0552025
REMARK minimizedRMSD -1
REMARK  0 active torsions:
REMARK  status: ('A' for Active; 'I' for Inactive)
ROOT
ATOM      1  C   UNL d   1       0.580  -2.850  -4.881  0.00  0.00     0.124 A 
ATOM      2  C1  UNL d   1       1.222  -2.414  -3.730  0.00  0.00     0.062 A 
ATOM      3  C2  UNL d   1       0.494  -2.184  -2.567  0.00  0.00     0.162 A 
ATOM      4  C3  UNL d   1      -0.885  -2.390  -2.547  0.00  0.00    -0.034 A 
ATOM      5  C4  UNL d   1      -1.524  -2.827  -3.709  0.00  0.00     0.162 A 
ATOM      6  C5  UNL d   1      -0.792  -3.055  -4.869  0.00  0.00     0.062 A 
ATOM      7  F   UNL d   1      -1.415  -3.476  -5.980  0.00  0.00    -0.097 F 
ATOM      8  F1  UNL d   1      -2.849  -3.034  -3.725  0.00  0.00    -0.096 F 
ATOM      9  I   UNL d   1      -1.977  -2.047  -0.809  0.00  0.00    -0.060 I 
ATOM     10  F2  UNL d   1       1.141  -1.764  -1.469  0.00  0.00    -0.096 F 
ATOM     11  F3  UNL d   1       2.548  -2.214  -3.739  0.00  0.00    -0.097 F 
ATOM     12  F4  UNL d   1       1.283  -3.069  -6.000  0.00  0.00    -0.092 F 
ENDROOT
TORSDOF 0
ENDMDL
