MODEL 1
REMARK minimizedAffinity 11.4957466
REMARK minimizedRMSD -1
REMARK  0 active torsions:
REMARK  status: ('A' for Active; 'I' for Inactive)
ROOT
ATOM      1  C   UNL d   1       1.957  -4.948   4.284  0.00  0.00     0.124 A 
ATOM      2  C1  UNL d   1       0.616  -4.865   4.633  0.00  0.00     0.062 A 
ATOM      3  C2  UNL d   1      -0.370  -5.164   3.698  0.00  0.00     0.162 A 
ATOM      4  C3  UNL d   1      -0.020  -5.550   2.405  0.00  0.00    -0.034 A 
ATOM      5  C4  UNL d   1       1.331  -5.630   2.061  0.00  0.00     0.162 A 
ATOM      6  C5  UNL d   1       2.313  -5.330   2.999  0.00  0.00     0.062 A 
ATOM      7  F   UNL d   1       3.608  -5.411   2.659  0.00  0.00    -0.097 F 
ATOM      8  F1  UNL d   1       1.703  -5.998   0.825  0.00  0.00    -0.096 F 
ATOM      9  I   UNL d   1      -1.492  -5.998   1.003  0.00  0.00    -0.060 I 
ATOM     10  F2  UNL d   1      -1.658  -5.076   4.063  0.00  0.00    -0.096 F 
ATOM     11  F3  UNL d   1       0.270  -4.495   5.875  0.00  0.00    -0.097 F 
ATOM     12  F4  UNL d   1       2.904  -4.658   5.186  0.00  0.00    -0.092 F 
ENDROOT
TORSDOF 0
ENDMDL
