MODEL 1
REMARK minimizedAffinity 8.01972485
REMARK minimizedRMSD -1
REMARK  0 active torsions:
REMARK  status: ('A' for Active; 'I' for Inactive)
ROOT
ATOM      1  C   UNL d   1      -0.234  -5.997   1.422  0.00  0.00     0.124 A 
ATOM      2  C1  UNL d   1      -1.058  -5.996   2.538  0.00  0.00     0.062 A 
ATOM      3  C2  UNL d   1      -0.505  -5.997   3.816  0.00  0.00     0.162 A 
ATOM      4  C3  UNL d   1       0.879  -5.997   3.984  0.00  0.00    -0.034 A 
ATOM      5  C4  UNL d   1       1.702  -5.999   2.856  0.00  0.00     0.162 A 
ATOM      6  C5  UNL d   1       1.145  -5.999   1.581  0.00  0.00     0.062 A 
ATOM      7  F   UNL d   1       1.943  -6.000   0.503  0.00  0.00    -0.097 F 
ATOM      8  F1  UNL d   1       3.037  -6.000   2.981  0.00  0.00    -0.096 F 
ATOM      9  I   UNL d   1       1.709  -5.998   5.893  0.00  0.00    -0.060 I 
ATOM     10  F2  UNL d   1      -1.326  -5.995   4.877  0.00  0.00    -0.096 F 
ATOM     11  F3  UNL d   1      -2.390  -5.995   2.387  0.00  0.00    -0.097 F 
ATOM     12  F4  UNL d   1      -0.768  -5.997   0.193  0.00  0.00    -0.092 F 
ENDROOT
TORSDOF 0
ENDMDL
