MODEL 1
REMARK minimizedAffinity 16.9284286
REMARK minimizedRMSD -1
REMARK  0 active torsions:
REMARK  status: ('A' for Active; 'I' for Inactive)
ROOT
ATOM      1  C   UNL d   1      -0.605  -0.330   2.367  0.00  0.00     0.124 A 
ATOM      2  C1  UNL d   1      -1.490  -1.294   1.904  0.00  0.00     0.062 A 
ATOM      3  C2  UNL d   1      -1.822  -1.350   0.554  0.00  0.00     0.162 A 
ATOM      4  C3  UNL d   1      -1.268  -0.438  -0.345  0.00  0.00    -0.034 A 
ATOM      5  C4  UNL d   1      -0.380   0.530   0.128  0.00  0.00     0.162 A 
ATOM      6  C5  UNL d   1      -0.051   0.581   1.478  0.00  0.00     0.062 A 
ATOM      7  F   UNL d   1       0.804   1.513   1.923  0.00  0.00    -0.097 F 
ATOM      8  F1  UNL d   1       0.171   1.421  -0.709  0.00  0.00    -0.096 F 
ATOM      9  I   UNL d   1      -1.762  -0.517  -2.365  0.00  0.00    -0.060 I 
ATOM     10  F2  UNL d   1      -2.680  -2.292   0.135  0.00  0.00    -0.096 F 
ATOM     11  F3  UNL d   1      -2.028  -2.175   2.761  0.00  0.00    -0.097 F 
ATOM     12  F4  UNL d   1      -0.288  -0.279   3.667  0.00  0.00    -0.092 F 
ENDROOT
TORSDOF 0
ENDMDL
