MODEL 1
REMARK minimizedAffinity 19.075552
REMARK minimizedRMSD -1
REMARK  0 active torsions:
REMARK  status: ('A' for Active; 'I' for Inactive)
ROOT
ATOM      1  C   UNL d   1      -1.904  -2.764   1.087  0.00  0.00     0.124 A 
ATOM      2  C1  UNL d   1      -2.496  -3.943   1.519  0.00  0.00     0.062 A 
ATOM      3  C2  UNL d   1      -1.760  -4.868   2.253  0.00  0.00     0.162 A 
ATOM      4  C3  UNL d   1      -0.423  -4.618   2.561  0.00  0.00    -0.034 A 
ATOM      5  C4  UNL d   1       0.166  -3.431   2.123  0.00  0.00     0.162 A 
ATOM      6  C5  UNL d   1      -0.574  -2.509   1.389  0.00  0.00     0.062 A 
ATOM      7  F   UNL d   1      -0.001  -1.371   0.973  0.00  0.00    -0.097 F 
ATOM      8  F1  UNL d   1       1.449  -3.158   2.402  0.00  0.00    -0.096 F 
ATOM      9  I   UNL d   1       0.682  -5.999   3.659  0.00  0.00    -0.060 I 
ATOM     10  F2  UNL d   1      -2.358  -5.999   2.657  0.00  0.00    -0.096 F 
ATOM     11  F3  UNL d   1      -3.781  -4.193   1.227  0.00  0.00    -0.097 F 
ATOM     12  F4  UNL d   1      -2.615  -1.877   0.380  0.00  0.00    -0.092 F 
ENDROOT
TORSDOF 0
ENDMDL
