MODEL 1
REMARK minimizedAffinity 15.4647274
REMARK minimizedRMSD -1
REMARK  0 active torsions:
REMARK  status: ('A' for Active; 'I' for Inactive)
ROOT
ATOM      1  C   UNL d   1      -0.037  -5.844   3.385  0.00  0.00     0.124 A 
ATOM      2  C1  UNL d   1       0.734  -5.831   4.539  0.00  0.00     0.062 A 
ATOM      3  C2  UNL d   1       2.123  -5.875   4.453  0.00  0.00     0.162 A 
ATOM      4  C3  UNL d   1       2.750  -5.932   3.208  0.00  0.00    -0.034 A 
ATOM      5  C4  UNL d   1       1.967  -5.945   2.052  0.00  0.00     0.162 A 
ATOM      6  C5  UNL d   1       0.580  -5.901   2.143  0.00  0.00     0.062 A 
ATOM      7  F   UNL d   1      -0.163  -5.914   1.027  0.00  0.00    -0.097 F 
ATOM      8  F1  UNL d   1       2.538  -5.999   0.840  0.00  0.00    -0.096 F 
ATOM      9  I   UNL d   1       4.826  -5.998   3.076  0.00  0.00    -0.060 I 
ATOM     10  F2  UNL d   1       2.843  -5.862   5.585  0.00  0.00    -0.096 F 
ATOM     11  F3  UNL d   1       0.141  -5.777   5.740  0.00  0.00    -0.097 F 
ATOM     12  F4  UNL d   1      -1.373  -5.802   3.470  0.00  0.00    -0.092 F 
ENDROOT
TORSDOF 0
ENDMDL
