MODEL 1
REMARK minimizedAffinity 13.8542385
REMARK minimizedRMSD -1
REMARK  0 active torsions:
REMARK  status: ('A' for Active; 'I' for Inactive)
ROOT
ATOM      1  C   UNL d   1      -2.433  -2.067  -3.708  0.00  0.00     0.124 A 
ATOM      2  C1  UNL d   1      -2.171  -0.975  -2.892  0.00  0.00     0.062 A 
ATOM      3  C2  UNL d   1      -0.866  -0.519  -2.732  0.00  0.00     0.162 A 
ATOM      4  C3  UNL d   1       0.187  -1.154  -3.389  0.00  0.00    -0.034 A 
ATOM      5  C4  UNL d   1      -0.084  -2.252  -4.207  0.00  0.00     0.162 A 
ATOM      6  C5  UNL d   1      -1.390  -2.705  -4.365  0.00  0.00     0.062 A 
ATOM      7  F   UNL d   1      -1.641  -3.760  -5.153  0.00  0.00    -0.097 F 
ATOM      8  F1  UNL d   1       0.906  -2.886  -4.854  0.00  0.00    -0.096 F 
ATOM      9  I   UNL d   1       2.140  -0.474  -3.151  0.00  0.00    -0.060 I 
ATOM     10  F2  UNL d   1      -0.642   0.538  -1.937  0.00  0.00    -0.096 F 
ATOM     11  F3  UNL d   1      -3.178  -0.359  -2.257  0.00  0.00    -0.097 F 
ATOM     12  F4  UNL d   1      -3.690  -2.505  -3.860  0.00  0.00    -0.092 F 
ENDROOT
TORSDOF 0
ENDMDL
