MODEL 1
REMARK minimizedAffinity 21.7480316
REMARK minimizedRMSD -1
REMARK  0 active torsions:
REMARK  status: ('A' for Active; 'I' for Inactive)
ROOT
ATOM      1  C   UNL d   1      -3.249  -2.123  -3.381  0.00  0.00     0.124 A 
ATOM      2  C1  UNL d   1      -2.916  -1.027  -2.596  0.00  0.00     0.062 A 
ATOM      3  C2  UNL d   1      -1.592  -0.608  -2.507  0.00  0.00     0.162 A 
ATOM      4  C3  UNL d   1      -0.591  -1.283  -3.204  0.00  0.00    -0.034 A 
ATOM      5  C4  UNL d   1      -0.934  -2.385  -3.990  0.00  0.00     0.162 A 
ATOM      6  C5  UNL d   1      -2.258  -2.801  -4.077  0.00  0.00     0.062 A 
ATOM      7  F   UNL d   1      -2.579  -3.859  -4.835  0.00  0.00    -0.097 F 
ATOM      8  F1  UNL d   1       0.004  -3.058  -4.674  0.00  0.00    -0.096 F 
ATOM      9  I   UNL d   1       1.390  -0.659  -3.073  0.00  0.00    -0.060 I 
ATOM     10  F2  UNL d   1      -1.298   0.454  -1.742  0.00  0.00    -0.096 F 
ATOM     11  F3  UNL d   1      -3.871  -0.371  -1.922  0.00  0.00    -0.097 F 
ATOM     12  F4  UNL d   1      -4.524  -2.525  -3.464  0.00  0.00    -0.092 F 
ENDROOT
TORSDOF 0
ENDMDL
