MODEL 1
REMARK minimizedAffinity 20.4829903
REMARK minimizedRMSD -1
REMARK  0 active torsions:
REMARK  status: ('A' for Active; 'I' for Inactive)
ROOT
ATOM      1  C   UNL d   1      -0.771  -5.945   2.357  0.00  0.00     0.124 A 
ATOM      2  C1  UNL d   1       0.584  -5.964   2.060  0.00  0.00     0.062 A 
ATOM      3  C2  UNL d   1       1.526  -5.972   3.085  0.00  0.00     0.162 A 
ATOM      4  C3  UNL d   1       1.115  -5.962   4.418  0.00  0.00    -0.034 A 
ATOM      5  C4  UNL d   1      -0.251  -5.942   4.709  0.00  0.00     0.162 A 
ATOM      6  C5  UNL d   1      -1.188  -5.934   3.681  0.00  0.00     0.062 A 
ATOM      7  F   UNL d   1      -2.497  -5.916   3.970  0.00  0.00    -0.097 F 
ATOM      8  F1  UNL d   1      -0.680  -5.932   5.979  0.00  0.00    -0.096 F 
ATOM      9  I   UNL d   1       2.519  -5.974   5.954  0.00  0.00    -0.060 I 
ATOM     10  F2  UNL d   1       2.829  -5.990   2.768  0.00  0.00    -0.096 F 
ATOM     11  F3  UNL d   1       0.989  -5.974   0.781  0.00  0.00    -0.097 F 
ATOM     12  F4  UNL d   1      -1.675  -5.937   1.368  0.00  0.00    -0.092 F 
ENDROOT
TORSDOF 0
ENDMDL
