MODEL 1
REMARK minimizedAffinity 19.0878887
REMARK minimizedRMSD -1
REMARK  0 active torsions:
REMARK  status: ('A' for Active; 'I' for Inactive)
ROOT
ATOM      1  C   UNL d   1      -2.605  -2.569  -4.005  0.00  0.00     0.124 A 
ATOM      2  C1  UNL d   1      -1.526  -2.899  -4.813  0.00  0.00     0.062 A 
ATOM      3  C2  UNL d   1      -0.263  -2.381  -4.538  0.00  0.00     0.162 A 
ATOM      4  C3  UNL d   1      -0.072  -1.530  -3.450  0.00  0.00    -0.034 A 
ATOM      5  C4  UNL d   1      -1.163  -1.202  -2.643  0.00  0.00     0.162 A 
ATOM      6  C5  UNL d   1      -2.423  -1.722  -2.921  0.00  0.00     0.062 A 
ATOM      7  F   UNL d   1      -3.466  -1.402  -2.140  0.00  0.00    -0.097 F 
ATOM      8  F1  UNL d   1      -1.016  -0.386  -1.589  0.00  0.00    -0.096 F 
ATOM      9  I   UNL d   1       1.814  -0.755  -3.036  0.00  0.00    -0.060 I 
ATOM     10  F2  UNL d   1       0.763  -2.717  -5.335  0.00  0.00    -0.096 F 
ATOM     11  F3  UNL d   1      -1.699  -3.716  -5.861  0.00  0.00    -0.097 F 
ATOM     12  F4  UNL d   1      -3.819  -3.067  -4.272  0.00  0.00    -0.092 F 
ENDROOT
TORSDOF 0
ENDMDL
