MODEL 1
REMARK minimizedAffinity -2.87672162
REMARK minimizedRMSD -1
REMARK  0 active torsions:
REMARK  status: ('A' for Active; 'I' for Inactive)
ROOT
ATOM      1  C1  BNZ d   1       2.580  -1.258   2.049  0.00  0.00     0.000 A 
ATOM      2  C2  BNZ d   1       3.888  -0.936   1.800  0.00  0.00     0.000 A 
ATOM      3  C3  BNZ d   1       4.790  -0.835   2.822  0.00  0.00     0.000 A 
ATOM      4  C4  BNZ d   1       4.376  -1.017   4.093  0.00  0.00     0.000 A 
ATOM      5  C5  BNZ d   1       3.059  -1.333   4.360  0.00  0.00     0.000 A 
ATOM      6  C6  BNZ d   1       2.162  -1.472   3.326  0.00  0.00     0.000 A 
ENDROOT
TORSDOF 0
ENDMDL
