MODEL 1
REMARK minimizedAffinity -0.838432074
REMARK minimizedRMSD -1
REMARK  0 active torsions:
REMARK  status: ('A' for Active; 'I' for Inactive)
ROOT
ATOM      1  C1  BNZ d   1       1.047  -0.120   1.188  0.00  0.00     0.000 A 
ATOM      2  C2  BNZ d   1       1.102  -0.862   2.337  0.00  0.00     0.000 A 
ATOM      3  C3  BNZ d   1       2.152  -1.704   2.576  0.00  0.00     0.000 A 
ATOM      4  C4  BNZ d   1       3.123  -1.833   1.650  0.00  0.00     0.000 A 
ATOM      5  C5  BNZ d   1       3.077  -1.098   0.481  0.00  0.00     0.000 A 
ATOM      6  C6  BNZ d   1       2.038  -0.222   0.262  0.00  0.00     0.000 A 
ENDROOT
TORSDOF 0
ENDMDL
