MODEL 1
REMARK minimizedAffinity 2.01916289
REMARK minimizedRMSD -1
REMARK  0 active torsions:
REMARK  status: ('A' for Active; 'I' for Inactive)
ROOT
ATOM      1  C1  BNZ d   1       3.332  -0.778   0.679  0.00  0.00     0.000 A 
ATOM      2  C2  BNZ d   1       2.387  -0.247  -0.159  0.00  0.00     0.000 A 
ATOM      3  C3  BNZ d   1       1.091  -0.103   0.250  0.00  0.00     0.000 A 
ATOM      4  C4  BNZ d   1       0.733  -0.527   1.480  0.00  0.00     0.000 A 
ATOM      5  C5  BNZ d   1       1.672  -1.073   2.332  0.00  0.00     0.000 A 
ATOM      6  C6  BNZ d   1       2.984  -1.180   1.931  0.00  0.00     0.000 A 
ENDROOT
TORSDOF 0
ENDMDL
