MODEL 1
REMARK minimizedAffinity -0.950161457
REMARK minimizedRMSD -1
REMARK  0 active torsions:
REMARK  status: ('A' for Active; 'I' for Inactive)
ROOT
ATOM      1  C1  BNZ d   1       1.892  -4.967  -3.755  0.00  0.00     0.000 A 
ATOM      2  C2  BNZ d   1       0.558  -5.280  -3.773  0.00  0.00     0.000 A 
ATOM      3  C3  BNZ d   1      -0.020  -5.815  -4.890  0.00  0.00     0.000 A 
ATOM      4  C4  BNZ d   1       0.724  -5.999  -5.999  0.00  0.00     0.000 A 
ATOM      5  C5  BNZ d   1       2.068  -5.681  -6.000  0.00  0.00     0.000 A 
ATOM      6  C6  BNZ d   1       2.656  -5.179  -4.862  0.00  0.00     0.000 A 
ENDROOT
TORSDOF 0
ENDMDL
