MODEL 1
REMARK minimizedAffinity -0.723329365
REMARK minimizedRMSD -1
REMARK  0 active torsions:
REMARK  status: ('A' for Active; 'I' for Inactive)
ROOT
ATOM      1  C1  BNZ d   1      -0.235  -5.607  -4.867  0.00  0.00     0.000 A 
ATOM      2  C2  BNZ d   1       0.464  -5.264  -3.740  0.00  0.00     0.000 A 
ATOM      3  C3  BNZ d   1       1.830  -5.263  -3.738  0.00  0.00     0.000 A 
ATOM      4  C4  BNZ d   1       2.496  -5.642  -4.848  0.00  0.00     0.000 A 
ATOM      5  C5  BNZ d   1       1.806  -6.000  -5.989  0.00  0.00     0.000 A 
ATOM      6  C6  BNZ d   1       0.430  -5.962  -6.000  0.00  0.00     0.000 A 
ENDROOT
TORSDOF 0
ENDMDL
