MODEL 1
REMARK minimizedAffinity -1.70350862
REMARK minimizedRMSD -1
REMARK  0 active torsions:
REMARK  status: ('A' for Active; 'I' for Inactive)
ROOT
ATOM      1  C1  BNZ d   1       0.540  -5.620  -3.670  0.00  0.00     0.000 A 
ATOM      2  C2  BNZ d   1       1.869  -5.290  -3.685  0.00  0.00     0.000 A 
ATOM      3  C3  BNZ d   1       2.576  -5.288  -4.855  0.00  0.00     0.000 A 
ATOM      4  C4  BNZ d   1       1.965  -5.654  -6.000  0.00  0.00     0.000 A 
ATOM      5  C5  BNZ d   1       0.629  -5.999  -6.000  0.00  0.00     0.000 A 
ATOM      6  C6  BNZ d   1      -0.090  -5.963  -4.827  0.00  0.00     0.000 A 
ENDROOT
TORSDOF 0
ENDMDL
