MODEL 1
REMARK minimizedAffinity -1.24709547
REMARK minimizedRMSD -1
REMARK  0 active torsions:
REMARK  status: ('A' for Active; 'I' for Inactive)
ROOT
ATOM      1  C1  BNZ d   1       1.656  -1.117   2.918  0.00  0.00     0.000 A 
ATOM      2  C2  BNZ d   1       2.990  -1.202   3.218  0.00  0.00     0.000 A 
ATOM      3  C3  BNZ d   1       3.938  -1.010   2.252  0.00  0.00     0.000 A 
ATOM      4  C4  BNZ d   1       3.551  -0.775   0.981  0.00  0.00     0.000 A 
ATOM      5  C5  BNZ d   1       2.211  -0.696   0.661  0.00  0.00     0.000 A 
ATOM      6  C6  BNZ d   1       1.260  -0.851   1.644  0.00  0.00     0.000 A 
ENDROOT
TORSDOF 0
ENDMDL
