MODEL 1
REMARK minimizedAffinity 1.61762893
REMARK minimizedRMSD -1
REMARK  0 active torsions:
REMARK  status: ('A' for Active; 'I' for Inactive)
ROOT
ATOM      1  C1  BNZ d   1      -0.647  -5.809  -4.870  0.00  0.00     0.000 A 
ATOM      2  C2  BNZ d   1       0.118  -5.998  -5.989  0.00  0.00     0.000 A 
ATOM      3  C3  BNZ d   1       1.441  -5.653  -5.999  0.00  0.00     0.000 A 
ATOM      4  C4  BNZ d   1       1.986  -5.084  -4.904  0.00  0.00     0.000 A 
ATOM      5  C5  BNZ d   1       1.225  -4.879  -3.771  0.00  0.00     0.000 A 
ATOM      6  C6  BNZ d   1      -0.096  -5.263  -3.752  0.00  0.00     0.000 A 
ENDROOT
TORSDOF 0
ENDMDL
