MODEL 1
REMARK minimizedAffinity 5.02086067
REMARK minimizedRMSD -1
REMARK  0 active torsions:
REMARK  status: ('A' for Active; 'I' for Inactive)
ROOT
ATOM      1  C1  BNZ d   1      -0.464  -4.940  -3.794  0.00  0.00     0.000 A 
ATOM      2  C2  BNZ d   1      -1.815  -5.164  -3.813  0.00  0.00     0.000 A 
ATOM      3  C3  BNZ d   1      -2.418  -5.713  -4.910  0.00  0.00     0.000 A 
ATOM      4  C4  BNZ d   1      -1.677  -6.000  -6.000  0.00  0.00     0.000 A 
ATOM      5  C5  BNZ d   1      -0.316  -5.771  -6.000  0.00  0.00     0.000 A 
ATOM      6  C6  BNZ d   1       0.294  -5.254  -4.880  0.00  0.00     0.000 A 
ENDROOT
TORSDOF 0
ENDMDL
