MODEL 1
REMARK minimizedAffinity 0.982120275
REMARK minimizedRMSD -1
REMARK  0 active torsions:
REMARK  status: ('A' for Active; 'I' for Inactive)
ROOT
ATOM      1  C1  BNZ d   1       0.371  -4.526  -4.144  0.00  0.00     0.000 A 
ATOM      2  C2  BNZ d   1      -0.999  -4.540  -4.164  0.00  0.00     0.000 A 
ATOM      3  C3  BNZ d   1      -1.678  -5.293  -5.080  0.00  0.00     0.000 A 
ATOM      4  C4  BNZ d   1      -0.988  -5.999  -6.000  0.00  0.00     0.000 A 
ATOM      5  C5  BNZ d   1       0.392  -5.988  -5.999  0.00  0.00     0.000 A 
ATOM      6  C6  BNZ d   1       1.073  -5.259  -5.051  0.00  0.00     0.000 A 
ENDROOT
TORSDOF 0
ENDMDL
