MODEL 1
REMARK minimizedAffinity 7.70260525
REMARK minimizedRMSD -1
REMARK  0 active torsions:
REMARK  status: ('A' for Active; 'I' for Inactive)
ROOT
ATOM      1  C1  BNZ d   1       2.152  -0.997  -0.450  0.00  0.00     0.000 A 
ATOM      2  C2  BNZ d   1       1.681  -0.645   0.786  0.00  0.00     0.000 A 
ATOM      3  C3  BNZ d   1       0.482  -0.002   0.920  0.00  0.00     0.000 A 
ATOM      4  C4  BNZ d   1      -0.224   0.323  -0.183  0.00  0.00     0.000 A 
ATOM      5  C5  BNZ d   1       0.243  -0.017  -1.436  0.00  0.00     0.000 A 
ATOM      6  C6  BNZ d   1       1.432  -0.699  -1.565  0.00  0.00     0.000 A 
ENDROOT
TORSDOF 0
ENDMDL
