MODEL 1
REMARK minimizedAffinity -1.73981893
REMARK minimizedRMSD -1
REMARK  0 active torsions:
REMARK  status: ('A' for Active; 'I' for Inactive)
ROOT
ATOM      1  C1  BNZ d   1      -1.999   1.103  -3.051  0.00  0.00     0.000 A 
ATOM      2  C2  BNZ d   1      -0.893   1.852  -3.352  0.00  0.00     0.000 A 
ATOM      3  C3  BNZ d   1      -1.012   3.046  -4.007  0.00  0.00     0.000 A 
ATOM      4  C4  BNZ d   1      -2.233   3.470  -4.394  0.00  0.00     0.000 A 
ATOM      5  C5  BNZ d   1      -3.357   2.723  -4.105  0.00  0.00     0.000 A 
ATOM      6  C6  BNZ d   1      -3.236   1.540  -3.412  0.00  0.00     0.000 A 
ENDROOT
TORSDOF 0
ENDMDL
