MODEL 1
REMARK minimizedAffinity 2.22140002
REMARK minimizedRMSD -1
REMARK  0 active torsions:
REMARK  status: ('A' for Active; 'I' for Inactive)
ROOT
ATOM      1  C1  BNZ d   1       2.255  -5.873  -6.000  0.00  0.00     0.000 A 
ATOM      2  C2  BNZ d   1       0.891  -5.999  -5.984  0.00  0.00     0.000 A 
ATOM      3  C3  BNZ d   1       0.153  -5.480  -4.957  0.00  0.00     0.000 A 
ATOM      4  C4  BNZ d   1       0.781  -4.873  -3.930  0.00  0.00     0.000 A 
ATOM      5  C5  BNZ d   1       2.156  -4.747  -3.927  0.00  0.00     0.000 A 
ATOM      6  C6  BNZ d   1       2.893  -5.236  -4.981  0.00  0.00     0.000 A 
ENDROOT
TORSDOF 0
ENDMDL
