MODEL 1
REMARK minimizedAffinity 2.58749986
REMARK minimizedRMSD -1
REMARK  0 active torsions:
REMARK  status: ('A' for Active; 'I' for Inactive)
ROOT
ATOM      1  C1  BNZ d   1       1.512  -5.529  -4.862  0.00  0.00     0.000 A 
ATOM      2  C2  BNZ d   1       0.796  -5.262  -3.726  0.00  0.00     0.000 A 
ATOM      3  C3  BNZ d   1      -0.566  -5.385  -3.712  0.00  0.00     0.000 A 
ATOM      4  C4  BNZ d   1      -1.211  -5.736  -4.843  0.00  0.00     0.000 A 
ATOM      5  C5  BNZ d   1      -0.503  -5.999  -5.999  0.00  0.00     0.000 A 
ATOM      6  C6  BNZ d   1       0.870  -5.912  -5.999  0.00  0.00     0.000 A 
ENDROOT
TORSDOF 0
ENDMDL
