MODEL 1
REMARK minimizedAffinity -2.80532598
REMARK minimizedRMSD -1
REMARK  0 active torsions:
REMARK  status: ('A' for Active; 'I' for Inactive)
ROOT
ATOM      1  C1  BNZ d   1       0.043  -5.984  -3.593  0.00  0.00     0.000 A 
ATOM      2  C2  BNZ d   1       0.736  -5.913  -4.772  0.00  0.00     0.000 A 
ATOM      3  C3  BNZ d   1       0.078  -5.845  -5.968  0.00  0.00     0.000 A 
ATOM      4  C4  BNZ d   1      -1.270  -5.890  -5.986  0.00  0.00     0.000 A 
ATOM      5  C5  BNZ d   1      -1.983  -5.971  -4.806  0.00  0.00     0.000 A 
ATOM      6  C6  BNZ d   1      -1.317  -6.000  -3.602  0.00  0.00     0.000 A 
ENDROOT
TORSDOF 0
ENDMDL
