MODEL 1
REMARK minimizedAffinity -3.2542913
REMARK minimizedRMSD -1
REMARK  0 active torsions:
REMARK  status: ('A' for Active; 'I' for Inactive)
ROOT
ATOM      1  C1  BNZ d   1      -4.492  -6.000   1.268  0.00  0.00     0.000 A 
ATOM      2  C2  BNZ d   1      -3.879  -5.256   2.241  0.00  0.00     0.000 A 
ATOM      3  C3  BNZ d   1      -2.778  -4.498   1.954  0.00  0.00     0.000 A 
ATOM      4  C4  BNZ d   1      -2.268  -4.517   0.705  0.00  0.00     0.000 A 
ATOM      5  C5  BNZ d   1      -2.869  -5.269  -0.284  0.00  0.00     0.000 A 
ATOM      6  C6  BNZ d   1      -4.000  -6.000  -0.001  0.00  0.00     0.000 A 
ENDROOT
TORSDOF 0
ENDMDL
