MODEL 1
REMARK minimizedAffinity -5.49678516
REMARK minimizedRMSD -1
REMARK  0 active torsions:
REMARK  status: ('A' for Active; 'I' for Inactive)
ROOT
ATOM      1  O1  BZF d   1       0.729   3.664   0.827  0.00  0.00    -0.204 OA
ATOM      2  C2  BZF d   1       1.843   3.384   1.596  0.00  0.00     0.174 A 
ATOM      3  C3  BZF d   1       2.197   2.089   1.471  0.00  0.00    -0.012 A 
ATOM      4  C3A BZF d   1       1.301   1.546   0.496  0.00  0.00    -0.107 A 
ATOM      5  C4  BZF d   1       1.162   0.309  -0.065  0.00  0.00     0.055 A 
ATOM      6  C5  BZF d   1       0.140   0.088  -0.932  0.00  0.00    -0.016 A 
ATOM      7  C6  BZF d   1      -0.764   1.079  -1.257  0.00  0.00     0.022 A 
ATOM      8  C7  BZF d   1      -0.664   2.323  -0.729  0.00  0.00     0.029 A 
ATOM      9  C7A BZF d   1       0.388   2.558   0.122  0.00  0.00     0.058 A 
ENDROOT
TORSDOF 0
ENDMDL
