MODEL 1
REMARK minimizedAffinity -2.41134262
REMARK minimizedRMSD -1
REMARK  0 active torsions:
REMARK  status: ('A' for Active; 'I' for Inactive)
ROOT
ATOM      1  O1  BZF d   1       1.265   3.541  -0.206  0.00  0.00    -0.204 OA
ATOM      2  C2  BZF d   1       2.458   3.763   0.455  0.00  0.00     0.174 A 
ATOM      3  C3  BZF d   1       2.862   2.650   1.100  0.00  0.00    -0.012 A 
ATOM      4  C3A BZF d   1       1.906   1.644   0.749  0.00  0.00    -0.107 A 
ATOM      5  C4  BZF d   1       1.776   0.322   1.065  0.00  0.00     0.055 A 
ATOM      6  C5  BZF d   1       0.689  -0.360   0.617  0.00  0.00    -0.016 A 
ATOM      7  C6  BZF d   1      -0.288   0.249  -0.142  0.00  0.00     0.022 A 
ATOM      8  C7  BZF d   1      -0.200   1.558  -0.486  0.00  0.00     0.029 A 
ATOM      9  C7A BZF d   1       0.914   2.241  -0.062  0.00  0.00     0.058 A 
ENDROOT
TORSDOF 0
ENDMDL
