MODEL 1
REMARK minimizedAffinity -0.391108036
REMARK minimizedRMSD -1
REMARK  0 active torsions:
REMARK  status: ('A' for Active; 'I' for Inactive)
ROOT
ATOM      1  O1  BZF d   1       0.620   1.466  -0.858  0.00  0.00    -0.204 OA
ATOM      2  C2  BZF d   1       1.448   1.329   0.240  0.00  0.00     0.174 A 
ATOM      3  C3  BZF d   1       0.971   0.392   1.085  0.00  0.00    -0.012 A 
ATOM      4  C3A BZF d   1      -0.180  -0.152   0.432  0.00  0.00    -0.107 A 
ATOM      5  C4  BZF d   1      -1.073  -1.131   0.765  0.00  0.00     0.055 A 
ATOM      6  C5  BZF d   1      -2.127  -1.370  -0.058  0.00  0.00    -0.016 A 
ATOM      7  C6  BZF d   1      -2.323  -0.647  -1.217  0.00  0.00     0.022 A 
ATOM      8  C7  BZF d   1      -1.461   0.330  -1.591  0.00  0.00     0.029 A 
ATOM      9  C7A BZF d   1      -0.376   0.552  -0.779  0.00  0.00     0.058 A 
ENDROOT
TORSDOF 0
ENDMDL
