MODEL 1
REMARK minimizedAffinity -5.91482639
REMARK minimizedRMSD -1
REMARK  0 active torsions:
REMARK  status: ('A' for Active; 'I' for Inactive)
ROOT
ATOM      1  O1  BZF d   1       0.082  -0.425   0.162  0.00  0.00    -0.204 OA
ATOM      2  C2  BZF d   1       0.671   0.069  -0.986  0.00  0.00     0.174 A 
ATOM      3  C3  BZF d   1      -0.249   0.248  -1.956  0.00  0.00    -0.012 A 
ATOM      4  C3A BZF d   1      -1.504  -0.074  -1.349  0.00  0.00    -0.107 A 
ATOM      5  C4  BZF d   1      -2.792  -0.074  -1.801  0.00  0.00     0.055 A 
ATOM      6  C5  BZF d   1      -3.781  -0.512  -0.978  0.00  0.00    -0.016 A 
ATOM      7  C6  BZF d   1      -3.517  -0.960   0.300  0.00  0.00     0.022 A 
ATOM      8  C7  BZF d   1      -2.255  -0.974   0.794  0.00  0.00     0.029 A 
ATOM      9  C7A BZF d   1      -1.258  -0.501  -0.024  0.00  0.00     0.058 A 
ENDROOT
TORSDOF 0
ENDMDL
