MODEL 1
REMARK minimizedAffinity 1.46407413
REMARK minimizedRMSD -1
REMARK  0 active torsions:
REMARK  status: ('A' for Active; 'I' for Inactive)
ROOT
ATOM      1  O1  BZF d   1       1.461   1.716   2.037  0.00  0.00    -0.204 OA
ATOM      2  C2  BZF d   1       2.591   2.172   1.386  0.00  0.00     0.174 A 
ATOM      3  C3  BZF d   1       2.644   1.690   0.127  0.00  0.00    -0.012 A 
ATOM      4  C3A BZF d   1       1.427   0.959  -0.048  0.00  0.00    -0.107 A 
ATOM      5  C4  BZF d   1       0.892   0.262  -1.094  0.00  0.00     0.055 A 
ATOM      6  C5  BZF d   1      -0.282  -0.399  -0.916  0.00  0.00    -0.016 A 
ATOM      7  C6  BZF d   1      -0.944  -0.390   0.294  0.00  0.00     0.022 A 
ATOM      8  C7  BZF d   1      -0.455   0.291   1.359  0.00  0.00     0.029 A 
ATOM      9  C7A BZF d   1       0.714   0.988   1.173  0.00  0.00     0.058 A 
ENDROOT
TORSDOF 0
ENDMDL
