MODEL 1
REMARK minimizedAffinity -4.11506081
REMARK minimizedRMSD -1
REMARK  0 active torsions:
REMARK  status: ('A' for Active; 'I' for Inactive)
ROOT
ATOM      1  O1  BZF d   1      -3.076  -0.884  -1.253  0.00  0.00    -0.204 OA
ATOM      2  C2  BZF d   1      -2.594  -1.411  -2.436  0.00  0.00     0.174 A 
ATOM      3  C3  BZF d   1      -1.282  -1.135  -2.583  0.00  0.00    -0.012 A 
ATOM      4  C3A BZF d   1      -0.900  -0.468  -1.376  0.00  0.00    -0.107 A 
ATOM      5  C4  BZF d   1       0.281   0.042  -0.919  0.00  0.00     0.055 A 
ATOM      6  C5  BZF d   1       0.301   0.696   0.272  0.00  0.00    -0.016 A 
ATOM      7  C6  BZF d   1      -0.841   0.864   1.027  0.00  0.00     0.022 A 
ATOM      8  C7  BZF d   1      -2.035   0.372   0.617  0.00  0.00     0.029 A 
ATOM      9  C7A BZF d   1      -2.052  -0.318  -0.570  0.00  0.00     0.058 A 
ENDROOT
TORSDOF 0
ENDMDL
