MODEL 1
REMARK minimizedAffinity -3.12923408
REMARK minimizedRMSD -1
REMARK  0 active torsions:
REMARK  status: ('A' for Active; 'I' for Inactive)
ROOT
ATOM      1  O1  BZF d   1      -1.278  -1.929  -0.310  0.00  0.00    -0.204 OA
ATOM      2  C2  BZF d   1      -2.250  -1.591  -1.232  0.00  0.00     0.174 A 
ATOM      3  C3  BZF d   1      -2.229  -0.267  -1.487  0.00  0.00    -0.012 A 
ATOM      4  C3A BZF d   1      -1.117   0.241  -0.743  0.00  0.00    -0.107 A 
ATOM      5  C4  BZF d   1      -0.573   1.485  -0.600  0.00  0.00     0.055 A 
ATOM      6  C5  BZF d   1       0.466   1.657   0.259  0.00  0.00    -0.016 A 
ATOM      7  C6  BZF d   1       0.981   0.610   0.994  0.00  0.00     0.022 A 
ATOM      8  C7  BZF d   1       0.478  -0.644   0.883  0.00  0.00     0.029 A 
ATOM      9  C7A BZF d   1      -0.551  -0.827  -0.009  0.00  0.00     0.058 A 
ENDROOT
TORSDOF 0
ENDMDL
