MODEL 1
REMARK minimizedAffinity -4.67419958
REMARK minimizedRMSD -1
REMARK  0 active torsions:
REMARK  status: ('A' for Active; 'I' for Inactive)
ROOT
ATOM      1  O1  BZF d   1      -2.602  -0.329  -1.388  0.00  0.00    -0.204 OA
ATOM      2  C2  BZF d   1      -3.211  -0.845  -0.260  0.00  0.00     0.174 A 
ATOM      3  C3  BZF d   1      -2.328  -0.955   0.752  0.00  0.00    -0.012 A 
ATOM      4  C3A BZF d   1      -1.110  -0.393   0.253  0.00  0.00    -0.107 A 
ATOM      5  C4  BZF d   1       0.128  -0.201   0.797  0.00  0.00     0.055 A 
ATOM      6  C5  BZF d   1       1.119   0.308   0.019  0.00  0.00    -0.016 A 
ATOM      7  C6  BZF d   1       0.909   0.632  -1.305  0.00  0.00     0.022 A 
ATOM      8  C7  BZF d   1      -0.303   0.464  -1.887  0.00  0.00     0.029 A 
ATOM      9  C7A BZF d   1      -1.316  -0.020  -1.095  0.00  0.00     0.058 A 
ENDROOT
TORSDOF 0
ENDMDL
