MODEL 1
REMARK minimizedAffinity 1.1355052
REMARK minimizedRMSD -1
REMARK  0 active torsions:
REMARK  status: ('A' for Active; 'I' for Inactive)
ROOT
ATOM      1  O1  BZF d   1       1.090  -0.744  -0.150  0.00  0.00    -0.204 OA
ATOM      2  C2  BZF d   1       0.677   0.016  -1.227  0.00  0.00     0.174 A 
ATOM      3  C3  BZF d   1      -0.624   0.350  -1.107  0.00  0.00    -0.012 A 
ATOM      4  C3A BZF d   1      -1.026  -0.159   0.168  0.00  0.00    -0.107 A 
ATOM      5  C4  BZF d   1      -2.202  -0.129   0.863  0.00  0.00     0.055 A 
ATOM      6  C5  BZF d   1      -2.285  -0.784   2.050  0.00  0.00    -0.016 A 
ATOM      7  C6  BZF d   1      -1.214  -1.482   2.570  0.00  0.00     0.022 A 
ATOM      8  C7  BZF d   1      -0.026  -1.536   1.921  0.00  0.00     0.029 A 
ATOM      9  C7A BZF d   1       0.070  -0.848   0.736  0.00  0.00     0.058 A 
ENDROOT
TORSDOF 0
ENDMDL
