MODEL 1
REMARK minimizedAffinity -2.45120645
REMARK minimizedRMSD -1
REMARK  0 active torsions:
REMARK  status: ('A' for Active; 'I' for Inactive)
ROOT
ATOM      1  O1  BZF d   1      -2.664  -1.157  -1.280  0.00  0.00    -0.204 OA
ATOM      2  C2  BZF d   1      -3.107  -1.568  -0.037  0.00  0.00     0.174 A 
ATOM      3  C3  BZF d   1      -2.118  -1.480   0.876  0.00  0.00    -0.012 A 
ATOM      4  C3A BZF d   1      -1.013  -0.896   0.180  0.00  0.00    -0.107 A 
ATOM      5  C4  BZF d   1       0.251  -0.542   0.554  0.00  0.00     0.055 A 
ATOM      6  C5  BZF d   1       1.109  -0.063  -0.385  0.00  0.00    -0.016 A 
ATOM      7  C6  BZF d   1       0.737   0.070  -1.707  0.00  0.00     0.022 A 
ATOM      8  C7  BZF d   1      -0.508  -0.263  -2.125  0.00  0.00     0.029 A 
ATOM      9  C7A BZF d   1      -1.388  -0.716  -1.172  0.00  0.00     0.058 A 
ENDROOT
TORSDOF 0
ENDMDL
