MODEL 1
REMARK minimizedAffinity -5.0114851
REMARK minimizedRMSD -1
REMARK  0 active torsions:
REMARK  status: ('A' for Active; 'I' for Inactive)
ROOT
ATOM      1  O1  BZF d   1       1.135   2.045   0.061  0.00  0.00    -0.204 OA
ATOM      2  C2  BZF d   1       2.050   1.136   0.554  0.00  0.00     0.174 A 
ATOM      3  C3  BZF d   1       1.483  -0.078   0.708  0.00  0.00    -0.012 A 
ATOM      4  C3A BZF d   1       0.154   0.060   0.197  0.00  0.00    -0.107 A 
ATOM      5  C4  BZF d   1      -0.895  -0.804   0.062  0.00  0.00     0.055 A 
ATOM      6  C5  BZF d   1      -2.081  -0.335  -0.407  0.00  0.00    -0.016 A 
ATOM      7  C6  BZF d   1      -2.255   0.991  -0.745  0.00  0.00     0.022 A 
ATOM      8  C7  BZF d   1      -1.243   1.885  -0.633  0.00  0.00     0.029 A 
ATOM      9  C7A BZF d   1      -0.033   1.407  -0.191  0.00  0.00     0.058 A 
ENDROOT
TORSDOF 0
ENDMDL
