MODEL 1
REMARK minimizedAffinity -5.84003353
REMARK minimizedRMSD -1
REMARK  0 active torsions:
REMARK  status: ('A' for Active; 'I' for Inactive)
ROOT
ATOM      1  O1  BZF d   1       0.515  -0.225  -0.548  0.00  0.00    -0.204 OA
ATOM      2  C2  BZF d   1       0.613  -0.716   0.739  0.00  0.00     0.174 A 
ATOM      3  C3  BZF d   1      -0.608  -0.999   1.237  0.00  0.00    -0.012 A 
ATOM      4  C3A BZF d   1      -1.520  -0.751   0.162  0.00  0.00    -0.107 A 
ATOM      5  C4  BZF d   1      -2.875  -0.864   0.035  0.00  0.00     0.055 A 
ATOM      6  C5  BZF d   1      -3.464  -0.471  -1.125  0.00  0.00    -0.016 A 
ATOM      7  C6  BZF d   1      -2.731   0.043  -2.174  0.00  0.00     0.022 A 
ATOM      8  C7  BZF d   1      -1.384   0.170  -2.096  0.00  0.00     0.029 A 
ATOM      9  C7A BZF d   1      -0.782  -0.256  -0.938  0.00  0.00     0.058 A 
ENDROOT
TORSDOF 0
ENDMDL
