MODEL 1
REMARK minimizedAffinity -5.29442835
REMARK minimizedRMSD -1
REMARK  0 active torsions:
REMARK  status: ('A' for Active; 'I' for Inactive)
ROOT
ATOM      1  O1  BZF d   1      -0.071  -0.052   1.409  0.00  0.00    -0.204 OA
ATOM      2  C2  BZF d   1       1.152   0.467   1.031  0.00  0.00     0.174 A 
ATOM      3  C3  BZF d   1       1.259   0.509  -0.313  0.00  0.00    -0.012 A 
ATOM      4  C3A BZF d   1      -0.011   0.069  -0.805  0.00  0.00    -0.107 A 
ATOM      5  C4  BZF d   1      -0.527  -0.090  -2.059  0.00  0.00     0.055 A 
ATOM      6  C5  BZF d   1      -1.776  -0.608  -2.198  0.00  0.00    -0.016 A 
ATOM      7  C6  BZF d   1      -2.533  -0.981  -1.106  0.00  0.00     0.022 A 
ATOM      8  C7  BZF d   1      -2.065  -0.837   0.157  0.00  0.00     0.029 A 
ATOM      9  C7A BZF d   1      -0.816  -0.283   0.302  0.00  0.00     0.058 A 
ENDROOT
TORSDOF 0
ENDMDL
