MODEL 1
REMARK minimizedAffinity -1.56360483
REMARK minimizedRMSD -1
REMARK  0 active torsions:
REMARK  status: ('A' for Active; 'I' for Inactive)
ROOT
ATOM      1  O1  BZF d   1       1.059   3.081   0.544  0.00  0.00    -0.204 OA
ATOM      2  C2  BZF d   1       2.420   3.182   0.758  0.00  0.00     0.174 A 
ATOM      3  C3  BZF d   1       2.966   1.965   0.952  0.00  0.00    -0.012 A 
ATOM      4  C3A BZF d   1       1.893   1.037   0.762  0.00  0.00    -0.107 A 
ATOM      5  C4  BZF d   1       1.812  -0.326   0.807  0.00  0.00     0.055 A 
ATOM      6  C5  BZF d   1       0.600  -0.920   0.647  0.00  0.00    -0.016 A 
ATOM      7  C6  BZF d   1      -0.549  -0.184   0.447  0.00  0.00     0.022 A 
ATOM      8  C7  BZF d   1      -0.517   1.169   0.389  0.00  0.00     0.029 A 
ATOM      9  C7A BZF d   1       0.710   1.772   0.517  0.00  0.00     0.058 A 
ENDROOT
TORSDOF 0
ENDMDL
