MODEL 1
REMARK minimizedAffinity -5.24748993
REMARK minimizedRMSD -1
REMARK  0 active torsions:
REMARK  status: ('A' for Active; 'I' for Inactive)
ROOT
ATOM      1  O1  BZF d   1      -0.652   1.211   1.361  0.00  0.00    -0.204 OA
ATOM      2  C2  BZF d   1       0.640   1.352   0.892  0.00  0.00     0.174 A 
ATOM      3  C3  BZF d   1       0.787   0.736  -0.298  0.00  0.00    -0.012 A 
ATOM      4  C3A BZF d   1      -0.518   0.254  -0.636  0.00  0.00    -0.107 A 
ATOM      5  C4  BZF d   1      -1.018  -0.428  -1.708  0.00  0.00     0.055 A 
ATOM      6  C5  BZF d   1      -2.322  -0.812  -1.696  0.00  0.00    -0.016 A 
ATOM      7  C6  BZF d   1      -3.151  -0.536  -0.628  0.00  0.00     0.022 A 
ATOM      8  C7  BZF d   1      -2.701   0.143   0.455  0.00  0.00     0.029 A 
ATOM      9  C7A BZF d   1      -1.393   0.561   0.432  0.00  0.00     0.058 A 
ENDROOT
TORSDOF 0
ENDMDL
