MODEL 1
REMARK minimizedAffinity -4.75628519
REMARK minimizedRMSD -1
REMARK  0 active torsions:
REMARK  status: ('A' for Active; 'I' for Inactive)
ROOT
ATOM      1  O1  BZF d   1       2.964   1.855   0.007  0.00  0.00    -0.204 OA
ATOM      2  C2  BZF d   1       3.038   3.171   0.421  0.00  0.00     0.174 A 
ATOM      3  C3  BZF d   1       2.134   3.419   1.390  0.00  0.00    -0.012 A 
ATOM      4  C3A BZF d   1       1.515   2.157   1.660  0.00  0.00    -0.107 A 
ATOM      5  C4  BZF d   1       0.548   1.753   2.535  0.00  0.00     0.055 A 
ATOM      6  C5  BZF d   1       0.117   0.465   2.495  0.00  0.00    -0.016 A 
ATOM      7  C6  BZF d   1       0.627  -0.444   1.592  0.00  0.00     0.022 A 
ATOM      8  C7  BZF d   1       1.592  -0.091   0.707  0.00  0.00     0.029 A 
ATOM      9  C7A BZF d   1       2.053   1.201   0.767  0.00  0.00     0.058 A 
ENDROOT
TORSDOF 0
ENDMDL
