MODEL 1
REMARK minimizedAffinity -2.93071461
REMARK minimizedRMSD -1
REMARK  0 active torsions:
REMARK  status: ('A' for Active; 'I' for Inactive)
ROOT
ATOM      1  O1  BZF d   1       1.928   0.280   0.544  0.00  0.00    -0.204 OA
ATOM      2  C2  BZF d   1       1.826   1.208  -0.475  0.00  0.00     0.174 A 
ATOM      3  C3  BZF d   1       0.550   1.315  -0.898  0.00  0.00    -0.012 A 
ATOM      4  C3A BZF d   1      -0.207   0.465  -0.031  0.00  0.00    -0.107 A 
ATOM      5  C4  BZF d   1      -1.535   0.161   0.060  0.00  0.00     0.055 A 
ATOM      6  C5  BZF d   1      -1.940  -0.763   0.971  0.00  0.00    -0.016 A 
ATOM      7  C6  BZF d   1      -1.044  -1.405   1.800  0.00  0.00     0.022 A 
ATOM      8  C7  BZF d   1       0.282  -1.133   1.750  0.00  0.00     0.029 A 
ATOM      9  C7A BZF d   1       0.691  -0.176   0.854  0.00  0.00     0.058 A 
ENDROOT
TORSDOF 0
ENDMDL
