MODEL 1
REMARK minimizedAffinity -1.96068454
REMARK minimizedRMSD -1
REMARK  0 active torsions:
REMARK  status: ('A' for Active; 'I' for Inactive)
ROOT
ATOM      1  O1  BZF d   1      -0.441  -1.027  -0.048  0.00  0.00    -0.204 OA
ATOM      2  C2  BZF d   1      -0.359   0.301   0.327  0.00  0.00     0.174 A 
ATOM      3  C3  BZF d   1      -1.094   1.076  -0.496  0.00  0.00    -0.012 A 
ATOM      4  C3A BZF d   1      -1.746   0.167  -1.388  0.00  0.00    -0.107 A 
ATOM      5  C4  BZF d   1      -2.622   0.332  -2.422  0.00  0.00     0.055 A 
ATOM      6  C5  BZF d   1      -3.012  -0.755  -3.137  0.00  0.00    -0.016 A 
ATOM      7  C6  BZF d   1      -2.543  -2.020  -2.850  0.00  0.00     0.022 A 
ATOM      8  C7  BZF d   1      -1.676  -2.234  -1.830  0.00  0.00     0.029 A 
ATOM      9  C7A BZF d   1      -1.306  -1.142  -1.085  0.00  0.00     0.058 A 
ENDROOT
TORSDOF 0
ENDMDL
