MODEL 1
REMARK minimizedAffinity -3.32820392
REMARK minimizedRMSD -1
REMARK  1 active torsions:
REMARK  status: ('A' for Active; 'I' for Inactive)
REMARK    1  A    between atoms: N_2  and  C1_3 
ROOT
ATOM      1  C1  UNL d   1       0.769  -0.601  -0.778  0.00  0.00     0.143 A 
ATOM      2  C2  UNL d   1       1.198   0.589  -1.375  0.00  0.00    -0.057 A 
ATOM      3  C3  UNL d   1       0.449   1.768  -1.264  0.00  0.00     0.033 A 
ATOM      4  C4  UNL d   1      -0.760   1.769  -0.576  0.00  0.00    -0.042 A 
ATOM      5  C5  UNL d   1      -1.217   0.591   0.004  0.00  0.00     0.033 A 
ATOM      6  C6  UNL d   1      -0.462  -0.581  -0.105  0.00  0.00    -0.057 A 
ENDROOT
BRANCH   1   7
ATOM      7  N   UNL d   1       1.419  -1.828  -0.936  0.00  0.00    -0.732 N 
ATOM      8  C   UNL d   1       1.048  -2.726  -2.008  0.00  0.00     0.284 C 
ATOM      9  H3  UNL d   1       2.422  -1.759  -0.779  0.00  0.00     0.395 HD
ENDBRANCH   1   7
TORSDOF 1
ENDMDL
