MODEL 1
REMARK minimizedAffinity -3.32217598
REMARK minimizedRMSD -1
REMARK  1 active torsions:
REMARK  status: ('A' for Active; 'I' for Inactive)
REMARK    1  A    between atoms: N_2  and  C1_3 
ROOT
ATOM      1  C1  UNL d   1       0.297  -0.378  -0.907  0.00  0.00     0.143 A 
ATOM      2  C2  UNL d   1      -0.919  -0.010  -0.321  0.00  0.00    -0.057 A 
ATOM      3  C3  UNL d   1      -1.391   1.306  -0.394  0.00  0.00     0.033 A 
ATOM      4  C4  UNL d   1      -0.638   2.287  -1.031  0.00  0.00    -0.042 A 
ATOM      5  C5  UNL d   1       0.586   1.949  -1.598  0.00  0.00     0.033 A 
ATOM      6  C6  UNL d   1       1.048   0.631  -1.528  0.00  0.00    -0.057 A 
ENDROOT
BRANCH   1   7
ATOM      7  N   UNL d   1       0.866  -1.648  -0.783  0.00  0.00    -0.732 N 
ATOM      8  C   UNL d   1       0.871  -2.566  -1.902  0.00  0.00     0.284 C 
ATOM      9  H3  UNL d   1       1.734  -1.635  -0.253  0.00  0.00     0.395 HD
ENDBRANCH   1   7
TORSDOF 1
ENDMDL
