MODEL 1
REMARK minimizedAffinity -1.45429361
REMARK minimizedRMSD -1
REMARK  1 active torsions:
REMARK  status: ('A' for Active; 'I' for Inactive)
REMARK    1  A    between atoms: N_2  and  C1_3 
ROOT
ATOM      1  C1  UNL d   1      -0.606   1.018   1.550  0.00  0.00     0.143 A 
ATOM      2  C2  UNL d   1      -0.240  -0.264   1.972  0.00  0.00    -0.057 A 
ATOM      3  C3  UNL d   1       0.310  -1.193   1.080  0.00  0.00     0.033 A 
ATOM      4  C4  UNL d   1       0.476  -0.864  -0.261  0.00  0.00    -0.042 A 
ATOM      5  C5  UNL d   1       0.096   0.396  -0.708  0.00  0.00     0.033 A 
ATOM      6  C6  UNL d   1      -0.446   1.322   0.189  0.00  0.00    -0.057 A 
ENDROOT
BRANCH   1   7
ATOM      7  N   UNL d   1      -1.248   1.952   2.366  0.00  0.00    -0.732 N 
ATOM      8  C   UNL d   1      -0.543   2.581   3.463  0.00  0.00     0.284 C 
ATOM      9  H3  UNL d   1      -1.844   2.585   1.838  0.00  0.00     0.395 HD
ENDBRANCH   1   7
TORSDOF 1
ENDMDL
