MODEL 1
REMARK minimizedAffinity -3.7096262
REMARK minimizedRMSD -1
REMARK  1 active torsions:
REMARK  status: ('A' for Active; 'I' for Inactive)
REMARK    1  A    between atoms: N_2  and  C1_3 
ROOT
ATOM      1  C1  UNL d   1       0.482   0.457  -0.322  0.00  0.00     0.143 A 
ATOM      2  C2  UNL d   1       0.265  -0.021   0.974  0.00  0.00    -0.057 A 
ATOM      3  C3  UNL d   1      -0.827   0.414   1.735  0.00  0.00     0.033 A 
ATOM      4  C4  UNL d   1      -1.707   1.360   1.222  0.00  0.00    -0.042 A 
ATOM      5  C5  UNL d   1      -1.497   1.869  -0.055  0.00  0.00     0.033 A 
ATOM      6  C6  UNL d   1      -0.408   1.425  -0.813  0.00  0.00    -0.057 A 
ENDROOT
BRANCH   1   7
ATOM      7  N   UNL d   1       1.604   0.138  -1.092  0.00  0.00    -0.732 N 
ATOM      8  C   UNL d   1       2.329  -1.093  -0.862  0.00  0.00     0.284 C 
ATOM      9  H3  UNL d   1       1.479   0.370  -2.075  0.00  0.00     0.395 HD
ENDBRANCH   1   7
TORSDOF 1
ENDMDL
