MODEL 1
REMARK minimizedAffinity -4.17206764
REMARK minimizedRMSD -1
REMARK  1 active torsions:
REMARK  status: ('A' for Active; 'I' for Inactive)
REMARK    1  A    between atoms: N_2  and  C1_3 
ROOT
ATOM      1  C1  UNL d   1      -0.532   0.149   0.214  0.00  0.00     0.143 A 
ATOM      2  C2  UNL d   1      -1.244   1.271  -0.224  0.00  0.00    -0.057 A 
ATOM      3  C3  UNL d   1      -2.080   1.985   0.644  0.00  0.00     0.033 A 
ATOM      4  C4  UNL d   1      -2.242   1.569   1.961  0.00  0.00    -0.042 A 
ATOM      5  C5  UNL d   1      -1.565   0.441   2.411  0.00  0.00     0.033 A 
ATOM      6  C6  UNL d   1      -0.726  -0.263   1.542  0.00  0.00    -0.057 A 
ENDROOT
BRANCH   1   7
ATOM      7  N   UNL d   1       0.237  -0.660  -0.626  0.00  0.00    -0.732 N 
ATOM      8  C   UNL d   1      -0.379  -1.715  -1.401  0.00  0.00     0.284 C 
ATOM      9  H3  UNL d   1       0.946  -0.133  -1.131  0.00  0.00     0.395 HD
ENDBRANCH   1   7
TORSDOF 1
ENDMDL
