MODEL 1
REMARK minimizedAffinity -0.151726618
REMARK minimizedRMSD -1
REMARK  1 active torsions:
REMARK  status: ('A' for Active; 'I' for Inactive)
REMARK    1  A    between atoms: N_2  and  C1_3 
ROOT
ATOM      1  C1  UNL d   1       0.045   0.082   0.247  0.00  0.00     0.143 A 
ATOM      2  C2  UNL d   1       0.481  -0.950   1.085  0.00  0.00    -0.057 A 
ATOM      3  C3  UNL d   1       0.132  -0.980   2.441  0.00  0.00     0.033 A 
ATOM      4  C4  UNL d   1      -0.636   0.041   2.991  0.00  0.00    -0.042 A 
ATOM      5  C5  UNL d   1      -1.059   1.090   2.182  0.00  0.00     0.033 A 
ATOM      6  C6  UNL d   1      -0.713   1.111   0.827  0.00  0.00    -0.057 A 
ENDROOT
BRANCH   1   7
ATOM      7  N   UNL d   1       0.440   0.220  -1.086  0.00  0.00    -0.732 N 
ATOM      8  C   UNL d   1       0.758   1.523  -1.629  0.00  0.00     0.284 C 
ATOM      9  H3  UNL d   1       1.072  -0.520  -1.383  0.00  0.00     0.395 HD
ENDBRANCH   1   7
TORSDOF 1
ENDMDL
