MODEL 1
REMARK minimizedAffinity 0.274828255
REMARK minimizedRMSD -1
REMARK  1 active torsions:
REMARK  status: ('A' for Active; 'I' for Inactive)
REMARK    1  A    between atoms: N_2  and  C1_3 
ROOT
ATOM      1  C1  UNL d   1       0.820  -1.468  -1.193  0.00  0.00     0.143 A 
ATOM      2  C2  UNL d   1       0.243  -1.313  -2.457  0.00  0.00    -0.057 A 
ATOM      3  C3  UNL d   1      -0.113  -2.422  -3.235  0.00  0.00     0.033 A 
ATOM      4  C4  UNL d   1       0.130  -3.710  -2.770  0.00  0.00    -0.042 A 
ATOM      5  C5  UNL d   1       0.725  -3.888  -1.527  0.00  0.00     0.033 A 
ATOM      6  C6  UNL d   1       1.072  -2.777  -0.753  0.00  0.00    -0.057 A 
ENDROOT
BRANCH   1   7
ATOM      7  N   UNL d   1       1.286  -0.406  -0.414  0.00  0.00    -0.732 N 
ATOM      8  C   UNL d   1       1.239   0.951  -0.915  0.00  0.00     0.284 C 
ATOM      9  H3  UNL d   1       1.023  -0.497   0.565  0.00  0.00     0.395 HD
ENDBRANCH   1   7
TORSDOF 1
ENDMDL
