MODEL 1
REMARK minimizedAffinity -2.05191255
REMARK minimizedRMSD -1
REMARK  1 active torsions:
REMARK  status: ('A' for Active; 'I' for Inactive)
REMARK    1  A    between atoms: N_2  and  C1_3 
ROOT
ATOM      1  C1  UNL d   1       0.331  -1.948  -1.238  0.00  0.00     0.143 A 
ATOM      2  C2  UNL d   1      -0.364  -2.083  -2.444  0.00  0.00    -0.057 A 
ATOM      3  C3  UNL d   1      -0.353  -3.288  -3.157  0.00  0.00     0.033 A 
ATOM      4  C4  UNL d   1       0.381  -4.373  -2.691  0.00  0.00    -0.042 A 
ATOM      5  C5  UNL d   1       1.101  -4.253  -1.507  0.00  0.00     0.033 A 
ATOM      6  C6  UNL d   1       1.080  -3.050  -0.795  0.00  0.00    -0.057 A 
ENDROOT
BRANCH   1   7
ATOM      7  N   UNL d   1       0.439  -0.747  -0.532  0.00  0.00    -0.732 N 
ATOM      8  C   UNL d   1      -0.435   0.366  -0.834  0.00  0.00     0.284 C 
ATOM      9  H3  UNL d   1       0.598  -0.894   0.462  0.00  0.00     0.395 HD
ENDBRANCH   1   7
TORSDOF 1
ENDMDL
