MODEL 1
REMARK minimizedAffinity -1.66813385
REMARK minimizedRMSD -1
REMARK  1 active torsions:
REMARK  status: ('A' for Active; 'I' for Inactive)
REMARK    1  A    between atoms: N_2  and  C1_3 
ROOT
ATOM      1  C1  UNL d   1       0.767  -1.077  -0.674  0.00  0.00     0.143 A 
ATOM      2  C2  UNL d   1      -0.569  -1.471  -0.796  0.00  0.00    -0.057 A 
ATOM      3  C3  UNL d   1      -0.910  -2.754  -1.241  0.00  0.00     0.033 A 
ATOM      4  C4  UNL d   1       0.083  -3.659  -1.600  0.00  0.00    -0.042 A 
ATOM      5  C5  UNL d   1       1.418  -3.281  -1.510  0.00  0.00     0.033 A 
ATOM      6  C6  UNL d   1       1.752  -2.000  -1.059  0.00  0.00    -0.057 A 
ENDROOT
BRANCH   1   7
ATOM      7  N   UNL d   1       1.169   0.217  -0.332  0.00  0.00    -0.732 N 
ATOM      8  C   UNL d   1       0.443   1.368  -0.823  0.00  0.00     0.284 C 
ATOM      9  H3  UNL d   1       1.454   0.290   0.642  0.00  0.00     0.395 HD
ENDBRANCH   1   7
TORSDOF 1
ENDMDL
