MODEL 1
REMARK minimizedAffinity -2.20408344
REMARK minimizedRMSD -1
REMARK  1 active torsions:
REMARK  status: ('A' for Active; 'I' for Inactive)
REMARK    1  A    between atoms: N_2  and  C1_3 
ROOT
ATOM      1  C1  UNL d   1      -3.870  -2.540   3.465  0.00  0.00     0.143 A 
ATOM      2  C2  UNL d   1      -2.483  -2.397   3.585  0.00  0.00    -0.057 A 
ATOM      3  C3  UNL d   1      -1.869  -2.290   4.839  0.00  0.00     0.033 A 
ATOM      4  C4  UNL d   1      -2.637  -2.295   5.998  0.00  0.00    -0.042 A 
ATOM      5  C5  UNL d   1      -4.020  -2.411   5.903  0.00  0.00     0.033 A 
ATOM      6  C6  UNL d   1      -4.626  -2.524   4.648  0.00  0.00    -0.057 A 
ENDROOT
BRANCH   1   7
ATOM      7  N   UNL d   1      -4.548  -2.553   2.244  0.00  0.00    -0.732 N 
ATOM      8  C   UNL d   1      -5.994  -2.503   2.204  0.00  0.00     0.284 C 
ATOM      9  H3  UNL d   1      -4.092  -1.976   1.541  0.00  0.00     0.395 HD
ENDBRANCH   1   7
TORSDOF 1
ENDMDL
