MODEL 1
REMARK minimizedAffinity -4.25593758
REMARK minimizedRMSD -1
REMARK  1 active torsions:
REMARK  status: ('A' for Active; 'I' for Inactive)
REMARK    1  A    between atoms: N_2  and  C1_3 
ROOT
ATOM      1  C1  UNL d   1       0.181  -0.387  -0.105  0.00  0.00     0.143 A 
ATOM      2  C2  UNL d   1       0.199  -0.836   1.220  0.00  0.00    -0.057 A 
ATOM      3  C3  UNL d   1      -0.421  -0.107   2.242  0.00  0.00     0.033 A 
ATOM      4  C4  UNL d   1      -1.047   1.103   1.961  0.00  0.00    -0.042 A 
ATOM      5  C5  UNL d   1      -1.055   1.581   0.655  0.00  0.00     0.033 A 
ATOM      6  C6  UNL d   1      -0.440   0.846  -0.362  0.00  0.00    -0.057 A 
ENDROOT
BRANCH   1   7
ATOM      7  N   UNL d   1       0.864  -1.016  -1.148  0.00  0.00    -0.732 N 
ATOM      8  C   UNL d   1       0.220  -2.046  -1.935  0.00  0.00     0.284 C 
ATOM      9  H3  UNL d   1       1.425  -0.366  -1.694  0.00  0.00     0.395 HD
ENDBRANCH   1   7
TORSDOF 1
ENDMDL
