MODEL 1
REMARK minimizedAffinity -2.59838629
REMARK minimizedRMSD -1
REMARK  1 active torsions:
REMARK  status: ('A' for Active; 'I' for Inactive)
REMARK    1  A    between atoms: N_2  and  C1_3 
ROOT
ATOM      1  C1  UNL d   1      -0.395   0.071   0.031  0.00  0.00     0.143 A 
ATOM      2  C2  UNL d   1      -0.896   1.352   0.283  0.00  0.00    -0.057 A 
ATOM      3  C3  UNL d   1      -1.072   1.818   1.592  0.00  0.00     0.033 A 
ATOM      4  C4  UNL d   1      -0.776   0.997   2.674  0.00  0.00    -0.042 A 
ATOM      5  C5  UNL d   1      -0.300  -0.289   2.447  0.00  0.00     0.033 A 
ATOM      6  C6  UNL d   1      -0.120  -0.746   1.138  0.00  0.00    -0.057 A 
ENDROOT
BRANCH   1   7
ATOM      7  N   UNL d   1      -0.290  -0.486  -1.246  0.00  0.00    -0.732 N 
ATOM      8  C   UNL d   1      -0.018  -1.897  -1.415  0.00  0.00     0.284 C 
ATOM      9  H3  UNL d   1      -0.988  -0.117  -1.889  0.00  0.00     0.395 HD
ENDBRANCH   1   7
TORSDOF 1
ENDMDL
