MODEL 1
REMARK minimizedAffinity -4.14420843
REMARK minimizedRMSD -1
REMARK  1 active torsions:
REMARK  status: ('A' for Active; 'I' for Inactive)
REMARK    1  A    between atoms: N_2  and  C1_3 
ROOT
ATOM      1  C1  UNL d   1       0.335  -0.374   0.139  0.00  0.00     0.143 A 
ATOM      2  C2  UNL d   1       0.422  -0.492   1.530  0.00  0.00    -0.057 A 
ATOM      3  C3  UNL d   1      -0.239   0.406   2.378  0.00  0.00     0.033 A 
ATOM      4  C4  UNL d   1      -0.978   1.458   1.846  0.00  0.00    -0.042 A 
ATOM      5  C5  UNL d   1      -1.058   1.609   0.466  0.00  0.00     0.033 A 
ATOM      6  C6  UNL d   1      -0.401   0.706  -0.375  0.00  0.00    -0.057 A 
ENDROOT
BRANCH   1   7
ATOM      7  N   UNL d   1       1.049  -1.175  -0.755  0.00  0.00    -0.732 N 
ATOM      8  C   UNL d   1       0.380  -2.212  -1.512  0.00  0.00     0.284 C 
ATOM      9  H3  UNL d   1       1.733  -0.645  -1.291  0.00  0.00     0.395 HD
ENDBRANCH   1   7
TORSDOF 1
ENDMDL
