MODEL 1
REMARK minimizedAffinity -4.23024225
REMARK minimizedRMSD -1
REMARK  1 active torsions:
REMARK  status: ('A' for Active; 'I' for Inactive)
REMARK    1  A    between atoms: N_2  and  C1_3 
ROOT
ATOM      1  C1  UNL d   1      -0.645   0.946   2.111  0.00  0.00     0.143 A 
ATOM      2  C2  UNL d   1      -0.990   1.214   0.782  0.00  0.00    -0.057 A 
ATOM      3  C3  UNL d   1      -0.821   0.251  -0.221  0.00  0.00     0.033 A 
ATOM      4  C4  UNL d   1      -0.274  -0.991   0.085  0.00  0.00    -0.042 A 
ATOM      5  C5  UNL d   1       0.100  -1.270   1.394  0.00  0.00     0.033 A 
ATOM      6  C6  UNL d   1      -0.078  -0.307   2.392  0.00  0.00    -0.057 A 
ENDROOT
BRANCH   1   7
ATOM      7  N   UNL d   1      -0.697   1.896   3.134  0.00  0.00    -0.732 N 
ATOM      8  C   UNL d   1       0.519   2.397   3.738  0.00  0.00     0.284 C 
ATOM      9  H3  UNL d   1      -1.403   2.609   2.967  0.00  0.00     0.395 HD
ENDBRANCH   1   7
TORSDOF 1
ENDMDL
