MODEL 1
REMARK minimizedAffinity 0.805776834
REMARK minimizedRMSD -1
REMARK  1 active torsions:
REMARK  status: ('A' for Active; 'I' for Inactive)
REMARK    1  A    between atoms: C1_2  and  C2_3 
ROOT
ATOM      1  C2  UNL d   1       0.890  -1.311   3.529  0.00  0.00    -0.081 A 
ATOM      2  C3  UNL d   1       1.485  -0.804   2.367  0.00  0.00     0.006 A 
ATOM      3  C4  UNL d   1       0.706  -0.192   1.383  0.00  0.00     0.002 A 
ATOM      4  C5  UNL d   1      -0.678  -0.068   1.547  0.00  0.00    -0.080 A 
ATOM      5  C6  UNL d   1      -1.521   0.614   0.511  0.00  0.00     0.076 C 
ATOM      6  C7  UNL d   1      -1.274  -0.590   2.700  0.00  0.00     0.002 A 
ATOM      7  C8  UNL d   1      -0.496  -1.203   3.684  0.00  0.00     0.006 A 
ENDROOT
BRANCH   1   8
ATOM      8  C1  UNL d   1       1.735  -1.914   4.622  0.00  0.00     0.054 C 
ATOM      9  C   UNL d   1       1.222  -1.519   6.000  0.00  0.00     0.018 C 
ENDBRANCH   1   8
TORSDOF 1
ENDMDL
