MODEL 1
REMARK minimizedAffinity 8.12474251
REMARK minimizedRMSD -1
REMARK  1 active torsions:
REMARK  status: ('A' for Active; 'I' for Inactive)
REMARK    1  A    between atoms: C1_2  and  C2_3 
ROOT
ATOM      1  C2  UNL d   1      -4.129  -1.596  -1.656  0.00  0.00    -0.081 A 
ATOM      2  C3  UNL d   1      -5.130  -2.194  -2.432  0.00  0.00     0.006 A 
ATOM      3  C4  UNL d   1      -5.167  -3.581  -2.592  0.00  0.00     0.002 A 
ATOM      4  C5  UNL d   1      -4.211  -4.393  -1.973  0.00  0.00    -0.080 A 
ATOM      5  C6  UNL d   1      -4.258  -5.886  -2.112  0.00  0.00     0.076 C 
ATOM      6  C7  UNL d   1      -3.201  -3.795  -1.213  0.00  0.00     0.002 A 
ATOM      7  C8  UNL d   1      -3.162  -2.408  -1.053  0.00  0.00     0.006 A 
ENDROOT
BRANCH   1   8
ATOM      8  C1  UNL d   1      -4.124  -0.106  -1.429  0.00  0.00     0.054 C 
ATOM      9  C   UNL d   1      -3.633   0.239  -0.030  0.00  0.00     0.018 C 
ENDBRANCH   1   8
TORSDOF 1
ENDMDL
