MODEL 1
REMARK minimizedAffinity -1.95528805
REMARK minimizedRMSD -1
REMARK  1 active torsions:
REMARK  status: ('A' for Active; 'I' for Inactive)
REMARK    1  A    between atoms: C1_2  and  C2_3 
ROOT
ATOM      1  C2  UNL d   1       0.364  -0.248   2.881  0.00  0.00    -0.081 A 
ATOM      2  C3  UNL d   1       0.260  -1.616   2.602  0.00  0.00     0.006 A 
ATOM      3  C4  UNL d   1       0.956  -2.551   3.371  0.00  0.00     0.002 A 
ATOM      4  C5  UNL d   1       1.761  -2.135   4.437  0.00  0.00    -0.080 A 
ATOM      5  C6  UNL d   1       2.489  -3.130   5.290  0.00  0.00     0.076 C 
ATOM      6  C7  UNL d   1       1.879  -0.767   4.705  0.00  0.00     0.002 A 
ATOM      7  C8  UNL d   1       1.184   0.169   3.936  0.00  0.00     0.006 A 
ENDROOT
BRANCH   1   8
ATOM      8  C1  UNL d   1      -0.436   0.759   2.094  0.00  0.00     0.054 C 
ATOM      9  C   UNL d   1      -1.733   0.153   1.578  0.00  0.00     0.018 C 
ENDBRANCH   1   8
TORSDOF 1
ENDMDL
