MODEL 1
REMARK minimizedAffinity 6.72327995
REMARK minimizedRMSD -1
REMARK  1 active torsions:
REMARK  status: ('A' for Active; 'I' for Inactive)
REMARK    1  A    between atoms: C1_2  and  C2_3 
ROOT
ATOM      1  C2  UNL d   1      -0.324   0.205   2.139  0.00  0.00    -0.081 A 
ATOM      2  C3  UNL d   1      -0.549   0.005   3.507  0.00  0.00     0.006 A 
ATOM      3  C4  UNL d   1       0.322  -0.785   4.260  0.00  0.00     0.002 A 
ATOM      4  C5  UNL d   1       1.437  -1.382   3.661  0.00  0.00    -0.080 A 
ATOM      5  C6  UNL d   1       2.397  -2.207   4.465  0.00  0.00     0.076 C 
ATOM      6  C7  UNL d   1       1.653  -1.196   2.292  0.00  0.00     0.002 A 
ATOM      7  C8  UNL d   1       0.782  -0.407   1.538  0.00  0.00     0.006 A 
ENDROOT
BRANCH   1   8
ATOM      8  C1  UNL d   1      -1.225   1.108   1.338  0.00  0.00     0.054 C 
ATOM      9  C   UNL d   1      -2.401   0.339   0.752  0.00  0.00     0.018 C 
ENDBRANCH   1   8
TORSDOF 1
ENDMDL
