MODEL 1
REMARK minimizedAffinity 4.49479532
REMARK minimizedRMSD -1
REMARK  1 active torsions:
REMARK  status: ('A' for Active; 'I' for Inactive)
REMARK    1  A    between atoms: C1_2  and  C2_3 
ROOT
ATOM      1  C2  UNL d   1      -2.984  -0.751   2.603  0.00  0.00    -0.073 A 
ATOM      2  C3  UNL d   1      -2.321   0.306   1.970  0.00  0.00    -0.002 A 
ATOM      3  C4  UNL d   1      -1.324   1.016   2.642  0.00  0.00     0.004 A 
ATOM      4  C5  UNL d   1      -0.976   0.671   3.948  0.00  0.00    -0.004 A 
ATOM      5  C6  UNL d   1      -1.619  -0.390   4.593  0.00  0.00    -0.075 A 
ATOM      6  C7  UNL d   1      -1.257  -0.772   5.998  0.00  0.00     0.076 C 
ATOM      7  C8  UNL d   1      -2.620  -1.096   3.913  0.00  0.00     0.001 A 
ENDROOT
BRANCH   1   8
ATOM      8  C1  UNL d   1      -4.056  -1.524   1.879  0.00  0.00     0.053 C 
ATOM      9  C   UNL d   1      -5.012  -0.609   1.131  0.00  0.00     0.018 C 
ENDBRANCH   1   8
TORSDOF 1
ENDMDL
