MODEL 1
REMARK minimizedAffinity 9.98449993
REMARK minimizedRMSD -1
REMARK  1 active torsions:
REMARK  status: ('A' for Active; 'I' for Inactive)
REMARK    1  A    between atoms: C1_2  and  C2_3 
ROOT
ATOM      1  C2  UNL d   1      -4.846  -1.384   0.198  0.00  0.00    -0.073 A 
ATOM      2  C3  UNL d   1      -4.523  -0.435   1.174  0.00  0.00    -0.002 A 
ATOM      3  C4  UNL d   1      -3.450  -0.650   2.040  0.00  0.00     0.004 A 
ATOM      4  C5  UNL d   1      -2.686  -1.812   1.934  0.00  0.00    -0.004 A 
ATOM      5  C6  UNL d   1      -2.985  -2.767   0.957  0.00  0.00    -0.075 A 
ATOM      6  C7  UNL d   1      -2.173  -4.023   0.832  0.00  0.00     0.076 C 
ATOM      7  C8  UNL d   1      -4.066  -2.545   0.093  0.00  0.00     0.001 A 
ENDROOT
BRANCH   1   8
ATOM      8  C1  UNL d   1      -6.000  -1.153  -0.744  0.00  0.00     0.053 C 
ATOM      9  C   UNL d   1      -5.570  -0.413  -2.001  0.00  0.00     0.018 C 
ENDBRANCH   1   8
TORSDOF 1
ENDMDL
