MODEL 1
REMARK minimizedAffinity 4.79940605
REMARK minimizedRMSD -1
REMARK  1 active torsions:
REMARK  status: ('A' for Active; 'I' for Inactive)
REMARK    1  A    between atoms: C1_2  and  C2_3 
ROOT
ATOM      1  C2  UNL d   1      -2.079  -0.357   2.578  0.00  0.00    -0.073 A 
ATOM      2  C3  UNL d   1      -2.270  -1.043   3.783  0.00  0.00    -0.002 A 
ATOM      3  C4  UNL d   1      -1.547  -0.684   4.921  0.00  0.00     0.004 A 
ATOM      4  C5  UNL d   1      -0.633   0.368   4.869  0.00  0.00    -0.004 A 
ATOM      5  C6  UNL d   1      -0.437   1.074   3.677  0.00  0.00    -0.075 A 
ATOM      6  C7  UNL d   1       0.545   2.206   3.604  0.00  0.00     0.076 C 
ATOM      7  C8  UNL d   1      -1.165   0.705   2.538  0.00  0.00     0.001 A 
ENDROOT
BRANCH   1   8
ATOM      8  C1  UNL d   1      -2.862  -0.738   1.349  0.00  0.00     0.053 C 
ATOM      9  C   UNL d   1      -4.348  -0.460   1.510  0.00  0.00     0.018 C 
ENDBRANCH   1   8
TORSDOF 1
ENDMDL
