MODEL 1
REMARK minimizedAffinity 8.57769871
REMARK minimizedRMSD -1
REMARK  1 active torsions:
REMARK  status: ('A' for Active; 'I' for Inactive)
REMARK    1  A    between atoms: C1_2  and  C2_3 
ROOT
ATOM      1  C2  UNL d   1      -2.656  -0.845  -1.367  0.00  0.00    -0.073 A 
ATOM      2  C3  UNL d   1      -3.948  -0.494  -1.774  0.00  0.00    -0.002 A 
ATOM      3  C4  UNL d   1      -4.938  -0.227  -0.827  0.00  0.00     0.004 A 
ATOM      4  C5  UNL d   1      -4.645  -0.302   0.534  0.00  0.00    -0.004 A 
ATOM      5  C6  UNL d   1      -3.356  -0.640   0.961  0.00  0.00    -0.075 A 
ATOM      6  C7  UNL d   1      -3.025  -0.726   2.422  0.00  0.00     0.076 C 
ATOM      7  C8  UNL d   1      -2.369  -0.908   0.004  0.00  0.00     0.001 A 
ENDROOT
BRANCH   1   8
ATOM      8  C1  UNL d   1      -1.583  -1.127  -2.387  0.00  0.00     0.053 C 
ATOM      9  C   UNL d   1      -1.873  -2.387  -3.186  0.00  0.00     0.018 C 
ENDBRANCH   1   8
TORSDOF 1
ENDMDL
