MODEL 1
REMARK minimizedAffinity -0.988081098
REMARK minimizedRMSD -1
REMARK  1 active torsions:
REMARK  status: ('A' for Active; 'I' for Inactive)
REMARK    1  A    between atoms: C1_2  and  C2_3 
ROOT
ATOM      1  C2  UNL d   1      -0.980  -0.468   0.065  0.00  0.00    -0.073 A 
ATOM      2  C3  UNL d   1       0.171   0.288  -0.185  0.00  0.00    -0.002 A 
ATOM      3  C4  UNL d   1       0.648   1.183   0.772  0.00  0.00     0.004 A 
ATOM      4  C5  UNL d   1      -0.015   1.327   1.991  0.00  0.00    -0.004 A 
ATOM      5  C6  UNL d   1      -1.159   0.572   2.265  0.00  0.00    -0.075 A 
ATOM      6  C7  UNL d   1      -1.885   0.717   3.570  0.00  0.00     0.076 C 
ATOM      7  C8  UNL d   1      -1.634  -0.323   1.297  0.00  0.00     0.001 A 
ENDROOT
BRANCH   1   8
ATOM      8  C1  UNL d   1      -1.496  -1.441  -0.963  0.00  0.00     0.053 C 
ATOM      9  C   UNL d   1      -0.736  -2.758  -0.933  0.00  0.00     0.018 C 
ENDBRANCH   1   8
TORSDOF 1
ENDMDL
