MODEL 1
REMARK minimizedAffinity -4.05634403
REMARK minimizedRMSD -1
REMARK  1 active torsions:
REMARK  status: ('A' for Active; 'I' for Inactive)
REMARK    1  A    between atoms: C1_2  and  C2_3 
ROOT
ATOM      1  C2  UNL d   1      -1.113  -5.259   3.283  0.00  0.00    -0.073 A 
ATOM      2  C3  UNL d   1      -1.923  -6.000   4.151  0.00  0.00    -0.002 A 
ATOM      3  C4  UNL d   1      -2.000  -5.663   5.503  0.00  0.00     0.004 A 
ATOM      4  C5  UNL d   1      -1.275  -4.579   5.999  0.00  0.00    -0.004 A 
ATOM      5  C6  UNL d   1      -0.469  -3.820   5.145  0.00  0.00    -0.075 A 
ATOM      6  C7  UNL d   1       0.319  -2.653   5.663  0.00  0.00     0.076 C 
ATOM      7  C8  UNL d   1      -0.395  -4.166   3.789  0.00  0.00     0.001 A 
ENDROOT
BRANCH   1   8
ATOM      8  C1  UNL d   1      -1.031  -5.615   1.821  0.00  0.00     0.053 C 
ATOM      9  C   UNL d   1      -1.456  -4.460   0.928  0.00  0.00     0.018 C 
ENDBRANCH   1   8
TORSDOF 1
ENDMDL
