MODEL 1
REMARK minimizedAffinity 7.17896366
REMARK minimizedRMSD -1
REMARK  1 active torsions:
REMARK  status: ('A' for Active; 'I' for Inactive)
REMARK    1  A    between atoms: C1_2  and  C2_3 
ROOT
ATOM      1  C2  UNL d   1       1.486   1.159   0.826  0.00  0.00    -0.073 A 
ATOM      2  C3  UNL d   1       0.840   2.235   0.205  0.00  0.00    -0.002 A 
ATOM      3  C4  UNL d   1      -0.012   3.063   0.937  0.00  0.00     0.004 A 
ATOM      4  C5  UNL d   1      -0.223   2.828   2.296  0.00  0.00    -0.004 A 
ATOM      5  C6  UNL d   1       0.423   1.766   2.937  0.00  0.00    -0.075 A 
ATOM      6  C7  UNL d   1       0.205   1.499   4.397  0.00  0.00     0.076 C 
ATOM      7  C8  UNL d   1       1.275   0.937   2.194  0.00  0.00     0.001 A 
ENDROOT
BRANCH   1   8
ATOM      8  C1  UNL d   1       2.412   0.267   0.041  0.00  0.00     0.053 C 
ATOM      9  C   UNL d   1       3.719   0.963  -0.302  0.00  0.00     0.018 C 
ENDBRANCH   1   8
TORSDOF 1
ENDMDL
