MODEL 1
REMARK minimizedAffinity 0.332085937
REMARK minimizedRMSD -1
REMARK  0 active torsions:
REMARK  status: ('A' for Active; 'I' for Inactive)
ROOT
ATOM      1  N1  IND d   1      -2.632  -5.977  -4.672  0.00  0.00    -0.196 N 
ATOM      2  C2  IND d   1      -1.712  -4.982  -4.491  0.00  0.00     0.054 A 
ATOM      3  C3  IND d   1      -2.238  -3.787  -4.842  0.00  0.00    -0.031 A 
ATOM      4  C4  IND d   1      -4.617  -3.218  -5.643  0.00  0.00     0.051 A 
ATOM      5  C5  IND d   1      -5.802  -3.799  -5.999  0.00  0.00    -0.031 A 
ATOM      6  C6  IND d   1      -5.995  -5.163  -5.926  0.00  0.00     0.015 A 
ATOM      7  C7  IND d   1      -5.010  -6.000  -5.483  0.00  0.00    -0.016 A 
ATOM      8  C8  IND d   1      -3.804  -5.414  -5.127  0.00  0.00    -0.047 A 
ATOM      9  C9  IND d   1      -3.587  -4.034  -5.239  0.00  0.00    -0.096 A 
ATOM     10  HN1 IND d   1      -2.500  -6.814  -4.526  0.00  0.00     0.298 HD
ENDROOT
TORSDOF 0
ENDMDL
