MODEL 1
REMARK minimizedAffinity 4.01656771
REMARK minimizedRMSD -1
REMARK  0 active torsions:
REMARK  status: ('A' for Active; 'I' for Inactive)
ROOT
ATOM      1  N1  IND d   1      -0.882  -0.884   3.826  0.00  0.00    -0.196 N 
ATOM      2  C2  IND d   1       0.391  -1.290   4.116  0.00  0.00     0.054 A 
ATOM      3  C3  IND d   1       1.278  -0.320   3.801  0.00  0.00    -0.031 A 
ATOM      4  C4  IND d   1       0.853   2.053   2.895  0.00  0.00     0.051 A 
ATOM      5  C5  IND d   1      -0.143   2.869   2.439  0.00  0.00    -0.031 A 
ATOM      6  C6  IND d   1      -1.464   2.469   2.425  0.00  0.00     0.015 A 
ATOM      7  C7  IND d   1      -1.840   1.237   2.878  0.00  0.00    -0.016 A 
ATOM      8  C8  IND d   1      -0.830   0.402   3.335  0.00  0.00    -0.047 A 
ATOM      9  C9  IND d   1       0.517   0.787   3.313  0.00  0.00    -0.096 A 
ATOM     10  HN1 IND d   1      -1.595  -1.353   3.932  0.00  0.00     0.298 HD
ENDROOT
TORSDOF 0
ENDMDL
