MODEL 1
REMARK minimizedAffinity 5.97463465
REMARK minimizedRMSD -1
REMARK  0 active torsions:
REMARK  status: ('A' for Active; 'I' for Inactive)
ROOT
ATOM      1  N1  IND d   1      -3.980  -3.647   5.199  0.00  0.00    -0.196 N 
ATOM      2  C2  IND d   1      -5.065  -3.876   6.000  0.00  0.00     0.054 A 
ATOM      3  C3  IND d   1      -5.999  -2.916   5.812  0.00  0.00    -0.031 A 
ATOM      4  C4  IND d   1      -6.000  -0.934   4.169  0.00  0.00     0.051 A 
ATOM      5  C5  IND d   1      -5.212  -0.291   3.257  0.00  0.00    -0.031 A 
ATOM      6  C6  IND d   1      -3.948  -0.744   2.937  0.00  0.00     0.015 A 
ATOM      7  C7  IND d   1      -3.428  -1.869   3.511  0.00  0.00    -0.016 A 
ATOM      8  C8  IND d   1      -4.223  -2.521   4.444  0.00  0.00    -0.047 A 
ATOM      9  C9  IND d   1      -5.489  -2.041   4.804  0.00  0.00    -0.096 A 
ATOM     10  HN1 IND d   1      -3.267  -4.125   5.173  0.00  0.00     0.298 HD
ENDROOT
TORSDOF 0
ENDMDL
