MODEL 1
REMARK minimizedAffinity 7.00322485
REMARK minimizedRMSD -1
REMARK  0 active torsions:
REMARK  status: ('A' for Active; 'I' for Inactive)
ROOT
ATOM      1  N1  IND d   1       1.007   3.342   0.445  0.00  0.00    -0.196 N 
ATOM      2  C2  IND d   1       0.025   2.445   0.762  0.00  0.00     0.054 A 
ATOM      3  C3  IND d   1      -1.104   2.721   0.073  0.00  0.00    -0.031 A 
ATOM      4  C4  IND d   1      -1.534   4.533  -1.705  0.00  0.00     0.051 A 
ATOM      5  C5  IND d   1      -0.950   5.613  -2.306  0.00  0.00    -0.031 A 
ATOM      6  C6  IND d   1       0.344   5.997  -2.016  0.00  0.00     0.015 A 
ATOM      7  C7  IND d   1       1.108   5.306  -1.119  0.00  0.00    -0.016 A 
ATOM      8  C8  IND d   1       0.516   4.213  -0.503  0.00  0.00    -0.047 A 
ATOM      9  C9  IND d   1      -0.810   3.843  -0.761  0.00  0.00    -0.096 A 
ATOM     10  HN1 IND d   1       1.799   3.359   0.781  0.00  0.00     0.298 HD
ENDROOT
TORSDOF 0
ENDMDL
