MODEL 1
REMARK minimizedAffinity 13.4831038
REMARK minimizedRMSD -1
REMARK  0 active torsions:
REMARK  status: ('A' for Active; 'I' for Inactive)
ROOT
ATOM      1  N1  IND d   1       1.178   3.712   0.043  0.00  0.00    -0.196 N 
ATOM      2  C2  IND d   1       0.277   3.674  -0.984  0.00  0.00     0.054 A 
ATOM      3  C3  IND d   1      -0.752   2.852  -0.677  0.00  0.00    -0.031 A 
ATOM      4  C4  IND d   1      -1.212   1.549   1.495  0.00  0.00     0.051 A 
ATOM      5  C5  IND d   1      -0.656   1.241   2.705  0.00  0.00    -0.031 A 
ATOM      6  C6  IND d   1       0.563   1.753   3.099  0.00  0.00     0.015 A 
ATOM      7  C7  IND d   1       1.270   2.606   2.298  0.00  0.00    -0.016 A 
ATOM      8  C8  IND d   1       0.712   2.915   1.066  0.00  0.00    -0.047 A 
ATOM      9  C9  IND d   1      -0.505   2.364   0.643  0.00  0.00    -0.096 A 
ATOM     10  HN1 IND d   1       1.913   4.158   0.050  0.00  0.00     0.298 HD
ENDROOT
TORSDOF 0
ENDMDL
