MODEL 1
REMARK minimizedAffinity 10.1108065
REMARK minimizedRMSD -1
REMARK  0 active torsions:
REMARK  status: ('A' for Active; 'I' for Inactive)
ROOT
ATOM      1  N1  IND d   1       3.939  -6.000  -4.228  0.00  0.00    -0.196 N 
ATOM      2  C2  IND d   1       5.045  -5.650  -4.952  0.00  0.00     0.054 A 
ATOM      3  C3  IND d   1       6.000  -5.146  -4.138  0.00  0.00    -0.031 A 
ATOM      4  C4  IND d   1       6.000  -4.897  -1.576  0.00  0.00     0.051 A 
ATOM      5  C5  IND d   1       5.198  -5.046  -0.479  0.00  0.00    -0.031 A 
ATOM      6  C6  IND d   1       3.911  -5.533  -0.577  0.00  0.00     0.015 A 
ATOM      7  C7  IND d   1       3.379  -5.902  -1.781  0.00  0.00    -0.016 A 
ATOM      8  C8  IND d   1       4.188  -5.745  -2.897  0.00  0.00    -0.047 A 
ATOM      9  C9  IND d   1       5.480  -5.211  -2.809  0.00  0.00    -0.096 A 
ATOM     10  HN1 IND d   1       3.211  -6.324  -4.550  0.00  0.00     0.298 HD
ENDROOT
TORSDOF 0
ENDMDL
