MODEL 1
REMARK minimizedAffinity 9.81748962
REMARK minimizedRMSD -1
REMARK  0 active torsions:
REMARK  status: ('A' for Active; 'I' for Inactive)
ROOT
ATOM      1  N1  IND d   1      -1.878   4.072   1.820  0.00  0.00    -0.196 N 
ATOM      2  C2  IND d   1      -2.274   5.377   1.732  0.00  0.00     0.054 A 
ATOM      3  C3  IND d   1      -1.622   6.000   0.725  0.00  0.00    -0.031 A 
ATOM      4  C4  IND d   1       0.062   5.043  -0.971  0.00  0.00     0.051 A 
ATOM      5  C5  IND d   1       0.764   3.909  -1.269  0.00  0.00    -0.031 A 
ATOM      6  C6  IND d   1       0.616   2.747  -0.540  0.00  0.00     0.015 A 
ATOM      7  C7  IND d   1      -0.252   2.672   0.513  0.00  0.00    -0.016 A 
ATOM      8  C8  IND d   1      -0.961   3.824   0.823  0.00  0.00    -0.047 A 
ATOM      9  C9  IND d   1      -0.783   5.019   0.113  0.00  0.00    -0.096 A 
ATOM     10  HN1 IND d   1      -2.155   3.502   2.401  0.00  0.00     0.298 HD
ENDROOT
TORSDOF 0
ENDMDL
