MODEL 1
REMARK minimizedAffinity 9.89067841
REMARK minimizedRMSD -1
REMARK  0 active torsions:
REMARK  status: ('A' for Active; 'I' for Inactive)
ROOT
ATOM      1  N1  IND d   1      -1.346   4.817  -2.495  0.00  0.00    -0.196 N 
ATOM      2  C2  IND d   1      -1.464   5.998  -1.817  0.00  0.00     0.054 A 
ATOM      3  C3  IND d   1      -1.342   5.791  -0.486  0.00  0.00    -0.031 A 
ATOM      4  C4  IND d   1      -0.842   3.611   0.790  0.00  0.00     0.051 A 
ATOM      5  C5  IND d   1      -0.688   2.266   0.605  0.00  0.00    -0.031 A 
ATOM      6  C6  IND d   1      -0.743   1.691  -0.648  0.00  0.00     0.015 A 
ATOM      7  C7  IND d   1      -0.945   2.445  -1.770  0.00  0.00    -0.016 A 
ATOM      8  C8  IND d   1      -1.109   3.811  -1.585  0.00  0.00    -0.047 A 
ATOM      9  C9  IND d   1      -1.096   4.394  -0.312  0.00  0.00    -0.096 A 
ATOM     10  HN1 IND d   1      -1.408   4.720  -3.347  0.00  0.00     0.298 HD
ENDROOT
TORSDOF 0
ENDMDL
