MODEL 1
REMARK minimizedAffinity 19.9014168
REMARK minimizedRMSD -1
REMARK  0 active torsions:
REMARK  status: ('A' for Active; 'I' for Inactive)
ROOT
ATOM      1  N1  IND d   1       1.660  -5.957  -0.666  0.00  0.00    -0.196 N 
ATOM      2  C2  IND d   1       1.155  -5.854  -1.932  0.00  0.00     0.054 A 
ATOM      3  C3  IND d   1       0.916  -4.560  -2.239  0.00  0.00    -0.031 A 
ATOM      4  C4  IND d   1       1.373  -2.438  -0.854  0.00  0.00     0.051 A 
ATOM      5  C5  IND d   1       1.795  -2.027   0.379  0.00  0.00    -0.031 A 
ATOM      6  C6  IND d   1       2.204  -2.923   1.346  0.00  0.00     0.015 A 
ATOM      7  C7  IND d   1       2.218  -4.269   1.110  0.00  0.00    -0.016 A 
ATOM      8  C8  IND d   1       1.783  -4.690  -0.139  0.00  0.00    -0.047 A 
ATOM      9  C9  IND d   1       1.327  -3.789  -1.109  0.00  0.00    -0.096 A 
ATOM     10  HN1 IND d   1       1.867  -6.690  -0.266  0.00  0.00     0.298 HD
ENDROOT
TORSDOF 0
ENDMDL
