MODEL 1
REMARK minimizedAffinity 13.0733433
REMARK minimizedRMSD -1
REMARK  0 active torsions:
REMARK  status: ('A' for Active; 'I' for Inactive)
ROOT
ATOM      1  N1  IND d   1      -1.176   3.357  -0.572  0.00  0.00    -0.196 N 
ATOM      2  C2  IND d   1      -0.721   4.207  -1.541  0.00  0.00     0.054 A 
ATOM      3  C3  IND d   1       0.556   4.571  -1.285  0.00  0.00    -0.031 A 
ATOM      4  C4  IND d   1       2.125   3.813   0.610  0.00  0.00     0.051 A 
ATOM      5  C5  IND d   1       2.148   3.071   1.757  0.00  0.00    -0.031 A 
ATOM      6  C6  IND d   1       1.042   2.370   2.195  0.00  0.00     0.015 A 
ATOM      7  C7  IND d   1      -0.129   2.376   1.491  0.00  0.00    -0.016 A 
ATOM      8  C8  IND d   1      -0.158   3.134   0.329  0.00  0.00    -0.047 A 
ATOM      9  C9  IND d   1       0.948   3.881  -0.097  0.00  0.00    -0.096 A 
ATOM     10  HN1 IND d   1      -1.965   3.019  -0.531  0.00  0.00     0.298 HD
ENDROOT
TORSDOF 0
ENDMDL
