MODEL 1
REMARK minimizedAffinity 0.349860162
REMARK minimizedRMSD -1
REMARK  0 active torsions:
REMARK  status: ('A' for Active; 'I' for Inactive)
ROOT
ATOM      1  N1  IND d   1       0.761  -1.221  -3.175  0.00  0.00    -0.196 N 
ATOM      2  C2  IND d   1       1.238  -0.423  -4.177  0.00  0.00     0.054 A 
ATOM      3  C3  IND d   1       1.485   0.821  -3.709  0.00  0.00    -0.031 A 
ATOM      4  C4  IND d   1       1.275   1.740  -1.314  0.00  0.00     0.051 A 
ATOM      5  C5  IND d   1       0.846   1.398  -0.062  0.00  0.00    -0.031 A 
ATOM      6  C6  IND d   1       0.360   0.138   0.222  0.00  0.00     0.015 A 
ATOM      7  C7  IND d   1       0.294  -0.833  -0.736  0.00  0.00    -0.016 A 
ATOM      8  C8  IND d   1       0.722  -0.487  -2.010  0.00  0.00    -0.047 A 
ATOM      9  C9  IND d   1       1.178   0.802  -2.314  0.00  0.00    -0.096 A 
ATOM     10  HN1 IND d   1       0.525  -2.044  -3.258  0.00  0.00     0.298 HD
ENDROOT
TORSDOF 0
ENDMDL
