MODEL 1
REMARK minimizedAffinity -2.59664655
REMARK minimizedRMSD -1
REMARK  0 active torsions:
REMARK  status: ('A' for Active; 'I' for Inactive)
ROOT
ATOM      1  N1  IND d   1       0.356   1.517  -1.654  0.00  0.00    -0.196 N 
ATOM      2  C2  IND d   1      -0.854   1.827  -1.099  0.00  0.00     0.054 A 
ATOM      3  C3  IND d   1      -1.343   0.768  -0.416  0.00  0.00    -0.031 A 
ATOM      4  C4  IND d   1      -0.281  -1.538   0.008  0.00  0.00     0.051 A 
ATOM      5  C5  IND d   1       0.801  -2.304  -0.327  0.00  0.00    -0.031 A 
ATOM      6  C6  IND d   1       1.811  -1.824  -1.135  0.00  0.00     0.015 A 
ATOM      7  C7  IND d   1       1.783  -0.552  -1.632  0.00  0.00    -0.016 A 
ATOM      8  C8  IND d   1       0.683   0.226  -1.300  0.00  0.00    -0.047 A 
ATOM      9  C9  IND d   1      -0.367  -0.269  -0.515  0.00  0.00    -0.096 A 
ATOM     10  HN1 IND d   1       0.833   2.040  -2.143  0.00  0.00     0.298 HD
ENDROOT
TORSDOF 0
ENDMDL
