MODEL 1
REMARK minimizedAffinity -1.65384924
REMARK minimizedRMSD -1
REMARK  0 active torsions:
REMARK  status: ('A' for Active; 'I' for Inactive)
ROOT
ATOM      1  N1  IND d   1      -2.844  -0.279   4.064  0.00  0.00    -0.196 N 
ATOM      2  C2  IND d   1      -3.168  -1.508   3.561  0.00  0.00     0.054 A 
ATOM      3  C3  IND d   1      -2.946  -1.544   2.228  0.00  0.00    -0.031 A 
ATOM      4  C4  IND d   1      -1.959   0.264   0.684  0.00  0.00     0.051 A 
ATOM      5  C5  IND d   1      -1.544   1.566   0.678  0.00  0.00    -0.031 A 
ATOM      6  C6  IND d   1      -1.539   2.335   1.824  0.00  0.00     0.015 A 
ATOM      7  C7  IND d   1      -1.939   1.824   3.026  0.00  0.00    -0.016 A 
ATOM      8  C8  IND d   1      -2.368   0.504   3.035  0.00  0.00    -0.047 A 
ATOM      9  C9  IND d   1      -2.415  -0.268   1.867  0.00  0.00    -0.096 A 
ATOM     10  HN1 IND d   1      -2.924  -0.035   4.884  0.00  0.00     0.298 HD
ENDROOT
TORSDOF 0
ENDMDL
