MODEL 1
REMARK minimizedAffinity -4.261343
REMARK minimizedRMSD -1
REMARK  0 active torsions:
REMARK  status: ('A' for Active; 'I' for Inactive)
ROOT
ATOM      1  N1  IND d   1      -0.323  -1.460   1.861  0.00  0.00    -0.196 N 
ATOM      2  C2  IND d   1      -1.113  -0.349   1.962  0.00  0.00     0.054 A 
ATOM      3  C3  IND d   1      -0.928   0.458   0.893  0.00  0.00    -0.031 A 
ATOM      4  C4  IND d   1       0.546   0.105  -1.187  0.00  0.00     0.051 A 
ATOM      5  C5  IND d   1       1.480  -0.743  -1.715  0.00  0.00    -0.031 A 
ATOM      6  C6  IND d   1       1.865  -1.898  -1.065  0.00  0.00     0.015 A 
ATOM      7  C7  IND d   1       1.321  -2.255   0.136  0.00  0.00    -0.016 A 
ATOM      8  C8  IND d   1       0.379  -1.393   0.678  0.00  0.00    -0.047 A 
ATOM      9  C9  IND d   1       0.014  -0.198   0.044  0.00  0.00    -0.096 A 
ATOM     10  HN1 IND d   1      -0.273  -2.094   2.440  0.00  0.00     0.298 HD
ENDROOT
TORSDOF 0
ENDMDL
