MODEL 1
REMARK minimizedAffinity -3.08667541
REMARK minimizedRMSD -1
REMARK  0 active torsions:
REMARK  status: ('A' for Active; 'I' for Inactive)
ROOT
ATOM      1  N1  IND d   1      -0.327   0.797  -1.129  0.00  0.00    -0.196 N 
ATOM      2  C2  IND d   1      -1.011   0.249  -0.080  0.00  0.00     0.054 A 
ATOM      3  C3  IND d   1      -0.250  -0.676   0.547  0.00  0.00    -0.031 A 
ATOM      4  C4  IND d   1       2.184  -1.376   0.085  0.00  0.00     0.051 A 
ATOM      5  C5  IND d   1       3.213  -1.180  -0.793  0.00  0.00    -0.031 A 
ATOM      6  C6  IND d   1       3.113  -0.296  -1.848  0.00  0.00     0.015 A 
ATOM      7  C7  IND d   1       1.980   0.437  -2.058  0.00  0.00    -0.016 A 
ATOM      8  C8  IND d   1       0.931   0.236  -1.173  0.00  0.00    -0.047 A 
ATOM      9  C9  IND d   1       1.011  -0.691  -0.126  0.00  0.00    -0.096 A 
ATOM     10  HN1 IND d   1      -0.631   1.391  -1.671  0.00  0.00     0.298 HD
ENDROOT
TORSDOF 0
ENDMDL
