MODEL 1
REMARK minimizedAffinity -5.41271925
REMARK minimizedRMSD -1
REMARK  0 active torsions:
REMARK  status: ('A' for Active; 'I' for Inactive)
ROOT
ATOM      1  N1  IND d   1      -0.541   0.954  -0.684  0.00  0.00    -0.196 N 
ATOM      2  C2  IND d   1      -0.925  -0.188  -0.038  0.00  0.00     0.054 A 
ATOM      3  C3  IND d   1       0.037  -1.132  -0.138  0.00  0.00    -0.031 A 
ATOM      4  C4  IND d   1       2.364  -0.985  -1.230  0.00  0.00     0.051 A 
ATOM      5  C5  IND d   1       3.153  -0.156  -1.977  0.00  0.00    -0.031 A 
ATOM      6  C6  IND d   1       2.743   1.112  -2.337  0.00  0.00     0.015 A 
ATOM      7  C7  IND d   1       1.529   1.604  -1.951  0.00  0.00    -0.016 A 
ATOM      8  C8  IND d   1       0.723   0.763  -1.198  0.00  0.00    -0.047 A 
ATOM      9  C9  IND d   1       1.115  -0.540  -0.865  0.00  0.00    -0.096 A 
ATOM     10  HN1 IND d   1      -1.010   1.671  -0.757  0.00  0.00     0.298 HD
ENDROOT
TORSDOF 0
ENDMDL
