MODEL 1
REMARK minimizedAffinity -2.26007605
REMARK minimizedRMSD -1
REMARK  0 active torsions:
REMARK  status: ('A' for Active; 'I' for Inactive)
ROOT
ATOM      1  N1  IND d   1      -2.070  -1.772   1.857  0.00  0.00    -0.196 N 
ATOM      2  C2  IND d   1      -3.018  -1.887   2.836  0.00  0.00     0.054 A 
ATOM      3  C3  IND d   1      -3.331  -0.669   3.332  0.00  0.00    -0.031 A 
ATOM      4  C4  IND d   1      -2.486   1.656   2.618  0.00  0.00     0.051 A 
ATOM      5  C5  IND d   1      -1.586   2.267   1.791  0.00  0.00    -0.031 A 
ATOM      6  C6  IND d   1      -0.787   1.549   0.924  0.00  0.00     0.015 A 
ATOM      7  C7  IND d   1      -0.867   0.188   0.844  0.00  0.00    -0.016 A 
ATOM      8  C8  IND d   1      -1.775  -0.437   1.687  0.00  0.00    -0.047 A 
ATOM      9  C9  IND d   1      -2.557   0.283   2.599  0.00  0.00    -0.096 A 
ATOM     10  HN1 IND d   1      -1.717  -2.424   1.422  0.00  0.00     0.298 HD
ENDROOT
TORSDOF 0
ENDMDL
