MODEL 1
REMARK minimizedAffinity 8.15625572
REMARK minimizedRMSD -1
REMARK  0 active torsions:
REMARK  status: ('A' for Active; 'I' for Inactive)
ROOT
ATOM      1  N1  IND d   1      -1.215   1.631   4.978  0.00  0.00    -0.196 N 
ATOM      2  C2  IND d   1      -0.990   2.818   4.338  0.00  0.00     0.054 A 
ATOM      3  C3  IND d   1      -1.079   2.654   2.999  0.00  0.00    -0.031 A 
ATOM      4  C4  IND d   1      -1.686   0.550   1.645  0.00  0.00     0.051 A 
ATOM      5  C5  IND d   1      -1.941  -0.785   1.787  0.00  0.00    -0.031 A 
ATOM      6  C6  IND d   1      -1.970  -1.395   3.024  0.00  0.00     0.015 A 
ATOM      7  C7  IND d   1      -1.755  -0.687   4.172  0.00  0.00    -0.016 A 
ATOM      8  C8  IND d   1      -1.489   0.668   4.032  0.00  0.00    -0.047 A 
ATOM      9  C9  IND d   1      -1.417   1.284   2.776  0.00  0.00    -0.096 A 
ATOM     10  HN1 IND d   1      -1.189   1.507   5.829  0.00  0.00     0.298 HD
ENDROOT
TORSDOF 0
ENDMDL
