MODEL 1
REMARK minimizedAffinity -6.10222483
REMARK minimizedRMSD -1
REMARK  0 active torsions:
REMARK  status: ('A' for Active; 'I' for Inactive)
ROOT
ATOM      1  N1  IND d   1      -4.734  -0.498   4.412  0.00  0.00    -0.196 N 
ATOM      2  C2  IND d   1      -4.605  -1.857   4.349  0.00  0.00     0.054 A 
ATOM      3  C3  IND d   1      -3.629  -2.197   3.478  0.00  0.00    -0.031 A 
ATOM      4  C4  IND d   1      -2.047  -0.685   2.122  0.00  0.00     0.051 A 
ATOM      5  C5  IND d   1      -1.805   0.626   1.821  0.00  0.00    -0.031 A 
ATOM      6  C6  IND d   1      -2.540   1.650   2.382  0.00  0.00     0.015 A 
ATOM      7  C7  IND d   1      -3.541   1.401   3.277  0.00  0.00    -0.016 A 
ATOM      8  C8  IND d   1      -3.794   0.071   3.580  0.00  0.00    -0.047 A 
ATOM      9  C9  IND d   1      -3.080  -0.975   2.981  0.00  0.00    -0.096 A 
ATOM     10  HN1 IND d   1      -5.305  -0.070   4.891  0.00  0.00     0.298 HD
ENDROOT
TORSDOF 0
ENDMDL
