MODEL 1
REMARK minimizedAffinity -6.22853327
REMARK minimizedRMSD -1
REMARK  0 active torsions:
REMARK  status: ('A' for Active; 'I' for Inactive)
ROOT
ATOM      1  N1  IND d   1      -0.059   1.165  -1.363  0.00  0.00    -0.196 N 
ATOM      2  C2  IND d   1      -0.516   0.170  -0.546  0.00  0.00     0.054 A 
ATOM      3  C3  IND d   1       0.457  -0.743  -0.326  0.00  0.00    -0.031 A 
ATOM      4  C4  IND d   1       2.904  -0.749  -1.126  0.00  0.00     0.051 A 
ATOM      5  C5  IND d   1       3.777  -0.068  -1.926  0.00  0.00    -0.031 A 
ATOM      6  C6  IND d   1       3.410   1.084  -2.591  0.00  0.00     0.015 A 
ATOM      7  C7  IND d   1       2.154   1.606  -2.471  0.00  0.00    -0.016 A 
ATOM      8  C8  IND d   1       1.262   0.913  -1.665  0.00  0.00    -0.047 A 
ATOM      9  C9  IND d   1       1.616  -0.280  -1.021  0.00  0.00    -0.096 A 
ATOM     10  HN1 IND d   1      -0.518   1.836  -1.643  0.00  0.00     0.298 HD
ENDROOT
TORSDOF 0
ENDMDL
