MODEL 1
REMARK minimizedAffinity -0.714763224
REMARK minimizedRMSD -1
REMARK  0 active torsions:
REMARK  status: ('A' for Active; 'I' for Inactive)
ROOT
ATOM      1  N1  IND d   1      -1.217   1.001   0.817  0.00  0.00    -0.196 N 
ATOM      2  C2  IND d   1      -0.793  -0.048   0.050  0.00  0.00     0.054 A 
ATOM      3  C3  IND d   1      -1.001  -1.217   0.697  0.00  0.00    -0.031 A 
ATOM      4  C4  IND d   1      -2.116  -1.649   2.976  0.00  0.00     0.051 A 
ATOM      5  C5  IND d   1      -2.632  -1.001   4.063  0.00  0.00    -0.031 A 
ATOM      6  C6  IND d   1      -2.707   0.376   4.123  0.00  0.00     0.015 A 
ATOM      7  C7  IND d   1      -2.277   1.158   3.090  0.00  0.00    -0.016 A 
ATOM      8  C8  IND d   1      -1.746   0.504   1.987  0.00  0.00    -0.047 A 
ATOM      9  C9  IND d   1      -1.628  -0.891   1.938  0.00  0.00    -0.096 A 
ATOM     10  HN1 IND d   1      -1.163   1.832   0.603  0.00  0.00     0.298 HD
ENDROOT
TORSDOF 0
ENDMDL
