MODEL 1
REMARK minimizedAffinity -5.37894201
REMARK minimizedRMSD -1
REMARK  0 active torsions:
REMARK  status: ('A' for Active; 'I' for Inactive)
ROOT
ATOM      1  N1  IND d   1      -0.318   0.677   0.135  0.00  0.00    -0.196 N 
ATOM      2  C2  IND d   1      -0.652  -0.539   0.663  0.00  0.00     0.054 A 
ATOM      3  C3  IND d   1       0.173  -1.500   0.190  0.00  0.00    -0.031 A 
ATOM      4  C4  IND d   1       2.202  -1.287  -1.380  0.00  0.00     0.051 A 
ATOM      5  C5  IND d   1       2.877  -0.382  -2.151  0.00  0.00    -0.031 A 
ATOM      6  C6  IND d   1       2.516   0.949  -2.198  0.00  0.00     0.015 A 
ATOM      7  C7  IND d   1       1.469   1.429  -1.464  0.00  0.00    -0.016 A 
ATOM      8  C8  IND d   1       0.776   0.512  -0.685  0.00  0.00    -0.047 A 
ATOM      9  C9  IND d   1       1.112  -0.848  -0.667  0.00  0.00    -0.096 A 
ATOM     10  HN1 IND d   1      -0.723   1.419   0.289  0.00  0.00     0.298 HD
ENDROOT
TORSDOF 0
ENDMDL
