MODEL 1
REMARK minimizedAffinity 1.49807334
REMARK minimizedRMSD -1
REMARK  0 active torsions:
REMARK  status: ('A' for Active; 'I' for Inactive)
ROOT
ATOM      1  N1  IND d   1      -0.255   1.631  -2.169  0.00  0.00    -0.196 N 
ATOM      2  C2  IND d   1       0.557   1.784  -3.258  0.00  0.00     0.054 A 
ATOM      3  C3  IND d   1       1.371   0.714  -3.392  0.00  0.00    -0.031 A 
ATOM      4  C4  IND d   1       1.473  -1.449  -2.000  0.00  0.00     0.051 A 
ATOM      5  C5  IND d   1       0.952  -2.035  -0.881  0.00  0.00    -0.031 A 
ATOM      6  C6  IND d   1      -0.020  -1.418  -0.120  0.00  0.00     0.015 A 
ATOM      7  C7  IND d   1      -0.517  -0.191  -0.458  0.00  0.00    -0.016 A 
ATOM      8  C8  IND d   1       0.015   0.410  -1.590  0.00  0.00    -0.047 A 
ATOM      9  C9  IND d   1       1.032  -0.192  -2.342  0.00  0.00    -0.096 A 
ATOM     10  HN1 IND d   1      -0.837   2.200  -1.892  0.00  0.00     0.298 HD
ENDROOT
TORSDOF 0
ENDMDL
