MODEL 1
REMARK minimizedAffinity -4.94099522
REMARK minimizedRMSD -1
REMARK  0 active torsions:
REMARK  status: ('A' for Active; 'I' for Inactive)
ROOT
ATOM      1  N1  IND d   1      -1.210  -0.932   0.053  0.00  0.00    -0.196 N 
ATOM      2  C2  IND d   1      -1.760   0.307   0.229  0.00  0.00     0.054 A 
ATOM      3  C3  IND d   1      -0.890   1.267  -0.158  0.00  0.00    -0.031 A 
ATOM      4  C4  IND d   1       1.450   1.028  -1.205  0.00  0.00     0.051 A 
ATOM      5  C5  IND d   1       2.395   0.095  -1.528  0.00  0.00    -0.031 A 
ATOM      6  C6  IND d   1       2.181  -1.255  -1.340  0.00  0.00     0.015 A 
ATOM      7  C7  IND d   1       1.005  -1.726  -0.830  0.00  0.00    -0.016 A 
ATOM      8  C8  IND d   1       0.046  -0.781  -0.493  0.00  0.00    -0.047 A 
ATOM      9  C9  IND d   1       0.273   0.593  -0.642  0.00  0.00    -0.096 A 
ATOM     10  HN1 IND d   1      -1.586  -1.680   0.250  0.00  0.00     0.298 HD
ENDROOT
TORSDOF 0
ENDMDL
