MODEL 1
REMARK minimizedAffinity -0.57007283
REMARK minimizedRMSD -1
REMARK  0 active torsions:
REMARK  status: ('A' for Active; 'I' for Inactive)
ROOT
ATOM      1  C1  DEN d   1       0.939   0.640  -0.344  0.00  0.00     0.130 A 
ATOM      2  C2  DEN d   1       0.258  -0.383  -1.134  0.00  0.00    -0.031 A 
ATOM      3  C3  DEN d   1      -0.832  -0.944  -0.311  0.00  0.00     0.027 A 
ATOM      4  C4  DEN d   1      -1.531  -0.329   2.095  0.00  0.00     0.027 A 
ATOM      5  C5  DEN d   1      -1.243   0.473   3.177  0.00  0.00    -0.003 A 
ATOM      6  C6  DEN d   1      -0.195   1.355   3.173  0.00  0.00     0.001 A 
ATOM      7  C7  DEN d   1       0.576   1.489   2.049  0.00  0.00     0.017 A 
ATOM      8  C8  DEN d   1       0.296   0.679   0.957  0.00  0.00    -0.094 A 
ATOM      9  C9  DEN d   1      -0.775  -0.198   0.975  0.00  0.00    -0.072 A 
ENDROOT
TORSDOF 0
ENDMDL
