MODEL 1
REMARK minimizedAffinity -4.16282129
REMARK minimizedRMSD -1
REMARK  0 active torsions:
REMARK  status: ('A' for Active; 'I' for Inactive)
ROOT
ATOM      1  C1  DEN d   1       1.346   0.662  -0.803  0.00  0.00     0.130 A 
ATOM      2  C2  DEN d   1       1.038  -0.063  -2.033  0.00  0.00    -0.031 A 
ATOM      3  C3  DEN d   1      -0.317  -0.635  -1.899  0.00  0.00     0.027 A 
ATOM      4  C4  DEN d   1      -1.961  -0.465   0.082  0.00  0.00     0.027 A 
ATOM      5  C5  DEN d   1      -2.141   0.037   1.351  0.00  0.00    -0.003 A 
ATOM      6  C6  DEN d   1      -1.166   0.748   2.000  0.00  0.00     0.001 A 
ATOM      7  C7  DEN d   1       0.017   1.015   1.363  0.00  0.00     0.017 A 
ATOM      8  C8  DEN d   1       0.208   0.506   0.085  0.00  0.00    -0.094 A 
ATOM      9  C9  DEN d   1      -0.794  -0.200  -0.558  0.00  0.00    -0.072 A 
ENDROOT
TORSDOF 0
ENDMDL
