MODEL 1
REMARK minimizedAffinity -1.59544718
REMARK minimizedRMSD -1
REMARK  0 active torsions:
REMARK  status: ('A' for Active; 'I' for Inactive)
ROOT
ATOM      1  C1  DEN d   1       1.020   1.174  -0.318  0.00  0.00     0.130 A 
ATOM      2  C2  DEN d   1       0.375   0.044   0.345  0.00  0.00    -0.031 A 
ATOM      3  C3  DEN d   1      -0.006  -0.936  -0.692  0.00  0.00     0.027 A 
ATOM      4  C4  DEN d   1       0.344  -0.816  -3.245  0.00  0.00     0.027 A 
ATOM      5  C5  DEN d   1       0.835  -0.046  -4.276  0.00  0.00    -0.003 A 
ATOM      6  C6  DEN d   1       1.388   1.190  -4.065  0.00  0.00     0.001 A 
ATOM      7  C7  DEN d   1       1.503   1.673  -2.788  0.00  0.00     0.017 A 
ATOM      8  C8  DEN d   1       1.003   0.905  -1.744  0.00  0.00    -0.094 A 
ATOM      9  C9  DEN d   1       0.459  -0.347  -1.977  0.00  0.00    -0.072 A 
ENDROOT
TORSDOF 0
ENDMDL
