MODEL 1
REMARK minimizedAffinity -2.61401629
REMARK minimizedRMSD -1
REMARK  0 active torsions:
REMARK  status: ('A' for Active; 'I' for Inactive)
ROOT
ATOM      1  C1  DEN d   1      -1.784   0.826   0.603  0.00  0.00     0.130 A 
ATOM      2  C2  DEN d   1      -1.803   1.501   1.898  0.00  0.00    -0.031 A 
ATOM      3  C3  DEN d   1      -0.539   1.188   2.594  0.00  0.00     0.027 A 
ATOM      4  C4  DEN d   1       1.438  -0.264   1.795  0.00  0.00     0.027 A 
ATOM      5  C5  DEN d   1       1.908  -1.054   0.769  0.00  0.00    -0.003 A 
ATOM      6  C6  DEN d   1       1.172  -1.298  -0.360  0.00  0.00     0.001 A 
ATOM      7  C7  DEN d   1      -0.056  -0.710  -0.510  0.00  0.00     0.017 A 
ATOM      8  C8  DEN d   1      -0.540   0.082   0.523  0.00  0.00    -0.094 A 
ATOM      9  C9  DEN d   1       0.224   0.326   1.652  0.00  0.00    -0.072 A 
ENDROOT
TORSDOF 0
ENDMDL
