MODEL 1
REMARK minimizedAffinity 1.08213139
REMARK minimizedRMSD -1
REMARK  0 active torsions:
REMARK  status: ('A' for Active; 'I' for Inactive)
ROOT
ATOM      1  C1  DEN d   1       1.714  -0.317   1.547  0.00  0.00     0.130 A 
ATOM      2  C2  DEN d   1       2.164  -0.962   0.316  0.00  0.00    -0.031 A 
ATOM      3  C3  DEN d   1       1.039  -0.958  -0.639  0.00  0.00     0.027 A 
ATOM      4  C4  DEN d   1      -1.343  -0.016  -0.337  0.00  0.00     0.027 A 
ATOM      5  C5  DEN d   1      -2.198   0.614   0.540  0.00  0.00    -0.003 A 
ATOM      6  C6  DEN d   1      -1.823   0.945   1.815  0.00  0.00     0.001 A 
ATOM      7  C7  DEN d   1      -0.544   0.687   2.235  0.00  0.00     0.017 A 
ATOM      8  C8  DEN d   1       0.321   0.045   1.359  0.00  0.00    -0.094 A 
ATOM      9  C9  DEN d   1      -0.074  -0.270   0.070  0.00  0.00    -0.072 A 
ENDROOT
TORSDOF 0
ENDMDL
