MODEL 1
REMARK minimizedAffinity -5.94972324
REMARK minimizedRMSD -1
REMARK  2 active torsions:
REMARK  status: ('A' for Active; 'I' for Inactive)
REMARK    1  A    between atoms: C2'_3  and  C1'_4 
REMARK    2  A    between atoms: C1'_4  and  C1_5 
ROOT
ATOM      1  C1  I4B d   1       0.108  -0.206   0.152  0.00  0.00    -0.075 A 
ATOM      2  C2  I4B d   1       1.003   0.786  -0.161  0.00  0.00     0.003 A 
ATOM      3  C3  I4B d   1       0.613   2.146  -0.096  0.00  0.00     0.002 A 
ATOM      4  C4  I4B d   1      -0.688   2.464   0.235  0.00  0.00    -0.004 A 
ATOM      5  C5  I4B d   1      -1.588   1.458   0.574  0.00  0.00     0.002 A 
ATOM      6  C6  I4B d   1      -1.185   0.115   0.545  0.00  0.00     0.003 A 
ENDROOT
BRANCH   1   7
ATOM      7  C1' I4B d   1       0.544  -1.632   0.041  0.00  0.00     0.060 C 
BRANCH   7   8
ATOM      8  C2' I4B d   1      -0.266  -2.284  -1.062  0.00  0.00    -0.013 C 
ATOM      9  C4' I4B d   1       0.616  -2.718  -2.203  0.00  0.00     0.013 C 
ATOM     10  C3' I4B d   1      -0.999  -3.450  -0.470  0.00  0.00     0.013 C 
ENDBRANCH   7   8
ENDBRANCH   1   7
TORSDOF 2
ENDMDL
