MODEL 1
REMARK minimizedAffinity -3.18134022
REMARK minimizedRMSD -1
REMARK  2 active torsions:
REMARK  status: ('A' for Active; 'I' for Inactive)
REMARK    1  A    between atoms: C2'_3  and  C1'_4 
REMARK    2  A    between atoms: C1'_4  and  C1_5 
ROOT
ATOM      1  C1  I4B d   1       0.088  -0.335  -0.003  0.00  0.00    -0.075 A 
ATOM      2  C2  I4B d   1      -1.084   0.188   0.485  0.00  0.00     0.003 A 
ATOM      3  C3  I4B d   1      -1.252   1.591   0.582  0.00  0.00     0.002 A 
ATOM      4  C4  I4B d   1      -0.212   2.427   0.230  0.00  0.00    -0.004 A 
ATOM      5  C5  I4B d   1       0.966   1.895  -0.287  0.00  0.00     0.002 A 
ATOM      6  C6  I4B d   1       1.113   0.506  -0.416  0.00  0.00     0.003 A 
ENDROOT
BRANCH   1   7
ATOM      7  C1' I4B d   1       0.244  -1.821  -0.061  0.00  0.00     0.060 C 
BRANCH   7   8
ATOM      8  C2' I4B d   1      -0.383  -2.307  -1.352  0.00  0.00    -0.013 C 
ATOM      9  C4' I4B d   1       0.669  -2.705  -2.353  0.00  0.00     0.013 C 
ATOM     10  C3' I4B d   1      -1.283  -3.461  -1.024  0.00  0.00     0.013 C 
ENDBRANCH   7   8
ENDBRANCH   1   7
TORSDOF 2
ENDMDL
