MODEL 1
REMARK minimizedAffinity -5.37415266
REMARK minimizedRMSD -1
REMARK  2 active torsions:
REMARK  status: ('A' for Active; 'I' for Inactive)
REMARK    1  A    between atoms: C2'_3  and  C1'_4 
REMARK    2  A    between atoms: C1'_4  and  C1_5 
ROOT
ATOM      1  C1  I4B d   1       0.151   0.082  -0.017  0.00  0.00    -0.075 A 
ATOM      2  C2  I4B d   1       1.245   0.793  -0.443  0.00  0.00     0.003 A 
ATOM      3  C3  I4B d   1       1.208   2.208  -0.474  0.00  0.00     0.002 A 
ATOM      4  C4  I4B d   1       0.047   2.865  -0.122  0.00  0.00    -0.004 A 
ATOM      5  C5  I4B d   1      -1.054   2.144   0.331  0.00  0.00     0.002 A 
ATOM      6  C6  I4B d   1      -0.998   0.744   0.396  0.00  0.00     0.003 A 
ENDROOT
BRANCH   1   7
ATOM      7  C1' I4B d   1       0.213  -1.412  -0.028  0.00  0.00     0.060 C 
BRANCH   7   8
ATOM      8  C2' I4B d   1      -0.590  -1.905  -1.214  0.00  0.00    -0.013 C 
ATOM      9  C4' I4B d   1       0.311  -2.330  -2.344  0.00  0.00     0.013 C 
ATOM     10  C3' I4B d   1      -1.451  -3.042  -0.751  0.00  0.00     0.013 C 
ENDBRANCH   7   8
ENDBRANCH   1   7
TORSDOF 2
ENDMDL
