MODEL 1
REMARK minimizedAffinity -5.65032768
REMARK minimizedRMSD -1
REMARK  2 active torsions:
REMARK  status: ('A' for Active; 'I' for Inactive)
REMARK    1  A    between atoms: C2'_3  and  C1'_4 
REMARK    2  A    between atoms: C1'_4  and  C1_5 
ROOT
ATOM      1  C1  I4B d   1      -0.193  -0.246   0.111  0.00  0.00    -0.075 A 
ATOM      2  C2  I4B d   1       0.797   0.647  -0.215  0.00  0.00     0.003 A 
ATOM      3  C3  I4B d   1       0.497   2.023  -0.362  0.00  0.00     0.002 A 
ATOM      4  C4  I4B d   1      -0.807   2.452  -0.223  0.00  0.00    -0.004 A 
ATOM      5  C5  I4B d   1      -1.806   1.550   0.130  0.00  0.00     0.002 A 
ATOM      6  C6  I4B d   1      -1.496   0.194   0.311  0.00  0.00     0.003 A 
ENDROOT
BRANCH   1   7
ATOM      7  C1' I4B d   1       0.153  -1.696   0.226  0.00  0.00     0.060 C 
BRANCH   7   8
ATOM      8  C2' I4B d   1      -0.408  -2.407  -0.989  0.00  0.00    -0.013 C 
ATOM      9  C4' I4B d   1       0.667  -2.671  -2.011  0.00  0.00     0.013 C 
ATOM     10  C3' I4B d   1      -1.041  -3.686  -0.527  0.00  0.00     0.013 C 
ENDBRANCH   7   8
ENDBRANCH   1   7
TORSDOF 2
ENDMDL
