MODEL 1
REMARK minimizedAffinity -0.0608265884
REMARK minimizedRMSD -1
REMARK  2 active torsions:
REMARK  status: ('A' for Active; 'I' for Inactive)
REMARK    1  A    between atoms: C2'_3  and  C1'_4 
REMARK    2  A    between atoms: C1'_4  and  C1_5 
ROOT
ATOM      1  C1  I4B d   1      -0.654  -1.770  -0.881  0.00  0.00    -0.075 A 
ATOM      2  C2  I4B d   1      -0.245  -3.036  -0.543  0.00  0.00     0.003 A 
ATOM      3  C3  I4B d   1      -0.870  -4.165  -1.127  0.00  0.00     0.002 A 
ATOM      4  C4  I4B d   1      -1.925  -3.984  -1.998  0.00  0.00    -0.004 A 
ATOM      5  C5  I4B d   1      -2.322  -2.700  -2.356  0.00  0.00     0.002 A 
ATOM      6  C6  I4B d   1      -1.675  -1.585  -1.804  0.00  0.00     0.003 A 
ENDROOT
BRANCH   1   7
ATOM      7  C1' I4B d   1       0.005  -0.600  -0.221  0.00  0.00     0.060 C 
BRANCH   7   8
ATOM      8  C2' I4B d   1      -1.083   0.306   0.318  0.00  0.00    -0.013 C 
ATOM      9  C4' I4B d   1      -1.260   0.122   1.803  0.00  0.00     0.013 C 
ATOM     10  C3' I4B d   1      -0.712   1.721  -0.011  0.00  0.00     0.013 C 
ENDBRANCH   7   8
ENDBRANCH   1   7
TORSDOF 2
ENDMDL
