MODEL 1
REMARK minimizedAffinity -5.03581476
REMARK minimizedRMSD -1
REMARK  2 active torsions:
REMARK  status: ('A' for Active; 'I' for Inactive)
REMARK    1  A    between atoms: C2'_3  and  C1'_4 
REMARK    2  A    between atoms: C1'_4  and  C1_5 
ROOT
ATOM      1  C1  I4B d   1       0.321  -0.215   0.044  0.00  0.00    -0.075 A 
ATOM      2  C2  I4B d   1      -0.855   0.349   0.472  0.00  0.00     0.003 A 
ATOM      3  C3  I4B d   1      -1.008   1.756   0.485  0.00  0.00     0.002 A 
ATOM      4  C4  I4B d   1       0.052   2.559   0.113  0.00  0.00    -0.004 A 
ATOM      5  C5  I4B d   1       1.235   1.985  -0.343  0.00  0.00     0.002 A 
ATOM      6  C6  I4B d   1       1.367   0.590  -0.389  0.00  0.00     0.003 A 
ENDROOT
BRANCH   1   7
ATOM      7  C1' I4B d   1       0.460  -1.704   0.074  0.00  0.00     0.060 C 
BRANCH   7   8
ATOM      8  C2' I4B d   1      -0.319  -2.269  -1.096  0.00  0.00    -0.013 C 
ATOM      9  C4' I4B d   1       0.603  -2.710  -2.203  0.00  0.00     0.013 C 
ATOM     10  C3' I4B d   1      -1.147  -3.413  -0.592  0.00  0.00     0.013 C 
ENDBRANCH   7   8
ENDBRANCH   1   7
TORSDOF 2
ENDMDL
