MODEL 1
REMARK minimizedAffinity -4.03747511
REMARK minimizedRMSD -1
REMARK  2 active torsions:
REMARK  status: ('A' for Active; 'I' for Inactive)
REMARK    1  A    between atoms: C2'_3  and  C1'_4 
REMARK    2  A    between atoms: C1'_4  and  C1_5 
ROOT
ATOM      1  C1  I4B d   1      -0.147  -0.355  -0.163  0.00  0.00    -0.075 A 
ATOM      2  C2  I4B d   1       0.928   0.490  -0.283  0.00  0.00     0.003 A 
ATOM      3  C3  I4B d   1       0.785   1.871  -0.003  0.00  0.00     0.002 A 
ATOM      4  C4  I4B d   1      -0.455   2.369   0.344  0.00  0.00    -0.004 A 
ATOM      5  C5  I4B d   1      -1.538   1.507   0.488  0.00  0.00     0.002 A 
ATOM      6  C6  I4B d   1      -1.381   0.135   0.245  0.00  0.00     0.003 A 
ENDROOT
BRANCH   1   7
ATOM      7  C1' I4B d   1       0.032  -1.801  -0.499  0.00  0.00     0.060 C 
BRANCH   7   8
ATOM      8  C2' I4B d   1      -0.548  -2.035  -1.879  0.00  0.00    -0.013 C 
ATOM      9  C4' I4B d   1       0.539  -2.170  -2.912  0.00  0.00     0.013 C 
ATOM     10  C3' I4B d   1      -1.397  -3.270  -1.821  0.00  0.00     0.013 C 
ENDBRANCH   7   8
ENDBRANCH   1   7
TORSDOF 2
ENDMDL
