MODEL 1
REMARK minimizedAffinity -3.87338805
REMARK minimizedRMSD -1
REMARK  2 active torsions:
REMARK  status: ('A' for Active; 'I' for Inactive)
REMARK    1  A    between atoms: C2'_3  and  C1'_4 
REMARK    2  A    between atoms: C1'_4  and  C1_5 
ROOT
ATOM      1  C1  I4B d   1       0.398  -0.003  -0.077  0.00  0.00    -0.075 A 
ATOM      2  C2  I4B d   1       1.411   0.920  -0.155  0.00  0.00     0.003 A 
ATOM      3  C3  I4B d   1       1.122   2.304  -0.080  0.00  0.00     0.002 A 
ATOM      4  C4  I4B d   1      -0.190   2.720   0.022  0.00  0.00    -0.004 A 
ATOM      5  C5  I4B d   1      -1.214   1.782   0.124  0.00  0.00     0.002 A 
ATOM      6  C6  I4B d   1      -0.918   0.412   0.087  0.00  0.00     0.003 A 
ENDROOT
BRANCH   1   7
ATOM      7  C1' I4B d   1       0.735  -1.456  -0.192  0.00  0.00     0.060 C 
BRANCH   7   8
ATOM      8  C2' I4B d   1      -0.127  -2.049  -1.288  0.00  0.00    -0.013 C 
ATOM      9  C4' I4B d   1       0.717  -2.686  -2.360  0.00  0.00     0.013 C 
ATOM     10  C3' I4B d   1      -1.050  -3.050  -0.660  0.00  0.00     0.013 C 
ENDBRANCH   7   8
ENDBRANCH   1   7
TORSDOF 2
ENDMDL
