MODEL 1
REMARK minimizedAffinity 1.88176143
REMARK minimizedRMSD -1
REMARK  2 active torsions:
REMARK  status: ('A' for Active; 'I' for Inactive)
REMARK    1  A    between atoms: C2'_3  and  C1'_4 
REMARK    2  A    between atoms: C1'_4  and  C1_5 
ROOT
ATOM      1  C1  I4B d   1      -0.081  -0.862  -0.577  0.00  0.00    -0.075 A 
ATOM      2  C2  I4B d   1      -0.776  -0.302   0.466  0.00  0.00     0.003 A 
ATOM      3  C3  I4B d   1      -0.670   1.084   0.731  0.00  0.00     0.002 A 
ATOM      4  C4  I4B d   1       0.175   1.860  -0.036  0.00  0.00    -0.004 A 
ATOM      5  C5  I4B d   1       0.860   1.296  -1.109  0.00  0.00     0.002 A 
ATOM      6  C6  I4B d   1       0.722  -0.071  -1.389  0.00  0.00     0.003 A 
ENDROOT
BRANCH   1   7
ATOM      7  C1' I4B d   1      -0.191  -2.336  -0.808  0.00  0.00     0.060 C 
BRANCH   7   8
ATOM      8  C2' I4B d   1      -0.594  -2.553  -2.253  0.00  0.00    -0.013 C 
ATOM      9  C4' I4B d   1       0.493  -3.257  -3.022  0.00  0.00     0.013 C 
ATOM     10  C3' I4B d   1      -1.866  -3.347  -2.264  0.00  0.00     0.013 C 
ENDBRANCH   7   8
ENDBRANCH   1   7
TORSDOF 2
ENDMDL
