MODEL 1
REMARK minimizedAffinity 0.85340035
REMARK minimizedRMSD -1
REMARK  0 active torsions:
REMARK  status: ('A' for Active; 'I' for Inactive)
ROOT
ATOM      1  N1  IND d   1      -2.374   4.184  -3.552  0.00  0.00    -0.196 N 
ATOM      2  C2  IND d   1      -2.146   4.172  -2.204  0.00  0.00     0.054 A 
ATOM      3  C3  IND d   1      -2.259   2.915  -1.719  0.00  0.00    -0.031 A 
ATOM      4  C4  IND d   1      -2.710   0.712  -2.973  0.00  0.00     0.051 A 
ATOM      5  C5  IND d   1      -3.019   0.221  -4.210  0.00  0.00    -0.031 A 
ATOM      6  C6  IND d   1      -3.129   1.041  -5.314  0.00  0.00     0.015 A 
ATOM      7  C7  IND d   1      -2.921   2.389  -5.223  0.00  0.00    -0.016 A 
ATOM      8  C8  IND d   1      -2.614   2.892  -3.967  0.00  0.00    -0.047 A 
ATOM      9  C9  IND d   1      -2.543   2.070  -2.835  0.00  0.00    -0.096 A 
ATOM     10  HN1 IND d   1      -2.368   4.880  -4.056  0.00  0.00     0.298 HD
ENDROOT
TORSDOF 0
ENDMDL
