MODEL 1
REMARK minimizedAffinity 4.48798084
REMARK minimizedRMSD -1
REMARK  0 active torsions:
REMARK  status: ('A' for Active; 'I' for Inactive)
ROOT
ATOM      1  N1  IND d   1      -1.242  -0.162  -0.289  0.00  0.00    -0.196 N 
ATOM      2  C2  IND d   1      -2.516   0.007   0.176  0.00  0.00     0.054 A 
ATOM      3  C3  IND d   1      -2.715  -0.743   1.284  0.00  0.00    -0.031 A 
ATOM      4  C4  IND d   1      -1.060  -2.240   2.566  0.00  0.00     0.051 A 
ATOM      5  C5  IND d   1       0.211  -2.739   2.504  0.00  0.00    -0.031 A 
ATOM      6  C6  IND d   1       1.081  -2.396   1.490  0.00  0.00     0.015 A 
ATOM      7  C7  IND d   1       0.715  -1.528   0.501  0.00  0.00    -0.016 A 
ATOM      8  C8  IND d   1      -0.577  -1.024   0.556  0.00  0.00    -0.047 A 
ATOM      9  C9  IND d   1      -1.479  -1.403   1.559  0.00  0.00    -0.096 A 
ATOM     10  HN1 IND d   1      -0.911   0.208  -0.991  0.00  0.00     0.298 HD
ENDROOT
TORSDOF 0
ENDMDL
