MODEL 1
REMARK minimizedAffinity 0.326815873
REMARK minimizedRMSD -1
REMARK  0 active torsions:
REMARK  status: ('A' for Active; 'I' for Inactive)
ROOT
ATOM      1  N1  IND d   1      -1.148   4.864   4.420  0.00  0.00    -0.196 N 
ATOM      2  C2  IND d   1      -1.242   5.493   5.629  0.00  0.00     0.054 A 
ATOM      3  C3  IND d   1      -0.042   5.999   5.991  0.00  0.00    -0.031 A 
ATOM      4  C4  IND d   1       2.188   6.000   4.705  0.00  0.00     0.051 A 
ATOM      5  C5  IND d   1       2.778   5.514   3.572  0.00  0.00    -0.031 A 
ATOM      6  C6  IND d   1       2.074   4.774   2.643  0.00  0.00     0.015 A 
ATOM      7  C7  IND d   1       0.746   4.501   2.809  0.00  0.00    -0.016 A 
ATOM      8  C8  IND d   1       0.145   4.986   3.961  0.00  0.00    -0.047 A 
ATOM      9  C9  IND d   1       0.864   5.702   4.928  0.00  0.00    -0.096 A 
ATOM     10  HN1 IND d   1      -1.789   4.459   4.013  0.00  0.00     0.298 HD
ENDROOT
TORSDOF 0
ENDMDL
