MODEL 1
REMARK minimizedAffinity -0.916497469
REMARK minimizedRMSD -1
REMARK  0 active torsions:
REMARK  status: ('A' for Active; 'I' for Inactive)
ROOT
ATOM      1  N1  IND d   1       0.168  -5.319   2.760  0.00  0.00    -0.196 N 
ATOM      2  C2  IND d   1       1.392  -5.248   2.154  0.00  0.00     0.054 A 
ATOM      3  C3  IND d   1       1.722  -3.960   1.912  0.00  0.00    -0.031 A 
ATOM      4  C4  IND d   1       0.453  -1.803   2.517  0.00  0.00     0.051 A 
ATOM      5  C5  IND d   1      -0.727  -1.360   3.045  0.00  0.00    -0.031 A 
ATOM      6  C6  IND d   1      -1.687  -2.231   3.518  0.00  0.00     0.015 A 
ATOM      7  C7  IND d   1      -1.497  -3.584   3.490  0.00  0.00    -0.016 A 
ATOM      8  C8  IND d   1      -0.303  -4.038   2.947  0.00  0.00    -0.047 A 
ATOM      9  C9  IND d   1       0.657  -3.160   2.427  0.00  0.00    -0.096 A 
ATOM     10  HN1 IND d   1      -0.238  -6.042   2.987  0.00  0.00     0.298 HD
ENDROOT
TORSDOF 0
ENDMDL
