MODEL 1
REMARK minimizedAffinity 1.2862972
REMARK minimizedRMSD -1
REMARK  0 active torsions:
REMARK  status: ('A' for Active; 'I' for Inactive)
ROOT
ATOM      1  N1  IND d   1       2.136  -3.395   0.900  0.00  0.00    -0.196 N 
ATOM      2  C2  IND d   1       2.010  -4.102   2.063  0.00  0.00     0.054 A 
ATOM      3  C3  IND d   1       1.003  -3.599   2.812  0.00  0.00    -0.031 A 
ATOM      4  C4  IND d   1      -0.633  -1.684   2.279  0.00  0.00     0.051 A 
ATOM      5  C5  IND d   1      -0.891  -0.714   1.351  0.00  0.00    -0.031 A 
ATOM      6  C6  IND d   1      -0.138  -0.587   0.201  0.00  0.00     0.015 A 
ATOM      7  C7  IND d   1       0.896  -1.437  -0.071  0.00  0.00    -0.016 A 
ATOM      8  C8  IND d   1       1.165  -2.419   0.872  0.00  0.00    -0.047 A 
ATOM      9  C9  IND d   1       0.432  -2.526   2.062  0.00  0.00    -0.096 A 
ATOM     10  HN1 IND d   1       2.724  -3.537   0.288  0.00  0.00     0.298 HD
ENDROOT
TORSDOF 0
ENDMDL
