MODEL 1
REMARK minimizedAffinity -2.22831583
REMARK minimizedRMSD -1
REMARK  0 active torsions:
REMARK  status: ('A' for Active; 'I' for Inactive)
ROOT
ATOM      1  N1  IND d   1      -2.356  -1.133   3.373  0.00  0.00    -0.196 N 
ATOM      2  C2  IND d   1      -3.179  -0.295   2.674  0.00  0.00     0.054 A 
ATOM      3  C3  IND d   1      -2.632   0.011   1.476  0.00  0.00    -0.031 A 
ATOM      4  C4  IND d   1      -0.444  -0.832   0.414  0.00  0.00     0.051 A 
ATOM      5  C5  IND d   1       0.665  -1.584   0.684  0.00  0.00    -0.031 A 
ATOM      6  C6  IND d   1       0.825  -2.240   1.888  0.00  0.00     0.015 A 
ATOM      7  C7  IND d   1      -0.127  -2.177   2.866  0.00  0.00    -0.016 A 
ATOM      8  C8  IND d   1      -1.250  -1.408   2.598  0.00  0.00    -0.047 A 
ATOM      9  C9  IND d   1      -1.399  -0.706   1.395  0.00  0.00    -0.096 A 
ATOM     10  HN1 IND d   1      -2.503  -1.437   4.163  0.00  0.00     0.298 HD
ENDROOT
TORSDOF 0
ENDMDL
