MODEL 1
REMARK minimizedAffinity 6.60095119
REMARK minimizedRMSD -1
REMARK  0 active torsions:
REMARK  status: ('A' for Active; 'I' for Inactive)
ROOT
ATOM      1  N1  IND d   1      -2.396  -0.003   2.667  0.00  0.00    -0.196 N 
ATOM      2  C2  IND d   1      -1.495  -0.671   1.885  0.00  0.00     0.054 A 
ATOM      3  C3  IND d   1      -2.136  -1.515   1.046  0.00  0.00    -0.031 A 
ATOM      4  C4  IND d   1      -4.661  -1.888   0.714  0.00  0.00     0.051 A 
ATOM      5  C5  IND d   1      -5.879  -1.533   1.224  0.00  0.00    -0.031 A 
ATOM      6  C6  IND d   1      -6.000  -0.630   2.260  0.00  0.00     0.015 A 
ATOM      7  C7  IND d   1      -4.904  -0.036   2.820  0.00  0.00    -0.016 A 
ATOM      8  C8  IND d   1      -3.666  -0.400   2.309  0.00  0.00    -0.047 A 
ATOM      9  C9  IND d   1      -3.534  -1.348   1.286  0.00  0.00    -0.096 A 
ATOM     10  HN1 IND d   1      -2.202   0.568   3.279  0.00  0.00     0.298 HD
ENDROOT
TORSDOF 0
ENDMDL
