MODEL 1
REMARK minimizedAffinity -0.541526914
REMARK minimizedRMSD -1
REMARK  0 active torsions:
REMARK  status: ('A' for Active; 'I' for Inactive)
ROOT
ATOM      1  N1  IND d   1      -0.529   0.360  -0.859  0.00  0.00    -0.196 N 
ATOM      2  C2  IND d   1       0.498  -0.083  -1.645  0.00  0.00     0.054 A 
ATOM      3  C3  IND d   1       1.139  -1.111  -1.045  0.00  0.00    -0.031 A 
ATOM      4  C4  IND d   1       0.610  -2.294   1.180  0.00  0.00     0.051 A 
ATOM      5  C5  IND d   1      -0.212  -2.221   2.270  0.00  0.00    -0.031 A 
ATOM      6  C6  IND d   1      -1.203  -1.267   2.373  0.00  0.00     0.015 A 
ATOM      7  C7  IND d   1      -1.418  -0.353   1.381  0.00  0.00    -0.016 A 
ATOM      8  C8  IND d   1      -0.581  -0.419   0.276  0.00  0.00    -0.047 A 
ATOM      9  C9  IND d   1       0.454  -1.358   0.185  0.00  0.00    -0.096 A 
ATOM     10  HN1 IND d   1      -1.054   1.016  -1.042  0.00  0.00     0.298 HD
ENDROOT
TORSDOF 0
ENDMDL
