MODEL 1
REMARK minimizedAffinity 6.09942389
REMARK minimizedRMSD -1
REMARK  0 active torsions:
REMARK  status: ('A' for Active; 'I' for Inactive)
ROOT
ATOM      1  N1  IND d   1      -1.034  -1.041  -0.995  0.00  0.00    -0.196 N 
ATOM      2  C2  IND d   1       0.314  -0.824  -0.930  0.00  0.00     0.054 A 
ATOM      3  C3  IND d   1       0.667  -0.423   0.311  0.00  0.00    -0.031 A 
ATOM      4  C4  IND d   1      -0.788  -0.154   2.418  0.00  0.00     0.051 A 
ATOM      5  C5  IND d   1      -2.085  -0.203   2.845  0.00  0.00    -0.031 A 
ATOM      6  C6  IND d   1      -3.119  -0.543   1.997  0.00  0.00     0.015 A 
ATOM      7  C7  IND d   1      -2.892  -0.860   0.688  0.00  0.00    -0.016 A 
ATOM      8  C8  IND d   1      -1.576  -0.804   0.249  0.00  0.00    -0.047 A 
ATOM      9  C9  IND d   1      -0.528  -0.418   1.094  0.00  0.00    -0.096 A 
ATOM     10  HN1 IND d   1      -1.470  -1.285  -1.695  0.00  0.00     0.298 HD
ENDROOT
TORSDOF 0
ENDMDL
