MODEL 1
REMARK minimizedAffinity 2.69801593
REMARK minimizedRMSD -1
REMARK  0 active torsions:
REMARK  status: ('A' for Active; 'I' for Inactive)
ROOT
ATOM      1  N1  IND d   1       0.674  -0.824   0.552  0.00  0.00    -0.196 N 
ATOM      2  C2  IND d   1       0.314  -0.292  -0.655  0.00  0.00     0.054 A 
ATOM      3  C3  IND d   1      -0.966   0.139  -0.617  0.00  0.00    -0.031 A 
ATOM      4  C4  IND d   1      -2.625   0.163   1.352  0.00  0.00     0.051 A 
ATOM      5  C5  IND d   1      -2.766  -0.249   2.647  0.00  0.00    -0.031 A 
ATOM      6  C6  IND d   1      -1.746  -0.885   3.324  0.00  0.00     0.015 A 
ATOM      7  C7  IND d   1      -0.538  -1.123   2.733  0.00  0.00    -0.016 A 
ATOM      8  C8  IND d   1      -0.394  -0.712   1.416  0.00  0.00    -0.047 A 
ATOM      9  C9  IND d   1      -1.440  -0.104   0.709  0.00  0.00    -0.096 A 
ATOM     10  HN1 IND d   1       1.438  -1.171   0.740  0.00  0.00     0.298 HD
ENDROOT
TORSDOF 0
ENDMDL
