MODEL 1
REMARK minimizedAffinity 10.4295235
REMARK minimizedRMSD -1
REMARK  1 active torsions:
REMARK  status: ('A' for Active; 'I' for Inactive)
REMARK    1  A    between atoms: C1_2  and  C2_3 
ROOT
ATOM      1  C2  UNL d   1      -2.012  -2.425  -2.253  0.00  0.00    -0.073 A 
ATOM      2  C3  UNL d   1      -2.580  -1.318  -1.611  0.00  0.00    -0.002 A 
ATOM      3  C4  UNL d   1      -2.101  -0.902  -0.368  0.00  0.00     0.004 A 
ATOM      4  C5  UNL d   1      -1.047  -1.582   0.242  0.00  0.00    -0.004 A 
ATOM      5  C6  UNL d   1      -0.459  -2.683  -0.389  0.00  0.00    -0.075 A 
ATOM      6  C7  UNL d   1       0.674  -3.427   0.255  0.00  0.00     0.076 C 
ATOM      7  C8  UNL d   1      -0.947  -3.097  -1.636  0.00  0.00     0.001 A 
ENDROOT
BRANCH   1   8
ATOM      8  C1  UNL d   1      -2.521  -2.874  -3.598  0.00  0.00     0.053 C 
ATOM      9  C   UNL d   1      -1.841  -2.137  -4.740  0.00  0.00     0.018 C 
ENDBRANCH   1   8
TORSDOF 1
ENDMDL
