MODEL 1
REMARK minimizedAffinity 4.91901445
REMARK minimizedRMSD -1
REMARK  1 active torsions:
REMARK  status: ('A' for Active; 'I' for Inactive)
REMARK    1  A    between atoms: C1_2  and  C2_3 
ROOT
ATOM      1  C2  UNL d   1       3.145   5.338  -5.257  0.00  0.00    -0.073 A 
ATOM      2  C3  UNL d   1       1.901   5.161  -5.872  0.00  0.00    -0.002 A 
ATOM      3  C4  UNL d   1       0.852   4.555  -5.179  0.00  0.00     0.004 A 
ATOM      4  C5  UNL d   1       1.034   4.128  -3.864  0.00  0.00    -0.004 A 
ATOM      5  C6  UNL d   1       2.267   4.307  -3.228  0.00  0.00    -0.075 A 
ATOM      6  C7  UNL d   1       2.480   3.851  -1.815  0.00  0.00     0.076 C 
ATOM      7  C8  UNL d   1       3.316   4.914  -3.932  0.00  0.00     0.001 A 
ENDROOT
BRANCH   1   8
ATOM      8  C1  UNL d   1       4.279   5.998  -6.000  0.00  0.00     0.053 C 
ATOM      9  C   UNL d   1       5.546   5.158  -5.969  0.00  0.00     0.018 C 
ENDBRANCH   1   8
TORSDOF 1
ENDMDL
