MODEL 1
REMARK minimizedAffinity 6.95270157
REMARK minimizedRMSD -1
REMARK  1 active torsions:
REMARK  status: ('A' for Active; 'I' for Inactive)
REMARK    1  A    between atoms: C1_2  and  C2_3 
ROOT
ATOM      1  C2  UNL d   1      -0.900  -2.598  -2.723  0.00  0.00    -0.073 A 
ATOM      2  C3  UNL d   1      -0.408  -2.337  -4.007  0.00  0.00    -0.002 A 
ATOM      3  C4  UNL d   1      -1.116  -2.760  -5.132  0.00  0.00     0.004 A 
ATOM      4  C5  UNL d   1      -2.325  -3.441  -4.986  0.00  0.00    -0.004 A 
ATOM      5  C6  UNL d   1      -2.838  -3.701  -3.712  0.00  0.00    -0.075 A 
ATOM      6  C7  UNL d   1      -4.136  -4.434  -3.537  0.00  0.00     0.076 C 
ATOM      7  C8  UNL d   1      -2.120  -3.275  -2.586  0.00  0.00     0.001 A 
ENDROOT
BRANCH   1   8
ATOM      8  C1  UNL d   1      -0.142  -2.137  -1.505  0.00  0.00     0.053 C 
ATOM      9  C   UNL d   1      -1.024  -1.353  -0.547  0.00  0.00     0.018 C 
ENDBRANCH   1   8
TORSDOF 1
ENDMDL
