MODEL 1
REMARK minimizedAffinity 6.48807764
REMARK minimizedRMSD -1
REMARK  1 active torsions:
REMARK  status: ('A' for Active; 'I' for Inactive)
REMARK    1  A    between atoms: C1_2  and  C2_3 
ROOT
ATOM      1  C2  UNL d   1       1.006  -0.319   3.582  0.00  0.00    -0.073 A 
ATOM      2  C3  UNL d   1       1.898  -0.732   4.577  0.00  0.00    -0.002 A 
ATOM      3  C4  UNL d   1       3.251  -0.906   4.283  0.00  0.00     0.004 A 
ATOM      4  C5  UNL d   1       3.726  -0.662   2.994  0.00  0.00    -0.004 A 
ATOM      5  C6  UNL d   1       2.852  -0.237   1.989  0.00  0.00    -0.075 A 
ATOM      6  C7  UNL d   1       3.346   0.027   0.597  0.00  0.00     0.076 C 
ATOM      7  C8  UNL d   1       1.494  -0.068   2.291  0.00  0.00     0.001 A 
ENDROOT
BRANCH   1   8
ATOM      8  C1  UNL d   1      -0.455  -0.124   3.896  0.00  0.00     0.053 C 
ATOM      9  C   UNL d   1      -1.341  -1.071   3.102  0.00  0.00     0.018 C 
ENDBRANCH   1   8
TORSDOF 1
ENDMDL
