MODEL 1
REMARK minimizedAffinity 10.6504145
REMARK minimizedRMSD -1
REMARK  1 active torsions:
REMARK  status: ('A' for Active; 'I' for Inactive)
REMARK    1  A    between atoms: C1_2  and  C2_3 
ROOT
ATOM      1  C2  UNL d   1       3.799   2.494  -2.099  0.00  0.00    -0.073 A 
ATOM      2  C3  UNL d   1       4.905   1.774  -2.562  0.00  0.00    -0.002 A 
ATOM      3  C4  UNL d   1       5.395   0.688  -1.835  0.00  0.00     0.004 A 
ATOM      4  C5  UNL d   1       4.780   0.308  -0.642  0.00  0.00    -0.004 A 
ATOM      5  C6  UNL d   1       3.666   1.008  -0.168  0.00  0.00    -0.075 A 
ATOM      6  C7  UNL d   1       2.994   0.614   1.114  0.00  0.00     0.076 C 
ATOM      7  C8  UNL d   1       3.182   2.099  -0.903  0.00  0.00     0.001 A 
ENDROOT
BRANCH   1   8
ATOM      8  C1  UNL d   1       3.263   3.663  -2.884  0.00  0.00     0.053 C 
ATOM      9  C   UNL d   1       2.294   3.224  -3.970  0.00  0.00     0.018 C 
ENDBRANCH   1   8
TORSDOF 1
ENDMDL
