MODEL 1
REMARK minimizedAffinity 22.3947105
REMARK minimizedRMSD -1
REMARK  1 active torsions:
REMARK  status: ('A' for Active; 'I' for Inactive)
REMARK    1  A    between atoms: C1_2  and  C2_3 
ROOT
ATOM      1  C2  UNL d   1      -3.500  -1.348   4.448  0.00  0.00    -0.073 A 
ATOM      2  C3  UNL d   1      -2.466  -0.751   3.718  0.00  0.00    -0.002 A 
ATOM      3  C4  UNL d   1      -1.568  -1.538   2.996  0.00  0.00     0.004 A 
ATOM      4  C5  UNL d   1      -1.697  -2.927   2.991  0.00  0.00    -0.004 A 
ATOM      5  C6  UNL d   1      -2.731  -3.541   3.705  0.00  0.00    -0.075 A 
ATOM      6  C7  UNL d   1      -2.883  -5.034   3.712  0.00  0.00     0.076 C 
ATOM      7  C8  UNL d   1      -3.628  -2.744   4.429  0.00  0.00     0.001 A 
ENDROOT
BRANCH   1   8
ATOM      8  C1  UNL d   1      -4.477  -0.502   5.223  0.00  0.00     0.053 C 
ATOM      9  C   UNL d   1      -5.475  -1.349   5.997  0.00  0.00     0.018 C 
ENDBRANCH   1   8
TORSDOF 1
ENDMDL
