MODEL 1
REMARK minimizedAffinity 10.6961164
REMARK minimizedRMSD -1
REMARK  1 active torsions:
REMARK  status: ('A' for Active; 'I' for Inactive)
REMARK    1  A    between atoms: C1_2  and  C2_3 
ROOT
ATOM      1  C2  UNL d   1      -0.552  -1.636   0.978  0.00  0.00    -0.073 A 
ATOM      2  C3  UNL d   1      -1.460  -1.807   2.029  0.00  0.00    -0.002 A 
ATOM      3  C4  UNL d   1      -1.427  -0.956   3.135  0.00  0.00     0.004 A 
ATOM      4  C5  UNL d   1      -0.491   0.076   3.198  0.00  0.00    -0.004 A 
ATOM      5  C6  UNL d   1       0.418   0.270   2.153  0.00  0.00    -0.075 A 
ATOM      6  C7  UNL d   1       1.432   1.374   2.207  0.00  0.00     0.076 C 
ATOM      7  C8  UNL d   1       0.380  -0.590   1.047  0.00  0.00     0.001 A 
ENDROOT
BRANCH   1   8
ATOM      8  C1  UNL d   1      -0.588  -2.548  -0.221  0.00  0.00     0.053 C 
ATOM      9  C   UNL d   1      -1.963  -2.581  -0.870  0.00  0.00     0.018 C 
ENDBRANCH   1   8
TORSDOF 1
ENDMDL
