MODEL 1
REMARK minimizedAffinity 1.41395819
REMARK minimizedRMSD -1
REMARK  1 active torsions:
REMARK  status: ('A' for Active; 'I' for Inactive)
REMARK    1  A    between atoms: C1_2  and  C2_3 
ROOT
ATOM      1  C2  UNL d   1       3.815   4.689  -5.018  0.00  0.00    -0.073 A 
ATOM      2  C3  UNL d   1       3.888   3.692  -5.997  0.00  0.00    -0.002 A 
ATOM      3  C4  UNL d   1       4.518   2.478  -5.723  0.00  0.00     0.004 A 
ATOM      4  C5  UNL d   1       5.076   2.245  -4.465  0.00  0.00    -0.004 A 
ATOM      5  C6  UNL d   1       5.003   3.224  -3.469  0.00  0.00    -0.075 A 
ATOM      6  C7  UNL d   1       5.599   2.990  -2.112  0.00  0.00     0.076 C 
ATOM      7  C8  UNL d   1       4.370   4.442  -3.754  0.00  0.00     0.001 A 
ENDROOT
BRANCH   1   8
ATOM      8  C1  UNL d   1       3.129   5.999  -5.308  0.00  0.00     0.053 C 
ATOM      9  C   UNL d   1       1.789   5.800  -5.998  0.00  0.00     0.018 C 
ENDBRANCH   1   8
TORSDOF 1
ENDMDL
