MODEL 1
REMARK minimizedAffinity 11.6280861
REMARK minimizedRMSD -1
REMARK  0 active torsions:
REMARK  status: ('A' for Active; 'I' for Inactive)
ROOT
ATOM      1  C4' PXY d   1      -0.322  -5.989   0.378  0.00  0.00     0.077 C 
ATOM      2  C1' PXY d   1       4.811  -3.381  -0.130  0.00  0.00     0.077 C 
ATOM      3  C1  PXY d   1       3.460  -4.054   0.009  0.00  0.00    -0.082 A 
ATOM      4  C2  PXY d   1       3.391  -5.373   0.081  0.00  0.00     0.003 A 
ATOM      5  C3  PXY d   1       2.175  -6.000   0.174  0.00  0.00     0.003 A 
ATOM      6  C4  PXY d   1       1.021  -5.266   0.247  0.00  0.00    -0.082 A 
ATOM      7  C5  PXY d   1       1.084  -3.919   0.185  0.00  0.00     0.003 A 
ATOM      8  C6  PXY d   1       2.325  -3.304   0.049  0.00  0.00     0.003 A 
ENDROOT
TORSDOF 0
ENDMDL
