MODEL 1
REMARK minimizedAffinity 6.27245855
REMARK minimizedRMSD -1
REMARK  0 active torsions:
REMARK  status: ('A' for Active; 'I' for Inactive)
ROOT
ATOM      1  C4' PXY d   1       1.254  -0.124   2.058  0.00  0.00     0.077 C 
ATOM      2  C1' PXY d   1       2.618  -5.487   0.386  0.00  0.00     0.077 C 
ATOM      3  C1  PXY d   1       2.252  -4.080   0.814  0.00  0.00    -0.082 A 
ATOM      4  C2  PXY d   1       3.090  -3.387   1.569  0.00  0.00     0.003 A 
ATOM      5  C3  PXY d   1       2.761  -2.125   1.992  0.00  0.00     0.003 A 
ATOM      6  C4  PXY d   1       1.586  -1.545   1.594  0.00  0.00    -0.082 A 
ATOM      7  C5  PXY d   1       0.731  -2.241   0.815  0.00  0.00     0.003 A 
ATOM      8  C6  PXY d   1       1.065  -3.536   0.430  0.00  0.00     0.003 A 
ENDROOT
TORSDOF 0
ENDMDL
