MODEL 1
REMARK minimizedAffinity 4.61283731
REMARK minimizedRMSD -1
REMARK  0 active torsions:
REMARK  status: ('A' for Active; 'I' for Inactive)
ROOT
ATOM      1  C4' PXY d   1      -3.042   4.656  -3.897  0.00  0.00     0.077 C 
ATOM      2  C1' PXY d   1       2.303   5.789  -5.785  0.00  0.00     0.077 C 
ATOM      3  C1  PXY d   1       0.897   5.502  -5.296  0.00  0.00    -0.082 A 
ATOM      4  C2  PXY d   1       0.719   4.801  -4.188  0.00  0.00     0.003 A 
ATOM      5  C3  PXY d   1      -0.546   4.505  -3.750  0.00  0.00     0.003 A 
ATOM      6  C4  PXY d   1      -1.640   4.978  -4.423  0.00  0.00    -0.082 A 
ATOM      7  C5  PXY d   1      -1.468   5.703  -5.548  0.00  0.00     0.003 A 
ATOM      8  C6  PXY d   1      -0.176   5.957  -6.000  0.00  0.00     0.003 A 
ENDROOT
TORSDOF 0
ENDMDL
