MODEL 1
REMARK minimizedAffinity 3.08309245
REMARK minimizedRMSD -1
REMARK  0 active torsions:
REMARK  status: ('A' for Active; 'I' for Inactive)
ROOT
ATOM      1  C4' PXY d   1       4.437  -5.576   0.479  0.00  0.00     0.077 C 
ATOM      2  C1' PXY d   1       1.129  -0.989   1.677  0.00  0.00     0.077 C 
ATOM      3  C1  PXY d   1       1.986  -2.199   1.361  0.00  0.00    -0.082 A 
ATOM      4  C2  PXY d   1       3.227  -2.259   1.816  0.00  0.00     0.003 A 
ATOM      5  C3  PXY d   1       4.026  -3.331   1.513  0.00  0.00     0.003 A 
ATOM      6  C4  PXY d   1       3.533  -4.378   0.781  0.00  0.00    -0.082 A 
ATOM      7  C5  PXY d   1       2.264  -4.330   0.323  0.00  0.00     0.003 A 
ATOM      8  C6  PXY d   1       1.483  -3.214   0.607  0.00  0.00     0.003 A 
ENDROOT
TORSDOF 0
ENDMDL
