MODEL 1
REMARK minimizedAffinity 4.48046684
REMARK minimizedRMSD -1
REMARK  0 active torsions:
REMARK  status: ('A' for Active; 'I' for Inactive)
ROOT
ATOM      1  C4' PXY d   1       1.525  -0.643   1.489  0.00  0.00     0.077 C 
ATOM      2  C1' PXY d   1       2.956  -5.999  -0.148  0.00  0.00     0.077 C 
ATOM      3  C1  PXY d   1       2.589  -4.595   0.292  0.00  0.00    -0.082 A 
ATOM      4  C2  PXY d   1       1.423  -4.082  -0.066  0.00  0.00     0.003 A 
ATOM      5  C3  PXY d   1       1.088  -2.802   0.296  0.00  0.00     0.003 A 
ATOM      6  C4  PXY d   1       1.933  -2.060   1.076  0.00  0.00    -0.082 A 
ATOM      7  C5  PXY d   1       3.120  -2.580   1.454  0.00  0.00     0.003 A 
ATOM      8  C6  PXY d   1       3.458  -3.866   1.042  0.00  0.00     0.003 A 
ENDROOT
TORSDOF 0
ENDMDL
