MODEL 1
REMARK minimizedAffinity 17.999836
REMARK minimizedRMSD -1
REMARK  0 active torsions:
REMARK  status: ('A' for Active; 'I' for Inactive)
ROOT
ATOM      1  C4' PXY d   1      -0.000   3.424  -4.159  0.00  0.00     0.077 C 
ATOM      2  C1' PXY d   1      -4.060   0.528  -1.237  0.00  0.00     0.077 C 
ATOM      3  C1  PXY d   1      -3.005   1.292  -2.011  0.00  0.00    -0.082 A 
ATOM      4  C2  PXY d   1      -1.747   0.883  -1.980  0.00  0.00     0.003 A 
ATOM      5  C3  PXY d   1      -0.774   1.581  -2.649  0.00  0.00     0.003 A 
ATOM      6  C4  PXY d   1      -1.101   2.678  -3.400  0.00  0.00    -0.082 A 
ATOM      7  C5  PXY d   1      -2.384   3.095  -3.445  0.00  0.00     0.003 A 
ATOM      8  C6  PXY d   1      -3.350   2.397  -2.726  0.00  0.00     0.003 A 
ENDROOT
TORSDOF 0
ENDMDL
