MODEL 1
REMARK minimizedAffinity 6.72019291
REMARK minimizedRMSD -1
REMARK  0 active torsions:
REMARK  status: ('A' for Active; 'I' for Inactive)
ROOT
ATOM      1  C4' PXY d   1      -2.039   3.183  -3.716  0.00  0.00     0.077 C 
ATOM      2  C1' PXY d   1      -3.590  -1.588  -0.843  0.00  0.00     0.077 C 
ATOM      3  C1  PXY d   1      -3.195  -0.332  -1.595  0.00  0.00    -0.082 A 
ATOM      4  C2  PXY d   1      -2.153  -0.358  -2.410  0.00  0.00     0.003 A 
ATOM      5  C3  PXY d   1      -1.763   0.776  -3.074  0.00  0.00     0.003 A 
ATOM      6  C4  PXY d   1      -2.479   1.936  -2.943  0.00  0.00    -0.082 A 
ATOM      7  C5  PXY d   1      -3.550   1.968  -2.121  0.00  0.00     0.003 A 
ATOM      8  C6  PXY d   1      -3.905   0.817  -1.425  0.00  0.00     0.003 A 
ENDROOT
TORSDOF 0
ENDMDL
