MODEL 1
REMARK minimizedAffinity 6.43664885
REMARK minimizedRMSD -1
REMARK  0 active torsions:
REMARK  status: ('A' for Active; 'I' for Inactive)
ROOT
ATOM      1  C4' PXY d   1       1.104  -0.116   3.779  0.00  0.00     0.077 C 
ATOM      2  C1' PXY d   1       2.124  -3.409  -0.862  0.00  0.00     0.077 C 
ATOM      3  C1  PXY d   1       1.847  -2.539   0.349  0.00  0.00    -0.082 A 
ATOM      4  C2  PXY d   1       2.803  -2.337   1.241  0.00  0.00     0.003 A 
ATOM      5  C3  PXY d   1       2.560  -1.579   2.358  0.00  0.00     0.003 A 
ATOM      6  C4  PXY d   1       1.342  -0.979   2.536  0.00  0.00    -0.082 A 
ATOM      7  C5  PXY d   1       0.365  -1.173   1.625  0.00  0.00     0.003 A 
ATOM      8  C6  PXY d   1       0.619  -1.979   0.519  0.00  0.00     0.003 A 
ENDROOT
TORSDOF 0
ENDMDL
