MODEL 1
REMARK minimizedAffinity 5.09442425
REMARK minimizedRMSD -1
REMARK  0 active torsions:
REMARK  status: ('A' for Active; 'I' for Inactive)
ROOT
ATOM      1  C4' PXY d   1       1.016  -1.736   1.193  0.00  0.00     0.077 C 
ATOM      2  C1' PXY d   1       5.581  -1.913   4.735  0.00  0.00     0.077 C 
ATOM      3  C1  PXY d   1       4.376  -1.864   3.817  0.00  0.00    -0.082 A 
ATOM      4  C2  PXY d   1       4.404  -2.517   2.666  0.00  0.00     0.003 A 
ATOM      5  C3  PXY d   1       3.335  -2.457   1.809  0.00  0.00     0.003 A 
ATOM      6  C4  PXY d   1       2.206  -1.765   2.156  0.00  0.00    -0.082 A 
ATOM      7  C5  PXY d   1       2.166  -1.105   3.333  0.00  0.00     0.003 A 
ATOM      8  C6  PXY d   1       3.277  -1.144   4.171  0.00  0.00     0.003 A 
ENDROOT
TORSDOF 0
ENDMDL
