MODEL 1
REMARK minimizedAffinity 10.3595924
REMARK minimizedRMSD -1
REMARK  0 active torsions:
REMARK  status: ('A' for Active; 'I' for Inactive)
ROOT
ATOM      1  C4' PXY d   1      -4.941   1.334   0.227  0.00  0.00     0.077 C 
ATOM      2  C1' PXY d   1      -4.741   1.649   5.996  0.00  0.00     0.077 C 
ATOM      3  C1  PXY d   1      -4.807   1.566   4.484  0.00  0.00    -0.082 A 
ATOM      4  C2  PXY d   1      -3.763   1.113   3.808  0.00  0.00     0.003 A 
ATOM      5  C3  PXY d   1      -3.794   1.061   2.438  0.00  0.00     0.003 A 
ATOM      6  C4  PXY d   1      -4.923   1.427   1.756  0.00  0.00    -0.082 A 
ATOM      7  C5  PXY d   1      -5.996   1.880   2.439  0.00  0.00     0.003 A 
ATOM      8  C6  PXY d   1      -5.930   1.964   3.827  0.00  0.00     0.003 A 
ENDROOT
TORSDOF 0
ENDMDL
