MODEL 1
REMARK minimizedAffinity 13.2545958
REMARK minimizedRMSD -1
REMARK  0 active torsions:
REMARK  status: ('A' for Active; 'I' for Inactive)
ROOT
ATOM      1  C4' PXY d   1      -5.082   5.964   5.999  0.00  0.00     0.077 C 
ATOM      2  C1' PXY d   1      -2.432   1.055   4.485  0.00  0.00     0.077 C 
ATOM      3  C1  PXY d   1      -3.138   2.336   4.884  0.00  0.00    -0.082 A 
ATOM      4  C2  PXY d   1      -2.645   3.502   4.499  0.00  0.00     0.003 A 
ATOM      5  C3  PXY d   1      -3.253   4.671   4.877  0.00  0.00     0.003 A 
ATOM      6  C4  PXY d   1      -4.408   4.645   5.612  0.00  0.00    -0.082 A 
ATOM      7  C5  PXY d   1      -4.923   3.459   6.000  0.00  0.00     0.003 A 
ATOM      8  C6  PXY d   1      -4.268   2.285   5.640  0.00  0.00     0.003 A 
ENDROOT
TORSDOF 0
ENDMDL
