MODEL 1
REMARK minimizedAffinity 13.7629004
REMARK minimizedRMSD -1
REMARK  0 active torsions:
REMARK  status: ('A' for Active; 'I' for Inactive)
ROOT
ATOM      1  C4' PXY d   1      -4.971   3.649  -4.569  0.00  0.00     0.077 C 
ATOM      2  C1' PXY d   1      -0.208   1.285  -2.304  0.00  0.00     0.077 C 
ATOM      3  C1  PXY d   1      -1.464   1.898  -2.890  0.00  0.00    -0.082 A 
ATOM      4  C2  PXY d   1      -1.437   2.404  -4.112  0.00  0.00     0.003 A 
ATOM      5  C3  PXY d   1      -2.555   2.990  -4.645  0.00  0.00     0.003 A 
ATOM      6  C4  PXY d   1      -3.729   3.012  -3.941  0.00  0.00    -0.082 A 
ATOM      7  C5  PXY d   1      -3.768   2.488  -2.697  0.00  0.00     0.003 A 
ATOM      8  C6  PXY d   1      -2.611   1.934  -2.158  0.00  0.00     0.003 A 
ENDROOT
TORSDOF 0
ENDMDL
