MODEL 1
REMARK minimizedAffinity 7.34351587
REMARK minimizedRMSD -1
REMARK  0 active torsions:
REMARK  status: ('A' for Active; 'I' for Inactive)
ROOT
ATOM      1  C4' PXY d   1      -0.920  -0.445   3.400  0.00  0.00     0.077 C 
ATOM      2  C1' PXY d   1       2.772  -3.107  -0.164  0.00  0.00     0.077 C 
ATOM      3  C1  PXY d   1       1.796  -2.407   0.761  0.00  0.00    -0.082 A 
ATOM      4  C2  PXY d   1       2.241  -1.820   1.860  0.00  0.00     0.003 A 
ATOM      5  C3  PXY d   1       1.368  -1.211   2.724  0.00  0.00     0.003 A 
ATOM      6  C4  PXY d   1       0.031  -1.155   2.432  0.00  0.00    -0.082 A 
ATOM      7  C5  PXY d   1      -0.430  -1.742   1.308  0.00  0.00     0.003 A 
ATOM      8  C6  PXY d   1       0.468  -2.391   0.465  0.00  0.00     0.003 A 
ENDROOT
TORSDOF 0
ENDMDL
