MODEL 1
REMARK minimizedAffinity 1.88881612
REMARK minimizedRMSD -1
REMARK  0 active torsions:
REMARK  status: ('A' for Active; 'I' for Inactive)
ROOT
ATOM      1  O1  BZF d   1       0.894  -1.855   4.987  0.00  0.00    -0.204 OA
ATOM      2  C2  BZF d   1       1.446  -2.616   6.000  0.00  0.00     0.174 A 
ATOM      3  C3  BZF d   1       2.015  -3.733   5.503  0.00  0.00    -0.012 A 
ATOM      4  C3A BZF d   1       1.886  -3.622   4.082  0.00  0.00    -0.107 A 
ATOM      5  C4  BZF d   1       2.272  -4.414   3.040  0.00  0.00     0.055 A 
ATOM      6  C5  BZF d   1       1.928  -4.055   1.775  0.00  0.00    -0.016 A 
ATOM      7  C6  BZF d   1       1.196  -2.915   1.517  0.00  0.00     0.022 A 
ATOM      8  C7  BZF d   1       0.795  -2.095   2.519  0.00  0.00     0.029 A 
ATOM      9  C7A BZF d   1       1.169  -2.437   3.795  0.00  0.00     0.058 A 
ENDROOT
TORSDOF 0
ENDMDL
