MODEL 1
REMARK minimizedAffinity 11.4422874
REMARK minimizedRMSD -1
REMARK  0 active torsions:
REMARK  status: ('A' for Active; 'I' for Inactive)
ROOT
ATOM      1  O1  BZF d   1      -5.796  -5.020  -5.952  0.00  0.00    -0.204 OA
ATOM      2  C2  BZF d   1      -5.819  -5.989  -4.967  0.00  0.00     0.174 A 
ATOM      3  C3  BZF d   1      -5.830  -5.426  -3.742  0.00  0.00    -0.012 A 
ATOM      4  C3A BZF d   1      -5.907  -4.017  -3.977  0.00  0.00    -0.107 A 
ATOM      5  C4  BZF d   1      -5.967  -2.929  -3.152  0.00  0.00     0.055 A 
ATOM      6  C5  BZF d   1      -5.960  -1.685  -3.698  0.00  0.00    -0.016 A 
ATOM      7  C6  BZF d   1      -5.889  -1.491  -5.062  0.00  0.00     0.022 A 
ATOM      8  C7  BZF d   1      -5.834  -2.539  -5.921  0.00  0.00     0.029 A 
ATOM      9  C7A BZF d   1      -5.874  -3.798  -5.373  0.00  0.00     0.058 A 
ENDROOT
TORSDOF 0
ENDMDL
