MODEL 1
REMARK minimizedAffinity 9.56615639
REMARK minimizedRMSD -1
REMARK  0 active torsions:
REMARK  status: ('A' for Active; 'I' for Inactive)
ROOT
ATOM      1  O1  BZF d   1      -3.820   2.278  -1.381  0.00  0.00    -0.204 OA
ATOM      2  C2  BZF d   1      -3.314   1.027  -1.674  0.00  0.00     0.174 A 
ATOM      3  C3  BZF d   1      -3.133   0.883  -3.003  0.00  0.00    -0.012 A 
ATOM      4  C3A BZF d   1      -3.466   2.155  -3.567  0.00  0.00    -0.107 A 
ATOM      5  C4  BZF d   1      -3.470   2.644  -4.842  0.00  0.00     0.055 A 
ATOM      6  C5  BZF d   1      -3.919   3.908  -5.064  0.00  0.00    -0.016 A 
ATOM      7  C6  BZF d   1      -4.376   4.706  -4.036  0.00  0.00     0.022 A 
ATOM      8  C7  BZF d   1      -4.386   4.267  -2.754  0.00  0.00     0.029 A 
ATOM      9  C7A BZF d   1      -3.902   3.002  -2.523  0.00  0.00     0.058 A 
ENDROOT
TORSDOF 0
ENDMDL
