MODEL 1
REMARK minimizedAffinity 4.56104231
REMARK minimizedRMSD -1
REMARK  0 active torsions:
REMARK  status: ('A' for Active; 'I' for Inactive)
ROOT
ATOM      1  O1  BZF d   1       0.391  -1.553   5.147  0.00  0.00    -0.204 OA
ATOM      2  C2  BZF d   1       0.627  -2.615   5.999  0.00  0.00     0.174 A 
ATOM      3  C3  BZF d   1       1.266  -3.612   5.355  0.00  0.00    -0.012 A 
ATOM      4  C3A BZF d   1       1.523  -3.108   4.041  0.00  0.00    -0.107 A 
ATOM      5  C4  BZF d   1       2.144  -3.627   2.941  0.00  0.00     0.055 A 
ATOM      6  C5  BZF d   1       2.162  -2.904   1.790  0.00  0.00    -0.016 A 
ATOM      7  C6  BZF d   1       1.567  -1.663   1.703  0.00  0.00     0.022 A 
ATOM      8  C7  BZF d   1       0.944  -1.104   2.769  0.00  0.00     0.029 A 
ATOM      9  C7A BZF d   1       0.952  -1.818   3.942  0.00  0.00     0.058 A 
ENDROOT
TORSDOF 0
ENDMDL
