MODEL 1
REMARK minimizedAffinity 10.7351503
REMARK minimizedRMSD -1
REMARK  0 active torsions:
REMARK  status: ('A' for Active; 'I' for Inactive)
ROOT
ATOM      1  O1  BZF d   1       0.747  -1.567   5.066  0.00  0.00    -0.204 OA
ATOM      2  C2  BZF d   1       1.147  -2.505   5.998  0.00  0.00     0.174 A 
ATOM      3  C3  BZF d   1       1.857  -3.490   5.412  0.00  0.00    -0.012 A 
ATOM      4  C3A BZF d   1       1.983  -3.100   4.042  0.00  0.00    -0.107 A 
ATOM      5  C4  BZF d   1       2.595  -3.661   2.958  0.00  0.00     0.055 A 
ATOM      6  C5  BZF d   1       2.469  -3.062   1.745  0.00  0.00    -0.016 A 
ATOM      7  C6  BZF d   1       1.735  -1.906   1.578  0.00  0.00     0.022 A 
ATOM      8  C7  BZF d   1       1.114  -1.309   2.625  0.00  0.00     0.029 A 
ATOM      9  C7A BZF d   1       1.267  -1.894   3.858  0.00  0.00     0.058 A 
ENDROOT
TORSDOF 0
ENDMDL
