MODEL 1
REMARK minimizedAffinity 9.16792583
REMARK minimizedRMSD -1
REMARK  0 active torsions:
REMARK  status: ('A' for Active; 'I' for Inactive)
ROOT
ATOM      1  O1  BZF d   1       2.447  -3.115   2.215  0.00  0.00    -0.204 OA
ATOM      2  C2  BZF d   1       1.897  -2.027   1.566  0.00  0.00     0.174 A 
ATOM      3  C3  BZF d   1       1.195  -1.262   2.426  0.00  0.00    -0.012 A 
ATOM      4  C3A BZF d   1       1.390  -1.862   3.710  0.00  0.00    -0.107 A 
ATOM      5  C4  BZF d   1       0.957  -1.551   4.967  0.00  0.00     0.055 A 
ATOM      6  C5  BZF d   1       1.265  -2.383   5.996  0.00  0.00    -0.016 A 
ATOM      7  C6  BZF d   1       1.998  -3.536   5.803  0.00  0.00     0.022 A 
ATOM      8  C7  BZF d   1       2.453  -3.884   4.575  0.00  0.00     0.029 A 
ATOM      9  C7A BZF d   1       2.172  -3.028   3.539  0.00  0.00     0.058 A 
ENDROOT
TORSDOF 0
ENDMDL
