MODEL 1
REMARK minimizedAffinity 16.7986584
REMARK minimizedRMSD -1
REMARK  0 active torsions:
REMARK  status: ('A' for Active; 'I' for Inactive)
ROOT
ATOM      1  O1  BZF d   1      -3.507   5.006  -2.403  0.00  0.00    -0.204 OA
ATOM      2  C2  BZF d   1      -3.415   6.000  -3.358  0.00  0.00     0.174 A 
ATOM      3  C3  BZF d   1      -3.475   5.477  -4.600  0.00  0.00    -0.012 A 
ATOM      4  C3A BZF d   1      -3.705   4.078  -4.408  0.00  0.00    -0.107 A 
ATOM      5  C4  BZF d   1      -3.872   3.028  -5.265  0.00  0.00     0.055 A 
ATOM      6  C5  BZF d   1      -4.005   1.775  -4.757  0.00  0.00    -0.016 A 
ATOM      7  C6  BZF d   1      -3.970   1.535  -3.399  0.00  0.00     0.022 A 
ATOM      8  C7  BZF d   1      -3.811   2.545  -2.509  0.00  0.00     0.029 A 
ATOM      9  C7A BZF d   1      -3.710   3.816  -3.019  0.00  0.00     0.058 A 
ENDROOT
TORSDOF 0
ENDMDL
