MODEL 1
REMARK minimizedAffinity 10.4354467
REMARK minimizedRMSD -1
REMARK  0 active torsions:
REMARK  status: ('A' for Active; 'I' for Inactive)
ROOT
ATOM      1  O1  BZF d   1      -2.034  -3.081   1.023  0.00  0.00    -0.204 OA
ATOM      2  C2  BZF d   1      -2.307  -4.245   0.331  0.00  0.00     0.174 A 
ATOM      3  C3  BZF d   1      -1.205  -5.017   0.239  0.00  0.00    -0.012 A 
ATOM      4  C3A BZF d   1      -0.202  -4.332   0.996  0.00  0.00    -0.107 A 
ATOM      5  C4  BZF d   1       1.103  -4.607   1.291  0.00  0.00     0.055 A 
ATOM      6  C5  BZF d   1       1.827  -3.696   1.993  0.00  0.00    -0.016 A 
ATOM      7  C6  BZF d   1       1.281  -2.500   2.410  0.00  0.00     0.022 A 
ATOM      8  C7  BZF d   1      -0.010  -2.185   2.145  0.00  0.00     0.029 A 
ATOM      9  C7A BZF d   1      -0.754  -3.117   1.465  0.00  0.00     0.058 A 
ENDROOT
TORSDOF 0
ENDMDL
