MODEL 1
REMARK minimizedAffinity 8.65736294
REMARK minimizedRMSD -1
REMARK  0 active torsions:
REMARK  status: ('A' for Active; 'I' for Inactive)
ROOT
ATOM      1  O1  BZF d   1       0.281  -5.844  -2.629  0.00  0.00    -0.204 OA
ATOM      2  C2  BZF d   1       1.574  -5.389  -2.459  0.00  0.00     0.174 A 
ATOM      3  C3  BZF d   1       1.744  -4.884  -1.220  0.00  0.00    -0.012 A 
ATOM      4  C3A BZF d   1       0.505  -5.117  -0.545  0.00  0.00    -0.107 A 
ATOM      5  C4  BZF d   1       0.060  -4.854   0.719  0.00  0.00     0.055 A 
ATOM      6  C5  BZF d   1      -1.229  -5.142   1.039  0.00  0.00    -0.016 A 
ATOM      7  C6  BZF d   1      -2.101  -5.688   0.119  0.00  0.00     0.022 A 
ATOM      8  C7  BZF d   1      -1.704  -5.971  -1.145  0.00  0.00     0.029 A 
ATOM      9  C7A BZF d   1      -0.393  -5.712  -1.462  0.00  0.00     0.058 A 
ENDROOT
TORSDOF 0
ENDMDL
