MODEL 1
REMARK minimizedAffinity 13.5543795
REMARK minimizedRMSD -1
REMARK  0 active torsions:
REMARK  status: ('A' for Active; 'I' for Inactive)
ROOT
ATOM      1  O1  BZF d   1       0.715  -1.029   3.011  0.00  0.00    -0.204 OA
ATOM      2  C2  BZF d   1       1.093  -1.487   1.763  0.00  0.00     0.174 A 
ATOM      3  C3  BZF d   1       1.763  -2.653   1.864  0.00  0.00    -0.012 A 
ATOM      4  C3A BZF d   1       1.726  -2.989   3.254  0.00  0.00    -0.107 A 
ATOM      5  C4  BZF d   1       2.207  -4.042   3.979  0.00  0.00     0.055 A 
ATOM      6  C5  BZF d   1       2.067  -4.033   5.330  0.00  0.00    -0.016 A 
ATOM      7  C6  BZF d   1       1.457  -2.986   5.990  0.00  0.00     0.022 A 
ATOM      8  C7  BZF d   1       0.960  -1.921   5.314  0.00  0.00     0.029 A 
ATOM      9  C7A BZF d   1       1.071  -1.943   3.945  0.00  0.00     0.058 A 
ENDROOT
TORSDOF 0
ENDMDL
