MODEL 1
REMARK minimizedAffinity -3.69000769
REMARK minimizedRMSD -1
REMARK  0 active torsions:
REMARK  status: ('A' for Active; 'I' for Inactive)
ROOT
ATOM      1  C   UNL d   1       1.604   0.288   0.177  0.00  0.00     0.172 C 
ATOM      2  N   UNL d   1       0.607  -0.071   1.159  0.00  0.00    -0.070 N 
ATOM      3  C1  UNL d   1      -0.372  -1.014   0.994  0.00  0.00    -0.004 A 
ATOM      4  C2  UNL d   1      -1.115  -1.058   2.154  0.00  0.00    -0.047 A 
ATOM      5  C3  UNL d   1      -0.565  -0.107   3.046  0.00  0.00    -0.047 A 
ATOM      6  C4  UNL d   1       0.500   0.490   2.404  0.00  0.00    -0.004 A 
ENDROOT
TORSDOF 0
ENDMDL
