MODEL 1
REMARK minimizedAffinity -3.90607619
REMARK minimizedRMSD -1
REMARK  0 active torsions:
REMARK  status: ('A' for Active; 'I' for Inactive)
ROOT
ATOM      1  C   UNL d   1      -0.082  -0.174  -0.331  0.00  0.00     0.172 C 
ATOM      2  N   UNL d   1      -0.227  -0.384   1.091  0.00  0.00    -0.070 N 
ATOM      3  C1  UNL d   1      -1.342  -0.096   1.831  0.00  0.00    -0.004 A 
ATOM      4  C2  UNL d   1      -1.080  -0.440   3.140  0.00  0.00    -0.047 A 
ATOM      5  C3  UNL d   1       0.238  -0.952   3.187  0.00  0.00    -0.047 A 
ATOM      6  C4  UNL d   1       0.743  -0.906   1.905  0.00  0.00    -0.004 A 
ENDROOT
TORSDOF 0
ENDMDL
