MODEL 1
REMARK minimizedAffinity -2.79989481
REMARK minimizedRMSD -1
REMARK  0 active torsions:
REMARK  status: ('A' for Active; 'I' for Inactive)
ROOT
ATOM      1  C   UNL d   1      -0.051   0.627  -0.429  0.00  0.00     0.172 C 
ATOM      2  N   UNL d   1      -0.526   0.121   0.837  0.00  0.00    -0.070 N 
ATOM      3  C1  UNL d   1      -1.032  -1.132   1.057  0.00  0.00    -0.004 A 
ATOM      4  C2  UNL d   1      -1.371  -1.222   2.390  0.00  0.00    -0.047 A 
ATOM      5  C3  UNL d   1      -1.059   0.020   2.991  0.00  0.00    -0.047 A 
ATOM      6  C4  UNL d   1      -0.537   0.833   2.008  0.00  0.00    -0.004 A 
ENDROOT
TORSDOF 0
ENDMDL
