MODEL 1
REMARK minimizedAffinity -3.46440887
REMARK minimizedRMSD -1
REMARK  0 active torsions:
REMARK  status: ('A' for Active; 'I' for Inactive)
ROOT
ATOM      1  C   UNL d   1       0.029  -0.434  -0.789  0.00  0.00     0.172 C 
ATOM      2  N   UNL d   1       0.079  -0.419   0.654  0.00  0.00    -0.070 N 
ATOM      3  C1  UNL d   1       1.049   0.180   1.413  0.00  0.00    -0.004 A 
ATOM      4  C2  UNL d   1       0.737  -0.030   2.739  0.00  0.00    -0.047 A 
ATOM      5  C3  UNL d   1      -0.462  -0.780   2.778  0.00  0.00    -0.047 A 
ATOM      6  C4  UNL d   1      -0.847  -1.007   1.474  0.00  0.00    -0.004 A 
ENDROOT
TORSDOF 0
ENDMDL
