MODEL 1
REMARK minimizedAffinity -3.2629354
REMARK minimizedRMSD -1
REMARK  0 active torsions:
REMARK  status: ('A' for Active; 'I' for Inactive)
ROOT
ATOM      1  C   UNL d   1       0.372  -0.389  -1.326  0.00  0.00     0.172 C 
ATOM      2  N   UNL d   1       0.215  -0.329   0.108  0.00  0.00    -0.070 N 
ATOM      3  C1  UNL d   1      -0.958  -0.507   0.791  0.00  0.00    -0.004 A 
ATOM      4  C2  UNL d   1      -0.688  -0.372   2.136  0.00  0.00    -0.047 A 
ATOM      5  C3  UNL d   1       0.695  -0.102   2.266  0.00  0.00    -0.047 A 
ATOM      6  C4  UNL d   1       1.230  -0.081   0.995  0.00  0.00    -0.004 A 
ENDROOT
TORSDOF 0
ENDMDL
