MODEL 1
REMARK minimizedAffinity -3.93885541
REMARK minimizedRMSD -1
REMARK  0 active torsions:
REMARK  status: ('A' for Active; 'I' for Inactive)
ROOT
ATOM      1  C   UNL d   1       0.219  -0.135  -1.259  0.00  0.00     0.172 C 
ATOM      2  N   UNL d   1       0.182  -0.090   0.184  0.00  0.00    -0.070 N 
ATOM      3  C1  UNL d   1       1.257   0.125   1.004  0.00  0.00    -0.004 A 
ATOM      4  C2  UNL d   1       0.808   0.094   2.306  0.00  0.00    -0.047 A 
ATOM      5  C3  UNL d   1      -0.586  -0.150   2.268  0.00  0.00    -0.047 A 
ATOM      6  C4  UNL d   1      -0.947  -0.260   0.942  0.00  0.00    -0.004 A 
ENDROOT
TORSDOF 0
ENDMDL
