MODEL 1
REMARK minimizedAffinity -3.07101583
REMARK minimizedRMSD -1
REMARK  0 active torsions:
REMARK  status: ('A' for Active; 'I' for Inactive)
ROOT
ATOM      1  C   UNL d   1      -1.007  -1.299   2.442  0.00  0.00     0.172 C 
ATOM      2  N   UNL d   1      -0.907  -0.405   1.313  0.00  0.00    -0.070 N 
ATOM      3  C1  UNL d   1       0.190   0.346   0.984  0.00  0.00    -0.004 A 
ATOM      4  C2  UNL d   1      -0.114   1.060  -0.155  0.00  0.00    -0.047 A 
ATOM      5  C3  UNL d   1      -1.439   0.728  -0.523  0.00  0.00    -0.047 A 
ATOM      6  C4  UNL d   1      -1.906  -0.181   0.403  0.00  0.00    -0.004 A 
ENDROOT
TORSDOF 0
ENDMDL
