MODEL 1
REMARK minimizedAffinity -3.63544202
REMARK minimizedRMSD -1
REMARK  0 active torsions:
REMARK  status: ('A' for Active; 'I' for Inactive)
ROOT
ATOM      1  C   UNL d   1       0.910   0.709   0.455  0.00  0.00     0.172 C 
ATOM      2  N   UNL d   1      -0.055   0.152   1.373  0.00  0.00    -0.070 N 
ATOM      3  C1  UNL d   1       0.092   0.070   2.733  0.00  0.00    -0.004 A 
ATOM      4  C2  UNL d   1      -1.043  -0.521   3.245  0.00  0.00    -0.047 A 
ATOM      5  C3  UNL d   1      -1.900  -0.806   2.156  0.00  0.00    -0.047 A 
ATOM      6  C4  UNL d   1      -1.264  -0.379   1.009  0.00  0.00    -0.004 A 
ENDROOT
TORSDOF 0
ENDMDL
