MODEL 1
REMARK minimizedAffinity 0.724279463
REMARK minimizedRMSD -1
REMARK  0 active torsions:
REMARK  status: ('A' for Active; 'I' for Inactive)
ROOT
ATOM      1  C   UNL d   1      -0.667   0.350   3.512  0.00  0.00     0.172 C 
ATOM      2  N   UNL d   1       0.182   0.634   2.378  0.00  0.00    -0.070 N 
ATOM      3  C1  UNL d   1       1.334   1.373   2.409  0.00  0.00    -0.004 A 
ATOM      4  C2  UNL d   1       1.846   1.410   1.130  0.00  0.00    -0.047 A 
ATOM      5  C3  UNL d   1       0.970   0.669   0.301  0.00  0.00    -0.047 A 
ATOM      6  C4  UNL d   1      -0.052   0.200   1.100  0.00  0.00    -0.004 A 
ENDROOT
TORSDOF 0
ENDMDL
