MODEL 1
REMARK minimizedAffinity -3.42873049
REMARK minimizedRMSD -1
REMARK  0 active torsions:
REMARK  status: ('A' for Active; 'I' for Inactive)
ROOT
ATOM      1  C   UNL d   1      -1.045  -0.626   2.892  0.00  0.00     0.172 C 
ATOM      2  N   UNL d   1      -1.009  -0.186   1.517  0.00  0.00    -0.070 N 
ATOM      3  C1  UNL d   1       0.118  -0.057   0.750  0.00  0.00    -0.004 A 
ATOM      4  C2  UNL d   1      -0.268   0.386  -0.496  0.00  0.00    -0.047 A 
ATOM      5  C3  UNL d   1      -1.676   0.528  -0.478  0.00  0.00    -0.047 A 
ATOM      6  C4  UNL d   1      -2.109   0.168   0.781  0.00  0.00    -0.004 A 
ENDROOT
TORSDOF 0
ENDMDL
