MODEL 1
REMARK minimizedAffinity -2.33126378
REMARK minimizedRMSD -1
REMARK  0 active torsions:
REMARK  status: ('A' for Active; 'I' for Inactive)
ROOT
ATOM      1  C   UNL d   1       0.294  -0.018  -1.477  0.00  0.00     0.172 C 
ATOM      2  N   UNL d   1       0.148  -0.138  -0.045  0.00  0.00    -0.070 N 
ATOM      3  C1  UNL d   1      -0.399  -1.206   0.615  0.00  0.00    -0.004 A 
ATOM      4  C2  UNL d   1      -0.355  -0.935   1.965  0.00  0.00    -0.047 A 
ATOM      5  C3  UNL d   1       0.238   0.340   2.123  0.00  0.00    -0.047 A 
ATOM      6  C4  UNL d   1       0.539   0.811   0.862  0.00  0.00    -0.004 A 
ENDROOT
TORSDOF 0
ENDMDL
