MODEL 1
REMARK minimizedAffinity 1.34442973
REMARK minimizedRMSD -1
REMARK  0 active torsions:
REMARK  status: ('A' for Active; 'I' for Inactive)
ROOT
ATOM      1  C   UNL d   1       0.405   1.357  -0.977  0.00  0.00     0.172 C 
ATOM      2  N   UNL d   1      -0.479   0.361  -0.418  0.00  0.00    -0.070 N 
ATOM      3  C1  UNL d   1      -0.087  -0.798   0.198  0.00  0.00    -0.004 A 
ATOM      4  C2  UNL d   1      -1.223  -1.473   0.589  0.00  0.00    -0.047 A 
ATOM      5  C3  UNL d   1      -2.336  -0.693   0.194  0.00  0.00    -0.047 A 
ATOM      6  C4  UNL d   1      -1.846   0.436  -0.427  0.00  0.00    -0.004 A 
ENDROOT
TORSDOF 0
ENDMDL
