MODEL 1
REMARK minimizedAffinity -0.114418574
REMARK minimizedRMSD -1
REMARK  0 active torsions:
REMARK  status: ('A' for Active; 'I' for Inactive)
ROOT
ATOM      1  C   UNL d   1      -0.232   0.864   3.383  0.00  0.00     0.172 C 
ATOM      2  N   UNL d   1      -0.355   0.702   1.954  0.00  0.00    -0.070 N 
ATOM      3  C1  UNL d   1      -1.527   0.719   1.246  0.00  0.00    -0.004 A 
ATOM      4  C2  UNL d   1      -1.220   0.532  -0.084  0.00  0.00    -0.047 A 
ATOM      5  C3  UNL d   1       0.185   0.397  -0.179  0.00  0.00    -0.047 A 
ATOM      6  C4  UNL d   1       0.696   0.506   1.097  0.00  0.00    -0.004 A 
ENDROOT
TORSDOF 0
ENDMDL
