MODEL 1
REMARK minimizedAffinity -2.49215508
REMARK minimizedRMSD -1
REMARK  0 active torsions:
REMARK  status: ('A' for Active; 'I' for Inactive)
ROOT
ATOM      1  C   UNL d   1       0.177   0.268  -0.508  0.00  0.00     0.172 C 
ATOM      2  N   UNL d   1      -0.054  -0.047   0.882  0.00  0.00    -0.070 N 
ATOM      3  C1  UNL d   1      -0.779  -1.111   1.350  0.00  0.00    -0.004 A 
ATOM      4  C2  UNL d   1      -0.762  -1.061   2.727  0.00  0.00    -0.047 A 
ATOM      5  C3  UNL d   1      -0.001   0.073   3.100  0.00  0.00    -0.047 A 
ATOM      6  C4  UNL d   1       0.425   0.682   1.938  0.00  0.00    -0.004 A 
ENDROOT
TORSDOF 0
ENDMDL
