MODEL 1
REMARK minimizedAffinity -3.35242724
REMARK minimizedRMSD -1
REMARK  0 active torsions:
REMARK  status: ('A' for Active; 'I' for Inactive)
ROOT
ATOM      1  C   UNL d   1       0.025   0.193  -0.985  0.00  0.00     0.172 C 
ATOM      2  N   UNL d   1       0.112   0.093   0.453  0.00  0.00    -0.070 N 
ATOM      3  C1  UNL d   1       1.126   0.590   1.229  0.00  0.00    -0.004 A 
ATOM      4  C2  UNL d   1       0.838   0.289   2.542  0.00  0.00    -0.047 A 
ATOM      5  C3  UNL d   1      -0.391  -0.413   2.557  0.00  0.00    -0.047 A 
ATOM      6  C4  UNL d   1      -0.818  -0.520   1.250  0.00  0.00    -0.004 A 
ENDROOT
TORSDOF 0
ENDMDL
