MODEL 1
REMARK minimizedAffinity -3.13289475
REMARK minimizedRMSD -1
REMARK  0 active torsions:
REMARK  status: ('A' for Active; 'I' for Inactive)
ROOT
ATOM      1  C   UNL d   1      -0.413  -0.993   3.085  0.00  0.00     0.172 C 
ATOM      2  N   UNL d   1      -0.305  -0.493   1.735  0.00  0.00    -0.070 N 
ATOM      3  C1  UNL d   1       0.746   0.227   1.232  0.00  0.00    -0.004 A 
ATOM      4  C2  UNL d   1       0.469   0.512  -0.087  0.00  0.00    -0.047 A 
ATOM      5  C3  UNL d   1      -0.792  -0.056  -0.388  0.00  0.00    -0.047 A 
ATOM      6  C4  UNL d   1      -1.248  -0.672   0.758  0.00  0.00    -0.004 A 
ENDROOT
TORSDOF 0
ENDMDL
