MODEL 1
REMARK minimizedAffinity 15.6201029
REMARK minimizedRMSD -1
REMARK  2 active torsions:
REMARK  status: ('A' for Active; 'I' for Inactive)
REMARK    1  A    between atoms: C2'_3  and  C1'_4 
REMARK    2  A    between atoms: C1'_4  and  C1_5 
ROOT
ATOM      1  C1  I4B d   1      -1.463  -3.636   1.678  0.00  0.00    -0.075 A 
ATOM      2  C2  I4B d   1      -1.116  -4.556   0.720  0.00  0.00     0.003 A 
ATOM      3  C3  I4B d   1      -1.137  -4.199  -0.651  0.00  0.00     0.002 A 
ATOM      4  C4  I4B d   1      -1.557  -2.938  -1.019  0.00  0.00    -0.004 A 
ATOM      5  C5  I4B d   1      -1.887  -2.000  -0.045  0.00  0.00     0.002 A 
ATOM      6  C6  I4B d   1      -1.828  -2.347   1.313  0.00  0.00     0.003 A 
ENDROOT
BRANCH   1   7
ATOM      7  C1' I4B d   1      -1.462  -4.056   3.114  0.00  0.00     0.060 C 
BRANCH   7   8
ATOM      8  C2' I4B d   1      -1.314  -5.563   3.159  0.00  0.00    -0.013 C 
ATOM      9  C4' I4B d   1       0.009  -5.999   2.587  0.00  0.00     0.013 C 
ATOM     10  C3' I4B d   1      -1.457  -5.999   4.587  0.00  0.00     0.013 C 
ENDBRANCH   7   8
ENDBRANCH   1   7
TORSDOF 2
ENDMDL
