MODEL 1
REMARK minimizedAffinity 6.74491024
REMARK minimizedRMSD -1
REMARK  2 active torsions:
REMARK  status: ('A' for Active; 'I' for Inactive)
REMARK    1  A    between atoms: C2'_3  and  C1'_4 
REMARK    2  A    between atoms: C1'_4  and  C1_5 
ROOT
ATOM      1  C1  I4B d   1      -3.971   5.001  -4.092  0.00  0.00    -0.075 A 
ATOM      2  C2  I4B d   1      -3.951   3.742  -4.637  0.00  0.00     0.003 A 
ATOM      3  C3  I4B d   1      -4.914   3.370  -5.606  0.00  0.00     0.002 A 
ATOM      4  C4  I4B d   1      -5.902   4.265  -5.961  0.00  0.00    -0.004 A 
ATOM      5  C5  I4B d   1      -5.906   5.549  -5.424  0.00  0.00     0.002 A 
ATOM      6  C6  I4B d   1      -4.928   5.925  -4.493  0.00  0.00     0.003 A 
ENDROOT
BRANCH   1   7
ATOM      7  C1' I4B d   1      -2.959   5.350  -3.046  0.00  0.00     0.060 C 
BRANCH   7   8
ATOM      8  C2' I4B d   1      -3.702   5.875  -1.834  0.00  0.00    -0.013 C 
ATOM      9  C4' I4B d   1      -5.178   5.994  -2.109  0.00  0.00     0.013 C 
ATOM     10  C3' I4B d   1      -3.438   4.942  -0.690  0.00  0.00     0.013 C 
ENDBRANCH   7   8
ENDBRANCH   1   7
TORSDOF 2
ENDMDL
