MODEL 1
REMARK minimizedAffinity 9.32765007
REMARK minimizedRMSD -1
REMARK  2 active torsions:
REMARK  status: ('A' for Active; 'I' for Inactive)
REMARK    1  A    between atoms: C2'_3  and  C1'_4 
REMARK    2  A    between atoms: C1'_4  and  C1_5 
ROOT
ATOM      1  C1  I4B d   1      -0.616  -2.661  -0.820  0.00  0.00    -0.075 A 
ATOM      2  C2  I4B d   1      -0.051  -3.888  -1.065  0.00  0.00     0.003 A 
ATOM      3  C3  I4B d   1      -0.220  -4.948  -0.142  0.00  0.00     0.002 A 
ATOM      4  C4  I4B d   1      -0.914  -4.725   1.029  0.00  0.00    -0.004 A 
ATOM      5  C5  I4B d   1      -1.505  -3.487   1.266  0.00  0.00     0.002 A 
ATOM      6  C6  I4B d   1      -1.366  -2.452   0.330  0.00  0.00     0.003 A 
ENDROOT
BRANCH   1   7
ATOM      7  C1' I4B d   1      -0.389  -1.554  -1.800  0.00  0.00     0.060 C 
BRANCH   7   8
ATOM      8  C2' I4B d   1      -0.589  -2.116  -3.193  0.00  0.00    -0.013 C 
ATOM      9  C4' I4B d   1      -1.983  -1.849  -3.694  0.00  0.00     0.013 C 
ATOM     10  C3' I4B d   1       0.438  -1.497  -4.094  0.00  0.00     0.013 C 
ENDBRANCH   7   8
ENDBRANCH   1   7
TORSDOF 2
ENDMDL
