MODEL 1
REMARK minimizedAffinity 17.5866165
REMARK minimizedRMSD -1
REMARK  2 active torsions:
REMARK  status: ('A' for Active; 'I' for Inactive)
REMARK    1  A    between atoms: C2'_3  and  C1'_4 
REMARK    2  A    between atoms: C1'_4  and  C1_5 
ROOT
ATOM      1  C1  I4B d   1       1.425  -0.337  -1.936  0.00  0.00    -0.075 A 
ATOM      2  C2  I4B d   1       1.387  -0.689  -3.263  0.00  0.00     0.003 A 
ATOM      3  C3  I4B d   1       0.263  -1.372  -3.787  0.00  0.00     0.002 A 
ATOM      4  C4  I4B d   1      -0.772  -1.725  -2.945  0.00  0.00    -0.004 A 
ATOM      5  C5  I4B d   1      -0.742  -1.348  -1.606  0.00  0.00     0.002 A 
ATOM      6  C6  I4B d   1       0.357  -0.639  -1.100  0.00  0.00     0.003 A 
ENDROOT
BRANCH   1   7
ATOM      7  C1' I4B d   1       2.642   0.354  -1.408  0.00  0.00     0.060 C 
BRANCH   7   8
ATOM      8  C2' I4B d   1       2.214   1.703  -0.866  0.00  0.00    -0.013 C 
ATOM      9  C4' I4B d   1       3.243   2.260   0.082  0.00  0.00     0.013 C 
ATOM     10  C3' I4B d   1       1.997   2.622  -2.031  0.00  0.00     0.013 C 
ENDBRANCH   7   8
ENDBRANCH   1   7
TORSDOF 2
ENDMDL
