MODEL 1
REMARK minimizedAffinity 18.3593559
REMARK minimizedRMSD -1
REMARK  2 active torsions:
REMARK  status: ('A' for Active; 'I' for Inactive)
REMARK    1  A    between atoms: C2'_3  and  C1'_4 
REMARK    2  A    between atoms: C1'_4  and  C1_5 
ROOT
ATOM      1  C1  I4B d   1      -0.698  -3.240  -1.793  0.00  0.00    -0.075 A 
ATOM      2  C2  I4B d   1      -1.082  -4.070  -2.816  0.00  0.00     0.003 A 
ATOM      3  C3  I4B d   1      -1.125  -5.471  -2.619  0.00  0.00     0.002 A 
ATOM      4  C4  I4B d   1      -0.730  -6.000  -1.407  0.00  0.00    -0.004 A 
ATOM      5  C5  I4B d   1      -0.364  -5.155  -0.363  0.00  0.00     0.002 A 
ATOM      6  C6  I4B d   1      -0.359  -3.766  -0.553  0.00  0.00     0.003 A 
ENDROOT
BRANCH   1   7
ATOM      7  C1' I4B d   1      -0.632  -1.767  -2.045  0.00  0.00     0.060 C 
BRANCH   7   8
ATOM      8  C2' I4B d   1       0.540  -1.504  -2.969  0.00  0.00    -0.013 C 
ATOM      9  C4' I4B d   1       0.073  -1.179  -4.363  0.00  0.00     0.013 C 
ATOM     10  C3' I4B d   1       1.341  -0.376  -2.390  0.00  0.00     0.013 C 
ENDBRANCH   7   8
ENDBRANCH   1   7
TORSDOF 2
ENDMDL
