MODEL 1
REMARK minimizedAffinity 12.6522551
REMARK minimizedRMSD -1
REMARK  2 active torsions:
REMARK  status: ('A' for Active; 'I' for Inactive)
REMARK    1  A    between atoms: C2'_3  and  C1'_4 
REMARK    2  A    between atoms: C1'_4  and  C1_5 
ROOT
ATOM      1  C1  I4B d   1      -0.914  -3.846  -0.226  0.00  0.00    -0.075 A 
ATOM      2  C2  I4B d   1      -0.735  -3.872  -1.587  0.00  0.00     0.003 A 
ATOM      3  C3  I4B d   1      -0.897  -2.690  -2.350  0.00  0.00     0.002 A 
ATOM      4  C4  I4B d   1      -1.284  -1.524  -1.722  0.00  0.00    -0.004 A 
ATOM      5  C5  I4B d   1      -1.442  -1.494  -0.340  0.00  0.00     0.002 A 
ATOM      6  C6  I4B d   1      -1.244  -2.659   0.415  0.00  0.00     0.003 A 
ENDROOT
BRANCH   1   7
ATOM      7  C1' I4B d   1      -0.767  -5.120   0.544  0.00  0.00     0.060 C 
BRANCH   7   8
ATOM      8  C2' I4B d   1      -0.086  -4.795   1.858  0.00  0.00    -0.013 C 
ATOM      9  C4' I4B d   1      -1.090  -4.402   2.910  0.00  0.00     0.013 C 
ATOM     10  C3' I4B d   1       0.700  -5.999   2.283  0.00  0.00     0.013 C 
ENDBRANCH   7   8
ENDBRANCH   1   7
TORSDOF 2
ENDMDL
