MODEL 1
REMARK minimizedAffinity 18.1748543
REMARK minimizedRMSD -1
REMARK  2 active torsions:
REMARK  status: ('A' for Active; 'I' for Inactive)
REMARK    1  A    between atoms: C2'_3  and  C1'_4 
REMARK    2  A    between atoms: C1'_4  and  C1_5 
ROOT
ATOM      1  C1  I4B d   1      -1.558  -1.334   2.311  0.00  0.00    -0.075 A 
ATOM      2  C2  I4B d   1      -2.502  -0.971   1.383  0.00  0.00     0.003 A 
ATOM      3  C3  I4B d   1      -2.252  -1.156   0.002  0.00  0.00     0.002 A 
ATOM      4  C4  I4B d   1      -1.033  -1.656  -0.407  0.00  0.00    -0.004 A 
ATOM      5  C5  I4B d   1      -0.086  -2.045   0.536  0.00  0.00     0.002 A 
ATOM      6  C6  I4B d   1      -0.354  -1.895   1.904  0.00  0.00     0.003 A 
ENDROOT
BRANCH   1   7
ATOM      7  C1' I4B d   1      -1.842  -1.095   3.760  0.00  0.00     0.060 C 
BRANCH   7   8
ATOM      8  C2' I4B d   1      -1.070  -2.123   4.563  0.00  0.00    -0.013 C 
ATOM      9  C4' I4B d   1      -0.139  -1.460   5.544  0.00  0.00     0.013 C 
ATOM     10  C3' I4B d   1      -2.062  -3.001   5.266  0.00  0.00     0.013 C 
ENDBRANCH   7   8
ENDBRANCH   1   7
TORSDOF 2
ENDMDL
