MODEL 1
REMARK minimizedAffinity 12.2416248
REMARK minimizedRMSD -1
REMARK  2 active torsions:
REMARK  status: ('A' for Active; 'I' for Inactive)
REMARK    1  A    between atoms: C2'_3  and  C1'_4 
REMARK    2  A    between atoms: C1'_4  and  C1_5 
ROOT
ATOM      1  C1  I4B d   1      -2.531  -0.330   5.919  0.00  0.00    -0.075 A 
ATOM      2  C2  I4B d   1      -3.890  -0.474   5.786  0.00  0.00     0.003 A 
ATOM      3  C3  I4B d   1      -4.726   0.668   5.741  0.00  0.00     0.002 A 
ATOM      4  C4  I4B d   1      -4.171   1.923   5.882  0.00  0.00    -0.004 A 
ATOM      5  C5  I4B d   1      -2.791   2.068   5.994  0.00  0.00     0.002 A 
ATOM      6  C6  I4B d   1      -1.964   0.935   6.000  0.00  0.00     0.003 A 
ENDROOT
BRANCH   1   7
ATOM      7  C1' I4B d   1      -1.681  -1.559   5.995  0.00  0.00     0.060 C 
BRANCH   7   8
ATOM      8  C2' I4B d   1      -2.436  -2.692   5.331  0.00  0.00    -0.013 C 
ATOM      9  C4' I4B d   1      -1.673  -3.986   5.429  0.00  0.00     0.013 C 
ATOM     10  C3' I4B d   1      -3.778  -2.802   5.990  0.00  0.00     0.013 C 
ENDBRANCH   7   8
ENDBRANCH   1   7
TORSDOF 2
ENDMDL
