MODEL 1
REMARK minimizedAffinity 9.61060238
REMARK minimizedRMSD -1
REMARK  2 active torsions:
REMARK  status: ('A' for Active; 'I' for Inactive)
REMARK    1  A    between atoms: C2'_3  and  C1'_4 
REMARK    2  A    between atoms: C1'_4  and  C1_5 
ROOT
ATOM      1  C1  I4B d   1      -3.688   5.569  -2.161  0.00  0.00    -0.075 A 
ATOM      2  C2  I4B d   1      -5.002   5.965  -2.155  0.00  0.00     0.003 A 
ATOM      3  C3  I4B d   1      -5.731   6.000  -0.942  0.00  0.00     0.002 A 
ATOM      4  C4  I4B d   1      -5.126   5.586   0.227  0.00  0.00    -0.004 A 
ATOM      5  C5  I4B d   1      -3.786   5.207   0.223  0.00  0.00     0.002 A 
ATOM      6  C6  I4B d   1      -3.059   5.211  -0.976  0.00  0.00     0.003 A 
ENDROOT
BRANCH   1   7
ATOM      7  C1' I4B d   1      -2.957   5.513  -3.465  0.00  0.00     0.060 C 
BRANCH   7   8
ATOM      8  C2' I4B d   1      -3.383   4.248  -4.183  0.00  0.00    -0.013 C 
ATOM      9  C4' I4B d   1      -4.235   4.564  -5.384  0.00  0.00     0.013 C 
ATOM     10  C3' I4B d   1      -2.144   3.502  -4.580  0.00  0.00     0.013 C 
ENDBRANCH   7   8
ENDBRANCH   1   7
TORSDOF 2
ENDMDL
