MODEL 1
REMARK minimizedAffinity 12.5564899
REMARK minimizedRMSD -1
REMARK  2 active torsions:
REMARK  status: ('A' for Active; 'I' for Inactive)
REMARK    1  A    between atoms: C2'_3  and  C1'_4 
REMARK    2  A    between atoms: C1'_4  and  C1_5 
ROOT
ATOM      1  C1  I4B d   1      -3.086  -1.224   5.980  0.00  0.00    -0.075 A 
ATOM      2  C2  I4B d   1      -2.435  -0.015   5.976  0.00  0.00     0.003 A 
ATOM      3  C3  I4B d   1      -3.174   1.193   5.978  0.00  0.00     0.002 A 
ATOM      4  C4  I4B d   1      -4.553   1.146   5.932  0.00  0.00    -0.004 A 
ATOM      5  C5  I4B d   1      -5.211  -0.080   5.958  0.00  0.00     0.002 A 
ATOM      6  C6  I4B d   1      -4.474  -1.273   5.995  0.00  0.00     0.003 A 
ENDROOT
BRANCH   1   7
ATOM      7  C1' I4B d   1      -2.274  -2.479   5.945  0.00  0.00     0.060 C 
BRANCH   7   8
ATOM      8  C2' I4B d   1      -2.585  -3.201   4.649  0.00  0.00    -0.013 C 
ATOM      9  C4' I4B d   1      -1.894  -2.547   3.482  0.00  0.00     0.013 C 
ATOM     10  C3' I4B d   1      -2.158  -4.630   4.801  0.00  0.00     0.013 C 
ENDBRANCH   7   8
ENDBRANCH   1   7
TORSDOF 2
ENDMDL
