MODEL 1
REMARK minimizedAffinity 13.4640875
REMARK minimizedRMSD -1
REMARK  2 active torsions:
REMARK  status: ('A' for Active; 'I' for Inactive)
REMARK    1  A    between atoms: C2'_3  and  C1'_4 
REMARK    2  A    between atoms: C1'_4  and  C1_5 
ROOT
ATOM      1  C1  I4B d   1       3.866   2.494   0.383  0.00  0.00    -0.075 A 
ATOM      2  C2  I4B d   1       3.366   2.377   1.656  0.00  0.00     0.003 A 
ATOM      3  C3  I4B d   1       4.191   1.908   2.706  0.00  0.00     0.002 A 
ATOM      4  C4  I4B d   1       5.487   1.521   2.431  0.00  0.00    -0.004 A 
ATOM      5  C5  I4B d   1       6.000   1.662   1.145  0.00  0.00     0.002 A 
ATOM      6  C6  I4B d   1       5.189   2.163   0.116  0.00  0.00     0.003 A 
ENDROOT
BRANCH   1   7
ATOM      7  C1' I4B d   1       2.957   2.962  -0.709  0.00  0.00     0.060 C 
BRANCH   7   8
ATOM      8  C2' I4B d   1       2.834   1.845  -1.725  0.00  0.00    -0.013 C 
ATOM      9  C4' I4B d   1       2.068   0.678  -1.161  0.00  0.00     0.013 C 
ATOM     10  C3' I4B d   1       2.158   2.399  -2.943  0.00  0.00     0.013 C 
ENDBRANCH   7   8
ENDBRANCH   1   7
TORSDOF 2
ENDMDL
