MODEL 1
REMARK minimizedAffinity 13.8800907
REMARK minimizedRMSD -1
REMARK  2 active torsions:
REMARK  status: ('A' for Active; 'I' for Inactive)
REMARK    1  A    between atoms: C2'_3  and  C1'_4 
REMARK    2  A    between atoms: C1'_4  and  C1_5 
ROOT
ATOM      1  C1  I4B d   1      -4.521   4.699  -0.880  0.00  0.00    -0.075 A 
ATOM      2  C2  I4B d   1      -5.300   5.813  -0.693  0.00  0.00     0.003 A 
ATOM      3  C3  I4B d   1      -5.999   5.998   0.524  0.00  0.00     0.002 A 
ATOM      4  C4  I4B d   1      -5.932   5.026   1.501  0.00  0.00    -0.004 A 
ATOM      5  C5  I4B d   1      -5.123   3.908   1.319  0.00  0.00     0.002 A 
ATOM      6  C6  I4B d   1      -4.404   3.748   0.126  0.00  0.00     0.003 A 
ENDROOT
BRANCH   1   7
ATOM      7  C1' I4B d   1      -3.823   4.519  -2.191  0.00  0.00     0.060 C 
BRANCH   7   8
ATOM      8  C2' I4B d   1      -3.394   3.070  -2.296  0.00  0.00    -0.013 C 
ATOM      9  C4' I4B d   1      -4.453   2.146  -1.755  0.00  0.00     0.013 C 
ATOM     10  C3' I4B d   1      -3.105   2.776  -3.738  0.00  0.00     0.013 C 
ENDBRANCH   7   8
ENDBRANCH   1   7
TORSDOF 2
ENDMDL
