MODEL 1
REMARK minimizedAffinity -5.18221378
REMARK minimizedRMSD -1
REMARK  0 active torsions:
REMARK  status: ('A' for Active; 'I' for Inactive)
ROOT
ATOM      1  C   UNL d   1       1.265   0.668   0.038  0.00  0.00     0.078 C 
ATOM      2  C1  UNL d   1       0.087   0.243  -0.787  0.00  0.00    -0.077 A 
ATOM      3  C2  UNL d   1      -1.198   0.186  -0.234  0.00  0.00    -0.001 A 
ATOM      4  C3  UNL d   1      -2.284  -0.221  -1.011  0.00  0.00     0.003 A 
ATOM      5  C4  UNL d   1      -2.095  -0.574  -2.346  0.00  0.00    -0.005 A 
ATOM      6  C5  UNL d   1      -0.820  -0.522  -2.904  0.00  0.00     0.003 A 
ATOM      7  C6  UNL d   1       0.267  -0.116  -2.129  0.00  0.00    -0.001 A 
ENDROOT
TORSDOF 0
ENDMDL
