MODEL 1
REMARK minimizedAffinity -4.28677893
REMARK minimizedRMSD -1
REMARK  0 active torsions:
REMARK  status: ('A' for Active; 'I' for Inactive)
ROOT
ATOM      1  C   UNL d   1       2.852  -0.667   0.571  0.00  0.00     0.078 C 
ATOM      2  C1  UNL d   1       1.514  -0.132   0.156  0.00  0.00    -0.077 A 
ATOM      3  C2  UNL d   1       1.376   1.181  -0.313  0.00  0.00    -0.001 A 
ATOM      4  C3  UNL d   1       0.123   1.669  -0.686  0.00  0.00     0.003 A 
ATOM      5  C4  UNL d   1      -1.002   0.853  -0.592  0.00  0.00    -0.005 A 
ATOM      6  C5  UNL d   1      -0.875  -0.454  -0.125  0.00  0.00     0.003 A 
ATOM      7  C6  UNL d   1       0.377  -0.944   0.249  0.00  0.00    -0.001 A 
ENDROOT
TORSDOF 0
ENDMDL
