MODEL 1
REMARK minimizedAffinity -4.76089907
REMARK minimizedRMSD -1
REMARK  0 active torsions:
REMARK  status: ('A' for Active; 'I' for Inactive)
ROOT
ATOM      1  C   UNL d   1      -1.355   0.226  -0.387  0.00  0.00     0.078 C 
ATOM      2  C1  UNL d   1       0.090   0.228   0.013  0.00  0.00    -0.077 A 
ATOM      3  C2  UNL d   1       0.801   1.428   0.141  0.00  0.00    -0.001 A 
ATOM      4  C3  UNL d   1       2.148   1.415   0.504  0.00  0.00     0.003 A 
ATOM      5  C4  UNL d   1       2.797   0.205   0.740  0.00  0.00    -0.005 A 
ATOM      6  C5  UNL d   1       2.099  -0.994   0.613  0.00  0.00     0.003 A 
ATOM      7  C6  UNL d   1       0.752  -0.983   0.250  0.00  0.00    -0.001 A 
ENDROOT
TORSDOF 0
ENDMDL
