MODEL 1
REMARK minimizedAffinity -4.19041681
REMARK minimizedRMSD -1
REMARK  0 active torsions:
REMARK  status: ('A' for Active; 'I' for Inactive)
ROOT
ATOM      1  C   UNL d   1       3.466  -0.139   1.241  0.00  0.00     0.078 C 
ATOM      2  C1  UNL d   1       2.049  -0.212   0.756  0.00  0.00    -0.077 A 
ATOM      3  C2  UNL d   1       1.294  -1.381   0.910  0.00  0.00    -0.001 A 
ATOM      4  C3  UNL d   1      -0.021  -1.438   0.445  0.00  0.00     0.003 A 
ATOM      5  C4  UNL d   1      -0.592  -0.330  -0.178  0.00  0.00    -0.005 A 
ATOM      6  C5  UNL d   1       0.153   0.837  -0.337  0.00  0.00     0.003 A 
ATOM      7  C6  UNL d   1       1.468   0.896   0.127  0.00  0.00    -0.001 A 
ENDROOT
TORSDOF 0
ENDMDL
