MODEL 1
REMARK minimizedAffinity -5.15312052
REMARK minimizedRMSD -1
REMARK  0 active torsions:
REMARK  status: ('A' for Active; 'I' for Inactive)
ROOT
ATOM      1  C   UNL d   1      -0.753  -0.008  -0.353  0.00  0.00     0.078 C 
ATOM      2  C1  UNL d   1       0.429  -0.504   0.425  0.00  0.00    -0.077 A 
ATOM      3  C2  UNL d   1       0.376  -1.717   1.123  0.00  0.00    -0.001 A 
ATOM      4  C3  UNL d   1       1.481  -2.162   1.851  0.00  0.00     0.003 A 
ATOM      5  C4  UNL d   1       2.646  -1.400   1.890  0.00  0.00    -0.005 A 
ATOM      6  C5  UNL d   1       2.708  -0.190   1.200  0.00  0.00     0.003 A 
ATOM      7  C6  UNL d   1       1.604   0.256   0.472  0.00  0.00    -0.001 A 
ENDROOT
TORSDOF 0
ENDMDL
