MODEL 1
REMARK minimizedAffinity -1.20929503
REMARK minimizedRMSD -1
REMARK  0 active torsions:
REMARK  status: ('A' for Active; 'I' for Inactive)
ROOT
ATOM      1  C   UNL d   1       1.785  -0.375   0.157  0.00  0.00     0.077 C 
ATOM      2  C1  UNL d   1       2.197   1.028   0.490  0.00  0.00    -0.074 A 
ATOM      3  C2  UNL d   1       2.273   1.458   1.818  0.00  0.00    -0.005 A 
ATOM      4  C3  UNL d   1       2.667   2.764   2.113  0.00  0.00     0.006 A 
ATOM      5  C4  UNL d   1       2.987   3.650   1.084  0.00  0.00    -0.005 A 
ATOM      6  C5  UNL d   1       2.917   3.237  -0.250  0.00  0.00    -0.074 A 
ATOM      7  C6  UNL d   1       3.267   4.175  -1.368  0.00  0.00     0.077 C 
ATOM      8  C7  UNL d   1       2.528   1.922  -0.538  0.00  0.00    -0.001 A 
ENDROOT
TORSDOF 0
ENDMDL
