MODEL 1
REMARK minimizedAffinity -2.7357316
REMARK minimizedRMSD -1
REMARK  0 active torsions:
REMARK  status: ('A' for Active; 'I' for Inactive)
ROOT
ATOM      1  C   UNL d   1      -3.502  -0.568   0.019  0.00  0.00     0.077 C 
ATOM      2  C1  UNL d   1      -2.048  -0.392  -0.307  0.00  0.00    -0.074 A 
ATOM      3  C2  UNL d   1      -1.637   0.507  -1.297  0.00  0.00    -0.005 A 
ATOM      4  C3  UNL d   1      -0.281   0.667  -1.582  0.00  0.00     0.006 A 
ATOM      5  C4  UNL d   1       0.675  -0.070  -0.883  0.00  0.00    -0.005 A 
ATOM      6  C5  UNL d   1       0.283  -0.973   0.110  0.00  0.00    -0.074 A 
ATOM      7  C6  UNL d   1       1.299  -1.765   0.878  0.00  0.00     0.077 C 
ATOM      8  C7  UNL d   1      -1.081  -1.123   0.396  0.00  0.00    -0.001 A 
ENDROOT
TORSDOF 0
ENDMDL
