MODEL 1
REMARK minimizedAffinity -2.96862125
REMARK minimizedRMSD -1
REMARK  0 active torsions:
REMARK  status: ('A' for Active; 'I' for Inactive)
ROOT
ATOM      1  C   UNL d   1      -3.399  -0.205   0.481  0.00  0.00     0.077 C 
ATOM      2  C1  UNL d   1      -1.955  -0.130   0.085  0.00  0.00    -0.074 A 
ATOM      3  C2  UNL d   1      -0.941  -0.201   1.047  0.00  0.00    -0.005 A 
ATOM      4  C3  UNL d   1       0.398  -0.139   0.663  0.00  0.00     0.006 A 
ATOM      5  C4  UNL d   1       0.738  -0.007  -0.684  0.00  0.00    -0.005 A 
ATOM      6  C5  UNL d   1      -0.262   0.064  -1.660  0.00  0.00    -0.074 A 
ATOM      7  C6  UNL d   1       0.086   0.197  -3.113  0.00  0.00     0.077 C 
ATOM      8  C7  UNL d   1      -1.605  -0.005  -1.267  0.00  0.00    -0.001 A 
ENDROOT
TORSDOF 0
ENDMDL
