MODEL 1
REMARK minimizedAffinity -5.33631325
REMARK minimizedRMSD -1
REMARK  0 active torsions:
REMARK  status: ('A' for Active; 'I' for Inactive)
ROOT
ATOM      1  C   UNL d   1       1.047   0.655  -0.039  0.00  0.00     0.077 C 
ATOM      2  C1  UNL d   1      -0.215  -0.137  -0.219  0.00  0.00    -0.074 A 
ATOM      3  C2  UNL d   1      -0.846  -0.210  -1.465  0.00  0.00    -0.005 A 
ATOM      4  C3  UNL d   1      -2.013  -0.958  -1.619  0.00  0.00     0.006 A 
ATOM      5  C4  UNL d   1      -2.561  -1.638  -0.530  0.00  0.00    -0.005 A 
ATOM      6  C5  UNL d   1      -1.943  -1.577   0.723  0.00  0.00    -0.074 A 
ATOM      7  C6  UNL d   1      -2.513  -2.310   1.901  0.00  0.00     0.077 C 
ATOM      8  C7  UNL d   1      -0.767  -0.829   0.868  0.00  0.00    -0.001 A 
ENDROOT
TORSDOF 0
ENDMDL
