MODEL 1
REMARK minimizedAffinity -4.83791018
REMARK minimizedRMSD -1
REMARK  0 active torsions:
REMARK  status: ('A' for Active; 'I' for Inactive)
ROOT
ATOM      1  C   UNL d   1       1.849   0.389   0.002  0.00  0.00     0.077 C 
ATOM      2  C1  UNL d   1       0.560  -0.367   0.130  0.00  0.00    -0.074 A 
ATOM      3  C2  UNL d   1       0.432  -1.419   1.043  0.00  0.00    -0.005 A 
ATOM      4  C3  UNL d   1      -0.776  -2.107   1.157  0.00  0.00     0.006 A 
ATOM      5  C4  UNL d   1      -1.866  -1.751   0.361  0.00  0.00    -0.005 A 
ATOM      6  C5  UNL d   1      -1.756  -0.701  -0.556  0.00  0.00    -0.074 A 
ATOM      7  C6  UNL d   1      -2.921  -0.299  -1.412  0.00  0.00     0.077 C 
ATOM      8  C7  UNL d   1      -0.541  -0.010  -0.660  0.00  0.00    -0.001 A 
ENDROOT
TORSDOF 0
ENDMDL
