MODEL 1
REMARK minimizedAffinity -4.8345437
REMARK minimizedRMSD -1
REMARK  0 active torsions:
REMARK  status: ('A' for Active; 'I' for Inactive)
ROOT
ATOM      1  C   UNL d   1      -3.665  -1.111  -0.736  0.00  0.00     0.077 C 
ATOM      2  C1  UNL d   1      -2.358  -1.329  -0.033  0.00  0.00    -0.074 A 
ATOM      3  C2  UNL d   1      -2.198  -2.382   0.874  0.00  0.00    -0.005 A 
ATOM      4  C3  UNL d   1      -0.974  -2.579   1.513  0.00  0.00     0.006 A 
ATOM      5  C4  UNL d   1       0.100  -1.727   1.253  0.00  0.00    -0.005 A 
ATOM      6  C5  UNL d   1      -0.042  -0.669   0.349  0.00  0.00    -0.074 A 
ATOM      7  C6  UNL d   1       1.105   0.250   0.050  0.00  0.00     0.077 C 
ATOM      8  C7  UNL d   1      -1.273  -0.482  -0.295  0.00  0.00    -0.001 A 
ENDROOT
TORSDOF 0
ENDMDL
