MODEL 1
REMARK minimizedAffinity -5.32488108
REMARK minimizedRMSD -1
REMARK  0 active torsions:
REMARK  status: ('A' for Active; 'I' for Inactive)
ROOT
ATOM      1  C   UNL d   1      -3.789  -1.658  -0.120  0.00  0.00     0.077 C 
ATOM      2  C1  UNL d   1      -2.393  -1.149   0.085  0.00  0.00    -0.074 A 
ATOM      3  C2  UNL d   1      -1.695  -1.421   1.266  0.00  0.00    -0.005 A 
ATOM      4  C3  UNL d   1      -0.393  -0.949   1.438  0.00  0.00     0.006 A 
ATOM      5  C4  UNL d   1       0.222  -0.202   0.433  0.00  0.00    -0.005 A 
ATOM      6  C5  UNL d   1      -0.460   0.079  -0.755  0.00  0.00    -0.074 A 
ATOM      7  C6  UNL d   1       0.190   0.872  -1.849  0.00  0.00     0.077 C 
ATOM      8  C7  UNL d   1      -1.765  -0.405  -0.923  0.00  0.00    -0.001 A 
ENDROOT
TORSDOF 0
ENDMDL
