MODEL 1
REMARK minimizedAffinity -4.80188322
REMARK minimizedRMSD -1
REMARK  0 active torsions:
REMARK  status: ('A' for Active; 'I' for Inactive)
ROOT
ATOM      1  C   UNL d   1      -2.770  -0.156   0.412  0.00  0.00     0.077 C 
ATOM      2  C1  UNL d   1      -1.412  -0.019  -0.211  0.00  0.00    -0.074 A 
ATOM      3  C2  UNL d   1      -1.113  -0.641  -1.427  0.00  0.00    -0.005 A 
ATOM      4  C3  UNL d   1       0.151  -0.496  -1.999  0.00  0.00     0.006 A 
ATOM      5  C4  UNL d   1       1.127   0.271  -1.361  0.00  0.00    -0.005 A 
ATOM      6  C5  UNL d   1       0.845   0.901  -0.145  0.00  0.00    -0.074 A 
ATOM      7  C6  UNL d   1       1.880   1.737   0.549  0.00  0.00     0.077 C 
ATOM      8  C7  UNL d   1      -0.429   0.757   0.420  0.00  0.00    -0.001 A 
ENDROOT
TORSDOF 0
ENDMDL
