MODEL 1
REMARK minimizedAffinity -4.06674814
REMARK minimizedRMSD -1
REMARK  0 active torsions:
REMARK  status: ('A' for Active; 'I' for Inactive)
ROOT
ATOM      1  C   UNL d   1      -1.569  -2.291   2.036  0.00  0.00     0.077 C 
ATOM      2  C1  UNL d   1      -1.212  -1.318   0.952  0.00  0.00    -0.074 A 
ATOM      3  C2  UNL d   1      -2.146  -0.954  -0.023  0.00  0.00    -0.005 A 
ATOM      4  C3  UNL d   1      -1.802  -0.041  -1.020  0.00  0.00     0.006 A 
ATOM      5  C4  UNL d   1      -0.524   0.517  -1.052  0.00  0.00    -0.005 A 
ATOM      6  C5  UNL d   1       0.423   0.166  -0.084  0.00  0.00    -0.074 A 
ATOM      7  C6  UNL d   1       1.799   0.764  -0.098  0.00  0.00     0.077 C 
ATOM      8  C7  UNL d   1       0.068  -0.747   0.918  0.00  0.00    -0.001 A 
ENDROOT
TORSDOF 0
ENDMDL
