MODEL 1
REMARK minimizedAffinity -0.0907610655
REMARK minimizedRMSD -1
REMARK  0 active torsions:
REMARK  status: ('A' for Active; 'I' for Inactive)
ROOT
ATOM      1  C   UNL d   1      -3.162  -1.414  -0.826  0.00  0.00     0.077 C 
ATOM      2  C1  UNL d   1      -1.842  -0.704  -0.877  0.00  0.00    -0.074 A 
ATOM      3  C2  UNL d   1      -1.541   0.180  -1.918  0.00  0.00    -0.005 A 
ATOM      4  C3  UNL d   1      -0.313   0.841  -1.947  0.00  0.00     0.006 A 
ATOM      5  C4  UNL d   1       0.625   0.625  -0.936  0.00  0.00    -0.005 A 
ATOM      6  C5  UNL d   1       0.341  -0.255   0.114  0.00  0.00    -0.074 A 
ATOM      7  C6  UNL d   1       1.334  -0.491   1.213  0.00  0.00     0.077 C 
ATOM      8  C7  UNL d   1      -0.898  -0.909   0.139  0.00  0.00    -0.001 A 
ENDROOT
TORSDOF 0
ENDMDL
