MODEL 1
REMARK minimizedAffinity -5.30594015
REMARK minimizedRMSD -1
REMARK  0 active torsions:
REMARK  status: ('A' for Active; 'I' for Inactive)
ROOT
ATOM      1  C   UNL d   1      -1.303   1.153  -3.023  0.00  0.00     0.077 C 
ATOM      2  C1  UNL d   1      -1.279   0.460  -1.693  0.00  0.00    -0.074 A 
ATOM      3  C2  UNL d   1      -2.467   0.109  -1.044  0.00  0.00    -0.005 A 
ATOM      4  C3  UNL d   1      -2.429  -0.544   0.187  0.00  0.00     0.006 A 
ATOM      5  C4  UNL d   1      -1.205  -0.852   0.782  0.00  0.00    -0.005 A 
ATOM      6  C5  UNL d   1      -0.007  -0.510   0.148  0.00  0.00    -0.074 A 
ATOM      7  C6  UNL d   1       1.318  -0.842   0.768  0.00  0.00     0.077 C 
ATOM      8  C7  UNL d   1      -0.053   0.140  -1.093  0.00  0.00    -0.001 A 
ENDROOT
TORSDOF 0
ENDMDL
