MODEL 1
REMARK minimizedAffinity 0.0225621834
REMARK minimizedRMSD -1
REMARK  0 active torsions:
REMARK  status: ('A' for Active; 'I' for Inactive)
ROOT
ATOM      1  C   UNL d   1      -2.135   0.754   1.930  0.00  0.00     0.077 C 
ATOM      2  C1  UNL d   1      -0.955  -0.060   1.490  0.00  0.00    -0.074 A 
ATOM      3  C2  UNL d   1      -0.724  -1.334   2.019  0.00  0.00    -0.005 A 
ATOM      4  C3  UNL d   1       0.372  -2.084   1.593  0.00  0.00     0.006 A 
ATOM      5  C4  UNL d   1       1.247  -1.569   0.636  0.00  0.00    -0.005 A 
ATOM      6  C5  UNL d   1       1.032  -0.297   0.096  0.00  0.00    -0.074 A 
ATOM      7  C6  UNL d   1       1.957   0.268  -0.941  0.00  0.00     0.077 C 
ATOM      8  C7  UNL d   1      -0.076   0.448   0.524  0.00  0.00    -0.001 A 
ENDROOT
TORSDOF 0
ENDMDL
