MODEL 1
REMARK minimizedAffinity -5.50391102
REMARK minimizedRMSD -1
REMARK  0 active torsions:
REMARK  status: ('A' for Active; 'I' for Inactive)
ROOT
ATOM      1  C   UNL d   1       1.283   0.319   0.205  0.00  0.00     0.077 C 
ATOM      2  C1  UNL d   1      -0.105  -0.194  -0.039  0.00  0.00    -0.074 A 
ATOM      3  C2  UNL d   1      -0.948   0.426  -0.966  0.00  0.00    -0.005 A 
ATOM      4  C3  UNL d   1      -2.233  -0.068  -1.189  0.00  0.00     0.006 A 
ATOM      5  C4  UNL d   1      -2.687  -1.186  -0.488  0.00  0.00    -0.005 A 
ATOM      6  C5  UNL d   1      -1.858  -1.820   0.442  0.00  0.00    -0.074 A 
ATOM      7  C6  UNL d   1      -2.327  -3.029   1.197  0.00  0.00     0.077 C 
ATOM      8  C7  UNL d   1      -0.566  -1.322   0.656  0.00  0.00    -0.001 A 
ENDROOT
TORSDOF 0
ENDMDL
