MODEL 1
REMARK minimizedAffinity -2.36093426
REMARK minimizedRMSD -1
REMARK  0 active torsions:
REMARK  status: ('A' for Active; 'I' for Inactive)
ROOT
ATOM      1  C   UNL d   1       1.777   1.077  -0.168  0.00  0.00     0.077 C 
ATOM      2  C1  UNL d   1       0.634   0.220   0.288  0.00  0.00    -0.074 A 
ATOM      3  C2  UNL d   1       0.813  -0.750   1.279  0.00  0.00    -0.005 A 
ATOM      4  C3  UNL d   1      -0.262  -1.533   1.699  0.00  0.00     0.006 A 
ATOM      5  C4  UNL d   1      -1.525  -1.355   1.133  0.00  0.00    -0.005 A 
ATOM      6  C5  UNL d   1      -1.723  -0.390   0.141  0.00  0.00    -0.074 A 
ATOM      7  C6  UNL d   1      -3.076  -0.179  -0.472  0.00  0.00     0.077 C 
ATOM      8  C7  UNL d   1      -0.640   0.398  -0.271  0.00  0.00    -0.001 A 
ENDROOT
TORSDOF 0
ENDMDL
