MODEL 1
REMARK minimizedAffinity -2.71494699
REMARK minimizedRMSD -1
REMARK  0 active torsions:
REMARK  status: ('A' for Active; 'I' for Inactive)
ROOT
ATOM      1  C   UNL d   1      -3.429  -0.757   0.108  0.00  0.00     0.077 C 
ATOM      2  C1  UNL d   1      -2.092  -0.451  -0.499  0.00  0.00    -0.074 A 
ATOM      3  C2  UNL d   1      -1.958  -0.246  -1.876  0.00  0.00    -0.005 A 
ATOM      4  C3  UNL d   1      -0.710   0.048  -2.425  0.00  0.00     0.006 A 
ATOM      5  C4  UNL d   1       0.415   0.139  -1.604  0.00  0.00    -0.005 A 
ATOM      6  C5  UNL d   1       0.300  -0.062  -0.225  0.00  0.00    -0.074 A 
ATOM      7  C6  UNL d   1       1.497   0.042   0.673  0.00  0.00     0.077 C 
ATOM      8  C7  UNL d   1      -0.959  -0.350   0.320  0.00  0.00    -0.001 A 
ENDROOT
TORSDOF 0
ENDMDL
