MODEL 1
REMARK minimizedAffinity -3.6640799
REMARK minimizedRMSD -1
REMARK  0 active torsions:
REMARK  status: ('A' for Active; 'I' for Inactive)
ROOT
ATOM      1  C   UNL d   1      -3.336  -1.032   0.010  0.00  0.00     0.077 C 
ATOM      2  C1  UNL d   1      -1.972  -0.559  -0.398  0.00  0.00    -0.074 A 
ATOM      3  C2  UNL d   1      -1.721  -0.132  -1.706  0.00  0.00    -0.005 A 
ATOM      4  C3  UNL d   1      -0.450   0.314  -2.069  0.00  0.00     0.006 A 
ATOM      5  C4  UNL d   1       0.581   0.338  -1.128  0.00  0.00    -0.005 A 
ATOM      6  C5  UNL d   1       0.348  -0.084   0.185  0.00  0.00    -0.074 A 
ATOM      7  C6  UNL d   1       1.442  -0.055   1.210  0.00  0.00     0.077 C 
ATOM      8  C7  UNL d   1      -0.934  -0.524   0.543  0.00  0.00    -0.001 A 
ENDROOT
TORSDOF 0
ENDMDL
