MODEL 1
REMARK minimizedAffinity -4.90568781
REMARK minimizedRMSD -1
REMARK  0 active torsions:
REMARK  status: ('A' for Active; 'I' for Inactive)
ROOT
ATOM      1  C   UNL d   1      -0.759   1.088  -1.768  0.00  0.00     0.077 C 
ATOM      2  C1  UNL d   1      -1.478  -0.018  -1.055  0.00  0.00    -0.074 A 
ATOM      3  C2  UNL d   1      -2.707  -0.495  -1.524  0.00  0.00    -0.005 A 
ATOM      4  C3  UNL d   1      -3.360  -1.531  -0.856  0.00  0.00     0.006 A 
ATOM      5  C4  UNL d   1      -2.792  -2.099   0.285  0.00  0.00    -0.005 A 
ATOM      6  C5  UNL d   1      -1.564  -1.636   0.768  0.00  0.00    -0.074 A 
ATOM      7  C6  UNL d   1      -0.936  -2.242   1.987  0.00  0.00     0.077 C 
ATOM      8  C7  UNL d   1      -0.911  -0.600   0.087  0.00  0.00    -0.001 A 
ENDROOT
TORSDOF 0
ENDMDL
