MODEL 1
REMARK minimizedAffinity -4.2937355
REMARK minimizedRMSD -1
REMARK  0 active torsions:
REMARK  status: ('A' for Active; 'I' for Inactive)
ROOT
ATOM      1  C   UNL d   1      -3.132  -1.266   1.005  0.00  0.00     0.077 C 
ATOM      2  C1  UNL d   1      -1.917  -0.686   0.345  0.00  0.00    -0.074 A 
ATOM      3  C2  UNL d   1      -1.970  -0.214  -0.970  0.00  0.00    -0.005 A 
ATOM      4  C3  UNL d   1      -0.834   0.332  -1.568  0.00  0.00     0.006 A 
ATOM      5  C4  UNL d   1       0.365   0.412  -0.857  0.00  0.00    -0.005 A 
ATOM      6  C5  UNL d   1       0.436  -0.054   0.460  0.00  0.00    -0.074 A 
ATOM      7  C6  UNL d   1       1.714   0.034   1.241  0.00  0.00     0.077 C 
ATOM      8  C7  UNL d   1      -0.711  -0.595   1.055  0.00  0.00    -0.001 A 
ENDROOT
TORSDOF 0
ENDMDL
