MODEL 1
REMARK minimizedAffinity -3.12784886
REMARK minimizedRMSD -1
REMARK  0 active torsions:
REMARK  status: ('A' for Active; 'I' for Inactive)
ROOT
ATOM      1  C   UNL d   1       3.403   4.067  -1.723  0.00  0.00     0.077 C 
ATOM      2  C1  UNL d   1       2.833   3.313  -0.559  0.00  0.00    -0.074 A 
ATOM      3  C2  UNL d   1       2.765   3.896   0.711  0.00  0.00    -0.005 A 
ATOM      4  C3  UNL d   1       2.224   3.187   1.783  0.00  0.00     0.006 A 
ATOM      5  C4  UNL d   1       1.745   1.889   1.596  0.00  0.00    -0.005 A 
ATOM      6  C5  UNL d   1       1.804   1.290   0.334  0.00  0.00    -0.074 A 
ATOM      7  C6  UNL d   1       1.285  -0.100   0.114  0.00  0.00     0.077 C 
ATOM      8  C7  UNL d   1       2.343   2.012  -0.740  0.00  0.00    -0.001 A 
ENDROOT
TORSDOF 0
ENDMDL
