MODEL 1
REMARK minimizedAffinity 3.98117208
REMARK minimizedRMSD -1
REMARK  0 active torsions:
REMARK  status: ('A' for Active; 'I' for Inactive)
ROOT
ATOM      1  C   UNL d   1       0.779   1.763   0.798  0.00  0.00    -0.002 A 
ATOM      2  C1  UNL d   1       0.577   0.567   1.472  0.00  0.00     0.010 A 
ATOM      3  C2  UNL d   1      -0.687  -0.026   1.503  0.00  0.00     0.041 A 
ATOM      4  C3  UNL d   1      -1.754   0.609   0.837  0.00  0.00    -0.075 A 
ATOM      5  S   UNL d   1      -3.388   0.067   0.740  0.00  0.00     0.015 SA
ATOM      6  C4  UNL d   1      -3.856   1.411  -0.199  0.00  0.00     0.022 A 
ATOM      7  C5  UNL d   1      -2.804   2.262  -0.441  0.00  0.00     0.026 A 
ATOM      8  C6  UNL d   1      -1.575   1.814   0.152  0.00  0.00    -0.082 A 
ATOM      9  C7  UNL d   1      -0.282   2.390   0.139  0.00  0.00     0.045 A 
ENDROOT
TORSDOF 0
ENDMDL
