MODEL 1
REMARK minimizedAffinity 6.66166973
REMARK minimizedRMSD -1
REMARK  0 active torsions:
REMARK  status: ('A' for Active; 'I' for Inactive)
ROOT
ATOM      1  C   UNL d   1      -0.393   2.128   0.293  0.00  0.00    -0.002 A 
ATOM      2  C1  UNL d   1      -1.694   2.553   0.065  0.00  0.00     0.010 A 
ATOM      3  C2  UNL d   1      -2.777   1.825   0.561  0.00  0.00     0.041 A 
ATOM      4  C3  UNL d   1      -2.527   0.651   1.300  0.00  0.00    -0.075 A 
ATOM      5  S   UNL d   1      -3.697  -0.401   2.005  0.00  0.00     0.015 SA
ATOM      6  C4  UNL d   1      -2.497  -1.439   2.627  0.00  0.00     0.022 A 
ATOM      7  C5  UNL d   1      -1.229  -1.009   2.313  0.00  0.00     0.026 A 
ATOM      8  C6  UNL d   1      -1.226   0.203   1.543  0.00  0.00    -0.082 A 
ATOM      9  C7  UNL d   1      -0.150   0.963   1.026  0.00  0.00     0.045 A 
ENDROOT
TORSDOF 0
ENDMDL
