MODEL 1
REMARK minimizedAffinity 7.25074768
REMARK minimizedRMSD -1
REMARK  0 active torsions:
REMARK  status: ('A' for Active; 'I' for Inactive)
ROOT
ATOM      1  C   UNL d   1       1.800   2.974   2.915  0.00  0.00    -0.002 A 
ATOM      2  C1  UNL d   1       1.059   3.367   1.810  0.00  0.00     0.010 A 
ATOM      3  C2  UNL d   1       1.570   4.303   0.908  0.00  0.00     0.041 A 
ATOM      4  C3  UNL d   1       2.851   4.841   1.137  0.00  0.00    -0.075 A 
ATOM      5  S   UNL d   1       3.681   6.000   0.168  0.00  0.00     0.015 SA
ATOM      6  C4  UNL d   1       5.039   6.000   1.197  0.00  0.00     0.022 A 
ATOM      7  C5  UNL d   1       4.880   5.142   2.260  0.00  0.00     0.026 A 
ATOM      8  C6  UNL d   1       3.617   4.460   2.243  0.00  0.00    -0.082 A 
ATOM      9  C7  UNL d   1       3.071   3.510   3.139  0.00  0.00     0.045 A 
ENDROOT
TORSDOF 0
ENDMDL
