MODEL 1
REMARK minimizedAffinity 5.47392178
REMARK minimizedRMSD -1
REMARK  0 active torsions:
REMARK  status: ('A' for Active; 'I' for Inactive)
ROOT
ATOM      1  C   UNL d   1      -2.965  -2.870   0.199  0.00  0.00    -0.002 A 
ATOM      2  C1  UNL d   1      -2.568  -1.910   1.119  0.00  0.00     0.010 A 
ATOM      3  C2  UNL d   1      -1.737  -2.250   2.188  0.00  0.00     0.041 A 
ATOM      4  C3  UNL d   1      -1.306  -3.585   2.317  0.00  0.00    -0.075 A 
ATOM      5  S   UNL d   1      -0.284  -4.232   3.546  0.00  0.00     0.015 SA
ATOM      6  C4  UNL d   1      -0.349  -5.799   2.878  0.00  0.00     0.022 A 
ATOM      7  C5  UNL d   1      -1.127  -5.845   1.745  0.00  0.00     0.026 A 
ATOM      8  C6  UNL d   1      -1.691  -4.570   1.403  0.00  0.00    -0.082 A 
ATOM      9  C7  UNL d   1      -2.535  -4.193   0.331  0.00  0.00     0.045 A 
ENDROOT
TORSDOF 0
ENDMDL
