MODEL 1
REMARK minimizedAffinity 4.88642168
REMARK minimizedRMSD -1
REMARK  0 active torsions:
REMARK  status: ('A' for Active; 'I' for Inactive)
ROOT
ATOM      1  C   UNL d   1       0.599   3.417   3.745  0.00  0.00    -0.002 A 
ATOM      2  C1  UNL d   1      -0.530   2.966   3.076  0.00  0.00     0.010 A 
ATOM      3  C2  UNL d   1      -0.411   2.102   1.985  0.00  0.00     0.041 A 
ATOM      4  C3  UNL d   1       0.873   1.694   1.575  0.00  0.00    -0.075 A 
ATOM      5  S   UNL d   1       1.261   0.641   0.266  0.00  0.00     0.015 SA
ATOM      6  C4  UNL d   1       2.935   0.764   0.565  0.00  0.00     0.022 A 
ATOM      7  C5  UNL d   1       3.209   1.585   1.633  0.00  0.00     0.026 A 
ATOM      8  C6  UNL d   1       2.025   2.134   2.233  0.00  0.00    -0.082 A 
ATOM      9  C7  UNL d   1       1.872   3.010   3.335  0.00  0.00     0.045 A 
ENDROOT
TORSDOF 0
ENDMDL
