MODEL 1
REMARK minimizedAffinity 6.41542101
REMARK minimizedRMSD -1
REMARK  0 active torsions:
REMARK  status: ('A' for Active; 'I' for Inactive)
ROOT
ATOM      1  C   UNL d   1       3.237   2.191   1.950  0.00  0.00    -0.002 A 
ATOM      2  C1  UNL d   1       2.765   1.251   1.044  0.00  0.00     0.010 A 
ATOM      3  C2  UNL d   1       1.394   1.016   0.914  0.00  0.00     0.041 A 
ATOM      4  C3  UNL d   1       0.498   1.750   1.716  0.00  0.00    -0.075 A 
ATOM      5  S   UNL d   1      -1.222   1.631   1.729  0.00  0.00     0.015 SA
ATOM      6  C4  UNL d   1      -1.370   2.825   2.936  0.00  0.00     0.022 A 
ATOM      7  C5  UNL d   1      -0.147   3.313   3.331  0.00  0.00     0.026 A 
ATOM      8  C6  UNL d   1       0.950   2.702   2.635  0.00  0.00    -0.082 A 
ATOM      9  C7  UNL d   1       2.345   2.916   2.744  0.00  0.00     0.045 A 
ENDROOT
TORSDOF 0
ENDMDL
