MODEL 1
REMARK minimizedAffinity 7.50623226
REMARK minimizedRMSD -1
REMARK  0 active torsions:
REMARK  status: ('A' for Active; 'I' for Inactive)
ROOT
ATOM      1  C   UNL d   1       2.782   1.994   1.862  0.00  0.00    -0.002 A 
ATOM      2  C1  UNL d   1       2.215   1.093   0.973  0.00  0.00     0.010 A 
ATOM      3  C2  UNL d   1       0.827   0.993   0.850  0.00  0.00     0.041 A 
ATOM      4  C3  UNL d   1       0.012   1.824   1.643  0.00  0.00    -0.075 A 
ATOM      5  S   UNL d   1      -1.711   1.877   1.662  0.00  0.00     0.015 SA
ATOM      6  C4  UNL d   1      -1.735   3.098   2.851  0.00  0.00     0.022 A 
ATOM      7  C5  UNL d   1      -0.469   3.468   3.235  0.00  0.00     0.026 A 
ATOM      8  C6  UNL d   1       0.559   2.740   2.546  0.00  0.00    -0.082 A 
ATOM      9  C7  UNL d   1       1.969   2.817   2.647  0.00  0.00     0.045 A 
ENDROOT
TORSDOF 0
ENDMDL
