MODEL 1
REMARK minimizedAffinity 0.726745486
REMARK minimizedRMSD -1
REMARK  0 active torsions:
REMARK  status: ('A' for Active; 'I' for Inactive)
ROOT
ATOM      1  C   UNL d   1       2.674   1.122   1.117  0.00  0.00    -0.002 A 
ATOM      2  C1  UNL d   1       2.407   1.977   2.177  0.00  0.00     0.010 A 
ATOM      3  C2  UNL d   1       1.091   2.258   2.549  0.00  0.00     0.041 A 
ATOM      4  C3  UNL d   1       0.038   1.659   1.831  0.00  0.00    -0.075 A 
ATOM      5  S   UNL d   1      -1.653   1.856   2.108  0.00  0.00     0.015 SA
ATOM      6  C4  UNL d   1      -2.060   0.810   0.826  0.00  0.00     0.022 A 
ATOM      7  C5  UNL d   1      -0.946   0.313   0.191  0.00  0.00     0.026 A 
ATOM      8  C6  UNL d   1       0.281   0.794   0.761  0.00  0.00    -0.082 A 
ATOM      9  C7  UNL d   1       1.626   0.530   0.408  0.00  0.00     0.045 A 
ENDROOT
TORSDOF 0
ENDMDL
