MODEL 1
REMARK minimizedAffinity 9.97058868
REMARK minimizedRMSD -1
REMARK  0 active torsions:
REMARK  status: ('A' for Active; 'I' for Inactive)
ROOT
ATOM      1  C   UNL d   1       1.340   1.903  -3.400  0.00  0.00    -0.002 A 
ATOM      2  C1  UNL d   1       2.592   1.450  -3.011  0.00  0.00     0.010 A 
ATOM      3  C2  UNL d   1       2.839   1.100  -1.682  0.00  0.00     0.041 A 
ATOM      4  C3  UNL d   1       1.795   1.213  -0.742  0.00  0.00    -0.075 A 
ATOM      5  S   UNL d   1       1.866   0.840   0.940  0.00  0.00     0.015 SA
ATOM      6  C4  UNL d   1       0.235   1.273   1.180  0.00  0.00     0.022 A 
ATOM      7  C5  UNL d   1      -0.364   1.694   0.016  0.00  0.00     0.026 A 
ATOM      8  C6  UNL d   1       0.525   1.665  -1.111  0.00  0.00    -0.082 A 
ATOM      9  C7  UNL d   1       0.307   2.013  -2.466  0.00  0.00     0.045 A 
ENDROOT
TORSDOF 0
ENDMDL
