MODEL 1
REMARK minimizedAffinity 10.6592312
REMARK minimizedRMSD -1
REMARK  0 active torsions:
REMARK  status: ('A' for Active; 'I' for Inactive)
ROOT
ATOM      1  C   UNL d   1       0.716  -5.914   5.922  0.00  0.00    -0.002 A 
ATOM      2  C1  UNL d   1       1.956  -5.885   5.299  0.00  0.00     0.010 A 
ATOM      3  C2  UNL d   1       2.052  -5.894   3.906  0.00  0.00     0.041 A 
ATOM      4  C3  UNL d   1       0.869  -5.933   3.142  0.00  0.00    -0.075 A 
ATOM      5  S   UNL d   1       0.742  -5.951   1.423  0.00  0.00     0.015 SA
ATOM      6  C4  UNL d   1      -0.961  -5.997   1.474  0.00  0.00     0.022 A 
ATOM      7  C5  UNL d   1      -1.438  -6.000   2.764  0.00  0.00     0.026 A 
ATOM      8  C6  UNL d   1      -0.391  -5.962   3.746  0.00  0.00    -0.082 A 
ATOM      9  C7  UNL d   1      -0.455  -5.952   5.161  0.00  0.00     0.045 A 
ENDROOT
TORSDOF 0
ENDMDL
