MODEL 1
REMARK minimizedAffinity 5.73554039
REMARK minimizedRMSD -1
REMARK  0 active torsions:
REMARK  status: ('A' for Active; 'I' for Inactive)
ROOT
ATOM      1  C   UNL d   1       0.423   0.522  -0.067  0.00  0.00    -0.002 A 
ATOM      2  C1  UNL d   1       1.710   0.703   0.420  0.00  0.00     0.010 A 
ATOM      3  C2  UNL d   1       1.940   1.514   1.533  0.00  0.00     0.041 A 
ATOM      4  C3  UNL d   1       0.844   2.144   2.156  0.00  0.00    -0.075 A 
ATOM      5  S   UNL d   1       0.886   3.180   3.533  0.00  0.00     0.015 SA
ATOM      6  C4  UNL d   1      -0.803   3.406   3.508  0.00  0.00     0.022 A 
ATOM      7  C5  UNL d   1      -1.400   2.715   2.480  0.00  0.00     0.026 A 
ATOM      8  C6  UNL d   1      -0.461   1.975   1.685  0.00  0.00    -0.082 A 
ATOM      9  C7  UNL d   1      -0.661   1.148   0.553  0.00  0.00     0.045 A 
ENDROOT
TORSDOF 0
ENDMDL
