MODEL 1
REMARK minimizedAffinity 6.59045124
REMARK minimizedRMSD -1
REMARK  0 active torsions:
REMARK  status: ('A' for Active; 'I' for Inactive)
ROOT
ATOM      1  C   UNL d   1       1.550   1.228  -0.680  0.00  0.00    -0.002 A 
ATOM      2  C1  UNL d   1       0.174   1.118  -0.825  0.00  0.00     0.010 A 
ATOM      3  C2  UNL d   1      -0.683   1.506   0.207  0.00  0.00     0.041 A 
ATOM      4  C3  UNL d   1      -0.128   2.014   1.398  0.00  0.00    -0.075 A 
ATOM      5  S   UNL d   1      -0.983   2.553   2.795  0.00  0.00     0.015 SA
ATOM      6  C4  UNL d   1       0.458   2.943   3.617  0.00  0.00     0.022 A 
ATOM      7  C5  UNL d   1       1.573   2.675   2.859  0.00  0.00     0.026 A 
ATOM      8  C6  UNL d   1       1.254   2.136   1.568  0.00  0.00    -0.082 A 
ATOM      9  C7  UNL d   1       2.096   1.732   0.503  0.00  0.00     0.045 A 
ENDROOT
TORSDOF 0
ENDMDL
