MODEL 1
REMARK minimizedAffinity 14.9024515
REMARK minimizedRMSD -1
REMARK  0 active torsions:
REMARK  status: ('A' for Active; 'I' for Inactive)
ROOT
ATOM      1  C   UNL d   1       3.035   1.300   1.688  0.00  0.00    -0.002 A 
ATOM      2  C1  UNL d   1       2.505   0.377   0.798  0.00  0.00     0.010 A 
ATOM      3  C2  UNL d   1       1.126   0.299   0.593  0.00  0.00     0.041 A 
ATOM      4  C3  UNL d   1       0.281   1.175   1.303  0.00  0.00    -0.075 A 
ATOM      5  S   UNL d   1      -1.439   1.262   1.212  0.00  0.00     0.015 SA
ATOM      6  C4  UNL d   1      -1.509   2.526   2.353  0.00  0.00     0.022 A 
ATOM      7  C5  UNL d   1      -0.261   2.886   2.802  0.00  0.00     0.026 A 
ATOM      8  C6  UNL d   1       0.792   2.113   2.204  0.00  0.00    -0.082 A 
ATOM      9  C7  UNL d   1       2.194   2.166   2.391  0.00  0.00     0.045 A 
ENDROOT
TORSDOF 0
ENDMDL
