MODEL 1
REMARK minimizedAffinity 3.07767773
REMARK minimizedRMSD -1
REMARK  0 active torsions:
REMARK  status: ('A' for Active; 'I' for Inactive)
ROOT
ATOM      1  C   UNL d   1      -0.302   2.577   3.263  0.00  0.00    -0.002 A 
ATOM      2  C1  UNL d   1       0.814   3.267   3.716  0.00  0.00     0.010 A 
ATOM      3  C2  UNL d   1       2.057   3.085   3.106  0.00  0.00     0.041 A 
ATOM      4  C3  UNL d   1       2.160   2.191   2.022  0.00  0.00    -0.075 A 
ATOM      5  S   UNL d   1       3.579   1.809   1.121  0.00  0.00     0.015 SA
ATOM      6  C4  UNL d   1       2.738   0.723   0.113  0.00  0.00     0.022 A 
ATOM      7  C5  UNL d   1       1.405   0.641   0.442  0.00  0.00     0.026 A 
ATOM      8  C6  UNL d   1       1.050   1.486   1.548  0.00  0.00    -0.082 A 
ATOM      9  C7  UNL d   1      -0.196   1.692   2.187  0.00  0.00     0.045 A 
ENDROOT
TORSDOF 0
ENDMDL
