MODEL 1
REMARK minimizedAffinity 10.2749233
REMARK minimizedRMSD -1
REMARK  0 active torsions:
REMARK  status: ('A' for Active; 'I' for Inactive)
ROOT
ATOM      1  C   UNL d   1       1.697  -2.218   0.369  0.00  0.00     0.020 A 
ATOM      2  C1  UNL d   1       1.350  -1.494  -0.771  0.00  0.00     0.020 A 
ATOM      3  C2  UNL d   1       2.076  -0.355  -1.123  0.00  0.00     0.034 A 
ATOM      4  C3  UNL d   1       3.154   0.064  -0.334  0.00  0.00     0.017 A 
ATOM      5  C4  UNL d   1       3.502  -0.663   0.810  0.00  0.00     0.017 A 
ATOM      6  C5  UNL d   1       2.771  -1.803   1.158  0.00  0.00     0.034 A 
ATOM      7 Cl   UNL d   1       4.819  -0.208   1.832  0.00  0.00    -0.070 Cl
ATOM      8 Cl1  UNL d   1       4.009   1.482  -0.829  0.00  0.00    -0.070 Cl
ENDROOT
TORSDOF 0
ENDMDL
