MODEL 1
REMARK minimizedAffinity 8.87753773
REMARK minimizedRMSD -1
REMARK  0 active torsions:
REMARK  status: ('A' for Active; 'I' for Inactive)
ROOT
ATOM      1  C   UNL d   1      -4.915   5.905   4.086  0.00  0.00     0.020 A 
ATOM      2  C1  UNL d   1      -5.389   5.848   5.396  0.00  0.00     0.020 A 
ATOM      3  C2  UNL d   1      -5.714   4.616   5.968  0.00  0.00     0.034 A 
ATOM      4  C3  UNL d   1      -5.567   3.436   5.229  0.00  0.00     0.017 A 
ATOM      5  C4  UNL d   1      -5.092   3.495   3.914  0.00  0.00     0.017 A 
ATOM      6  C5  UNL d   1      -4.767   4.731   3.347  0.00  0.00     0.034 A 
ATOM      7 Cl   UNL d   1      -4.884   2.082   2.940  0.00  0.00    -0.070 Cl
ATOM      8 Cl1  UNL d   1      -5.989   1.948   6.000  0.00  0.00    -0.070 Cl
ENDROOT
TORSDOF 0
ENDMDL
