MODEL 1
REMARK minimizedAffinity 12.4383545
REMARK minimizedRMSD -1
REMARK  0 active torsions:
REMARK  status: ('A' for Active; 'I' for Inactive)
ROOT
ATOM      1  C   UNL d   1       1.451   0.749  -0.972  0.00  0.00     0.020 A 
ATOM      2  C1  UNL d   1       1.985  -0.513  -1.233  0.00  0.00     0.020 A 
ATOM      3  C2  UNL d   1       3.093  -0.965  -0.513  0.00  0.00     0.034 A 
ATOM      4  C3  UNL d   1       3.672  -0.155   0.470  0.00  0.00     0.017 A 
ATOM      5  C4  UNL d   1       3.136   1.112   0.731  0.00  0.00     0.017 A 
ATOM      6  C5  UNL d   1       2.026   1.559   0.008  0.00  0.00     0.034 A 
ATOM      7 Cl   UNL d   1       3.795   2.168   1.930  0.00  0.00    -0.070 Cl
ATOM      8 Cl1  UNL d   1       5.040  -0.777   1.322  0.00  0.00    -0.070 Cl
ENDROOT
TORSDOF 0
ENDMDL
