MODEL 1
REMARK minimizedAffinity 3.92999768
REMARK minimizedRMSD -1
REMARK  0 active torsions:
REMARK  status: ('A' for Active; 'I' for Inactive)
ROOT
ATOM      1  C   UNL d   1      -4.503   1.904  -0.034  0.00  0.00     0.020 A 
ATOM      2  C1  UNL d   1      -5.455   2.705  -0.663  0.00  0.00     0.020 A 
ATOM      3  C2  UNL d   1      -5.903   2.380  -1.945  0.00  0.00     0.034 A 
ATOM      4  C3  UNL d   1      -5.400   1.251  -2.602  0.00  0.00     0.017 A 
ATOM      5  C4  UNL d   1      -4.445   0.447  -1.969  0.00  0.00     0.017 A 
ATOM      6  C5  UNL d   1      -3.999   0.777  -0.685  0.00  0.00     0.034 A 
ATOM      7 Cl   UNL d   1      -3.777  -0.961  -2.716  0.00  0.00    -0.070 Cl
ATOM      8 Cl1  UNL d   1      -6.000   0.909  -4.186  0.00  0.00    -0.070 Cl
ENDROOT
TORSDOF 0
ENDMDL
