MODEL 1
REMARK minimizedAffinity 13.6359529
REMARK minimizedRMSD -1
REMARK  0 active torsions:
REMARK  status: ('A' for Active; 'I' for Inactive)
ROOT
ATOM      1  C   UNL d   1      -5.844   3.798   4.738  0.00  0.00     0.020 A 
ATOM      2  C1  UNL d   1      -5.853   5.192   4.693  0.00  0.00     0.020 A 
ATOM      3  C2  UNL d   1      -5.900   5.850   3.463  0.00  0.00     0.034 A 
ATOM      4  C3  UNL d   1      -5.940   5.116   2.272  0.00  0.00     0.017 A 
ATOM      5  C4  UNL d   1      -5.931   3.717   2.318  0.00  0.00     0.017 A 
ATOM      6  C5  UNL d   1      -5.883   3.063   3.553  0.00  0.00     0.034 A 
ATOM      7 Cl   UNL d   1      -5.978   2.742   0.892  0.00  0.00    -0.070 Cl
ATOM      8 Cl1  UNL d   1      -5.998   5.996   0.786  0.00  0.00    -0.070 Cl
ENDROOT
TORSDOF 0
ENDMDL
