MODEL 1
REMARK minimizedAffinity 11.6990938
REMARK minimizedRMSD -1
REMARK  0 active torsions:
REMARK  status: ('A' for Active; 'I' for Inactive)
ROOT
ATOM      1  C   UNL d   1      -1.971   0.847  -2.007  0.00  0.00     0.020 A 
ATOM      2  C1  UNL d   1      -2.756  -0.263  -2.320  0.00  0.00     0.020 A 
ATOM      3  C2  UNL d   1      -3.996  -0.437  -1.703  0.00  0.00     0.034 A 
ATOM      4  C3  UNL d   1      -4.456   0.499  -0.769  0.00  0.00     0.017 A 
ATOM      5  C4  UNL d   1      -3.667   1.613  -0.456  0.00  0.00     0.017 A 
ATOM      6  C5  UNL d   1      -2.426   1.782  -1.077  0.00  0.00     0.034 A 
ATOM      7 Cl   UNL d   1      -4.167   2.810   0.685  0.00  0.00    -0.070 Cl
ATOM      8 Cl1  UNL d   1      -5.999   0.220  -0.045  0.00  0.00    -0.070 Cl
ENDROOT
TORSDOF 0
ENDMDL
