MODEL 1
REMARK minimizedAffinity 7.51793909
REMARK minimizedRMSD -1
REMARK  0 active torsions:
REMARK  status: ('A' for Active; 'I' for Inactive)
ROOT
ATOM      1  C   UNL d   1       4.562   2.395  -0.457  0.00  0.00     0.020 A 
ATOM      2  C1  UNL d   1       3.924   2.444  -1.696  0.00  0.00     0.020 A 
ATOM      3  C2  UNL d   1       3.018   1.443  -2.055  0.00  0.00     0.034 A 
ATOM      4  C3  UNL d   1       2.748   0.389  -1.174  0.00  0.00     0.017 A 
ATOM      5  C4  UNL d   1       3.389   0.341   0.069  0.00  0.00     0.017 A 
ATOM      6  C5  UNL d   1       4.295   1.346   0.423  0.00  0.00     0.034 A 
ATOM      7 Cl   UNL d   1       3.107  -0.928   1.209  0.00  0.00    -0.070 Cl
ATOM      8 Cl1  UNL d   1       1.617  -0.814  -1.683  0.00  0.00    -0.070 Cl
ENDROOT
TORSDOF 0
ENDMDL
