MODEL 1
REMARK minimizedAffinity 6.70953035
REMARK minimizedRMSD -1
REMARK  0 active torsions:
REMARK  status: ('A' for Active; 'I' for Inactive)
ROOT
ATOM      1  C   UNL d   1       4.424   1.661  -0.017  0.00  0.00     0.020 A 
ATOM      2  C1  UNL d   1       3.953   1.572  -1.326  0.00  0.00     0.020 A 
ATOM      3  C2  UNL d   1       3.268   0.430  -1.746  0.00  0.00     0.034 A 
ATOM      4  C3  UNL d   1       3.051  -0.627  -0.855  0.00  0.00     0.017 A 
ATOM      5  C4  UNL d   1       3.524  -0.538   0.459  0.00  0.00     0.017 A 
ATOM      6  C5  UNL d   1       4.210   0.608   0.874  0.00  0.00     0.034 A 
ATOM      7 Cl   UNL d   1       3.295  -1.802   1.615  0.00  0.00    -0.070 Cl
ATOM      8 Cl1  UNL d   1       2.196  -2.009  -1.442  0.00  0.00    -0.070 Cl
ENDROOT
TORSDOF 0
ENDMDL
