MODEL 1
REMARK minimizedAffinity 16.3898582
REMARK minimizedRMSD -1
REMARK  0 active torsions:
REMARK  status: ('A' for Active; 'I' for Inactive)
ROOT
ATOM      1  C   UNL d   1       4.377   5.162   3.535  0.00  0.00     0.020 A 
ATOM      2  C1  UNL d   1       4.873   3.864   3.654  0.00  0.00     0.020 A 
ATOM      3  C2  UNL d   1       4.022   2.824   4.033  0.00  0.00     0.034 A 
ATOM      4  C3  UNL d   1       2.671   3.080   4.296  0.00  0.00     0.017 A 
ATOM      5  C4  UNL d   1       2.175   4.383   4.177  0.00  0.00     0.017 A 
ATOM      6  C5  UNL d   1       3.031   5.421   3.796  0.00  0.00     0.034 A 
ATOM      7 Cl   UNL d   1       0.520   4.777   4.484  0.00  0.00    -0.070 Cl
ATOM      8 Cl1  UNL d   1       1.676   1.746   4.760  0.00  0.00    -0.070 Cl
ENDROOT
TORSDOF 0
ENDMDL
