MODEL 1
REMARK minimizedAffinity 0.707266212
REMARK minimizedRMSD -1
REMARK  0 active torsions:
REMARK  status: ('A' for Active; 'I' for Inactive)
ROOT
ATOM      1  C   UNL d   1       2.291  -1.609  -0.964  0.00  0.00     0.020 A 
ATOM      2  C1  UNL d   1       2.208  -1.687   0.426  0.00  0.00     0.020 A 
ATOM      3  C2  UNL d   1       2.570  -0.590   1.210  0.00  0.00     0.034 A 
ATOM      4  C3  UNL d   1       3.017   0.591   0.605  0.00  0.00     0.017 A 
ATOM      5  C4  UNL d   1       3.099   0.669  -0.790  0.00  0.00     0.017 A 
ATOM      6  C5  UNL d   1       2.736  -0.433  -1.570  0.00  0.00     0.034 A 
ATOM      7 Cl   UNL d   1       3.641   2.091  -1.609  0.00  0.00    -0.070 Cl
ATOM      8 Cl1  UNL d   1       3.448   1.909   1.635  0.00  0.00    -0.070 Cl
ENDROOT
TORSDOF 0
ENDMDL
