MODEL 1
REMARK minimizedAffinity 12.4444885
REMARK minimizedRMSD -1
REMARK  0 active torsions:
REMARK  status: ('A' for Active; 'I' for Inactive)
ROOT
ATOM      1  C   UNL d   1      -5.657   4.494  -2.399  0.00  0.00     0.020 A 
ATOM      2  C1  UNL d   1      -4.964   4.470  -1.189  0.00  0.00     0.020 A 
ATOM      3  C2  UNL d   1      -4.579   3.250  -0.629  0.00  0.00     0.034 A 
ATOM      4  C3  UNL d   1      -4.888   2.049  -1.278  0.00  0.00     0.017 A 
ATOM      5  C4  UNL d   1      -5.583   2.074  -2.492  0.00  0.00     0.017 A 
ATOM      6  C5  UNL d   1      -5.966   3.298  -3.049  0.00  0.00     0.034 A 
ATOM      7 Cl   UNL d   1      -5.999   0.633  -3.352  0.00  0.00    -0.070 Cl
ATOM      8 Cl1  UNL d   1      -4.381   0.577  -0.528  0.00  0.00    -0.070 Cl
ENDROOT
TORSDOF 0
ENDMDL
