MODEL 1
REMARK minimizedAffinity 7.04595566
REMARK minimizedRMSD -1
REMARK  0 active torsions:
REMARK  status: ('A' for Active; 'I' for Inactive)
ROOT
ATOM      1  C   UNL d   1       0.946  -2.265   4.585  0.00  0.00     0.020 A 
ATOM      2  C1  UNL d   1       2.030  -1.921   3.779  0.00  0.00     0.020 A 
ATOM      3  C2  UNL d   1       1.823  -1.207   2.597  0.00  0.00     0.034 A 
ATOM      4  C3  UNL d   1       0.528  -0.835   2.217  0.00  0.00     0.017 A 
ATOM      5  C4  UNL d   1      -0.560  -1.181   3.027  0.00  0.00     0.017 A 
ATOM      6  C5  UNL d   1      -0.346  -1.895   4.210  0.00  0.00     0.034 A 
ATOM      7 Cl   UNL d   1      -2.186  -0.757   2.625  0.00  0.00    -0.070 Cl
ATOM      8 Cl1  UNL d   1       0.345   0.047   0.743  0.00  0.00    -0.070 Cl
ENDROOT
TORSDOF 0
ENDMDL
