MODEL 1
REMARK minimizedAffinity 1.45117569
REMARK minimizedRMSD -1
REMARK  0 active torsions:
REMARK  status: ('A' for Active; 'I' for Inactive)
ROOT
ATOM      1  C   UNL d   1      -1.473   1.163  -0.370  0.00  0.00     0.020 A 
ATOM      2  C1  UNL d   1      -2.271   0.094  -0.775  0.00  0.00     0.020 A 
ATOM      3  C2  UNL d   1      -2.602  -0.913   0.134  0.00  0.00     0.034 A 
ATOM      4  C3  UNL d   1      -2.135  -0.853   1.452  0.00  0.00     0.017 A 
ATOM      5  C4  UNL d   1      -1.334   0.221   1.857  0.00  0.00     0.017 A 
ATOM      6  C5  UNL d   1      -1.005   1.226   0.943  0.00  0.00     0.034 A 
ATOM      7 Cl   UNL d   1      -0.720   0.364   3.467  0.00  0.00    -0.070 Cl
ATOM      8 Cl1  UNL d   1      -2.584  -2.133   2.523  0.00  0.00    -0.070 Cl
ENDROOT
TORSDOF 0
ENDMDL
