MODEL 1
REMARK minimizedAffinity -3.49525523
REMARK minimizedRMSD -1
REMARK  0 active torsions:
REMARK  status: ('A' for Active; 'I' for Inactive)
ROOT
ATOM      1  C   UNL d   1       0.973  -2.288   3.483  0.00  0.00     0.020 A 
ATOM      2  C1  UNL d   1       1.562  -1.381   2.603  0.00  0.00     0.020 A 
ATOM      3  C2  UNL d   1       0.767  -0.468   1.905  0.00  0.00     0.034 A 
ATOM      4  C3  UNL d   1      -0.620  -0.461   2.087  0.00  0.00     0.017 A 
ATOM      5  C4  UNL d   1      -1.211  -1.372   2.970  0.00  0.00     0.017 A 
ATOM      6  C5  UNL d   1      -0.410  -2.283   3.666  0.00  0.00     0.034 A 
ATOM      7 Cl   UNL d   1      -2.916  -1.423   3.247  0.00  0.00    -0.070 Cl
ATOM      8 Cl1  UNL d   1      -1.542   0.695   1.192  0.00  0.00    -0.070 Cl
ENDROOT
TORSDOF 0
ENDMDL
