MODEL 1
REMARK minimizedAffinity -3.30398822
REMARK minimizedRMSD -1
REMARK  0 active torsions:
REMARK  status: ('A' for Active; 'I' for Inactive)
ROOT
ATOM      1  C   UNL d   1      -2.390  -0.858   2.161  0.00  0.00     0.020 A 
ATOM      2  C1  UNL d   1      -2.243  -1.590   3.338  0.00  0.00     0.020 A 
ATOM      3  C2  UNL d   1      -0.972  -1.790   3.882  0.00  0.00     0.034 A 
ATOM      4  C3  UNL d   1       0.156  -1.257   3.248  0.00  0.00     0.017 A 
ATOM      5  C4  UNL d   1       0.007  -0.522   2.067  0.00  0.00     0.017 A 
ATOM      6  C5  UNL d   1      -1.267  -0.325   1.527  0.00  0.00     0.034 A 
ATOM      7 Cl   UNL d   1       1.353   0.166   1.228  0.00  0.00    -0.070 Cl
ATOM      8 Cl1  UNL d   1       1.697  -1.544   3.977  0.00  0.00    -0.070 Cl
ENDROOT
TORSDOF 0
ENDMDL
