MODEL 1
REMARK minimizedAffinity -5.36747646
REMARK minimizedRMSD -1
REMARK  0 active torsions:
REMARK  status: ('A' for Active; 'I' for Inactive)
ROOT
ATOM      1  C   UNL d   1      -1.857  -1.088   3.736  0.00  0.00     0.020 A 
ATOM      2  C1  UNL d   1      -1.277  -1.970   4.647  0.00  0.00     0.020 A 
ATOM      3  C2  UNL d   1       0.112  -2.106   4.700  0.00  0.00     0.034 A 
ATOM      4  C3  UNL d   1       0.926  -1.359   3.841  0.00  0.00     0.017 A 
ATOM      5  C4  UNL d   1       0.343  -0.474   2.927  0.00  0.00     0.017 A 
ATOM      6  C5  UNL d   1      -1.048  -0.342   2.878  0.00  0.00     0.034 A 
ATOM      7 Cl   UNL d   1       1.281   0.482   1.834  0.00  0.00    -0.070 Cl
ATOM      8 Cl1  UNL d   1       2.636  -1.578   3.961  0.00  0.00    -0.070 Cl
ENDROOT
TORSDOF 0
ENDMDL
