MODEL 1
REMARK minimizedAffinity 1.4989295
REMARK minimizedRMSD -1
REMARK  0 active torsions:
REMARK  status: ('A' for Active; 'I' for Inactive)
ROOT
ATOM      1  C   UNL d   1      -0.349  -5.998  -4.174  0.00  0.00     0.020 A 
ATOM      2  C1  UNL d   1       0.198  -5.785  -5.438  0.00  0.00     0.020 A 
ATOM      3  C2  UNL d   1       1.418  -5.118  -5.568  0.00  0.00     0.034 A 
ATOM      4  C3  UNL d   1       2.095  -4.662  -4.431  0.00  0.00     0.017 A 
ATOM      5  C4  UNL d   1       1.545  -4.877  -3.162  0.00  0.00     0.017 A 
ATOM      6  C5  UNL d   1       0.323  -5.545  -3.038  0.00  0.00     0.034 A 
ATOM      7 Cl   UNL d   1       2.322  -4.344  -1.713  0.00  0.00    -0.070 Cl
ATOM      8 Cl1  UNL d   1       3.600  -3.845  -4.665  0.00  0.00    -0.070 Cl
ENDROOT
TORSDOF 0
ENDMDL
