MODEL 1
REMARK minimizedAffinity -1.45242667
REMARK minimizedRMSD -1
REMARK  0 active torsions:
REMARK  status: ('A' for Active; 'I' for Inactive)
ROOT
ATOM      1  C   UNL d   1      -1.050  -0.174   1.499  0.00  0.00     0.020 A 
ATOM      2  C1  UNL d   1      -1.487  -0.709   2.710  0.00  0.00     0.020 A 
ATOM      3  C2  UNL d   1      -0.564  -1.255   3.605  0.00  0.00     0.034 A 
ATOM      4  C3  UNL d   1       0.799  -1.269   3.289  0.00  0.00     0.017 A 
ATOM      5  C4  UNL d   1       1.236  -0.733   2.073  0.00  0.00     0.017 A 
ATOM      6  C5  UNL d   1       0.308  -0.186   1.181  0.00  0.00     0.034 A 
ATOM      7 Cl   UNL d   1       2.902  -0.714   1.613  0.00  0.00    -0.070 Cl
ATOM      8 Cl1  UNL d   1       1.884  -1.961   4.442  0.00  0.00    -0.070 Cl
ENDROOT
TORSDOF 0
ENDMDL
