MODEL 1
REMARK minimizedAffinity 1.66968715
REMARK minimizedRMSD -1
REMARK  0 active torsions:
REMARK  status: ('A' for Active; 'I' for Inactive)
ROOT
ATOM      1  C   UNL d   1       0.757  -5.704  -5.996  0.00  0.00     0.020 A 
ATOM      2  C1  UNL d   1       1.959  -5.010  -5.863  0.00  0.00     0.020 A 
ATOM      3  C2  UNL d   1       2.398  -4.611  -4.599  0.00  0.00     0.034 A 
ATOM      4  C3  UNL d   1       1.635  -4.904  -3.463  0.00  0.00     0.017 A 
ATOM      5  C4  UNL d   1       0.428  -5.601  -3.598  0.00  0.00     0.017 A 
ATOM      6  C5  UNL d   1      -0.007  -5.999  -4.866  0.00  0.00     0.034 A 
ATOM      7 Cl   UNL d   1      -0.568  -6.000  -2.243  0.00  0.00    -0.070 Cl
ATOM      8 Cl1  UNL d   1       2.238  -4.380  -1.932  0.00  0.00    -0.070 Cl
ENDROOT
TORSDOF 0
ENDMDL
