MODEL 1
REMARK minimizedAffinity 2.58322406
REMARK minimizedRMSD -1
REMARK  0 active torsions:
REMARK  status: ('A' for Active; 'I' for Inactive)
ROOT
ATOM      1  C   UNL d   1       1.216   0.193   1.383  0.00  0.00     0.020 A 
ATOM      2  C1  UNL d   1      -0.113  -0.043   1.034  0.00  0.00     0.020 A 
ATOM      3  C2  UNL d   1      -0.858  -0.999   1.728  0.00  0.00     0.034 A 
ATOM      4  C3  UNL d   1      -0.275  -1.723   2.774  0.00  0.00     0.017 A 
ATOM      5  C4  UNL d   1       1.060  -1.486   3.123  0.00  0.00     0.017 A 
ATOM      6  C5  UNL d   1       1.801  -0.528   2.425  0.00  0.00     0.034 A 
ATOM      7 Cl   UNL d   1       1.849  -2.340   4.402  0.00  0.00    -0.070 Cl
ATOM      8 Cl1  UNL d   1      -1.255  -2.889   3.588  0.00  0.00    -0.070 Cl
ENDROOT
TORSDOF 0
ENDMDL
