MODEL 1
REMARK minimizedAffinity 9.02906132
REMARK minimizedRMSD -1
REMARK  0 active torsions:
REMARK  status: ('A' for Active; 'I' for Inactive)
ROOT
ATOM      1  C   UNL d   1      -0.947   0.318   1.859  0.00  0.00     0.020 A 
ATOM      2  C1  UNL d   1      -0.061  -0.733   2.093  0.00  0.00     0.020 A 
ATOM      3  C2  UNL d   1       1.312  -0.537   1.935  0.00  0.00     0.034 A 
ATOM      4  C3  UNL d   1       1.804   0.713   1.542  0.00  0.00     0.017 A 
ATOM      5  C4  UNL d   1       0.914   1.767   1.307  0.00  0.00     0.017 A 
ATOM      6  C5  UNL d   1      -0.460   1.565   1.467  0.00  0.00     0.034 A 
ATOM      7 Cl   UNL d   1       1.446   3.338   0.819  0.00  0.00    -0.070 Cl
ATOM      8 Cl1  UNL d   1       3.515   0.884   1.367  0.00  0.00    -0.070 Cl
ENDROOT
TORSDOF 0
ENDMDL
