MODEL 1
REMARK minimizedAffinity -4.17891407
REMARK minimizedRMSD -1
REMARK  0 active torsions:
REMARK  status: ('A' for Active; 'I' for Inactive)
ROOT
ATOM      1  O1  BZF d   1      -1.627  -4.105  -4.960  0.00  0.00    -0.204 OA
ATOM      2  C2  BZF d   1      -1.507  -5.374  -5.491  0.00  0.00     0.174 A 
ATOM      3  C3  BZF d   1      -2.718  -5.882  -5.797  0.00  0.00    -0.012 A 
ATOM      4  C3A BZF d   1      -3.648  -4.830  -5.520  0.00  0.00    -0.107 A 
ATOM      5  C4  BZF d   1      -5.004  -4.721  -5.637  0.00  0.00     0.055 A 
ATOM      6  C5  BZF d   1      -5.614  -3.584  -5.212  0.00  0.00    -0.016 A 
ATOM      7  C6  BZF d   1      -4.901  -2.540  -4.661  0.00  0.00     0.022 A 
ATOM      8  C7  BZF d   1      -3.553  -2.600  -4.529  0.00  0.00     0.029 A 
ATOM      9  C7A BZF d   1      -2.930  -3.735  -4.988  0.00  0.00     0.058 A 
ENDROOT
TORSDOF 0
ENDMDL
