MODEL 1
REMARK minimizedAffinity -1.71258736
REMARK minimizedRMSD -1
REMARK  0 active torsions:
REMARK  status: ('A' for Active; 'I' for Inactive)
ROOT
ATOM      1  O1  BZF d   1      -5.079  -4.585  -5.701  0.00  0.00    -0.204 OA
ATOM      2  C2  BZF d   1      -5.326  -3.373  -5.086  0.00  0.00     0.174 A 
ATOM      3  C3  BZF d   1      -4.206  -2.894  -4.508  0.00  0.00    -0.012 A 
ATOM      4  C3A BZF d   1      -3.175  -3.822  -4.857  0.00  0.00    -0.107 A 
ATOM      5  C4  BZF d   1      -1.836  -3.883  -4.592  0.00  0.00     0.055 A 
ATOM      6  C5  BZF d   1      -1.127  -4.961  -5.018  0.00  0.00    -0.016 A 
ATOM      7  C6  BZF d   1      -1.723  -5.997  -5.707  0.00  0.00     0.022 A 
ATOM      8  C7  BZF d   1      -3.047  -5.979  -5.998  0.00  0.00     0.029 A 
ATOM      9  C7A BZF d   1      -3.760  -4.876  -5.597  0.00  0.00     0.058 A 
ENDROOT
TORSDOF 0
ENDMDL
