MODEL 1
REMARK minimizedAffinity -2.5508523
REMARK minimizedRMSD -1
REMARK  0 active torsions:
REMARK  status: ('A' for Active; 'I' for Inactive)
ROOT
ATOM      1  O1  BZF d   1      -2.207  -4.283  -6.000  0.00  0.00    -0.204 OA
ATOM      2  C2  BZF d   1      -2.232  -5.634  -5.713  0.00  0.00     0.174 A 
ATOM      3  C3  BZF d   1      -3.436  -5.998  -5.227  0.00  0.00    -0.012 A 
ATOM      4  C3A BZF d   1      -4.242  -4.817  -5.296  0.00  0.00    -0.107 A 
ATOM      5  C4  BZF d   1      -5.541  -4.547  -4.971  0.00  0.00     0.055 A 
ATOM      6  C5  BZF d   1      -6.000  -3.273  -5.091  0.00  0.00    -0.016 A 
ATOM      7  C6  BZF d   1      -5.188  -2.247  -5.525  0.00  0.00     0.022 A 
ATOM      8  C7  BZF d   1      -3.894  -2.467  -5.864  0.00  0.00     0.029 A 
ATOM      9  C7A BZF d   1      -3.436  -3.759  -5.776  0.00  0.00     0.058 A 
ENDROOT
TORSDOF 0
ENDMDL
