MODEL 1
REMARK minimizedAffinity -3.33216238
REMARK minimizedRMSD -1
REMARK  0 active torsions:
REMARK  status: ('A' for Active; 'I' for Inactive)
ROOT
ATOM      1  O1  BZF d   1      -2.616  -5.981  -4.480  0.00  0.00    -0.204 OA
ATOM      2  C2  BZF d   1      -1.464  -5.984  -5.242  0.00  0.00     0.174 A 
ATOM      3  C3  BZF d   1      -1.386  -4.868  -5.995  0.00  0.00    -0.012 A 
ATOM      4  C3A BZF d   1      -2.517  -4.078  -5.615  0.00  0.00    -0.107 A 
ATOM      5  C4  BZF d   1      -2.977  -2.851  -6.000  0.00  0.00     0.055 A 
ATOM      6  C5  BZF d   1      -4.152  -2.397  -5.490  0.00  0.00    -0.016 A 
ATOM      7  C6  BZF d   1      -4.893  -3.143  -4.597  0.00  0.00     0.022 A 
ATOM      8  C7  BZF d   1      -4.474  -4.363  -4.182  0.00  0.00     0.029 A 
ATOM      9  C7A BZF d   1      -3.271  -4.811  -4.670  0.00  0.00     0.058 A 
ENDROOT
TORSDOF 0
ENDMDL
