MODEL 1
REMARK minimizedAffinity -1.7226162
REMARK minimizedRMSD -1
REMARK  0 active torsions:
REMARK  status: ('A' for Active; 'I' for Inactive)
ROOT
ATOM      1  O1  BZF d   1      -3.758  -4.499  -2.814  0.00  0.00    -0.204 OA
ATOM      2  C2  BZF d   1      -3.255  -5.703  -3.267  0.00  0.00     0.174 A 
ATOM      3  C3  BZF d   1      -3.746  -5.998  -4.487  0.00  0.00    -0.012 A 
ATOM      4  C3A BZF d   1      -4.539  -4.866  -4.858  0.00  0.00    -0.107 A 
ATOM      5  C4  BZF d   1      -5.273  -4.556  -5.967  0.00  0.00     0.055 A 
ATOM      6  C5  BZF d   1      -5.989  -3.401  -5.984  0.00  0.00    -0.016 A 
ATOM      7  C6  BZF d   1      -6.000  -2.538  -4.908  0.00  0.00     0.022 A 
ATOM      8  C7  BZF d   1      -5.284  -2.800  -3.787  0.00  0.00     0.029 A 
ATOM      9  C7A BZF d   1      -4.532  -3.950  -3.781  0.00  0.00     0.058 A 
ENDROOT
TORSDOF 0
ENDMDL
