MODEL 1
REMARK minimizedAffinity 5.31879187
REMARK minimizedRMSD -1
REMARK  0 active torsions:
REMARK  status: ('A' for Active; 'I' for Inactive)
ROOT
ATOM      1  O1  BZF d   1       0.068  -1.575   2.715  0.00  0.00    -0.204 OA
ATOM      2  C2  BZF d   1       0.678  -2.609   3.398  0.00  0.00     0.174 A 
ATOM      3  C3  BZF d   1       1.580  -3.234   2.613  0.00  0.00    -0.012 A 
ATOM      4  C3A BZF d   1       1.597  -2.488   1.392  0.00  0.00    -0.107 A 
ATOM      5  C4  BZF d   1       2.303  -2.607   0.229  0.00  0.00     0.055 A 
ATOM      6  C5  BZF d   1       2.031  -1.760  -0.798  0.00  0.00    -0.016 A 
ATOM      7  C6  BZF d   1       1.057  -0.788  -0.699  0.00  0.00     0.022 A 
ATOM      8  C7  BZF d   1       0.334  -0.628   0.436  0.00  0.00     0.029 A 
ATOM      9  C7A BZF d   1       0.630  -1.461   1.488  0.00  0.00     0.058 A 
ENDROOT
TORSDOF 0
ENDMDL
