MODEL 1
REMARK minimizedAffinity -1.36774635
REMARK minimizedRMSD -1
REMARK  0 active torsions:
REMARK  status: ('A' for Active; 'I' for Inactive)
ROOT
ATOM      1  O1  BZF d   1      -5.580  -3.830  -4.908  0.00  0.00    -0.204 OA
ATOM      2  C2  BZF d   1      -5.318  -2.732  -4.110  0.00  0.00     0.174 A 
ATOM      3  C3  BZF d   1      -4.006  -2.662  -3.809  0.00  0.00    -0.012 A 
ATOM      4  C3A BZF d   1      -3.395  -3.733  -4.535  0.00  0.00    -0.107 A 
ATOM      5  C4  BZF d   1      -2.107  -4.172  -4.655  0.00  0.00     0.055 A 
ATOM      6  C5  BZF d   1      -1.856  -5.291  -5.384  0.00  0.00    -0.016 A 
ATOM      7  C6  BZF d   1      -2.867  -5.999  -6.000  0.00  0.00     0.022 A 
ATOM      8  C7  BZF d   1      -4.160  -5.600  -5.913  0.00  0.00     0.029 A 
ATOM      9  C7A BZF d   1      -4.413  -4.451  -5.205  0.00  0.00     0.058 A 
ENDROOT
TORSDOF 0
ENDMDL
