MODEL 1
REMARK minimizedAffinity -3.89573836
REMARK minimizedRMSD -1
REMARK  0 active torsions:
REMARK  status: ('A' for Active; 'I' for Inactive)
ROOT
ATOM      1  O1  BZF d   1      -4.349  -5.869  -5.315  0.00  0.00    -0.204 OA
ATOM      2  C2  BZF d   1      -2.981  -5.936  -5.138  0.00  0.00     0.174 A 
ATOM      3  C3  BZF d   1      -2.431  -4.705  -5.195  0.00  0.00    -0.012 A 
ATOM      4  C3A BZF d   1      -3.535  -3.805  -5.330  0.00  0.00    -0.107 A 
ATOM      5  C4  BZF d   1      -3.633  -2.446  -5.422  0.00  0.00     0.055 A 
ATOM      6  C5  BZF d   1      -4.854  -1.884  -5.619  0.00  0.00    -0.016 A 
ATOM      7  C6  BZF d   1      -5.996  -2.649  -5.733  0.00  0.00     0.022 A 
ATOM      8  C7  BZF d   1      -5.950  -4.001  -5.644  0.00  0.00     0.029 A 
ATOM      9  C7A BZF d   1      -4.722  -4.570  -5.412  0.00  0.00     0.058 A 
ENDROOT
TORSDOF 0
ENDMDL
