MODEL 1
REMARK minimizedAffinity -0.145945936
REMARK minimizedRMSD -1
REMARK  0 active torsions:
REMARK  status: ('A' for Active; 'I' for Inactive)
ROOT
ATOM      1  O1  BZF d   1      -0.059  -1.550   3.926  0.00  0.00    -0.204 OA
ATOM      2  C2  BZF d   1       1.031  -2.329   3.591  0.00  0.00     0.174 A 
ATOM      3  C3  BZF d   1       0.906  -2.815   2.339  0.00  0.00    -0.012 A 
ATOM      4  C3A BZF d   1      -0.297  -2.233   1.828  0.00  0.00    -0.107 A 
ATOM      5  C4  BZF d   1      -0.947  -2.319   0.630  0.00  0.00     0.055 A 
ATOM      6  C5  BZF d   1      -2.138  -1.684   0.478  0.00  0.00    -0.016 A 
ATOM      7  C6  BZF d   1      -2.711  -0.959   1.503  0.00  0.00     0.022 A 
ATOM      8  C7  BZF d   1      -2.102  -0.841   2.707  0.00  0.00     0.029 A 
ATOM      9  C7A BZF d   1      -0.881  -1.454   2.854  0.00  0.00     0.058 A 
ENDROOT
TORSDOF 0
ENDMDL
