MODEL 1
REMARK minimizedAffinity -0.505161583
REMARK minimizedRMSD -1
REMARK  0 active torsions:
REMARK  status: ('A' for Active; 'I' for Inactive)
ROOT
ATOM      1  O1  BZF d   1      -3.042  -5.999  -4.123  0.00  0.00    -0.204 OA
ATOM      2  C2  BZF d   1      -2.479  -5.371  -3.029  0.00  0.00     0.174 A 
ATOM      3  C3  BZF d   1      -3.098  -4.199  -2.779  0.00  0.00    -0.012 A 
ATOM      4  C3A BZF d   1      -4.171  -4.131  -3.723  0.00  0.00    -0.107 A 
ATOM      5  C4  BZF d   1      -5.152  -3.213  -3.963  0.00  0.00     0.055 A 
ATOM      6  C5  BZF d   1      -6.000  -3.410  -5.007  0.00  0.00    -0.016 A 
ATOM      7  C6  BZF d   1      -5.892  -4.511  -5.832  0.00  0.00     0.022 A 
ATOM      8  C7  BZF d   1      -4.937  -5.451  -5.630  0.00  0.00     0.029 A 
ATOM      9  C7A BZF d   1      -4.100  -5.271  -4.556  0.00  0.00     0.058 A 
ENDROOT
TORSDOF 0
ENDMDL
