MODEL 1
REMARK minimizedAffinity -4.07899714
REMARK minimizedRMSD -1
REMARK  0 active torsions:
REMARK  status: ('A' for Active; 'I' for Inactive)
ROOT
ATOM      1  O1  BZF d   1      -3.865  -5.959  -5.251  0.00  0.00    -0.204 OA
ATOM      2  C2  BZF d   1      -2.497  -5.836  -5.400  0.00  0.00     0.174 A 
ATOM      3  C3  BZF d   1      -2.153  -4.551  -5.624  0.00  0.00    -0.012 A 
ATOM      4  C3A BZF d   1      -3.374  -3.812  -5.523  0.00  0.00    -0.107 A 
ATOM      5  C4  BZF d   1      -3.680  -2.486  -5.632  0.00  0.00     0.055 A 
ATOM      6  C5  BZF d   1      -4.981  -2.100  -5.553  0.00  0.00    -0.016 A 
ATOM      7  C6  BZF d   1      -5.999  -3.012  -5.371  0.00  0.00     0.022 A 
ATOM      8  C7  BZF d   1      -5.744  -4.338  -5.252  0.00  0.00     0.029 A 
ATOM      9  C7A BZF d   1      -4.428  -4.728  -5.298  0.00  0.00     0.058 A 
ENDROOT
TORSDOF 0
ENDMDL
