MODEL 1
REMARK minimizedAffinity -1.29750836
REMARK minimizedRMSD -1
REMARK  0 active torsions:
REMARK  status: ('A' for Active; 'I' for Inactive)
ROOT
ATOM      1  O1  BZF d   1      -5.031  -3.475  -6.000  0.00  0.00    -0.204 OA
ATOM      2  C2  BZF d   1      -5.554  -2.593  -5.074  0.00  0.00     0.174 A 
ATOM      3  C3  BZF d   1      -4.843  -2.624  -3.929  0.00  0.00    -0.012 A 
ATOM      4  C3A BZF d   1      -3.756  -3.518  -4.185  0.00  0.00    -0.107 A 
ATOM      5  C4  BZF d   1      -2.698  -3.948  -3.436  0.00  0.00     0.055 A 
ATOM      6  C5  BZF d   1      -1.856  -4.879  -3.956  0.00  0.00    -0.016 A 
ATOM      7  C6  BZF d   1      -2.045  -5.405  -5.218  0.00  0.00     0.022 A 
ATOM      8  C7  BZF d   1      -3.078  -5.006  -5.999  0.00  0.00     0.029 A 
ATOM      9  C7A BZF d   1      -3.911  -4.041  -5.489  0.00  0.00     0.058 A 
ENDROOT
TORSDOF 0
ENDMDL
