MODEL 1
REMARK minimizedAffinity 6.13840246
REMARK minimizedRMSD -1
REMARK  0 active torsions:
REMARK  status: ('A' for Active; 'I' for Inactive)
ROOT
ATOM      1  O1  BZF d   1      -5.439  -5.568  -4.256  0.00  0.00    -0.204 OA
ATOM      2  C2  BZF d   1      -6.000  -5.060  -5.412  0.00  0.00     0.174 A 
ATOM      3  C3  BZF d   1      -5.168  -4.177  -6.000  0.00  0.00    -0.012 A 
ATOM      4  C3A BZF d   1      -3.976  -4.198  -5.208  0.00  0.00    -0.107 A 
ATOM      5  C4  BZF d   1      -2.780  -3.545  -5.295  0.00  0.00     0.055 A 
ATOM      6  C5  BZF d   1      -1.852  -3.735  -4.320  0.00  0.00    -0.016 A 
ATOM      7  C6  BZF d   1      -2.089  -4.564  -3.244  0.00  0.00     0.022 A 
ATOM      8  C7  BZF d   1      -3.259  -5.237  -3.117  0.00  0.00     0.029 A 
ATOM      9  C7A BZF d   1      -4.185  -5.073  -4.117  0.00  0.00     0.058 A 
ENDROOT
TORSDOF 0
ENDMDL
