MODEL 1
REMARK minimizedAffinity 2.80147743
REMARK minimizedRMSD -1
REMARK  0 active torsions:
REMARK  status: ('A' for Active; 'I' for Inactive)
ROOT
ATOM      1  O1  BZF d   1       0.275  -1.989   4.908  0.00  0.00    -0.204 OA
ATOM      2  C2  BZF d   1       1.234  -2.934   5.219  0.00  0.00     0.174 A 
ATOM      3  C3  BZF d   1       1.888  -3.334   4.109  0.00  0.00    -0.012 A 
ATOM      4  C3A BZF d   1       1.364  -2.526   3.051  0.00  0.00    -0.107 A 
ATOM      5  C4  BZF d   1       1.628  -2.444   1.714  0.00  0.00     0.055 A 
ATOM      6  C5  BZF d   1       0.889  -1.601   0.945  0.00  0.00    -0.016 A 
ATOM      7  C6  BZF d   1      -0.124  -0.832   1.479  0.00  0.00     0.022 A 
ATOM      8  C7  BZF d   1      -0.420  -0.876   2.801  0.00  0.00     0.029 A 
ATOM      9  C7A BZF d   1       0.348  -1.702   3.586  0.00  0.00     0.058 A 
ENDROOT
TORSDOF 0
ENDMDL
