MODEL 1
REMARK minimizedAffinity -2.71660304
REMARK minimizedRMSD -1
REMARK  0 active torsions:
REMARK  status: ('A' for Active; 'I' for Inactive)
ROOT
ATOM      1  O1  BZF d   1      -5.759  -3.839  -4.082  0.00  0.00    -0.204 OA
ATOM      2  C2  BZF d   1      -6.000  -2.955  -5.116  0.00  0.00     0.174 A 
ATOM      3  C3  BZF d   1      -4.982  -2.964  -6.000  0.00  0.00    -0.012 A 
ATOM      4  C3A BZF d   1      -4.088  -3.980  -5.535  0.00  0.00    -0.107 A 
ATOM      5  C4  BZF d   1      -2.902  -4.472  -5.999  0.00  0.00     0.055 A 
ATOM      6  C5  BZF d   1      -2.247  -5.414  -5.271  0.00  0.00    -0.016 A 
ATOM      7  C6  BZF d   1      -2.746  -5.883  -4.074  0.00  0.00     0.022 A 
ATOM      8  C7  BZF d   1      -3.922  -5.429  -3.575  0.00  0.00     0.029 A 
ATOM      9  C7A BZF d   1      -4.602  -4.501  -4.324  0.00  0.00     0.058 A 
ENDROOT
TORSDOF 0
ENDMDL
