MODEL 1
REMARK minimizedAffinity -2.29801989
REMARK minimizedRMSD -1
REMARK  0 active torsions:
REMARK  status: ('A' for Active; 'I' for Inactive)
ROOT
ATOM      1  O1  BZF d   1      -2.582  -4.036  -3.976  0.00  0.00    -0.204 OA
ATOM      2  C2  BZF d   1      -1.696  -5.048  -4.291  0.00  0.00     0.174 A 
ATOM      3  C3  BZF d   1      -2.299  -5.998  -5.034  0.00  0.00    -0.012 A 
ATOM      4  C3A BZF d   1      -3.622  -5.507  -5.271  0.00  0.00    -0.107 A 
ATOM      5  C4  BZF d   1      -4.695  -5.995  -5.960  0.00  0.00     0.055 A 
ATOM      6  C5  BZF d   1      -5.866  -5.305  -5.935  0.00  0.00    -0.016 A 
ATOM      7  C6  BZF d   1      -5.999  -4.128  -5.228  0.00  0.00     0.022 A 
ATOM      8  C7  BZF d   1      -4.961  -3.602  -4.534  0.00  0.00     0.029 A 
ATOM      9  C7A BZF d   1      -3.768  -4.280  -4.584  0.00  0.00     0.058 A 
ENDROOT
TORSDOF 0
ENDMDL
