MODEL 1
REMARK minimizedAffinity -3.09886312
REMARK minimizedRMSD -1
REMARK  0 active torsions:
REMARK  status: ('A' for Active; 'I' for Inactive)
ROOT
ATOM      1  O1  BZF d   1      -5.058  -5.506  -5.999  0.00  0.00    -0.204 OA
ATOM      2  C2  BZF d   1      -5.872  -4.689  -5.240  0.00  0.00     0.174 A 
ATOM      3  C3  BZF d   1      -5.160  -4.056  -4.285  0.00  0.00    -0.012 A 
ATOM      4  C3A BZF d   1      -3.800  -4.436  -4.518  0.00  0.00    -0.107 A 
ATOM      5  C4  BZF d   1      -2.619  -4.119  -3.908  0.00  0.00     0.055 A 
ATOM      6  C5  BZF d   1      -1.475  -4.717  -4.333  0.00  0.00    -0.016 A 
ATOM      7  C6  BZF d   1      -1.476  -5.638  -5.360  0.00  0.00     0.022 A 
ATOM      8  C7  BZF d   1      -2.621  -5.980  -5.999  0.00  0.00     0.029 A 
ATOM      9  C7A BZF d   1      -3.774  -5.353  -5.594  0.00  0.00     0.058 A 
ENDROOT
TORSDOF 0
ENDMDL
