MODEL 1
REMARK minimizedAffinity -4.80841398
REMARK minimizedRMSD -1
REMARK  0 active torsions:
REMARK  status: ('A' for Active; 'I' for Inactive)
ROOT
ATOM      1  O1  BZF d   1      -3.798  -3.752  -3.760  0.00  0.00    -0.204 OA
ATOM      2  C2  BZF d   1      -4.326  -3.279  -4.946  0.00  0.00     0.174 A 
ATOM      3  C3  BZF d   1      -3.600  -3.709  -5.998  0.00  0.00    -0.012 A 
ATOM      4  C3A BZF d   1      -2.607  -4.576  -5.441  0.00  0.00    -0.107 A 
ATOM      5  C4  BZF d   1      -1.600  -5.320  -5.985  0.00  0.00     0.055 A 
ATOM      6  C5  BZF d   1      -0.761  -6.000  -5.159  0.00  0.00    -0.016 A 
ATOM      7  C6  BZF d   1      -0.898  -5.954  -3.787  0.00  0.00     0.022 A 
ATOM      8  C7  BZF d   1      -1.886  -5.233  -3.202  0.00  0.00     0.029 A 
ATOM      9  C7A BZF d   1      -2.755  -4.571  -4.035  0.00  0.00     0.058 A 
ENDROOT
TORSDOF 0
ENDMDL
