MODEL 1
REMARK minimizedAffinity -2.69354057
REMARK minimizedRMSD -1
REMARK  0 active torsions:
REMARK  status: ('A' for Active; 'I' for Inactive)
ROOT
ATOM      1  C   UNL d   1      -1.931   1.047   1.498  0.00  0.00     0.077 C 
ATOM      2  C1  UNL d   1      -0.742   0.468   0.791  0.00  0.00    -0.074 A 
ATOM      3  C2  UNL d   1       0.062   1.263  -0.032  0.00  0.00    -0.005 A 
ATOM      4  C3  UNL d   1       1.171   0.713  -0.675  0.00  0.00     0.006 A 
ATOM      5  C4  UNL d   1       1.487  -0.635  -0.502  0.00  0.00    -0.005 A 
ATOM      6  C5  UNL d   1       0.696  -1.445   0.319  0.00  0.00    -0.074 A 
ATOM      7  C6  UNL d   1       1.027  -2.893   0.524  0.00  0.00     0.077 C 
ATOM      8  C7  UNL d   1      -0.413  -0.883   0.967  0.00  0.00    -0.001 A 
ENDROOT
TORSDOF 0
ENDMDL
