MODEL 1
REMARK minimizedAffinity -4.14654112
REMARK minimizedRMSD -1
REMARK  0 active torsions:
REMARK  status: ('A' for Active; 'I' for Inactive)
ROOT
ATOM      1  C   UNL d   1      -1.084   1.223   0.771  0.00  0.00     0.077 C 
ATOM      2  C1  UNL d   1       0.014   0.283   0.368  0.00  0.00    -0.074 A 
ATOM      3  C2  UNL d   1       0.887   0.604  -0.676  0.00  0.00    -0.005 A 
ATOM      4  C3  UNL d   1       1.910  -0.275  -1.033  0.00  0.00     0.006 A 
ATOM      5  C4  UNL d   1       2.068  -1.482  -0.351  0.00  0.00    -0.005 A 
ATOM      6  C5  UNL d   1       1.205  -1.819   0.697  0.00  0.00    -0.074 A 
ATOM      7  C6  UNL d   1       1.368  -3.108   1.447  0.00  0.00     0.077 C 
ATOM      8  C7  UNL d   1       0.185  -0.927   1.054  0.00  0.00    -0.001 A 
ENDROOT
TORSDOF 0
ENDMDL
