MODEL 1
REMARK minimizedAffinity -2.72192717
REMARK minimizedRMSD -1
REMARK  0 active torsions:
REMARK  status: ('A' for Active; 'I' for Inactive)
ROOT
ATOM      1  C   UNL d   1      -1.605   0.582  -1.090  0.00  0.00     0.077 C 
ATOM      2  C1  UNL d   1      -0.306   0.041  -0.571  0.00  0.00    -0.074 A 
ATOM      3  C2  UNL d   1       0.862   0.809  -0.618  0.00  0.00    -0.005 A 
ATOM      4  C3  UNL d   1       2.061   0.296  -0.122  0.00  0.00     0.006 A 
ATOM      5  C4  UNL d   1       2.104  -0.987   0.425  0.00  0.00    -0.005 A 
ATOM      6  C5  UNL d   1       0.945  -1.769   0.481  0.00  0.00    -0.074 A 
ATOM      7  C6  UNL d   1       0.972  -3.146   1.074  0.00  0.00     0.077 C 
ATOM      8  C7  UNL d   1      -0.257  -1.244  -0.013  0.00  0.00    -0.001 A 
ENDROOT
TORSDOF 0
ENDMDL
