MODEL 1
REMARK minimizedAffinity -3.9319098
REMARK minimizedRMSD -1
REMARK  0 active torsions:
REMARK  status: ('A' for Active; 'I' for Inactive)
ROOT
ATOM      1  C   UNL d   1       0.106  -3.904  -1.608  0.00  0.00     0.077 C 
ATOM      2  C1  UNL d   1       0.457  -2.801  -0.654  0.00  0.00    -0.074 A 
ATOM      3  C2  UNL d   1       1.373  -3.011   0.382  0.00  0.00    -0.005 A 
ATOM      4  C3  UNL d   1       1.698  -1.972   1.255  0.00  0.00     0.006 A 
ATOM      5  C4  UNL d   1       1.110  -0.716   1.102  0.00  0.00    -0.005 A 
ATOM      6  C5  UNL d   1       0.192  -0.487   0.072  0.00  0.00    -0.074 A 
ATOM      7  C6  UNL d   1      -0.441   0.860  -0.113  0.00  0.00     0.077 C 
ATOM      8  C7  UNL d   1      -0.123  -1.534  -0.806  0.00  0.00    -0.001 A 
ENDROOT
TORSDOF 0
ENDMDL
