MODEL 1
REMARK minimizedAffinity -5.81993294
REMARK minimizedRMSD -1
REMARK  0 active torsions:
REMARK  status: ('A' for Active; 'I' for Inactive)
ROOT
ATOM      1  C   UNL d   1      -1.966  -1.241   2.806  0.00  0.00     0.077 C 
ATOM      2  C1  UNL d   1      -0.736  -1.270   1.949  0.00  0.00    -0.074 A 
ATOM      3  C2  UNL d   1       0.222  -2.277   2.101  0.00  0.00    -0.005 A 
ATOM      4  C3  UNL d   1       1.357  -2.297   1.289  0.00  0.00     0.006 A 
ATOM      5  C4  UNL d   1       1.544  -1.311   0.319  0.00  0.00    -0.005 A 
ATOM      6  C5  UNL d   1       0.596  -0.296   0.152  0.00  0.00    -0.074 A 
ATOM      7  C6  UNL d   1       0.777   0.765  -0.892  0.00  0.00     0.077 C 
ATOM      8  C7  UNL d   1      -0.545  -0.288   0.967  0.00  0.00    -0.001 A 
ENDROOT
TORSDOF 0
ENDMDL
