MODEL 1
REMARK minimizedAffinity -0.291759551
REMARK minimizedRMSD -1
REMARK  0 active torsions:
REMARK  status: ('A' for Active; 'I' for Inactive)
ROOT
ATOM      1  C   UNL d   1       1.393  -5.998  -6.000  0.00  0.00     0.077 C 
ATOM      2  C1  UNL d   1       0.118  -5.579  -5.330  0.00  0.00    -0.074 A 
ATOM      3  C2  UNL d   1      -1.107  -5.663  -6.000  0.00  0.00    -0.005 A 
ATOM      4  C3  UNL d   1      -2.286  -5.278  -5.361  0.00  0.00     0.006 A 
ATOM      5  C4  UNL d   1      -2.251  -4.805  -4.048  0.00  0.00    -0.005 A 
ATOM      6  C5  UNL d   1      -1.036  -4.714  -3.363  0.00  0.00    -0.074 A 
ATOM      7  C6  UNL d   1      -0.982  -4.217  -1.949  0.00  0.00     0.077 C 
ATOM      8  C7  UNL d   1       0.144  -5.110  -4.009  0.00  0.00    -0.001 A 
ENDROOT
TORSDOF 0
ENDMDL
