MODEL 1
REMARK minimizedAffinity -5.48823547
REMARK minimizedRMSD -1
REMARK  0 active torsions:
REMARK  status: ('A' for Active; 'I' for Inactive)
ROOT
ATOM      1  C   UNL d   1       0.011   1.100  -0.970  0.00  0.00     0.077 C 
ATOM      2  C1  UNL d   1       0.457   0.026  -0.022  0.00  0.00    -0.074 A 
ATOM      3  C2  UNL d   1       1.762  -0.475  -0.066  0.00  0.00    -0.005 A 
ATOM      4  C3  UNL d   1       2.165  -1.467   0.827  0.00  0.00     0.006 A 
ATOM      5  C4  UNL d   1       1.269  -1.967   1.773  0.00  0.00    -0.005 A 
ATOM      6  C5  UNL d   1      -0.040  -1.478   1.832  0.00  0.00    -0.074 A 
ATOM      7  C6  UNL d   1      -1.013  -1.998   2.849  0.00  0.00     0.077 C 
ATOM      8  C7  UNL d   1      -0.436  -0.476   0.935  0.00  0.00    -0.001 A 
ENDROOT
TORSDOF 0
ENDMDL
