MODEL 1
REMARK minimizedAffinity -4.85820103
REMARK minimizedRMSD -1
REMARK  0 active torsions:
REMARK  status: ('A' for Active; 'I' for Inactive)
ROOT
ATOM      1  C   UNL d   1       1.328  -3.007   0.952  0.00  0.00     0.077 C 
ATOM      2  C1  UNL d   1       1.105  -1.674   0.300  0.00  0.00    -0.074 A 
ATOM      3  C2  UNL d   1       2.105  -1.078  -0.476  0.00  0.00    -0.005 A 
ATOM      4  C3  UNL d   1       1.880   0.157  -1.084  0.00  0.00     0.006 A 
ATOM      5  C4  UNL d   1       0.656   0.807  -0.923  0.00  0.00    -0.005 A 
ATOM      6  C5  UNL d   1      -0.356   0.225  -0.153  0.00  0.00    -0.074 A 
ATOM      7  C6  UNL d   1      -1.681   0.906   0.022  0.00  0.00     0.077 C 
ATOM      8  C7  UNL d   1      -0.125  -1.019   0.450  0.00  0.00    -0.001 A 
ENDROOT
TORSDOF 0
ENDMDL
