MODEL 1
REMARK minimizedAffinity -5.87991667
REMARK minimizedRMSD -1
REMARK  0 active torsions:
REMARK  status: ('A' for Active; 'I' for Inactive)
ROOT
ATOM      1  C   UNL d   1       0.872  -3.001   0.982  0.00  0.00     0.077 C 
ATOM      2  C1  UNL d   1       0.816  -1.604   0.439  0.00  0.00    -0.074 A 
ATOM      3  C2  UNL d   1       1.823  -1.119  -0.401  0.00  0.00    -0.005 A 
ATOM      4  C3  UNL d   1       1.753   0.179  -0.906  0.00  0.00     0.006 A 
ATOM      5  C4  UNL d   1       0.677   1.004  -0.577  0.00  0.00    -0.005 A 
ATOM      6  C5  UNL d   1      -0.340   0.536   0.261  0.00  0.00    -0.074 A 
ATOM      7  C6  UNL d   1      -1.509   1.406   0.616  0.00  0.00     0.077 C 
ATOM      8  C7  UNL d   1      -0.266  -0.772   0.759  0.00  0.00    -0.001 A 
ENDROOT
TORSDOF 0
ENDMDL
