MODEL 1
REMARK minimizedAffinity -4.83070755
REMARK minimizedRMSD -1
REMARK  0 active torsions:
REMARK  status: ('A' for Active; 'I' for Inactive)
ROOT
ATOM      1  C   UNL d   1      -0.812   0.938  -0.500  0.00  0.00     0.077 C 
ATOM      2  C1  UNL d   1       0.302  -0.060  -0.381  0.00  0.00    -0.074 A 
ATOM      3  C2  UNL d   1       1.377  -0.047  -1.275  0.00  0.00    -0.005 A 
ATOM      4  C3  UNL d   1       2.410  -0.975  -1.145  0.00  0.00     0.006 A 
ATOM      5  C4  UNL d   1       2.378  -1.924  -0.123  0.00  0.00    -0.005 A 
ATOM      6  C5  UNL d   1       1.312  -1.952   0.781  0.00  0.00    -0.074 A 
ATOM      7  C6  UNL d   1       1.267  -2.959   1.892  0.00  0.00     0.077 C 
ATOM      8  C7  UNL d   1       0.281  -1.011   0.649  0.00  0.00    -0.001 A 
ENDROOT
TORSDOF 0
ENDMDL
