MODEL 1
REMARK minimizedAffinity -3.96700358
REMARK minimizedRMSD -1
REMARK  0 active torsions:
REMARK  status: ('A' for Active; 'I' for Inactive)
ROOT
ATOM      1  C   UNL d   1      -2.072  -0.061   2.240  0.00  0.00     0.077 C 
ATOM      2  C1  UNL d   1      -0.883  -0.683   1.570  0.00  0.00    -0.074 A 
ATOM      3  C2  UNL d   1      -0.680  -2.067   1.605  0.00  0.00    -0.005 A 
ATOM      4  C3  UNL d   1       0.425  -2.632   0.969  0.00  0.00     0.006 A 
ATOM      5  C4  UNL d   1       1.338  -1.821   0.293  0.00  0.00    -0.005 A 
ATOM      6  C5  UNL d   1       1.151  -0.435   0.247  0.00  0.00    -0.074 A 
ATOM      7  C6  UNL d   1       2.116   0.450  -0.484  0.00  0.00     0.077 C 
ATOM      8  C7  UNL d   1       0.034   0.124   0.882  0.00  0.00    -0.001 A 
ENDROOT
TORSDOF 0
ENDMDL
