MODEL 1
REMARK minimizedAffinity -1.2591728
REMARK minimizedRMSD -1
REMARK  0 active torsions:
REMARK  status: ('A' for Active; 'I' for Inactive)
ROOT
ATOM      1  C   UNL d   1      -0.812  -1.544   3.043  0.00  0.00     0.077 C 
ATOM      2  C1  UNL d   1      -0.154  -0.949   1.834  0.00  0.00    -0.074 A 
ATOM      3  C2  UNL d   1       1.129  -1.347   1.444  0.00  0.00    -0.005 A 
ATOM      4  C3  UNL d   1       1.724  -0.791   0.312  0.00  0.00     0.006 A 
ATOM      5  C4  UNL d   1       1.044   0.167  -0.441  0.00  0.00    -0.005 A 
ATOM      6  C5  UNL d   1      -0.240   0.576  -0.067  0.00  0.00    -0.074 A 
ATOM      7  C6  UNL d   1      -0.989   1.597  -0.871  0.00  0.00     0.077 C 
ATOM      8  C7  UNL d   1      -0.834   0.008   1.068  0.00  0.00    -0.001 A 
ENDROOT
TORSDOF 0
ENDMDL
