MODEL 1
REMARK minimizedAffinity -4.5952239
REMARK minimizedRMSD -1
REMARK  0 active torsions:
REMARK  status: ('A' for Active; 'I' for Inactive)
ROOT
ATOM      1  C   UNL d   1      -0.795  -2.074   3.057  0.00  0.00     0.077 C 
ATOM      2  C1  UNL d   1      -0.044  -1.436   1.926  0.00  0.00    -0.074 A 
ATOM      3  C2  UNL d   1       1.111  -2.028   1.405  0.00  0.00    -0.005 A 
ATOM      4  C3  UNL d   1       1.793  -1.427   0.347  0.00  0.00     0.006 A 
ATOM      5  C4  UNL d   1       1.328  -0.231  -0.199  0.00  0.00    -0.005 A 
ATOM      6  C5  UNL d   1       0.175   0.376   0.308  0.00  0.00    -0.074 A 
ATOM      7  C6  UNL d   1      -0.344   1.657  -0.275  0.00  0.00     0.077 C 
ATOM      8  C7  UNL d   1      -0.509  -0.238   1.366  0.00  0.00    -0.001 A 
ENDROOT
TORSDOF 0
ENDMDL
