MODEL 1
REMARK minimizedAffinity -3.2633605
REMARK minimizedRMSD -1
REMARK  0 active torsions:
REMARK  status: ('A' for Active; 'I' for Inactive)
ROOT
ATOM      1  C   UNL d   1      -2.158   0.606   1.182  0.00  0.00     0.077 C 
ATOM      2  C1  UNL d   1      -0.806   0.147   0.721  0.00  0.00    -0.074 A 
ATOM      3  C2  UNL d   1      -0.059   0.908  -0.184  0.00  0.00    -0.005 A 
ATOM      4  C3  UNL d   1       1.201   0.473  -0.596  0.00  0.00     0.006 A 
ATOM      5  C4  UNL d   1       1.724  -0.725  -0.109  0.00  0.00    -0.005 A 
ATOM      6  C5  UNL d   1       0.992  -1.499   0.796  0.00  0.00    -0.074 A 
ATOM      7  C6  UNL d   1       1.544  -2.785   1.336  0.00  0.00     0.077 C 
ATOM      8  C7  UNL d   1      -0.270  -1.052   1.211  0.00  0.00    -0.001 A 
ENDROOT
TORSDOF 0
ENDMDL
