MODEL 1
REMARK minimizedAffinity -5.72817087
REMARK minimizedRMSD -1
REMARK  0 active torsions:
REMARK  status: ('A' for Active; 'I' for Inactive)
ROOT
ATOM      1  C   UNL d   1      -0.841  -2.211   3.113  0.00  0.00     0.077 C 
ATOM      2  C1  UNL d   1      -0.098  -1.699   1.914  0.00  0.00    -0.074 A 
ATOM      3  C2  UNL d   1       1.172  -2.187   1.593  0.00  0.00    -0.005 A 
ATOM      4  C3  UNL d   1       1.847  -1.707   0.470  0.00  0.00     0.006 A 
ATOM      5  C4  UNL d   1       1.258  -0.737  -0.341  0.00  0.00    -0.005 A 
ATOM      6  C5  UNL d   1      -0.012  -0.237  -0.037  0.00  0.00    -0.074 A 
ATOM      7  C6  UNL d   1      -0.663   0.799  -0.904  0.00  0.00     0.077 C 
ATOM      8  C7  UNL d   1      -0.686  -0.729   1.090  0.00  0.00    -0.001 A 
ENDROOT
TORSDOF 0
ENDMDL
