MODEL 1
REMARK minimizedAffinity -4.13878107
REMARK minimizedRMSD -1
REMARK  0 active torsions:
REMARK  status: ('A' for Active; 'I' for Inactive)
ROOT
ATOM      1  C   UNL d   1      -1.521   0.771   1.201  0.00  0.00     0.077 C 
ATOM      2  C1  UNL d   1      -0.298   0.065   0.695  0.00  0.00    -0.074 A 
ATOM      3  C2  UNL d   1       0.597   0.706  -0.167  0.00  0.00    -0.005 A 
ATOM      4  C3  UNL d   1       1.735   0.040  -0.622  0.00  0.00     0.006 A 
ATOM      5  C4  UNL d   1       1.989  -1.271  -0.219  0.00  0.00    -0.005 A 
ATOM      6  C5  UNL d   1       1.106  -1.928   0.643  0.00  0.00    -0.074 A 
ATOM      7  C6  UNL d   1       1.370  -3.335   1.094  0.00  0.00     0.077 C 
ATOM      8  C7  UNL d   1      -0.032  -1.250   1.101  0.00  0.00    -0.001 A 
ENDROOT
TORSDOF 0
ENDMDL
