MODEL 1
REMARK minimizedAffinity -3.82686901
REMARK minimizedRMSD -1
REMARK  0 active torsions:
REMARK  status: ('A' for Active; 'I' for Inactive)
ROOT
ATOM      1  C   UNL d   1       1.083  -3.202   0.971  0.00  0.00     0.077 C 
ATOM      2  C1  UNL d   1       0.954  -1.749   0.620  0.00  0.00    -0.074 A 
ATOM      3  C2  UNL d   1       2.014  -1.056   0.027  0.00  0.00    -0.005 A 
ATOM      4  C3  UNL d   1       1.875   0.292  -0.303  0.00  0.00     0.006 A 
ATOM      5  C4  UNL d   1       0.678   0.959  -0.044  0.00  0.00    -0.005 A 
ATOM      6  C5  UNL d   1      -0.394   0.282   0.547  0.00  0.00    -0.074 A 
ATOM      7  C6  UNL d   1      -1.691   0.982   0.822  0.00  0.00     0.077 C 
ATOM      8  C7  UNL d   1      -0.249  -1.074   0.869  0.00  0.00    -0.001 A 
ENDROOT
TORSDOF 0
ENDMDL
