MODEL 1
REMARK minimizedAffinity -4.44901371
REMARK minimizedRMSD -1
REMARK  0 active torsions:
REMARK  status: ('A' for Active; 'I' for Inactive)
ROOT
ATOM      1  C   UNL d   1      -0.451   1.453   1.964  0.00  0.00     0.020 A 
ATOM      2  C1  UNL d   1       0.767   2.035   1.615  0.00  0.00     0.020 A 
ATOM      3  C2  UNL d   1       1.487   1.546   0.522  0.00  0.00     0.034 A 
ATOM      4  C3  UNL d   1       0.989   0.472  -0.224  0.00  0.00     0.017 A 
ATOM      5  C4  UNL d   1      -0.233  -0.112   0.127  0.00  0.00     0.017 A 
ATOM      6  C5  UNL d   1      -0.950   0.382   1.222  0.00  0.00     0.034 A 
ATOM      7 Cl   UNL d   1      -0.911  -1.440  -0.747  0.00  0.00    -0.070 Cl
ATOM      8 Cl1  UNL d   1       1.932  -0.081  -1.563  0.00  0.00    -0.070 Cl
ENDROOT
TORSDOF 0
ENDMDL
