MODEL 1
REMARK minimizedAffinity -2.8415525
REMARK minimizedRMSD -1
REMARK  0 active torsions:
REMARK  status: ('A' for Active; 'I' for Inactive)
ROOT
ATOM      1  C   UNL d   1       1.791   1.774   0.282  0.00  0.00     0.020 A 
ATOM      2  C1  UNL d   1       1.331   2.280   1.497  0.00  0.00     0.020 A 
ATOM      3  C2  UNL d   1       0.183   1.744   2.086  0.00  0.00     0.034 A 
ATOM      4  C3  UNL d   1      -0.507   0.700   1.461  0.00  0.00     0.017 A 
ATOM      5  C4  UNL d   1      -0.044   0.192   0.242  0.00  0.00     0.017 A 
ATOM      6  C5  UNL d   1       1.106   0.732  -0.344  0.00  0.00     0.034 A 
ATOM      7 Cl   UNL d   1      -0.842  -1.096  -0.590  0.00  0.00    -0.070 Cl
ATOM      8 Cl1  UNL d   1      -1.918   0.085   2.247  0.00  0.00    -0.070 Cl
ENDROOT
TORSDOF 0
ENDMDL
