MODEL 1
REMARK minimizedAffinity -3.78892946
REMARK minimizedRMSD -1
REMARK  0 active torsions:
REMARK  status: ('A' for Active; 'I' for Inactive)
ROOT
ATOM      1  C   UNL d   1       1.719   1.924  -0.076  0.00  0.00     0.020 A 
ATOM      2  C1  UNL d   1       1.194   2.560   1.048  0.00  0.00     0.020 A 
ATOM      3  C2  UNL d   1       0.036   2.067   1.653  0.00  0.00     0.034 A 
ATOM      4  C3  UNL d   1      -0.601   0.934   1.134  0.00  0.00     0.017 A 
ATOM      5  C4  UNL d   1      -0.074   0.296   0.005  0.00  0.00     0.017 A 
ATOM      6  C5  UNL d   1       1.086   0.794  -0.596  0.00  0.00     0.034 A 
ATOM      7 Cl   UNL d   1      -0.805  -1.106  -0.693  0.00  0.00    -0.070 Cl
ATOM      8 Cl1  UNL d   1      -2.029   0.379   1.933  0.00  0.00    -0.070 Cl
ENDROOT
TORSDOF 0
ENDMDL
