MODEL 1
REMARK minimizedAffinity -5.22786379
REMARK minimizedRMSD -1
REMARK  0 active torsions:
REMARK  status: ('A' for Active; 'I' for Inactive)
ROOT
ATOM      1  C   UNL d   1       1.641   2.636   1.029  0.00  0.00     0.020 A 
ATOM      2  C1  UNL d   1       2.279   1.888   0.041  0.00  0.00     0.020 A 
ATOM      3  C2  UNL d   1       1.621   0.808  -0.551  0.00  0.00     0.034 A 
ATOM      4  C3  UNL d   1       0.321   0.473  -0.155  0.00  0.00     0.017 A 
ATOM      5  C4  UNL d   1      -0.319   1.225   0.837  0.00  0.00     0.017 A 
ATOM      6  C5  UNL d   1       0.345   2.306   1.427  0.00  0.00     0.034 A 
ATOM      7 Cl   UNL d   1      -1.922   0.873   1.378  0.00  0.00    -0.070 Cl
ATOM      8 Cl1  UNL d   1      -0.433  -0.875  -0.929  0.00  0.00    -0.070 Cl
ENDROOT
TORSDOF 0
ENDMDL
