MODEL 1
REMARK minimizedAffinity -3.89125991
REMARK minimizedRMSD -1
REMARK  0 active torsions:
REMARK  status: ('A' for Active; 'I' for Inactive)
ROOT
ATOM      1  C   UNL d   1      -0.875   1.381   1.838  0.00  0.00     0.020 A 
ATOM      2  C1  UNL d   1       0.312   2.113   1.825  0.00  0.00     0.020 A 
ATOM      3  C2  UNL d   1       1.326   1.781   0.925  0.00  0.00     0.034 A 
ATOM      4  C3  UNL d   1       1.156   0.716   0.034  0.00  0.00     0.017 A 
ATOM      5  C4  UNL d   1      -0.036  -0.018   0.047  0.00  0.00     0.017 A 
ATOM      6  C5  UNL d   1      -1.048   0.318   0.951  0.00  0.00     0.034 A 
ATOM      7 Cl   UNL d   1      -0.319  -1.346  -1.022  0.00  0.00    -0.070 Cl
ATOM      8 Cl1  UNL d   1       2.453   0.361  -1.052  0.00  0.00    -0.070 Cl
ENDROOT
TORSDOF 0
ENDMDL
