MODEL 1
REMARK minimizedAffinity -5.09164667
REMARK minimizedRMSD -1
REMARK  0 active torsions:
REMARK  status: ('A' for Active; 'I' for Inactive)
ROOT
ATOM      1  C   UNL d   1       1.227   2.313   1.955  0.00  0.00     0.020 A 
ATOM      2  C1  UNL d   1       1.859   1.931   0.773  0.00  0.00     0.020 A 
ATOM      3  C2  UNL d   1       1.172   1.163  -0.169  0.00  0.00     0.034 A 
ATOM      4  C3  UNL d   1      -0.151   0.773   0.069  0.00  0.00     0.017 A 
ATOM      5  C4  UNL d   1      -0.785   1.157   1.257  0.00  0.00     0.017 A 
ATOM      6  C5  UNL d   1      -0.092   1.927   2.197  0.00  0.00     0.034 A 
ATOM      7 Cl   UNL d   1      -2.415   0.715   1.622  0.00  0.00    -0.070 Cl
ATOM      8 Cl1  UNL d   1      -0.940  -0.176  -1.140  0.00  0.00    -0.070 Cl
ENDROOT
TORSDOF 0
ENDMDL
