MODEL 1
REMARK minimizedAffinity -1.63690555
REMARK minimizedRMSD -1
REMARK  0 active torsions:
REMARK  status: ('A' for Active; 'I' for Inactive)
ROOT
ATOM      1  C   UNL d   1      -2.268  -1.544  -3.694  0.00  0.00     0.020 A 
ATOM      2  C1  UNL d   1      -1.126  -0.818  -3.358  0.00  0.00     0.020 A 
ATOM      3  C2  UNL d   1      -0.716  -0.740  -2.026  0.00  0.00     0.034 A 
ATOM      4  C3  UNL d   1      -1.447  -1.389  -1.025  0.00  0.00     0.017 A 
ATOM      5  C4  UNL d   1      -2.594  -2.117  -1.363  0.00  0.00     0.017 A 
ATOM      6  C5  UNL d   1      -3.000  -2.192  -2.699  0.00  0.00     0.034 A 
ATOM      7 Cl   UNL d   1      -3.548  -2.944  -0.183  0.00  0.00    -0.070 Cl
ATOM      8 Cl1  UNL d   1      -0.882  -1.250   0.602  0.00  0.00    -0.070 Cl
ENDROOT
TORSDOF 0
ENDMDL
