MODEL 1
REMARK minimizedAffinity -1.50877094
REMARK minimizedRMSD -1
REMARK  0 active torsions:
REMARK  status: ('A' for Active; 'I' for Inactive)
ROOT
ATOM      1  C   UNL d   1      -0.247  -1.370  -0.709  0.00  0.00     0.020 A 
ATOM      2  C1  UNL d   1      -0.939  -0.835   0.378  0.00  0.00     0.020 A 
ATOM      3  C2  UNL d   1      -0.441   0.292   1.036  0.00  0.00     0.034 A 
ATOM      4  C3  UNL d   1       0.752   0.887   0.608  0.00  0.00     0.017 A 
ATOM      5  C4  UNL d   1       1.445   0.349  -0.482  0.00  0.00     0.017 A 
ATOM      6  C5  UNL d   1       0.942  -0.779  -1.137  0.00  0.00     0.034 A 
ATOM      7 Cl   UNL d   1       2.923   1.028  -1.067  0.00  0.00    -0.070 Cl
ATOM      8 Cl1  UNL d   1       1.309   2.278   1.469  0.00  0.00    -0.070 Cl
ENDROOT
TORSDOF 0
ENDMDL
