MODEL 1
REMARK minimizedAffinity 0.0556426197
REMARK minimizedRMSD -1
REMARK  0 active torsions:
REMARK  status: ('A' for Active; 'I' for Inactive)
ROOT
ATOM      1  C   UNL d   1      -2.250  -1.435  -4.121  0.00  0.00     0.020 A 
ATOM      2  C1  UNL d   1      -1.121  -0.660  -3.857  0.00  0.00     0.020 A 
ATOM      3  C2  UNL d   1      -0.543  -0.679  -2.586  0.00  0.00     0.034 A 
ATOM      4  C3  UNL d   1      -1.093  -1.474  -1.574  0.00  0.00     0.017 A 
ATOM      5  C4  UNL d   1      -2.226  -2.252  -1.840  0.00  0.00     0.017 A 
ATOM      6  C5  UNL d   1      -2.801  -2.229  -3.115  0.00  0.00     0.034 A 
ATOM      7 Cl   UNL d   1      -2.961  -3.258  -0.643  0.00  0.00    -0.070 Cl
ATOM      8 Cl1  UNL d   1      -0.326  -1.449  -0.026  0.00  0.00    -0.070 Cl
ENDROOT
TORSDOF 0
ENDMDL
