MODEL 1
REMARK minimizedAffinity -4.06044388
REMARK minimizedRMSD -1
REMARK  0 active torsions:
REMARK  status: ('A' for Active; 'I' for Inactive)
ROOT
ATOM      1  C   UNL d   1       3.214   1.792   0.236  0.00  0.00     0.020 A 
ATOM      2  C1  UNL d   1       2.560   2.454   1.275  0.00  0.00     0.020 A 
ATOM      3  C2  UNL d   1       1.221   2.169   1.551  0.00  0.00     0.034 A 
ATOM      4  C3  UNL d   1       0.532   1.220   0.788  0.00  0.00     0.017 A 
ATOM      5  C4  UNL d   1       1.189   0.555  -0.254  0.00  0.00     0.017 A 
ATOM      6  C5  UNL d   1       2.529   0.845  -0.526  0.00  0.00     0.034 A 
ATOM      7 Cl   UNL d   1       0.404  -0.628  -1.239  0.00  0.00    -0.070 Cl
ATOM      8 Cl1  UNL d   1      -1.122   0.917   1.186  0.00  0.00    -0.070 Cl
ENDROOT
TORSDOF 0
ENDMDL
