MODEL 1
REMARK minimizedAffinity -4.08276939
REMARK minimizedRMSD -1
REMARK  0 active torsions:
REMARK  status: ('A' for Active; 'I' for Inactive)
ROOT
ATOM      1  C   UNL d   1       1.531   2.473   0.658  0.00  0.00     0.020 A 
ATOM      2  C1  UNL d   1       2.565   2.019  -0.161  0.00  0.00     0.020 A 
ATOM      3  C2  UNL d   1       3.624   1.294   0.389  0.00  0.00     0.034 A 
ATOM      4  C3  UNL d   1       3.652   1.021   1.762  0.00  0.00     0.017 A 
ATOM      5  C4  UNL d   1       2.615   1.478   2.583  0.00  0.00     0.017 A 
ATOM      6  C5  UNL d   1       1.556   2.203   2.026  0.00  0.00     0.034 A 
ATOM      7 Cl   UNL d   1       2.580   1.180   4.285  0.00  0.00    -0.070 Cl
ATOM      8 Cl1  UNL d   1       4.993   0.119   2.374  0.00  0.00    -0.070 Cl
ENDROOT
TORSDOF 0
ENDMDL
