MODEL 1
REMARK minimizedAffinity -3.11047149
REMARK minimizedRMSD -1
REMARK  0 active torsions:
REMARK  status: ('A' for Active; 'I' for Inactive)
ROOT
ATOM      1  C   UNL d   1       1.405   2.135   0.326  0.00  0.00     0.020 A 
ATOM      2  C1  UNL d   1       0.913   2.272   1.624  0.00  0.00     0.020 A 
ATOM      3  C2  UNL d   1      -0.072   1.400   2.092  0.00  0.00     0.034 A 
ATOM      4  C3  UNL d   1      -0.569   0.388   1.263  0.00  0.00     0.017 A 
ATOM      5  C4  UNL d   1      -0.074   0.252  -0.040  0.00  0.00     0.017 A 
ATOM      6  C5  UNL d   1       0.912   1.128  -0.503  0.00  0.00     0.034 A 
ATOM      7 Cl   UNL d   1      -0.637  -0.972  -1.122  0.00  0.00    -0.070 Cl
ATOM      8 Cl1  UNL d   1      -1.786  -0.655   1.907  0.00  0.00    -0.070 Cl
ENDROOT
TORSDOF 0
ENDMDL
