MODEL 1
REMARK minimizedAffinity -0.997717619
REMARK minimizedRMSD -1
REMARK  0 active torsions:
REMARK  status: ('A' for Active; 'I' for Inactive)
ROOT
ATOM      1  C   UNL d   1       0.410  -1.674  -1.058  0.00  0.00     0.020 A 
ATOM      2  C1  UNL d   1       0.523  -1.195  -2.363  0.00  0.00     0.020 A 
ATOM      3  C2  UNL d   1      -0.563  -1.288  -3.236  0.00  0.00     0.034 A 
ATOM      4  C3  UNL d   1      -1.765  -1.862  -2.807  0.00  0.00     0.017 A 
ATOM      5  C4  UNL d   1      -1.877  -2.342  -1.497  0.00  0.00     0.017 A 
ATOM      6  C5  UNL d   1      -0.787  -2.246  -0.626  0.00  0.00     0.034 A 
ATOM      7 Cl   UNL d   1      -3.327  -3.063  -0.895  0.00  0.00    -0.070 Cl
ATOM      8 Cl1  UNL d   1      -3.066  -1.944  -3.941  0.00  0.00    -0.070 Cl
ENDROOT
TORSDOF 0
ENDMDL
