MODEL 1
REMARK minimizedAffinity 0.390763313
REMARK minimizedRMSD -1
REMARK  0 active torsions:
REMARK  status: ('A' for Active; 'I' for Inactive)
ROOT
ATOM      1  C   UNL d   1       1.382   1.001   5.320  0.00  0.00     0.020 A 
ATOM      2  C1  UNL d   1       0.034   1.118   4.982  0.00  0.00     0.020 A 
ATOM      3  C2  UNL d   1      -0.351   1.129   3.639  0.00  0.00     0.034 A 
ATOM      4  C3  UNL d   1       0.613   1.023   2.630  0.00  0.00     0.017 A 
ATOM      5  C4  UNL d   1       1.966   0.905   2.970  0.00  0.00     0.017 A 
ATOM      6  C5  UNL d   1       2.345   0.895   4.316  0.00  0.00     0.034 A 
ATOM      7 Cl   UNL d   1       3.212   0.770   1.780  0.00  0.00    -0.070 Cl
ATOM      8 Cl1  UNL d   1       0.066   1.043   0.991  0.00  0.00    -0.070 Cl
ENDROOT
TORSDOF 0
ENDMDL
