MODEL 1
REMARK minimizedAffinity 6.09560966
REMARK minimizedRMSD -1
REMARK  0 active torsions:
REMARK  status: ('A' for Active; 'I' for Inactive)
ROOT
ATOM      1  C   UNL d   1       0.586   1.773   4.129  0.00  0.00     0.020 A 
ATOM      2  C1  UNL d   1       1.844   1.408   3.652  0.00  0.00     0.020 A 
ATOM      3  C2  UNL d   1       1.976   0.864   2.373  0.00  0.00     0.034 A 
ATOM      4  C3  UNL d   1       0.847   0.683   1.565  0.00  0.00     0.017 A 
ATOM      5  C4  UNL d   1      -0.416   1.050   2.044  0.00  0.00     0.017 A 
ATOM      6  C5  UNL d   1      -0.542   1.594   3.326  0.00  0.00     0.034 A 
ATOM      7 Cl   UNL d   1      -1.855   0.857   1.106  0.00  0.00    -0.070 Cl
ATOM      8 Cl1  UNL d   1       1.084   0.005  -0.006  0.00  0.00    -0.070 Cl
ENDROOT
TORSDOF 0
ENDMDL
