MODEL 1
REMARK minimizedAffinity -3.89273143
REMARK minimizedRMSD -1
REMARK  0 active torsions:
REMARK  status: ('A' for Active; 'I' for Inactive)
ROOT
ATOM      1  C   UNL d   1      -1.980  -2.044   0.715  0.00  0.00     0.172 C 
ATOM      2  N   UNL d   1      -1.363  -1.076  -0.160  0.00  0.00    -0.070 N 
ATOM      3  C1  UNL d   1      -1.977  -0.441  -1.207  0.00  0.00    -0.004 A 
ATOM      4  C2  UNL d   1      -1.055   0.401  -1.789  0.00  0.00    -0.047 A 
ATOM      5  C3  UNL d   1       0.155   0.268  -1.068  0.00  0.00    -0.047 A 
ATOM      6  C4  UNL d   1      -0.064  -0.653  -0.066  0.00  0.00    -0.004 A 
ENDROOT
TORSDOF 0
ENDMDL
