MODEL 1
REMARK minimizedAffinity -3.76918817
REMARK minimizedRMSD -1
REMARK  0 active torsions:
REMARK  status: ('A' for Active; 'I' for Inactive)
ROOT
ATOM      1  C   UNL d   1       0.469  -0.404   0.638  0.00  0.00     0.172 C 
ATOM      2  N   UNL d   1      -0.807  -1.078   0.657  0.00  0.00    -0.070 N 
ATOM      3  C1  UNL d   1      -1.131  -2.153   1.442  0.00  0.00    -0.004 A 
ATOM      4  C2  UNL d   1      -2.436  -2.499   1.166  0.00  0.00    -0.047 A 
ATOM      5  C3  UNL d   1      -2.913  -1.603   0.181  0.00  0.00    -0.047 A 
ATOM      6  C4  UNL d   1      -1.884  -0.734  -0.117  0.00  0.00    -0.004 A 
ENDROOT
TORSDOF 0
ENDMDL
