MODEL 1
REMARK minimizedAffinity -3.2922945
REMARK minimizedRMSD -1
REMARK  0 active torsions:
REMARK  status: ('A' for Active; 'I' for Inactive)
ROOT
ATOM      1  C   UNL d   1       0.476   0.753   0.584  0.00  0.00     0.172 C 
ATOM      2  N   UNL d   1      -0.699   0.061   0.109  0.00  0.00    -0.070 N 
ATOM      3  C1  UNL d   1      -1.693  -0.455   0.896  0.00  0.00    -0.004 A 
ATOM      4  C2  UNL d   1      -2.631  -1.033   0.067  0.00  0.00    -0.047 A 
ATOM      5  C3  UNL d   1      -2.183  -0.858  -1.264  0.00  0.00    -0.047 A 
ATOM      6  C4  UNL d   1      -0.985  -0.177  -1.209  0.00  0.00    -0.004 A 
ENDROOT
TORSDOF 0
ENDMDL
