MODEL 1
REMARK minimizedAffinity -2.50693893
REMARK minimizedRMSD -1
REMARK  0 active torsions:
REMARK  status: ('A' for Active; 'I' for Inactive)
ROOT
ATOM      1  C   UNL d   1      -0.681  -0.268   0.949  0.00  0.00     0.172 C 
ATOM      2  N   UNL d   1       0.664   0.201   0.714  0.00  0.00    -0.070 N 
ATOM      3  C1  UNL d   1       1.282   1.223   1.383  0.00  0.00    -0.004 A 
ATOM      4  C2  UNL d   1       2.552   1.360   0.866  0.00  0.00    -0.047 A 
ATOM      5  C3  UNL d   1       2.702   0.387  -0.150  0.00  0.00    -0.047 A 
ATOM      6  C4  UNL d   1       1.518  -0.317  -0.223  0.00  0.00    -0.004 A 
ENDROOT
TORSDOF 0
ENDMDL
