MODEL 1
REMARK minimizedAffinity -3.23281956
REMARK minimizedRMSD -1
REMARK  0 active torsions:
REMARK  status: ('A' for Active; 'I' for Inactive)
ROOT
ATOM      1  C   UNL d   1       0.761   0.570   0.489  0.00  0.00     0.172 C 
ATOM      2  N   UNL d   1      -0.551   0.045   0.193  0.00  0.00    -0.070 N 
ATOM      3  C1  UNL d   1      -0.983  -0.377  -1.036  0.00  0.00    -0.004 A 
ATOM      4  C2  UNL d   1      -2.286  -0.804  -0.902  0.00  0.00    -0.047 A 
ATOM      5  C3  UNL d   1      -2.650  -0.632   0.454  0.00  0.00    -0.047 A 
ATOM      6  C4  UNL d   1      -1.558  -0.105   1.110  0.00  0.00    -0.004 A 
ENDROOT
TORSDOF 0
ENDMDL
