MODEL 1
REMARK minimizedAffinity -4.01674747
REMARK minimizedRMSD -1
REMARK  0 active torsions:
REMARK  status: ('A' for Active; 'I' for Inactive)
ROOT
ATOM      1  C   UNL d   1       1.147  -0.622   0.356  0.00  0.00     0.172 C 
ATOM      2  N   UNL d   1      -0.275  -0.492   0.143  0.00  0.00    -0.070 N 
ATOM      3  C1  UNL d   1      -1.246  -0.700   1.087  0.00  0.00    -0.004 A 
ATOM      4  C2  UNL d   1      -2.468  -0.475   0.492  0.00  0.00    -0.047 A 
ATOM      5  C3  UNL d   1      -2.224  -0.121  -0.857  0.00  0.00    -0.047 A 
ATOM      6  C4  UNL d   1      -0.858  -0.139  -1.045  0.00  0.00    -0.004 A 
ENDROOT
TORSDOF 0
ENDMDL
