MODEL 1
REMARK minimizedAffinity -2.98627496
REMARK minimizedRMSD -1
REMARK  0 active torsions:
REMARK  status: ('A' for Active; 'I' for Inactive)
ROOT
ATOM      1  C   UNL d   1       0.725   0.000   0.415  0.00  0.00     0.172 C 
ATOM      2  N   UNL d   1      -0.686  -0.017   0.105  0.00  0.00    -0.070 N 
ATOM      3  C1  UNL d   1      -1.704  -0.029   1.020  0.00  0.00    -0.004 A 
ATOM      4  C2  UNL d   1      -2.895  -0.044   0.326  0.00  0.00    -0.047 A 
ATOM      5  C3  UNL d   1      -2.581  -0.042  -1.054  0.00  0.00    -0.047 A 
ATOM      6  C4  UNL d   1      -1.207  -0.025  -1.162  0.00  0.00    -0.004 A 
ENDROOT
TORSDOF 0
ENDMDL
