MODEL 1
REMARK minimizedAffinity -3.37315917
REMARK minimizedRMSD -1
REMARK  0 active torsions:
REMARK  status: ('A' for Active; 'I' for Inactive)
ROOT
ATOM      1  C   UNL d   1      -0.346   0.502  -1.268  0.00  0.00     0.172 C 
ATOM      2  N   UNL d   1      -1.196  -0.414  -0.543  0.00  0.00    -0.070 N 
ATOM      3  C1  UNL d   1      -2.345  -0.985  -1.021  0.00  0.00    -0.004 A 
ATOM      4  C2  UNL d   1      -2.859  -1.792  -0.030  0.00  0.00    -0.047 A 
ATOM      5  C3  UNL d   1      -1.989  -1.702   1.083  0.00  0.00    -0.047 A 
ATOM      6  C4  UNL d   1      -0.968  -0.842   0.738  0.00  0.00    -0.004 A 
ENDROOT
TORSDOF 0
ENDMDL
