MODEL 1
REMARK minimizedAffinity -3.9382081
REMARK minimizedRMSD -1
REMARK  0 active torsions:
REMARK  status: ('A' for Active; 'I' for Inactive)
ROOT
ATOM      1  C   UNL d   1       2.486   3.769   0.194  0.00  0.00     0.172 C 
ATOM      2  N   UNL d   1       3.279   3.658  -1.008  0.00  0.00    -0.070 N 
ATOM      3  C1  UNL d   1       3.791   4.706  -1.726  0.00  0.00    -0.004 A 
ATOM      4  C2  UNL d   1       4.484   4.185  -2.797  0.00  0.00    -0.047 A 
ATOM      5  C3  UNL d   1       4.384   2.775  -2.720  0.00  0.00    -0.047 A 
ATOM      6  C4  UNL d   1       3.633   2.477  -1.603  0.00  0.00    -0.004 A 
ENDROOT
TORSDOF 0
ENDMDL
