MODEL 1
REMARK minimizedAffinity -3.79437447
REMARK minimizedRMSD -1
REMARK  0 active torsions:
REMARK  status: ('A' for Active; 'I' for Inactive)
ROOT
ATOM      1  C   UNL d   1       0.754  -0.289  -0.035  0.00  0.00     0.172 C 
ATOM      2  N   UNL d   1      -0.571  -0.776  -0.339  0.00  0.00    -0.070 N 
ATOM      3  C1  UNL d   1      -1.218  -0.636  -1.537  0.00  0.00    -0.004 A 
ATOM      4  C2  UNL d   1      -2.454  -1.235  -1.422  0.00  0.00    -0.047 A 
ATOM      5  C3  UNL d   1      -2.554  -1.752  -0.109  0.00  0.00    -0.047 A 
ATOM      6  C4  UNL d   1      -1.374  -1.454   0.540  0.00  0.00    -0.004 A 
ENDROOT
TORSDOF 0
ENDMDL
