MODEL 1
REMARK minimizedAffinity -3.2309885
REMARK minimizedRMSD -1
REMARK  0 active torsions:
REMARK  status: ('A' for Active; 'I' for Inactive)
ROOT
ATOM      1  C   UNL d   1       2.320   2.831   1.349  0.00  0.00     0.172 C 
ATOM      2  N   UNL d   1       2.830   3.011   0.010  0.00  0.00    -0.070 N 
ATOM      3  C1  UNL d   1       3.105   4.214  -0.585  0.00  0.00    -0.004 A 
ATOM      4  C2  UNL d   1       3.571   3.959  -1.856  0.00  0.00    -0.047 A 
ATOM      5  C3  UNL d   1       3.577   2.555  -2.032  0.00  0.00    -0.047 A 
ATOM      6  C4  UNL d   1       3.113   1.993  -0.861  0.00  0.00    -0.004 A 
ENDROOT
TORSDOF 0
ENDMDL
