MODEL 1
REMARK minimizedAffinity -2.122967
REMARK minimizedRMSD -1
REMARK  0 active torsions:
REMARK  status: ('A' for Active; 'I' for Inactive)
ROOT
ATOM      1  C   UNL d   1       4.024   4.536  -1.133  0.00  0.00     0.172 C 
ATOM      2  N   UNL d   1       3.277   3.608  -0.318  0.00  0.00    -0.070 N 
ATOM      3  C1  UNL d   1       3.408   2.245  -0.334  0.00  0.00    -0.004 A 
ATOM      4  C2  UNL d   1       2.522   1.724   0.585  0.00  0.00    -0.047 A 
ATOM      5  C3  UNL d   1       1.834   2.812   1.173  0.00  0.00    -0.047 A 
ATOM      6  C4  UNL d   1       2.320   3.966   0.596  0.00  0.00    -0.004 A 
ENDROOT
TORSDOF 0
ENDMDL
