MODEL 1
REMARK minimizedAffinity -3.01976943
REMARK minimizedRMSD -1
REMARK  0 active torsions:
REMARK  status: ('A' for Active; 'I' for Inactive)
ROOT
ATOM      1  C   UNL d   1      -2.174  -1.192  -0.877  0.00  0.00     0.172 C 
ATOM      2  N   UNL d   1      -0.857  -0.865  -0.384  0.00  0.00    -0.070 N 
ATOM      3  C1  UNL d   1      -0.054   0.138  -0.857  0.00  0.00    -0.004 A 
ATOM      4  C2  UNL d   1       1.115   0.124  -0.127  0.00  0.00    -0.047 A 
ATOM      5  C3  UNL d   1       1.011  -0.925   0.817  0.00  0.00    -0.047 A 
ATOM      6  C4  UNL d   1      -0.220  -1.521   0.636  0.00  0.00    -0.004 A 
ENDROOT
TORSDOF 0
ENDMDL
