MODEL 1
REMARK minimizedAffinity -2.4963057
REMARK minimizedRMSD -1
REMARK  0 active torsions:
REMARK  status: ('A' for Active; 'I' for Inactive)
ROOT
ATOM      1  C   UNL d   1       1.896   0.462   0.126  0.00  0.00     0.172 C 
ATOM      2  N   UNL d   1       0.696  -0.113  -0.433  0.00  0.00    -0.070 N 
ATOM      3  C1  UNL d   1      -0.041   0.418  -1.458  0.00  0.00    -0.004 A 
ATOM      4  C2  UNL d   1      -1.104  -0.427  -1.696  0.00  0.00    -0.047 A 
ATOM      5  C3  UNL d   1      -1.003  -1.502  -0.781  0.00  0.00    -0.047 A 
ATOM      6  C4  UNL d   1       0.120  -1.282  -0.011  0.00  0.00    -0.004 A 
ENDROOT
TORSDOF 0
ENDMDL
