MODEL 1
REMARK minimizedAffinity -3.24930906
REMARK minimizedRMSD -1
REMARK  0 active torsions:
REMARK  status: ('A' for Active; 'I' for Inactive)
ROOT
ATOM      1  C   UNL d   1       3.223   4.361  -1.698  0.00  0.00     0.172 C 
ATOM      2  N   UNL d   1       2.865   3.578  -0.539  0.00  0.00    -0.070 N 
ATOM      3  C1  UNL d   1       2.752   4.052   0.740  0.00  0.00    -0.004 A 
ATOM      4  C2  UNL d   1       2.393   2.997   1.551  0.00  0.00    -0.047 A 
ATOM      5  C3  UNL d   1       2.288   1.849   0.730  0.00  0.00    -0.047 A 
ATOM      6  C4  UNL d   1       2.585   2.237  -0.559  0.00  0.00    -0.004 A 
ENDROOT
TORSDOF 0
ENDMDL
