MODEL 1
REMARK minimizedAffinity -5.42215586
REMARK minimizedRMSD -1
REMARK  0 active torsions:
REMARK  status: ('A' for Active; 'I' for Inactive)
ROOT
ATOM      1  C   UNL d   1      -0.901  -2.274   2.888  0.00  0.00     0.077 C 
ATOM      2  C1  UNL d   1      -0.127  -1.639   1.771  0.00  0.00    -0.074 A 
ATOM      3  C2  UNL d   1       1.201  -2.001   1.520  0.00  0.00    -0.005 A 
ATOM      4  C3  UNL d   1       1.905  -1.408   0.472  0.00  0.00     0.006 A 
ATOM      5  C4  UNL d   1       1.290  -0.450  -0.334  0.00  0.00    -0.005 A 
ATOM      6  C5  UNL d   1      -0.037  -0.076  -0.099  0.00  0.00    -0.074 A 
ATOM      7  C6  UNL d   1      -0.715   0.945  -0.963  0.00  0.00     0.077 C 
ATOM      8  C7  UNL d   1      -0.740  -0.681   0.951  0.00  0.00    -0.001 A 
ENDROOT
TORSDOF 0
ENDMDL
