MODEL 1
REMARK minimizedAffinity -4.97267866
REMARK minimizedRMSD -1
REMARK  0 active torsions:
REMARK  status: ('A' for Active; 'I' for Inactive)
ROOT
ATOM      1  C   UNL d   1      -1.675  -1.972   2.921  0.00  0.00     0.077 C 
ATOM      2  C1  UNL d   1      -0.405  -1.934   2.123  0.00  0.00    -0.074 A 
ATOM      3  C2  UNL d   1       0.575  -2.919   2.285  0.00  0.00    -0.005 A 
ATOM      4  C3  UNL d   1       1.746  -2.876   1.528  0.00  0.00     0.006 A 
ATOM      5  C4  UNL d   1       1.949  -1.850   0.605  0.00  0.00    -0.005 A 
ATOM      6  C5  UNL d   1       0.980  -0.857   0.429  0.00  0.00    -0.074 A 
ATOM      7  C6  UNL d   1       1.178   0.247  -0.567  0.00  0.00     0.077 C 
ATOM      8  C7  UNL d   1      -0.198  -0.911   1.187  0.00  0.00    -0.001 A 
ENDROOT
TORSDOF 0
ENDMDL
