MODEL 1
REMARK minimizedAffinity -4.94714975
REMARK minimizedRMSD -1
REMARK  0 active torsions:
REMARK  status: ('A' for Active; 'I' for Inactive)
ROOT
ATOM      1  C   UNL d   1      -0.273   0.809  -0.753  0.00  0.00     0.077 C 
ATOM      2  C1  UNL d   1      -0.130  -0.278   0.271  0.00  0.00    -0.074 A 
ATOM      3  C2  UNL d   1       0.978  -1.130   0.265  0.00  0.00    -0.005 A 
ATOM      4  C3  UNL d   1       1.102  -2.130   1.230  0.00  0.00     0.006 A 
ATOM      5  C4  UNL d   1       0.120  -2.287   2.209  0.00  0.00    -0.005 A 
ATOM      6  C5  UNL d   1      -0.996  -1.443   2.231  0.00  0.00    -0.074 A 
ATOM      7  C6  UNL d   1      -2.056  -1.592   3.282  0.00  0.00     0.077 C 
ATOM      8  C7  UNL d   1      -1.109  -0.437   1.262  0.00  0.00    -0.001 A 
ENDROOT
TORSDOF 0
ENDMDL
