MODEL 1
REMARK minimizedAffinity -5.63596869
REMARK minimizedRMSD -1
REMARK  0 active torsions:
REMARK  status: ('A' for Active; 'I' for Inactive)
ROOT
ATOM      1  C   UNL d   1       0.430  -2.913   2.025  0.00  0.00     0.077 C 
ATOM      2  C1  UNL d   1       0.756  -1.728   1.165  0.00  0.00    -0.074 A 
ATOM      3  C2  UNL d   1       2.082  -1.407   0.857  0.00  0.00    -0.005 A 
ATOM      4  C3  UNL d   1       2.369  -0.307   0.049  0.00  0.00     0.006 A 
ATOM      5  C4  UNL d   1       1.335   0.481  -0.459  0.00  0.00    -0.005 A 
ATOM      6  C5  UNL d   1       0.003   0.174  -0.162  0.00  0.00    -0.074 A 
ATOM      7  C6  UNL d   1      -1.120   1.005  -0.707  0.00  0.00     0.077 C 
ATOM      8  C7  UNL d   1      -0.278  -0.937   0.645  0.00  0.00    -0.001 A 
ENDROOT
TORSDOF 0
ENDMDL
