MODEL 1
REMARK minimizedAffinity -3.11377072
REMARK minimizedRMSD -1
REMARK  0 active torsions:
REMARK  status: ('A' for Active; 'I' for Inactive)
ROOT
ATOM      1  C   UNL d   1       1.495  -3.220   1.604  0.00  0.00     0.077 C 
ATOM      2  C1  UNL d   1       0.403  -2.195   1.673  0.00  0.00    -0.074 A 
ATOM      3  C2  UNL d   1      -0.548  -2.225   2.699  0.00  0.00    -0.005 A 
ATOM      4  C3  UNL d   1      -1.552  -1.259   2.756  0.00  0.00     0.006 A 
ATOM      5  C4  UNL d   1      -1.616  -0.254   1.789  0.00  0.00    -0.005 A 
ATOM      6  C5  UNL d   1      -0.674  -0.208   0.757  0.00  0.00    -0.074 A 
ATOM      7  C6  UNL d   1      -0.723   0.871  -0.285  0.00  0.00     0.077 C 
ATOM      8  C7  UNL d   1       0.336  -1.178   0.711  0.00  0.00    -0.001 A 
ENDROOT
TORSDOF 0
ENDMDL
