MODEL 1
REMARK minimizedAffinity -5.93250847
REMARK minimizedRMSD -1
REMARK  0 active torsions:
REMARK  status: ('A' for Active; 'I' for Inactive)
ROOT
ATOM      1  C   UNL d   1       0.222   0.497  -0.788  0.00  0.00     0.077 C 
ATOM      2  C1  UNL d   1       0.224  -0.590   0.246  0.00  0.00    -0.074 A 
ATOM      3  C2  UNL d   1       1.182  -1.608   0.216  0.00  0.00    -0.005 A 
ATOM      4  C3  UNL d   1       1.177  -2.607   1.189  0.00  0.00     0.006 A 
ATOM      5  C4  UNL d   1       0.215  -2.597   2.201  0.00  0.00    -0.005 A 
ATOM      6  C5  UNL d   1      -0.750  -1.586   2.248  0.00  0.00    -0.074 A 
ATOM      7  C6  UNL d   1      -1.784  -1.556   3.334  0.00  0.00     0.077 C 
ATOM      8  C7  UNL d   1      -0.734  -0.582   1.270  0.00  0.00    -0.001 A 
ENDROOT
TORSDOF 0
ENDMDL
