MODEL 1
REMARK minimizedAffinity -5.72513866
REMARK minimizedRMSD -1
REMARK  0 active torsions:
REMARK  status: ('A' for Active; 'I' for Inactive)
ROOT
ATOM      1  C   UNL d   1      -0.016   1.028  -1.198  0.00  0.00     0.077 C 
ATOM      2  C1  UNL d   1       0.411  -0.112  -0.322  0.00  0.00    -0.074 A 
ATOM      3  C2  UNL d   1       1.622  -0.775  -0.543  0.00  0.00    -0.005 A 
ATOM      4  C3  UNL d   1       2.011  -1.827   0.286  0.00  0.00     0.006 A 
ATOM      5  C4  UNL d   1       1.193  -2.226   1.344  0.00  0.00    -0.005 A 
ATOM      6  C5  UNL d   1      -0.022  -1.574   1.582  0.00  0.00    -0.074 A 
ATOM      7  C6  UNL d   1      -0.908  -1.984   2.721  0.00  0.00     0.077 C 
ATOM      8  C7  UNL d   1      -0.401  -0.513   0.748  0.00  0.00    -0.001 A 
ENDROOT
TORSDOF 0
ENDMDL
