MODEL 1
REMARK minimizedAffinity -6.22062016
REMARK minimizedRMSD -1
REMARK  0 active torsions:
REMARK  status: ('A' for Active; 'I' for Inactive)
ROOT
ATOM      1  C   UNL d   1      -0.050  -2.691   2.750  0.00  0.00     0.077 C 
ATOM      2  C1  UNL d   1       0.446  -1.802   1.648  0.00  0.00    -0.074 A 
ATOM      3  C2  UNL d   1       1.717  -1.985   1.095  0.00  0.00    -0.005 A 
ATOM      4  C3  UNL d   1       2.161  -1.157   0.064  0.00  0.00     0.006 A 
ATOM      5  C4  UNL d   1       1.340  -0.139  -0.423  0.00  0.00    -0.005 A 
ATOM      6  C5  UNL d   1       0.065   0.058   0.117  0.00  0.00    -0.074 A 
ATOM      7  C6  UNL d   1      -0.834   1.140  -0.401  0.00  0.00     0.077 C 
ATOM      8  C7  UNL d   1      -0.377  -0.783   1.148  0.00  0.00    -0.001 A 
ENDROOT
TORSDOF 0
ENDMDL
