MODEL 1
REMARK minimizedAffinity -5.66218185
REMARK minimizedRMSD -1
REMARK  0 active torsions:
REMARK  status: ('A' for Active; 'I' for Inactive)
ROOT
ATOM      1  C   UNL d   1       0.327   0.071  -0.805  0.00  0.00     0.077 C 
ATOM      2  C1  UNL d   1       0.383  -0.790   0.422  0.00  0.00    -0.074 A 
ATOM      3  C2  UNL d   1       1.499  -1.590   0.689  0.00  0.00    -0.005 A 
ATOM      4  C3  UNL d   1       1.540  -2.378   1.839  0.00  0.00     0.006 A 
ATOM      5  C4  UNL d   1       0.469  -2.375   2.732  0.00  0.00    -0.005 A 
ATOM      6  C5  UNL d   1      -0.655  -1.581   2.483  0.00  0.00    -0.074 A 
ATOM      7  C6  UNL d   1      -1.811  -1.557   3.438  0.00  0.00     0.077 C 
ATOM      8  C7  UNL d   1      -0.687  -0.786   1.329  0.00  0.00    -0.001 A 
ENDROOT
TORSDOF 0
ENDMDL
