MODEL 1
REMARK minimizedAffinity -5.83196688
REMARK minimizedRMSD -1
REMARK  0 active torsions:
REMARK  status: ('A' for Active; 'I' for Inactive)
ROOT
ATOM      1  C   UNL d   1      -0.780   1.200  -0.364  0.00  0.00     0.077 C 
ATOM      2  C1  UNL d   1       0.109   0.054   0.020  0.00  0.00    -0.074 A 
ATOM      3  C2  UNL d   1       1.291  -0.205  -0.682  0.00  0.00    -0.005 A 
ATOM      4  C3  UNL d   1       2.112  -1.268  -0.307  0.00  0.00     0.006 A 
ATOM      5  C4  UNL d   1       1.760  -2.082   0.771  0.00  0.00    -0.005 A 
ATOM      6  C5  UNL d   1       0.583  -1.837   1.484  0.00  0.00    -0.074 A 
ATOM      7  C6  UNL d   1       0.195  -2.696   2.651  0.00  0.00     0.077 C 
ATOM      8  C7  UNL d   1      -0.233  -0.763   1.106  0.00  0.00    -0.001 A 
ENDROOT
TORSDOF 0
ENDMDL
