MODEL 1
REMARK minimizedAffinity -5.69133091
REMARK minimizedRMSD -1
REMARK  0 active torsions:
REMARK  status: ('A' for Active; 'I' for Inactive)
ROOT
ATOM      1  C   UNL d   1       1.493   0.375  -0.642  0.00  0.00     0.077 C 
ATOM      2  C1  UNL d   1       1.133  -0.653   0.389  0.00  0.00    -0.074 A 
ATOM      3  C2  UNL d   1       1.959  -1.757   0.622  0.00  0.00    -0.005 A 
ATOM      4  C3  UNL d   1       1.616  -2.700   1.591  0.00  0.00     0.006 A 
ATOM      5  C4  UNL d   1       0.446  -2.548   2.336  0.00  0.00    -0.005 A 
ATOM      6  C5  UNL d   1      -0.391  -1.450   2.118  0.00  0.00    -0.074 A 
ATOM      7  C6  UNL d   1      -1.647  -1.266   2.917  0.00  0.00     0.077 C 
ATOM      8  C7  UNL d   1      -0.036  -0.503   1.147  0.00  0.00    -0.001 A 
ENDROOT
TORSDOF 0
ENDMDL
