MODEL 1
REMARK minimizedAffinity -5.28552246
REMARK minimizedRMSD -1
REMARK  0 active torsions:
REMARK  status: ('A' for Active; 'I' for Inactive)
ROOT
ATOM      1  C   UNL d   1      -1.008  -2.322   3.133  0.00  0.00     0.077 C 
ATOM      2  C1  UNL d   1      -0.110  -1.886   2.014  0.00  0.00    -0.074 A 
ATOM      3  C2  UNL d   1       1.054  -2.598   1.707  0.00  0.00    -0.005 A 
ATOM      4  C3  UNL d   1       1.875  -2.186   0.658  0.00  0.00     0.006 A 
ATOM      5  C4  UNL d   1       1.541  -1.059  -0.095  0.00  0.00    -0.005 A 
ATOM      6  C5  UNL d   1       0.381  -0.335   0.197  0.00  0.00    -0.074 A 
ATOM      7  C6  UNL d   1       0.003   0.873  -0.608  0.00  0.00     0.077 C 
ATOM      8  C7  UNL d   1      -0.442  -0.759   1.249  0.00  0.00    -0.001 A 
ENDROOT
TORSDOF 0
ENDMDL
