MODEL 1
REMARK minimizedAffinity -6.12021303
REMARK minimizedRMSD -1
REMARK  0 active torsions:
REMARK  status: ('A' for Active; 'I' for Inactive)
ROOT
ATOM      1  C   UNL d   1      -0.715  -2.307   2.996  0.00  0.00     0.077 C 
ATOM      2  C1  UNL d   1       0.033  -1.628   1.887  0.00  0.00    -0.074 A 
ATOM      3  C2  UNL d   1       1.300  -2.073   1.497  0.00  0.00    -0.005 A 
ATOM      4  C3  UNL d   1       1.979  -1.438   0.458  0.00  0.00     0.006 A 
ATOM      5  C4  UNL d   1       1.399  -0.354  -0.202  0.00  0.00    -0.005 A 
ATOM      6  C5  UNL d   1       0.133   0.104   0.174  0.00  0.00    -0.074 A 
ATOM      7  C6  UNL d   1      -0.509   1.262  -0.531  0.00  0.00     0.077 C 
ATOM      8  C7  UNL d   1      -0.547  -0.543   1.214  0.00  0.00    -0.001 A 
ENDROOT
TORSDOF 0
ENDMDL
