MODEL 1
REMARK minimizedAffinity -5.73889828
REMARK minimizedRMSD -1
REMARK  0 active torsions:
REMARK  status: ('A' for Active; 'I' for Inactive)
ROOT
ATOM      1  C   UNL d   1       0.739  -2.899   2.086  0.00  0.00     0.077 C 
ATOM      2  C1  UNL d   1       0.858  -1.822   1.050  0.00  0.00    -0.074 A 
ATOM      3  C2  UNL d   1       2.037  -1.657   0.317  0.00  0.00    -0.005 A 
ATOM      4  C3  UNL d   1       2.130  -0.656  -0.651  0.00  0.00     0.006 A 
ATOM      5  C4  UNL d   1       1.046   0.188  -0.894  0.00  0.00    -0.005 A 
ATOM      6  C5  UNL d   1      -0.142   0.038  -0.171  0.00  0.00    -0.074 A 
ATOM      7  C6  UNL d   1      -1.319   0.931  -0.427  0.00  0.00     0.077 C 
ATOM      8  C7  UNL d   1      -0.229  -0.974   0.794  0.00  0.00    -0.001 A 
ENDROOT
TORSDOF 0
ENDMDL
