MODEL 1
REMARK minimizedAffinity -4.93176508
REMARK minimizedRMSD -1
REMARK  0 active torsions:
REMARK  status: ('A' for Active; 'I' for Inactive)
ROOT
ATOM      1  C   UNL d   1       0.373  -2.804   2.641  0.00  0.00     0.077 C 
ATOM      2  C1  UNL d   1       0.845  -1.888   1.551  0.00  0.00    -0.074 A 
ATOM      3  C2  UNL d   1       2.157  -1.959   1.071  0.00  0.00    -0.005 A 
ATOM      4  C3  UNL d   1       2.579  -1.107   0.051  0.00  0.00     0.006 A 
ATOM      5  C4  UNL d   1       1.695  -0.178  -0.500  0.00  0.00    -0.005 A 
ATOM      6  C5  UNL d   1       0.380  -0.093  -0.033  0.00  0.00    -0.074 A 
ATOM      7  C6  UNL d   1      -0.586   0.893  -0.620  0.00  0.00     0.077 C 
ATOM      8  C7  UNL d   1      -0.039  -0.957   0.988  0.00  0.00    -0.001 A 
ENDROOT
TORSDOF 0
ENDMDL
