MODEL 1
REMARK minimizedAffinity 3.62804151
REMARK minimizedRMSD -1
REMARK  1 active torsions:
REMARK  status: ('A' for Active; 'I' for Inactive)
REMARK    1  A    between atoms: C1_2  and  C2_3 
ROOT
ATOM      1  C2  UNL d   1       4.268  -3.301   3.038  0.00  0.00    -0.073 A 
ATOM      2  C3  UNL d   1       5.085  -4.232   2.385  0.00  0.00    -0.002 A 
ATOM      3  C4  UNL d   1       4.859  -4.549   1.045  0.00  0.00     0.004 A 
ATOM      4  C5  UNL d   1       3.822  -3.936   0.343  0.00  0.00    -0.004 A 
ATOM      5  C6  UNL d   1       3.003  -2.994   0.975  0.00  0.00    -0.075 A 
ATOM      6  C7  UNL d   1       1.881  -2.327   0.234  0.00  0.00     0.076 C 
ATOM      7  C8  UNL d   1       3.234  -2.683   2.321  0.00  0.00     0.001 A 
ENDROOT
BRANCH   1   8
ATOM      8  C1  UNL d   1       4.512  -2.951   4.483  0.00  0.00     0.053 C 
ATOM      9  C   UNL d   1       5.643  -1.948   4.644  0.00  0.00     0.018 C 
ENDBRANCH   1   8
TORSDOF 1
ENDMDL
