MODEL 1
REMARK minimizedAffinity 4.80719137
REMARK minimizedRMSD -1
REMARK  1 active torsions:
REMARK  status: ('A' for Active; 'I' for Inactive)
REMARK    1  A    between atoms: C1_2  and  C2_3 
ROOT
ATOM      1  C2  UNL d   1      -3.625  -0.609  -2.947  0.00  0.00    -0.073 A 
ATOM      2  C3  UNL d   1      -4.954  -0.642  -3.385  0.00  0.00    -0.002 A 
ATOM      3  C4  UNL d   1      -5.271  -1.166  -4.639  0.00  0.00     0.004 A 
ATOM      4  C5  UNL d   1      -4.265  -1.668  -5.464  0.00  0.00    -0.004 A 
ATOM      5  C6  UNL d   1      -2.932  -1.655  -5.040  0.00  0.00    -0.075 A 
ATOM      6  C7  UNL d   1      -1.838  -2.189  -5.917  0.00  0.00     0.076 C 
ATOM      7  C8  UNL d   1      -2.622  -1.125  -3.780  0.00  0.00     0.001 A 
ENDROOT
BRANCH   1   8
ATOM      8  C1  UNL d   1      -3.279  -0.050  -1.591  0.00  0.00     0.053 C 
ATOM      9  C   UNL d   1      -3.528   1.447  -1.512  0.00  0.00     0.018 C 
ENDBRANCH   1   8
TORSDOF 1
ENDMDL
