MODEL 1
REMARK minimizedAffinity -3.82862449
REMARK minimizedRMSD -1
REMARK  1 active torsions:
REMARK  status: ('A' for Active; 'I' for Inactive)
REMARK    1  A    between atoms: C1_2  and  C2_3 
ROOT
ATOM      1  C2  UNL d   1      -2.885  -0.636  -3.661  0.00  0.00    -0.073 A 
ATOM      2  C3  UNL d   1      -3.044  -0.205  -2.339  0.00  0.00    -0.002 A 
ATOM      3  C4  UNL d   1      -2.669   1.087  -1.969  0.00  0.00     0.004 A 
ATOM      4  C5  UNL d   1      -2.139   1.963  -2.917  0.00  0.00    -0.004 A 
ATOM      5  C6  UNL d   1      -1.984   1.554  -4.246  0.00  0.00    -0.075 A 
ATOM      6  C7  UNL d   1      -1.413   2.483  -5.277  0.00  0.00     0.076 C 
ATOM      7  C8  UNL d   1      -2.360   0.254  -4.609  0.00  0.00     0.001 A 
ENDROOT
BRANCH   1   8
ATOM      8  C1  UNL d   1      -3.295  -2.029  -4.067  0.00  0.00     0.053 C 
ATOM      9  C   UNL d   1      -4.600  -2.452  -3.412  0.00  0.00     0.018 C 
ENDBRANCH   1   8
TORSDOF 1
ENDMDL
