MODEL 1
REMARK minimizedAffinity 1.31485271
REMARK minimizedRMSD -1
REMARK  1 active torsions:
REMARK  status: ('A' for Active; 'I' for Inactive)
REMARK    1  A    between atoms: C1_2  and  C2_3 
ROOT
ATOM      1  C2  UNL d   1      -5.096   0.352  -4.964  0.00  0.00    -0.073 A 
ATOM      2  C3  UNL d   1      -5.296  -0.035  -3.634  0.00  0.00    -0.002 A 
ATOM      3  C4  UNL d   1      -4.487  -1.014  -3.056  0.00  0.00     0.004 A 
ATOM      4  C5  UNL d   1      -3.467  -1.610  -3.797  0.00  0.00    -0.004 A 
ATOM      5  C6  UNL d   1      -3.243  -1.227  -5.123  0.00  0.00    -0.075 A 
ATOM      6  C7  UNL d   1      -2.150  -1.860  -5.935  0.00  0.00     0.076 C 
ATOM      7  C8  UNL d   1      -4.061  -0.246  -5.698  0.00  0.00     0.001 A 
ENDROOT
BRANCH   1   8
ATOM      8  C1  UNL d   1      -5.962   1.413  -5.591  0.00  0.00     0.053 C 
ATOM      9  C   UNL d   1      -5.404   2.810  -5.370  0.00  0.00     0.018 C 
ENDBRANCH   1   8
TORSDOF 1
ENDMDL
