MODEL 1
REMARK minimizedAffinity -2.84737206
REMARK minimizedRMSD -1
REMARK  1 active torsions:
REMARK  status: ('A' for Active; 'I' for Inactive)
REMARK    1  A    between atoms: C1_2  and  C2_3 
ROOT
ATOM      1  C2  UNL d   1       4.519  -3.704   3.043  0.00  0.00    -0.073 A 
ATOM      2  C3  UNL d   1       4.498  -5.000   3.571  0.00  0.00    -0.002 A 
ATOM      3  C4  UNL d   1       4.934  -5.237   4.876  0.00  0.00     0.004 A 
ATOM      4  C5  UNL d   1       5.388  -4.182   5.666  0.00  0.00    -0.004 A 
ATOM      5  C6  UNL d   1       5.406  -2.878   5.161  0.00  0.00    -0.075 A 
ATOM      6  C7  UNL d   1       5.894  -1.732   5.998  0.00  0.00     0.076 C 
ATOM      7  C8  UNL d   1       4.969  -2.648   3.849  0.00  0.00     0.001 A 
ENDROOT
BRANCH   1   8
ATOM      8  C1  UNL d   1       4.043  -3.443   1.638  0.00  0.00     0.053 C 
ATOM      9  C   UNL d   1       2.663  -2.805   1.612  0.00  0.00     0.018 C 
ENDBRANCH   1   8
TORSDOF 1
ENDMDL
