MODEL 1
REMARK minimizedAffinity 4.34406424
REMARK minimizedRMSD -1
REMARK  0 active torsions:
REMARK  status: ('A' for Active; 'I' for Inactive)
ROOT
ATOM      1  C   UNL d   1       1.992  -2.884  -2.099  0.00  0.00     0.023 A 
ATOM      2  C1  UNL d   1       2.986  -2.607  -3.037  0.00  0.00     0.003 A 
ATOM      3  C2  UNL d   1       3.823  -1.502  -2.865  0.00  0.00     0.048 A 
ATOM      4  C3  UNL d   1       3.660  -0.679  -1.751  0.00  0.00     0.023 A 
ATOM      5  C4  UNL d   1       2.667  -0.952  -0.809  0.00  0.00     0.048 A 
ATOM      6  C5  UNL d   1       1.832  -2.057  -0.986  0.00  0.00     0.003 A 
ATOM      7  I   UNL d   1       4.904   0.966  -1.493  0.00  0.00    -0.146 I 
ENDROOT
TORSDOF 0
ENDMDL
