MODEL 1
REMARK minimizedAffinity 1.24668121
REMARK minimizedRMSD -1
REMARK  0 active torsions:
REMARK  status: ('A' for Active; 'I' for Inactive)
ROOT
ATOM      1  C   UNL d   1       0.641  -1.314  -0.628  0.00  0.00     0.023 A 
ATOM      2  C1  UNL d   1       0.365   0.053  -0.586  0.00  0.00     0.003 A 
ATOM      3  C2  UNL d   1       1.411   0.978  -0.586  0.00  0.00     0.048 A 
ATOM      4  C3  UNL d   1       2.730   0.530  -0.629  0.00  0.00     0.023 A 
ATOM      5  C4  UNL d   1       3.012  -0.837  -0.672  0.00  0.00     0.048 A 
ATOM      6  C5  UNL d   1       1.963  -1.758  -0.671  0.00  0.00     0.003 A 
ATOM      7  I   UNL d   1       4.289   1.905  -0.630  0.00  0.00    -0.146 I 
ENDROOT
TORSDOF 0
ENDMDL
