MODEL 1
REMARK minimizedAffinity 0.28127107
REMARK minimizedRMSD -1
REMARK  0 active torsions:
REMARK  status: ('A' for Active; 'I' for Inactive)
ROOT
ATOM      1  C   UNL d   1       0.583  -1.838  -0.830  0.00  0.00     0.023 A 
ATOM      2  C1  UNL d   1       1.850  -2.247  -1.246  0.00  0.00     0.003 A 
ATOM      3  C2  UNL d   1       2.895  -1.324  -1.315  0.00  0.00     0.048 A 
ATOM      4  C3  UNL d   1       2.667   0.007  -0.965  0.00  0.00     0.023 A 
ATOM      5  C4  UNL d   1       1.401   0.420  -0.548  0.00  0.00     0.048 A 
ATOM      6  C5  UNL d   1       0.359  -0.506  -0.481  0.00  0.00     0.003 A 
ATOM      7  I   UNL d   1       4.221   1.382  -1.067  0.00  0.00    -0.146 I 
ENDROOT
TORSDOF 0
ENDMDL
