MODEL 1
REMARK minimizedAffinity 2.43649387
REMARK minimizedRMSD -1
REMARK  0 active torsions:
REMARK  status: ('A' for Active; 'I' for Inactive)
ROOT
ATOM      1  C   UNL d   1       2.384   2.430   0.278  0.00  0.00     0.023 A 
ATOM      2  C1  UNL d   1       1.194   1.829   0.687  0.00  0.00     0.003 A 
ATOM      3  C2  UNL d   1       0.976   0.471   0.442  0.00  0.00     0.048 A 
ATOM      4  C3  UNL d   1       1.954  -0.279  -0.210  0.00  0.00     0.023 A 
ATOM      5  C4  UNL d   1       3.147   0.318  -0.620  0.00  0.00     0.048 A 
ATOM      6  C5  UNL d   1       3.360   1.676  -0.374  0.00  0.00     0.003 A 
ATOM      7  I   UNL d   1       1.632  -2.300  -0.575  0.00  0.00    -0.146 I 
ENDROOT
TORSDOF 0
ENDMDL
