MODEL 1
REMARK minimizedAffinity 2.81967616
REMARK minimizedRMSD -1
REMARK  0 active torsions:
REMARK  status: ('A' for Active; 'I' for Inactive)
ROOT
ATOM      1  C   UNL d   1       0.480  -2.723  -0.860  0.00  0.00     0.023 A 
ATOM      2  C1  UNL d   1      -0.378  -1.628  -0.958  0.00  0.00     0.003 A 
ATOM      3  C2  UNL d   1       0.065  -0.357  -0.588  0.00  0.00     0.048 A 
ATOM      4  C3  UNL d   1       1.368  -0.187  -0.121  0.00  0.00     0.023 A 
ATOM      5  C4  UNL d   1       2.230  -1.280  -0.022  0.00  0.00     0.048 A 
ATOM      6  C5  UNL d   1       1.783  -2.550  -0.392  0.00  0.00     0.003 A 
ATOM      7  I   UNL d   1       2.030   1.704   0.430  0.00  0.00    -0.146 I 
ENDROOT
TORSDOF 0
ENDMDL
