MODEL 1
REMARK minimizedAffinity 0.818981886
REMARK minimizedRMSD -1
REMARK  0 active torsions:
REMARK  status: ('A' for Active; 'I' for Inactive)
ROOT
ATOM      1  C   UNL d   1       5.408   1.823  -1.453  0.00  0.00     0.023 A 
ATOM      2  C1  UNL d   1       4.722   0.625  -1.649  0.00  0.00     0.003 A 
ATOM      3  C2  UNL d   1       3.438   0.460  -1.125  0.00  0.00     0.048 A 
ATOM      4  C3  UNL d   1       2.846   1.499  -0.408  0.00  0.00     0.023 A 
ATOM      5  C4  UNL d   1       3.528   2.701  -0.210  0.00  0.00     0.048 A 
ATOM      6  C5  UNL d   1       4.812   2.860  -0.735  0.00  0.00     0.003 A 
ATOM      7  I   UNL d   1       0.935   1.257   0.373  0.00  0.00    -0.146 I 
ENDROOT
TORSDOF 0
ENDMDL
