MODEL 1
REMARK minimizedAffinity 3.43123055
REMARK minimizedRMSD -1
REMARK  0 active torsions:
REMARK  status: ('A' for Active; 'I' for Inactive)
ROOT
ATOM      1  C   UNL d   1       0.514  -1.655  -0.476  0.00  0.00     0.023 A 
ATOM      2  C1  UNL d   1       1.741  -2.117  -0.950  0.00  0.00     0.003 A 
ATOM      3  C2  UNL d   1       2.805  -1.229  -1.120  0.00  0.00     0.048 A 
ATOM      4  C3  UNL d   1       2.635   0.120  -0.812  0.00  0.00     0.023 A 
ATOM      5  C4  UNL d   1       1.409   0.587  -0.335  0.00  0.00     0.048 A 
ATOM      6  C5  UNL d   1       0.348  -0.304  -0.168  0.00  0.00     0.003 A 
ATOM      7  I   UNL d   1       4.218   1.444  -1.063  0.00  0.00    -0.146 I 
ENDROOT
TORSDOF 0
ENDMDL
