MODEL 1
REMARK minimizedAffinity 3.12386632
REMARK minimizedRMSD -1
REMARK  0 active torsions:
REMARK  status: ('A' for Active; 'I' for Inactive)
ROOT
ATOM      1  C   UNL d   1      -0.379  -1.484  -1.876  0.00  0.00     0.023 A 
ATOM      2  C1  UNL d   1       0.340  -1.834  -0.733  0.00  0.00     0.003 A 
ATOM      3  C2  UNL d   1       0.653  -0.864   0.221  0.00  0.00     0.048 A 
ATOM      4  C3  UNL d   1       0.241   0.454   0.027  0.00  0.00     0.023 A 
ATOM      5  C4  UNL d   1      -0.480   0.809  -1.114  0.00  0.00     0.048 A 
ATOM      6  C5  UNL d   1      -0.789  -0.164  -2.066  0.00  0.00     0.003 A 
ATOM      7  I   UNL d   1       0.705   1.900   1.447  0.00  0.00    -0.146 I 
ENDROOT
TORSDOF 0
ENDMDL
