MODEL 1
REMARK minimizedAffinity 2.46093798
REMARK minimizedRMSD -1
REMARK  0 active torsions:
REMARK  status: ('A' for Active; 'I' for Inactive)
ROOT
ATOM      1  C   UNL d   1      -0.701  -2.943  -1.129  0.00  0.00     0.023 A 
ATOM      2  C1  UNL d   1       0.576  -2.900  -0.569  0.00  0.00     0.003 A 
ATOM      3  C2  UNL d   1       1.189  -1.671  -0.320  0.00  0.00     0.048 A 
ATOM      4  C3  UNL d   1       0.520  -0.488  -0.634  0.00  0.00     0.023 A 
ATOM      5  C4  UNL d   1      -0.758  -0.526  -1.194  0.00  0.00     0.048 A 
ATOM      6  C5  UNL d   1      -1.367  -1.758  -1.442  0.00  0.00     0.003 A 
ATOM      7  I   UNL d   1       1.431   1.343  -0.264  0.00  0.00    -0.146 I 
ENDROOT
TORSDOF 0
ENDMDL
