MODEL 1
REMARK minimizedAffinity -0.38665399
REMARK minimizedRMSD -1
REMARK  0 active torsions:
REMARK  status: ('A' for Active; 'I' for Inactive)
ROOT
ATOM      1  O1  BZF d   1      -2.674   5.279   3.875  0.00  0.00    -0.204 OA
ATOM      2  C2  BZF d   1      -3.388   5.702   4.979  0.00  0.00     0.174 A 
ATOM      3  C3  BZF d   1      -2.558   6.000   6.000  0.00  0.00    -0.012 A 
ATOM      4  C3A BZF d   1      -1.239   5.835   5.472  0.00  0.00    -0.107 A 
ATOM      5  C4  BZF d   1       0.010   5.999   6.000  0.00  0.00     0.055 A 
ATOM      6  C5  BZF d   1       1.094   5.685   5.242  0.00  0.00    -0.016 A 
ATOM      7  C6  BZF d   1       0.965   5.200   3.957  0.00  0.00     0.022 A 
ATOM      8  C7  BZF d   1      -0.253   5.025   3.389  0.00  0.00     0.029 A 
ATOM      9  C7A BZF d   1      -1.349   5.373   4.141  0.00  0.00     0.058 A 
ENDROOT
TORSDOF 0
ENDMDL
