MODEL 1
REMARK minimizedAffinity 1.12083495
REMARK minimizedRMSD -1
REMARK  0 active torsions:
REMARK  status: ('A' for Active; 'I' for Inactive)
ROOT
ATOM      1  O1  BZF d   1       2.323  -5.627   3.127  0.00  0.00    -0.204 OA
ATOM      2  C2  BZF d   1       0.982  -5.927   3.268  0.00  0.00     0.174 A 
ATOM      3  C3  BZF d   1       0.216  -4.969   2.707  0.00  0.00    -0.012 A 
ATOM      4  C3A BZF d   1       1.138  -4.057   2.101  0.00  0.00    -0.107 A 
ATOM      5  C4  BZF d   1       0.985  -2.909   1.378  0.00  0.00     0.055 A 
ATOM      6  C5  BZF d   1       2.090  -2.217   0.995  0.00  0.00    -0.016 A 
ATOM      7  C6  BZF d   1       3.361  -2.641   1.322  0.00  0.00     0.022 A 
ATOM      8  C7  BZF d   1       3.564  -3.777   2.034  0.00  0.00     0.029 A 
ATOM      9  C7A BZF d   1       2.450  -4.496   2.394  0.00  0.00     0.058 A 
ENDROOT
TORSDOF 0
ENDMDL
