MODEL 1
REMARK minimizedAffinity -3.7851851
REMARK minimizedRMSD -1
REMARK  0 active torsions:
REMARK  status: ('A' for Active; 'I' for Inactive)
ROOT
ATOM      1  O1  BZF d   1      -2.549   2.860   6.000  0.00  0.00    -0.204 OA
ATOM      2  C2  BZF d   1      -3.856   3.306   5.996  0.00  0.00     0.174 A 
ATOM      3  C3  BZF d   1      -3.935   4.555   5.494  0.00  0.00    -0.012 A 
ATOM      4  C3A BZF d   1      -2.604   4.877   5.077  0.00  0.00    -0.107 A 
ATOM      5  C4  BZF d   1      -2.045   5.974   4.486  0.00  0.00     0.055 A 
ATOM      6  C5  BZF d   1      -0.702   6.000   4.278  0.00  0.00    -0.016 A 
ATOM      7  C6  BZF d   1       0.111   4.950   4.653  0.00  0.00     0.022 A 
ATOM      8  C7  BZF d   1      -0.399   3.839   5.237  0.00  0.00     0.029 A 
ATOM      9  C7A BZF d   1      -1.760   3.796   5.419  0.00  0.00     0.058 A 
ENDROOT
TORSDOF 0
ENDMDL
