MODEL 1
REMARK minimizedAffinity 9.55209827
REMARK minimizedRMSD -1
REMARK  0 active torsions:
REMARK  status: ('A' for Active; 'I' for Inactive)
ROOT
ATOM      1  O1  BZF d   1       1.524  -2.322   0.093  0.00  0.00    -0.204 OA
ATOM      2  C2  BZF d   1       0.812  -1.896   1.198  0.00  0.00     0.174 A 
ATOM      3  C3  BZF d   1       1.366  -2.364   2.335  0.00  0.00    -0.012 A 
ATOM      4  C3A BZF d   1       2.549  -3.054   1.920  0.00  0.00    -0.107 A 
ATOM      5  C4  BZF d   1       3.532  -3.721   2.593  0.00  0.00     0.055 A 
ATOM      6  C5  BZF d   1       4.510  -4.346   1.887  0.00  0.00    -0.016 A 
ATOM      7  C6  BZF d   1       4.533  -4.329   0.507  0.00  0.00     0.022 A 
ATOM      8  C7  BZF d   1       3.582  -3.677  -0.205  0.00  0.00     0.029 A 
ATOM      9  C7A BZF d   1       2.611  -3.016   0.507  0.00  0.00     0.058 A 
ENDROOT
TORSDOF 0
ENDMDL
