MODEL 1
REMARK minimizedAffinity 8.39462757
REMARK minimizedRMSD -1
REMARK  0 active torsions:
REMARK  status: ('A' for Active; 'I' for Inactive)
ROOT
ATOM      1  O1  BZF d   1      -2.884   3.641   3.999  0.00  0.00    -0.204 OA
ATOM      2  C2  BZF d   1      -3.820   3.835   4.998  0.00  0.00     0.174 A 
ATOM      3  C3  BZF d   1      -3.331   4.644   5.960  0.00  0.00    -0.012 A 
ATOM      4  C3A BZF d   1      -2.042   5.050   5.492  0.00  0.00    -0.107 A 
ATOM      5  C4  BZF d   1      -1.073   5.867   6.000  0.00  0.00     0.055 A 
ATOM      6  C5  BZF d   1       0.102   5.996   5.329  0.00  0.00    -0.016 A 
ATOM      7  C6  BZF d   1       0.343   5.319   4.151  0.00  0.00     0.022 A 
ATOM      8  C7  BZF d   1      -0.589   4.500   3.606  0.00  0.00     0.029 A 
ATOM      9  C7A BZF d   1      -1.790   4.394   4.264  0.00  0.00     0.058 A 
ENDROOT
TORSDOF 0
ENDMDL
