MODEL 1
REMARK minimizedAffinity 4.80304909
REMARK minimizedRMSD -1
REMARK  0 active torsions:
REMARK  status: ('A' for Active; 'I' for Inactive)
ROOT
ATOM      1  O1  BZF d   1      -2.807   5.012   5.993  0.00  0.00    -0.204 OA
ATOM      2  C2  BZF d   1      -3.575   4.344   5.059  0.00  0.00     0.174 A 
ATOM      3  C3  BZF d   1      -2.896   4.191   3.904  0.00  0.00    -0.012 A 
ATOM      4  C3A BZF d   1      -1.592   4.720   4.160  0.00  0.00    -0.107 A 
ATOM      5  C4  BZF d   1      -0.461   4.838   3.403  0.00  0.00     0.055 A 
ATOM      6  C5  BZF d   1       0.621   5.470   3.928  0.00  0.00    -0.016 A 
ATOM      7  C6  BZF d   1       0.606   6.000   5.202  0.00  0.00     0.022 A 
ATOM      8  C7  BZF d   1      -0.490   5.903   5.992  0.00  0.00     0.029 A 
ATOM      9  C7A BZF d   1      -1.575   5.236   5.476  0.00  0.00     0.058 A 
ENDROOT
TORSDOF 0
ENDMDL
