MODEL 1
REMARK minimizedAffinity -1.92492115
REMARK minimizedRMSD -1
REMARK  0 active torsions:
REMARK  status: ('A' for Active; 'I' for Inactive)
ROOT
ATOM      1  O1  BZF d   1       2.419   5.978   6.000  0.00  0.00    -0.204 OA
ATOM      2  C2  BZF d   1       3.401   5.656   5.083  0.00  0.00     0.174 A 
ATOM      3  C3  BZF d   1       2.854   5.238   3.923  0.00  0.00    -0.012 A 
ATOM      4  C3A BZF d   1       1.442   5.391   4.096  0.00  0.00    -0.107 A 
ATOM      5  C4  BZF d   1       0.366   5.158   3.288  0.00  0.00     0.055 A 
ATOM      6  C5  BZF d   1      -0.885   5.341   3.784  0.00  0.00    -0.016 A 
ATOM      7  C6  BZF d   1      -1.098   5.751   5.084  0.00  0.00     0.022 A 
ATOM      8  C7  BZF d   1      -0.062   6.000   5.922  0.00  0.00     0.029 A 
ATOM      9  C7A BZF d   1       1.205   5.847   5.413  0.00  0.00     0.058 A 
ENDROOT
TORSDOF 0
ENDMDL
