MODEL 1
REMARK minimizedAffinity -0.457678765
REMARK minimizedRMSD -1
REMARK  0 active torsions:
REMARK  status: ('A' for Active; 'I' for Inactive)
ROOT
ATOM      1  O1  BZF d   1       1.295   5.980   3.706  0.00  0.00    -0.204 OA
ATOM      2  C2  BZF d   1       2.032   5.948   4.874  0.00  0.00     0.174 A 
ATOM      3  C3  BZF d   1       1.222   5.965   5.952  0.00  0.00    -0.012 A 
ATOM      4  C3A BZF d   1      -0.107   5.917   5.424  0.00  0.00    -0.107 A 
ATOM      5  C4  BZF d   1      -1.346   5.894   6.000  0.00  0.00     0.055 A 
ATOM      6  C5  BZF d   1      -2.445   5.922   5.202  0.00  0.00    -0.016 A 
ATOM      7  C6  BZF d   1      -2.344   5.979   3.828  0.00  0.00     0.022 A 
ATOM      8  C7  BZF d   1      -1.138   6.000   3.211  0.00  0.00     0.029 A 
ATOM      9  C7A BZF d   1      -0.024   5.938   4.013  0.00  0.00     0.058 A 
ENDROOT
TORSDOF 0
ENDMDL
