MODEL 1
REMARK minimizedAffinity -1.9763906
REMARK minimizedRMSD -1
REMARK  0 active torsions:
REMARK  status: ('A' for Active; 'I' for Inactive)
ROOT
ATOM      1  C   UNL d   1       1.331   0.215   1.151  0.00  0.00     0.124 A 
ATOM      2  C1  UNL d   1       0.568  -0.136   2.255  0.00  0.00     0.062 A 
ATOM      3  C2  UNL d   1      -0.822  -0.113   2.182  0.00  0.00     0.162 A 
ATOM      4  C3  UNL d   1      -1.458   0.264   0.999  0.00  0.00    -0.034 A 
ATOM      5  C4  UNL d   1      -0.683   0.617  -0.107  0.00  0.00     0.162 A 
ATOM      6  C5  UNL d   1       0.705   0.592  -0.029  0.00  0.00     0.062 A 
ATOM      7  F   UNL d   1       1.441   0.932  -1.098  0.00  0.00    -0.097 F 
ATOM      8  F1  UNL d   1      -1.263   0.984  -1.260  0.00  0.00    -0.096 F 
ATOM      9  I   UNL d   1      -3.536   0.301   0.886  0.00  0.00    -0.060 I 
ATOM     10  F2  UNL d   1      -1.534  -0.458   3.265  0.00  0.00    -0.096 F 
ATOM     11  F3  UNL d   1       1.171  -0.500   3.397  0.00  0.00    -0.097 F 
ATOM     12  F4  UNL d   1       2.668   0.193   1.224  0.00  0.00    -0.092 F 
ENDROOT
TORSDOF 0
ENDMDL
