MODEL 1
REMARK minimizedAffinity -3.47784662
REMARK minimizedRMSD -1
REMARK  0 active torsions:
REMARK  status: ('A' for Active; 'I' for Inactive)
ROOT
ATOM      1  C   UNL d   1      -1.271   0.636   2.139  0.00  0.00     0.124 A 
ATOM      2  C1  UNL d   1      -1.965   0.879   0.962  0.00  0.00     0.062 A 
ATOM      3  C2  UNL d   1      -1.332   0.728  -0.269  0.00  0.00     0.162 A 
ATOM      4  C3  UNL d   1       0.004   0.331  -0.328  0.00  0.00    -0.034 A 
ATOM      5  C4  UNL d   1       0.696   0.089   0.860  0.00  0.00     0.162 A 
ATOM      6  C5  UNL d   1       0.058   0.242   2.087  0.00  0.00     0.062 A 
ATOM      7  F   UNL d   1       0.731   0.007   3.223  0.00  0.00    -0.097 F 
ATOM      8  F1  UNL d   1       1.981  -0.294   0.839  0.00  0.00    -0.096 F 
ATOM      9  I   UNL d   1       0.955   0.104  -2.166  0.00  0.00    -0.060 I 
ATOM     10  F2  UNL d   1      -2.027   0.969  -1.390  0.00  0.00    -0.096 F 
ATOM     11  F3  UNL d   1      -3.250   1.260   1.009  0.00  0.00    -0.097 F 
ATOM     12  F4  UNL d   1      -1.883   0.783   3.321  0.00  0.00    -0.092 F 
ENDROOT
TORSDOF 0
ENDMDL
