MODEL 1
REMARK minimizedAffinity -1.24988663
REMARK minimizedRMSD -1
REMARK  0 active torsions:
REMARK  status: ('A' for Active; 'I' for Inactive)
ROOT
ATOM      1  C   UNL d   1       2.401  -0.754  -2.993  0.00  0.00     0.124 A 
ATOM      2  C1  UNL d   1       2.482   0.183  -1.972  0.00  0.00     0.062 A 
ATOM      3  C2  UNL d   1       1.372   0.447  -1.175  0.00  0.00     0.162 A 
ATOM      4  C3  UNL d   1       0.171  -0.227  -1.395  0.00  0.00    -0.034 A 
ATOM      5  C4  UNL d   1       0.097  -1.167  -2.424  0.00  0.00     0.162 A 
ATOM      6  C5  UNL d   1       1.209  -1.428  -3.218  0.00  0.00     0.062 A 
ATOM      7  F   UNL d   1       1.129  -2.333  -4.204  0.00  0.00    -0.097 F 
ATOM      8  F1  UNL d   1      -1.042  -1.834  -2.663  0.00  0.00    -0.096 F 
ATOM      9  I   UNL d   1      -1.491   0.166  -0.205  0.00  0.00    -0.060 I 
ATOM     10  F2  UNL d   1       1.479   1.358  -0.195  0.00  0.00    -0.096 F 
ATOM     11  F3  UNL d   1       3.633   0.836  -1.753  0.00  0.00    -0.097 F 
ATOM     12  F4  UNL d   1       3.471  -1.006  -3.758  0.00  0.00    -0.092 F 
ENDROOT
TORSDOF 0
ENDMDL
