MODEL 1
REMARK minimizedAffinity -3.31387568
REMARK minimizedRMSD -1
REMARK  0 active torsions:
REMARK  status: ('A' for Active; 'I' for Inactive)
ROOT
ATOM      1  C   UNL d   1      -2.061  -0.336   2.351  0.00  0.00     0.124 A 
ATOM      2  C1  UNL d   1      -2.493   0.198   1.145  0.00  0.00     0.062 A 
ATOM      3  C2  UNL d   1      -1.627   0.261   0.057  0.00  0.00     0.162 A 
ATOM      4  C3  UNL d   1      -0.320  -0.212   0.170  0.00  0.00    -0.034 A 
ATOM      5  C4  UNL d   1       0.107  -0.747   1.387  0.00  0.00     0.162 A 
ATOM      6  C5  UNL d   1      -0.762  -0.808   2.471  0.00  0.00     0.062 A 
ATOM      7  F   UNL d   1      -0.343  -1.324   3.636  0.00  0.00    -0.097 F 
ATOM      8  F1  UNL d   1       1.358  -1.211   1.530  0.00  0.00    -0.096 F 
ATOM      9  I   UNL d   1       0.978  -0.119  -1.454  0.00  0.00    -0.060 I 
ATOM     10  F2  UNL d   1      -2.072   0.783  -1.096  0.00  0.00    -0.096 F 
ATOM     11  F3  UNL d   1      -3.748   0.656   1.027  0.00  0.00    -0.097 F 
ATOM     12  F4  UNL d   1      -2.897  -0.394   3.397  0.00  0.00    -0.092 F 
ENDROOT
TORSDOF 0
ENDMDL
