MODEL 1
REMARK minimizedAffinity 0.522295535
REMARK minimizedRMSD -1
REMARK  0 active torsions:
REMARK  status: ('A' for Active; 'I' for Inactive)
ROOT
ATOM      1  C   UNL d   1      -0.453   0.186   1.767  0.00  0.00     0.124 A 
ATOM      2  C1  UNL d   1      -1.217  -0.077   0.639  0.00  0.00     0.062 A 
ATOM      3  C2  UNL d   1      -0.604  -0.231  -0.601  0.00  0.00     0.162 A 
ATOM      4  C3  UNL d   1       0.782  -0.125  -0.719  0.00  0.00    -0.034 A 
ATOM      5  C4  UNL d   1       1.543   0.141   0.420  0.00  0.00     0.162 A 
ATOM      6  C5  UNL d   1       0.926   0.295   1.657  0.00  0.00     0.062 A 
ATOM      7  F   UNL d   1       1.666   0.549   2.747  0.00  0.00    -0.097 F 
ATOM      8  F1  UNL d   1       2.878   0.250   0.343  0.00  0.00    -0.096 F 
ATOM      9  I   UNL d   1       1.703  -0.356  -2.571  0.00  0.00    -0.060 I 
ATOM     10  F2  UNL d   1      -1.367  -0.485  -1.675  0.00  0.00    -0.096 F 
ATOM     11  F3  UNL d   1      -2.550  -0.181   0.742  0.00  0.00    -0.097 F 
ATOM     12  F4  UNL d   1      -1.046   0.336   2.959  0.00  0.00    -0.092 F 
ENDROOT
TORSDOF 0
ENDMDL
