MODEL 1
REMARK minimizedAffinity -2.71575356
REMARK minimizedRMSD -1
REMARK  0 active torsions:
REMARK  status: ('A' for Active; 'I' for Inactive)
ROOT
ATOM      1  C   UNL d   1       0.480   0.354   2.046  0.00  0.00     0.124 A 
ATOM      2  C1  UNL d   1      -0.548  -0.216   1.308  0.00  0.00     0.062 A 
ATOM      3  C2  UNL d   1      -0.377  -0.471  -0.050  0.00  0.00     0.162 A 
ATOM      4  C3  UNL d   1       0.828  -0.156  -0.678  0.00  0.00    -0.034 A 
ATOM      5  C4  UNL d   1       1.857   0.418   0.071  0.00  0.00     0.162 A 
ATOM      6  C5  UNL d   1       1.681   0.670   1.427  0.00  0.00     0.062 A 
ATOM      7  F   UNL d   1       2.675   1.221   2.139  0.00  0.00    -0.097 F 
ATOM      8  F1  UNL d   1       3.028   0.733  -0.502  0.00  0.00    -0.096 F 
ATOM      9  I   UNL d   1       1.088  -0.535  -2.708  0.00  0.00    -0.060 I 
ATOM     10  F2  UNL d   1      -1.387  -1.022  -0.739  0.00  0.00    -0.096 F 
ATOM     11  F3  UNL d   1      -1.710  -0.522   1.903  0.00  0.00    -0.097 F 
ATOM     12  F4  UNL d   1       0.312   0.598   3.352  0.00  0.00    -0.092 F 
ENDROOT
TORSDOF 0
ENDMDL
