MODEL 1
REMARK minimizedAffinity -1.94990122
REMARK minimizedRMSD -1
REMARK  0 active torsions:
REMARK  status: ('A' for Active; 'I' for Inactive)
ROOT
ATOM      1  C   UNL d   1      -0.583  -0.295   2.875  0.00  0.00     0.124 A 
ATOM      2  C1  UNL d   1       0.231   0.775   2.528  0.00  0.00     0.062 A 
ATOM      3  C2  UNL d   1       0.689   0.910   1.221  0.00  0.00     0.162 A 
ATOM      4  C3  UNL d   1       0.333  -0.026   0.250  0.00  0.00    -0.034 A 
ATOM      5  C4  UNL d   1      -0.485  -1.099   0.607  0.00  0.00     0.162 A 
ATOM      6  C5  UNL d   1      -0.940  -1.230   1.915  0.00  0.00     0.062 A 
ATOM      7  F   UNL d   1      -1.726  -2.264   2.248  0.00  0.00    -0.097 F 
ATOM      8  F1  UNL d   1      -0.846  -2.017  -0.302  0.00  0.00    -0.096 F 
ATOM      9  I   UNL d   1       1.016   0.174  -1.706  0.00  0.00    -0.060 I 
ATOM     10  F2  UNL d   1       1.474   1.954   0.914  0.00  0.00    -0.096 F 
ATOM     11  F3  UNL d   1       0.578   1.679   3.455  0.00  0.00    -0.097 F 
ATOM     12  F4  UNL d   1      -1.021  -0.423   4.134  0.00  0.00    -0.092 F 
ENDROOT
TORSDOF 0
ENDMDL
