MODEL 1
REMARK minimizedAffinity 0.0178943742
REMARK minimizedRMSD -1
REMARK  0 active torsions:
REMARK  status: ('A' for Active; 'I' for Inactive)
ROOT
ATOM      1  C   UNL d   1       1.425   0.861   1.217  0.00  0.00     0.124 A 
ATOM      2  C1  UNL d   1       0.799   0.760  -0.018  0.00  0.00     0.062 A 
ATOM      3  C2  UNL d   1      -0.570   0.519  -0.090  0.00  0.00     0.162 A 
ATOM      4  C3  UNL d   1      -1.323   0.377   1.076  0.00  0.00    -0.034 A 
ATOM      5  C4  UNL d   1      -0.685   0.479   2.314  0.00  0.00     0.162 A 
ATOM      6  C5  UNL d   1       0.683   0.720   2.381  0.00  0.00     0.062 A 
ATOM      7  F   UNL d   1       1.286   0.817   3.574  0.00  0.00    -0.097 F 
ATOM      8  F1  UNL d   1      -1.379   0.347   3.454  0.00  0.00    -0.096 F 
ATOM      9  I   UNL d   1      -3.370   0.015   0.971  0.00  0.00    -0.060 I 
ATOM     10  F2  UNL d   1      -1.149   0.426  -1.297  0.00  0.00    -0.096 F 
ATOM     11  F3  UNL d   1       1.514   0.895  -1.144  0.00  0.00    -0.097 F 
ATOM     12  F4  UNL d   1       2.742   1.093   1.284  0.00  0.00    -0.092 F 
ENDROOT
TORSDOF 0
ENDMDL
