MODEL 1
REMARK minimizedAffinity -4.3081708
REMARK minimizedRMSD -1
REMARK  0 active torsions:
REMARK  status: ('A' for Active; 'I' for Inactive)
ROOT
ATOM      1  C   UNL d   1      -1.569  -0.465   3.020  0.00  0.00     0.124 A 
ATOM      2  C1  UNL d   1      -2.349  -0.127   1.923  0.00  0.00     0.062 A 
ATOM      3  C2  UNL d   1      -1.759   0.079   0.680  0.00  0.00     0.162 A 
ATOM      4  C3  UNL d   1      -0.379  -0.054   0.526  0.00  0.00    -0.034 A 
ATOM      5  C4  UNL d   1       0.400  -0.393   1.634  0.00  0.00     0.162 A 
ATOM      6  C5  UNL d   1      -0.195  -0.598   2.874  0.00  0.00     0.062 A 
ATOM      7  F   UNL d   1       0.561  -0.925   3.932  0.00  0.00    -0.097 F 
ATOM      8  F1  UNL d   1       1.730  -0.529   1.521  0.00  0.00    -0.096 F 
ATOM      9  I   UNL d   1       0.509   0.254  -1.331  0.00  0.00    -0.060 I 
ATOM     10  F2  UNL d   1      -2.537   0.405  -0.362  0.00  0.00    -0.096 F 
ATOM     11  F3  UNL d   1      -3.677   0.003   2.062  0.00  0.00    -0.097 F 
ATOM     12  F4  UNL d   1      -2.140  -0.662   4.215  0.00  0.00    -0.092 F 
ENDROOT
TORSDOF 0
ENDMDL
