MODEL 1
REMARK minimizedAffinity -6.6121397
REMARK minimizedRMSD -1
REMARK  0 active torsions:
REMARK  status: ('A' for Active; 'I' for Inactive)
ROOT
ATOM      1  C   UNL d   1       1.659   0.544   0.965  0.00  0.00     0.124 A 
ATOM      2  C1  UNL d   1       0.936   0.591  -0.219  0.00  0.00     0.062 A 
ATOM      3  C2  UNL d   1      -0.449   0.454  -0.200  0.00  0.00     0.162 A 
ATOM      4  C3  UNL d   1      -1.121   0.270   1.009  0.00  0.00    -0.034 A 
ATOM      5  C4  UNL d   1      -0.387   0.223   2.195  0.00  0.00     0.162 A 
ATOM      6  C5  UNL d   1       0.997   0.360   2.171  0.00  0.00     0.062 A 
ATOM      7  F   UNL d   1       1.693   0.314   3.316  0.00  0.00    -0.097 F 
ATOM      8  F1  UNL d   1      -1.002   0.047   3.375  0.00  0.00    -0.096 F 
ATOM      9  I   UNL d   1      -3.192   0.065   1.042  0.00  0.00    -0.060 I 
ATOM     10  F2  UNL d   1      -1.121   0.504  -1.359  0.00  0.00    -0.096 F 
ATOM     11  F3  UNL d   1       1.574   0.768  -1.385  0.00  0.00    -0.097 F 
ATOM     12  F4  UNL d   1       2.992   0.675   0.944  0.00  0.00    -0.092 F 
ENDROOT
TORSDOF 0
ENDMDL
