MODEL 1
REMARK minimizedAffinity -5.21537733
REMARK minimizedRMSD -1
REMARK  0 active torsions:
REMARK  status: ('A' for Active; 'I' for Inactive)
ROOT
ATOM      1  C   UNL d   1      -1.427  -0.313   2.402  0.00  0.00     0.124 A 
ATOM      2  C1  UNL d   1      -0.090  -0.430   2.049  0.00  0.00     0.062 A 
ATOM      3  C2  UNL d   1       0.319  -0.142   0.750  0.00  0.00     0.162 A 
ATOM      4  C3  UNL d   1      -0.611   0.265  -0.207  0.00  0.00    -0.034 A 
ATOM      5  C4  UNL d   1      -1.954   0.379   0.156  0.00  0.00     0.162 A 
ATOM      6  C5  UNL d   1      -2.358   0.091   1.455  0.00  0.00     0.062 A 
ATOM      7  F   UNL d   1      -3.650   0.204   1.795  0.00  0.00    -0.097 F 
ATOM      8  F1  UNL d   1      -2.875   0.768  -0.739  0.00  0.00    -0.096 F 
ATOM      9  I   UNL d   1      -0.004   0.696  -2.150  0.00  0.00    -0.060 I 
ATOM     10  F2  UNL d   1       1.618  -0.263   0.437  0.00  0.00    -0.096 F 
ATOM     11  F3  UNL d   1       0.812  -0.821   2.962  0.00  0.00    -0.097 F 
ATOM     12  F4  UNL d   1      -1.817  -0.591   3.652  0.00  0.00    -0.092 F 
ENDROOT
TORSDOF 0
ENDMDL
