MODEL 1
REMARK minimizedAffinity -3.70330238
REMARK minimizedRMSD -1
REMARK  0 active torsions:
REMARK  status: ('A' for Active; 'I' for Inactive)
ROOT
ATOM      1  C   UNL d   1      -1.096   0.509   2.886  0.00  0.00     0.124 A 
ATOM      2  C1  UNL d   1      -2.053   0.182   1.935  0.00  0.00     0.062 A 
ATOM      3  C2  UNL d   1      -1.691   0.033   0.600  0.00  0.00     0.162 A 
ATOM      4  C3  UNL d   1      -0.364   0.211   0.206  0.00  0.00    -0.034 A 
ATOM      5  C4  UNL d   1       0.592   0.540   1.168  0.00  0.00     0.162 A 
ATOM      6  C5  UNL d   1       0.225   0.687   2.502  0.00  0.00     0.062 A 
ATOM      7  F   UNL d   1       1.151   1.003   3.419  0.00  0.00    -0.097 F 
ATOM      8  F1  UNL d   1       1.877   0.718   0.825  0.00  0.00    -0.096 F 
ATOM      9  I   UNL d   1       0.181  -0.011  -1.790  0.00  0.00    -0.060 I 
ATOM     10  F2  UNL d   1      -2.637  -0.283  -0.297  0.00  0.00    -0.096 F 
ATOM     11  F3  UNL d   1      -3.331   0.010   2.304  0.00  0.00    -0.097 F 
ATOM     12  F4  UNL d   1      -1.448   0.652   4.170  0.00  0.00    -0.092 F 
ENDROOT
TORSDOF 0
ENDMDL
