MODEL 1
REMARK minimizedAffinity -3.53461123
REMARK minimizedRMSD -1
REMARK  0 active torsions:
REMARK  status: ('A' for Active; 'I' for Inactive)
ROOT
ATOM      1  C   UNL d   1      -1.327  -0.110   2.948  0.00  0.00     0.124 A 
ATOM      2  C1  UNL d   1       0.022   0.174   2.786  0.00  0.00     0.062 A 
ATOM      3  C2  UNL d   1       0.551   0.355   1.511  0.00  0.00     0.162 A 
ATOM      4  C3  UNL d   1      -0.270   0.253   0.388  0.00  0.00    -0.034 A 
ATOM      5  C4  UNL d   1      -1.625  -0.034   0.559  0.00  0.00     0.162 A 
ATOM      6  C5  UNL d   1      -2.149  -0.214   1.835  0.00  0.00     0.062 A 
ATOM      7  F   UNL d   1      -3.452  -0.489   1.990  0.00  0.00    -0.097 F 
ATOM      8  F1  UNL d   1      -2.443  -0.139  -0.500  0.00  0.00    -0.096 F 
ATOM      9  I   UNL d   1       0.517   0.524  -1.520  0.00  0.00    -0.060 I 
ATOM     10  F2  UNL d   1       1.858   0.629   1.384  0.00  0.00    -0.096 F 
ATOM     11  F3  UNL d   1       0.818   0.274   3.860  0.00  0.00    -0.097 F 
ATOM     12  F4  UNL d   1      -1.833  -0.285   4.176  0.00  0.00    -0.092 F 
ENDROOT
TORSDOF 0
ENDMDL
