MODEL 1
REMARK minimizedAffinity -0.82917887
REMARK minimizedRMSD -1
REMARK  0 active torsions:
REMARK  status: ('A' for Active; 'I' for Inactive)
ROOT
ATOM      1  C   UNL d   1       0.475  -0.718   2.746  0.00  0.00     0.124 A 
ATOM      2  C1  UNL d   1      -0.858  -0.983   2.462  0.00  0.00     0.062 A 
ATOM      3  C2  UNL d   1      -1.395  -0.627   1.229  0.00  0.00     0.162 A 
ATOM      4  C3  UNL d   1      -0.600  -0.002   0.268  0.00  0.00    -0.034 A 
ATOM      5  C4  UNL d   1       0.740   0.261   0.561  0.00  0.00     0.162 A 
ATOM      6  C5  UNL d   1       1.272  -0.097   1.795  0.00  0.00     0.062 A 
ATOM      7  F   UNL d   1       2.560   0.159   2.067  0.00  0.00    -0.097 F 
ATOM      8  F1  UNL d   1       1.533   0.860  -0.340  0.00  0.00    -0.096 F 
ATOM      9  I   UNL d   1      -1.399   0.532  -1.577  0.00  0.00    -0.060 I 
ATOM     10  F2  UNL d   1      -2.686  -0.894   0.982  0.00  0.00    -0.096 F 
ATOM     11  F3  UNL d   1      -1.631  -1.583   3.379  0.00  0.00    -0.097 F 
ATOM     12  F4  UNL d   1       0.989  -1.062   3.934  0.00  0.00    -0.092 F 
ENDROOT
TORSDOF 0
ENDMDL
