MODEL 1
REMARK minimizedAffinity 3.32396388
REMARK minimizedRMSD -1
REMARK  0 active torsions:
REMARK  status: ('A' for Active; 'I' for Inactive)
ROOT
ATOM      1  C   UNL d   1      -0.536  -0.106   1.280  0.00  0.00     0.124 A 
ATOM      2  C1  UNL d   1      -1.262   0.371   2.363  0.00  0.00     0.062 A 
ATOM      3  C2  UNL d   1      -0.688   1.284   3.242  0.00  0.00     0.162 A 
ATOM      4  C3  UNL d   1       0.619   1.728   3.043  0.00  0.00    -0.034 A 
ATOM      5  C4  UNL d   1       1.343   1.243   1.952  0.00  0.00     0.162 A 
ATOM      6  C5  UNL d   1       0.766   0.330   1.076  0.00  0.00     0.062 A 
ATOM      7  F   UNL d   1       1.468  -0.129   0.030  0.00  0.00    -0.097 F 
ATOM      8  F1  UNL d   1       2.603   1.649   1.730  0.00  0.00    -0.096 F 
ATOM      9  I   UNL d   1       1.481   3.093   4.356  0.00  0.00    -0.060 I 
ATOM     10  F2  UNL d   1      -1.413   1.728   4.280  0.00  0.00    -0.096 F 
ATOM     11  F3  UNL d   1      -2.519  -0.050   2.563  0.00  0.00    -0.097 F 
ATOM     12  F4  UNL d   1      -1.090  -0.986   0.436  0.00  0.00    -0.092 F 
ENDROOT
TORSDOF 0
ENDMDL
