MODEL 1
REMARK minimizedAffinity -4.06230068
REMARK minimizedRMSD -1
REMARK  0 active torsions:
REMARK  status: ('A' for Active; 'I' for Inactive)
ROOT
ATOM      1  C   UNL d   1      -1.663  -0.324   2.970  0.00  0.00     0.124 A 
ATOM      2  C1  UNL d   1      -2.487   0.123   1.947  0.00  0.00     0.062 A 
ATOM      3  C2  UNL d   1      -1.963   0.364   0.680  0.00  0.00     0.162 A 
ATOM      4  C3  UNL d   1      -0.606   0.157   0.430  0.00  0.00    -0.034 A 
ATOM      5  C4  UNL d   1       0.217  -0.292   1.465  0.00  0.00     0.162 A 
ATOM      6  C5  UNL d   1      -0.313  -0.531   2.729  0.00  0.00     0.062 A 
ATOM      7  F   UNL d   1       0.485  -0.962   3.716  0.00  0.00    -0.097 F 
ATOM      8  F1  UNL d   1       1.525  -0.501   1.258  0.00  0.00    -0.096 F 
ATOM      9  I   UNL d   1       0.183   0.516  -1.462  0.00  0.00    -0.060 I 
ATOM     10  F2  UNL d   1      -2.782   0.795  -0.290  0.00  0.00    -0.096 F 
ATOM     11  F3  UNL d   1      -3.793   0.324   2.178  0.00  0.00    -0.097 F 
ATOM     12  F4  UNL d   1      -2.171  -0.554   4.188  0.00  0.00    -0.092 F 
ENDROOT
TORSDOF 0
ENDMDL
