MODEL 1
REMARK minimizedAffinity 7.70567226
REMARK minimizedRMSD -1
REMARK  3 active torsions:
REMARK  status: ('A' for Active; 'I' for Inactive)
REMARK    1  A    between atoms: C3'_2  and  C2'_3 
REMARK    2  A    between atoms: C2'_3  and  C1'_4 
REMARK    3  A    between atoms: C1'_4  and  C1_5 
ROOT
ATOM      1  C1  N4B d   1      -0.041  -0.645   1.024  0.00  0.00    -0.075 A 
ATOM      2  C2  N4B d   1      -0.925  -0.240   0.001  0.00  0.00     0.002 A 
ATOM      3  C3  N4B d   1      -2.235   0.047   0.299  0.00  0.00     0.002 A 
ATOM      4  C4  N4B d   1      -2.685  -0.081   1.605  0.00  0.00    -0.004 A 
ATOM      5  C5  N4B d   1      -1.817  -0.448   2.592  0.00  0.00     0.002 A 
ATOM      6  C6  N4B d   1      -0.498  -0.736   2.307  0.00  0.00     0.002 A 
ENDROOT
BRANCH   1   7
ATOM      7  C1' N4B d   1       1.378  -1.052   0.732  0.00  0.00     0.057 C 
BRANCH   7   8
ATOM      8  C2' N4B d   1       1.702  -0.730  -0.723  0.00  0.00     0.009 C 
BRANCH   8   9
ATOM      9  C3' N4B d   1       2.971   0.094  -0.854  0.00  0.00     0.004 C 
ATOM     10  C4' N4B d   1       3.031   0.869  -2.136  0.00  0.00     0.003 C 
ENDBRANCH   8   9
ENDBRANCH   7   8
ENDBRANCH   1   7
TORSDOF 3
ENDMDL
