MODEL 1
REMARK minimizedAffinity 10.021306
REMARK minimizedRMSD -1
REMARK  3 active torsions:
REMARK  status: ('A' for Active; 'I' for Inactive)
REMARK    1  A    between atoms: C3'_2  and  C2'_3 
REMARK    2  A    between atoms: C2'_3  and  C1'_4 
REMARK    3  A    between atoms: C1'_4  and  C1_5 
ROOT
ATOM      1  C1  N4B d   1      -1.545   1.161   0.534  0.00  0.00    -0.075 A 
ATOM      2  C2  N4B d   1      -2.669   0.321   0.691  0.00  0.00     0.002 A 
ATOM      3  C3  N4B d   1      -2.520  -0.929   1.239  0.00  0.00     0.002 A 
ATOM      4  C4  N4B d   1      -1.260  -1.366   1.618  0.00  0.00    -0.004 A 
ATOM      5  C5  N4B d   1      -0.183  -0.539   1.487  0.00  0.00     0.002 A 
ATOM      6  C6  N4B d   1      -0.319   0.722   0.941  0.00  0.00     0.002 A 
ENDROOT
BRANCH   1   7
ATOM      7  C1' N4B d   1      -1.644   2.503  -0.139  0.00  0.00     0.057 C 
BRANCH   7   8
ATOM      8  C2' N4B d   1      -0.586   2.594  -1.234  0.00  0.00     0.009 C 
BRANCH   8   9
ATOM      9  C3' N4B d   1      -1.114   3.286  -2.479  0.00  0.00     0.004 C 
ATOM     10  C4' N4B d   1      -2.612   3.266  -2.563  0.00  0.00     0.003 C 
ENDBRANCH   8   9
ENDBRANCH   7   8
ENDBRANCH   1   7
TORSDOF 3
ENDMDL
