MODEL 1
REMARK minimizedAffinity 3.6921792
REMARK minimizedRMSD -1
REMARK  3 active torsions:
REMARK  status: ('A' for Active; 'I' for Inactive)
REMARK    1  A    between atoms: C3'_2  and  C2'_3 
REMARK    2  A    between atoms: C2'_3  and  C1'_4 
REMARK    3  A    between atoms: C1'_4  and  C1_5 
ROOT
ATOM      1  C1  N4B d   1       0.666  -0.851   0.175  0.00  0.00    -0.075 A 
ATOM      2  C2  N4B d   1      -0.172  -0.781  -0.959  0.00  0.00     0.002 A 
ATOM      3  C3  N4B d   1      -1.512  -0.519  -0.808  0.00  0.00     0.002 A 
ATOM      4  C4  N4B d   1      -2.037  -0.343   0.463  0.00  0.00    -0.004 A 
ATOM      5  C5  N4B d   1      -1.216  -0.387   1.552  0.00  0.00     0.002 A 
ATOM      6  C6  N4B d   1       0.133  -0.646   1.415  0.00  0.00     0.002 A 
ENDROOT
BRANCH   1   7
ATOM      7  C1' N4B d   1       2.120  -1.219   0.066  0.00  0.00     0.057 C 
BRANCH   7   8
ATOM      8  C2' N4B d   1       2.257  -2.738   0.113  0.00  0.00     0.009 C 
BRANCH   8   9
ATOM      9  C3' N4B d   1       3.710  -3.180   0.084  0.00  0.00     0.004 C 
ATOM     10  C4' N4B d   1       3.910  -4.473  -0.647  0.00  0.00     0.003 C 
ENDBRANCH   8   9
ENDBRANCH   7   8
ENDBRANCH   1   7
TORSDOF 3
ENDMDL
