MODEL 1
REMARK minimizedAffinity -0.556244552
REMARK minimizedRMSD -1
REMARK  3 active torsions:
REMARK  status: ('A' for Active; 'I' for Inactive)
REMARK    1  A    between atoms: C3'_2  and  C2'_3 
REMARK    2  A    between atoms: C2'_3  and  C1'_4 
REMARK    3  A    between atoms: C1'_4  and  C1_5 
ROOT
ATOM      1  C1  N4B d   1       1.210   0.773  -0.085  0.00  0.00    -0.075 A 
ATOM      2  C2  N4B d   1       2.139   1.717  -0.573  0.00  0.00     0.002 A 
ATOM      3  C3  N4B d   1       3.342   1.295  -1.084  0.00  0.00     0.002 A 
ATOM      4  C4  N4B d   1       3.644  -0.059  -1.100  0.00  0.00    -0.004 A 
ATOM      5  C5  N4B d   1       2.730  -0.966  -0.650  0.00  0.00     0.002 A 
ATOM      6  C6  N4B d   1       1.515  -0.557  -0.137  0.00  0.00     0.002 A 
ENDROOT
BRANCH   1   7
ATOM      7  C1' N4B d   1      -0.083   1.191   0.561  0.00  0.00     0.057 C 
BRANCH   7   8
ATOM      8  C2' N4B d   1      -0.268   0.413   1.861  0.00  0.00     0.009 C 
BRANCH   8   9
ATOM      9  C3' N4B d   1      -1.583  -0.346   1.886  0.00  0.00     0.004 C 
ATOM     10  C4' N4B d   1      -2.187  -0.506   0.522  0.00  0.00     0.003 C 
ENDBRANCH   8   9
ENDBRANCH   7   8
ENDBRANCH   1   7
TORSDOF 3
ENDMDL
