MODEL 1
REMARK minimizedAffinity 10.5947571
REMARK minimizedRMSD -1
REMARK  3 active torsions:
REMARK  status: ('A' for Active; 'I' for Inactive)
REMARK    1  A    between atoms: C3'_2  and  C2'_3 
REMARK    2  A    between atoms: C2'_3  and  C1'_4 
REMARK    3  A    between atoms: C1'_4  and  C1_5 
ROOT
ATOM      1  C1  N4B d   1      -0.845  -0.125  -0.198  0.00  0.00    -0.075 A 
ATOM      2  C2  N4B d   1      -1.146  -0.503   1.129  0.00  0.00     0.002 A 
ATOM      3  C3  N4B d   1      -0.209  -1.166   1.883  0.00  0.00     0.002 A 
ATOM      4  C4  N4B d   1       1.024  -1.476   1.328  0.00  0.00    -0.004 A 
ATOM      5  C5  N4B d   1       1.316  -1.085   0.054  0.00  0.00     0.002 A 
ATOM      6  C6  N4B d   1       0.385  -0.415  -0.714  0.00  0.00     0.002 A 
ENDROOT
BRANCH   1   7
ATOM      7  C1' N4B d   1      -1.867   0.524  -1.090  0.00  0.00     0.057 C 
BRANCH   7   8
ATOM      8  C2' N4B d   1      -1.877   2.028  -0.828  0.00  0.00     0.009 C 
BRANCH   8   9
ATOM      9  C3' N4B d   1      -2.305   2.815  -2.055  0.00  0.00     0.004 C 
ATOM     10  C4' N4B d   1      -3.785   2.763  -2.291  0.00  0.00     0.003 C 
ENDBRANCH   8   9
ENDBRANCH   7   8
ENDBRANCH   1   7
TORSDOF 3
ENDMDL
