MODEL 1
REMARK minimizedAffinity 1.85867953
REMARK minimizedRMSD -1
REMARK  3 active torsions:
REMARK  status: ('A' for Active; 'I' for Inactive)
REMARK    1  A    between atoms: C3'_2  and  C2'_3 
REMARK    2  A    between atoms: C2'_3  and  C1'_4 
REMARK    3  A    between atoms: C1'_4  and  C1_5 
ROOT
ATOM      1  C1  N4B d   1       0.762  -1.000   0.924  0.00  0.00    -0.075 A 
ATOM      2  C2  N4B d   1       0.355  -1.047   2.276  0.00  0.00     0.002 A 
ATOM      3  C3  N4B d   1      -0.958  -0.815   2.606  0.00  0.00     0.002 A 
ATOM      4  C4  N4B d   1      -1.873  -0.516   1.608  0.00  0.00    -0.004 A 
ATOM      5  C5  N4B d   1      -1.477  -0.498   0.303  0.00  0.00     0.002 A 
ATOM      6  C6  N4B d   1      -0.162  -0.733  -0.044  0.00  0.00     0.002 A 
ENDROOT
BRANCH   1   7
ATOM      7  C1' N4B d   1       2.203  -1.162   0.523  0.00  0.00     0.057 C 
BRANCH   7   8
ATOM      8  C2' N4B d   1       2.604  -0.000  -0.381  0.00  0.00     0.009 C 
BRANCH   8   9
ATOM      9  C3' N4B d   1       4.024   0.467  -0.110  0.00  0.00     0.004 C 
ATOM     10  C4' N4B d   1       4.640   1.166  -1.284  0.00  0.00     0.003 C 
ENDBRANCH   8   9
ENDBRANCH   7   8
ENDBRANCH   1   7
TORSDOF 3
ENDMDL
