MODEL 1
REMARK minimizedAffinity -6.0437212
REMARK minimizedRMSD -1
REMARK  0 active torsions:
REMARK  status: ('A' for Active; 'I' for Inactive)
ROOT
ATOM      1  C1  DEN d   1       0.069   0.101  -1.092  0.00  0.00     0.130 A 
ATOM      2  C2  DEN d   1       0.346  -0.859  -0.027  0.00  0.00    -0.031 A 
ATOM      3  C3  DEN d   1       0.098  -0.190   1.266  0.00  0.00     0.027 A 
ATOM      4  C4  DEN d   1      -0.688   2.224   1.720  0.00  0.00     0.027 A 
ATOM      5  C5  DEN d   1      -1.042   3.418   1.133  0.00  0.00    -0.003 A 
ATOM      6  C6  DEN d   1      -1.017   3.600  -0.224  0.00  0.00     0.001 A 
ATOM      7  C7  DEN d   1      -0.675   2.557  -1.043  0.00  0.00     0.017 A 
ATOM      8  C8  DEN d   1      -0.310   1.351  -0.458  0.00  0.00    -0.094 A 
ATOM      9  C9  DEN d   1      -0.353   1.183   0.916  0.00  0.00    -0.072 A 
ENDROOT
TORSDOF 0
ENDMDL
