MODEL 1
REMARK minimizedAffinity -4.28163099
REMARK minimizedRMSD -1
REMARK  0 active torsions:
REMARK  status: ('A' for Active; 'I' for Inactive)
ROOT
ATOM      1  C1  DEN d   1      -0.163   0.074  -0.569  0.00  0.00     0.130 A 
ATOM      2  C2  DEN d   1      -0.040  -0.863   0.544  0.00  0.00    -0.031 A 
ATOM      3  C3  DEN d   1      -0.255  -0.115   1.798  0.00  0.00     0.027 A 
ATOM      4  C4  DEN d   1      -0.770   2.392   2.123  0.00  0.00     0.027 A 
ATOM      5  C5  DEN d   1      -0.959   3.592   1.475  0.00  0.00    -0.003 A 
ATOM      6  C6  DEN d   1      -0.863   3.710   0.114  0.00  0.00     0.001 A 
ATOM      7  C7  DEN d   1      -0.615   2.599  -0.648  0.00  0.00     0.017 A 
ATOM      8  C8  DEN d   1      -0.416   1.386  -0.001  0.00  0.00    -0.094 A 
ATOM      9  C9  DEN d   1      -0.529   1.285   1.376  0.00  0.00    -0.072 A 
ENDROOT
TORSDOF 0
ENDMDL
