MODEL 1
REMARK minimizedAffinity -3.71919751
REMARK minimizedRMSD -1
REMARK  0 active torsions:
REMARK  status: ('A' for Active; 'I' for Inactive)
ROOT
ATOM      1  C1  DEN d   1      -0.434   1.874   2.219  0.00  0.00     0.130 A 
ATOM      2  C2  DEN d   1      -1.294   2.952   1.737  0.00  0.00    -0.031 A 
ATOM      3  C3  DEN d   1      -1.375   2.848   0.267  0.00  0.00     0.027 A 
ATOM      4  C4  DEN d   1      -0.262   1.131  -1.303  0.00  0.00     0.027 A 
ATOM      5  C5  DEN d   1       0.568   0.034  -1.358  0.00  0.00    -0.003 A 
ATOM      6  C6  DEN d   1       1.146  -0.502  -0.237  0.00  0.00     0.001 A 
ATOM      7  C7  DEN d   1       0.864   0.032   0.993  0.00  0.00     0.017 A 
ATOM      8  C8  DEN d   1       0.033   1.143   1.055  0.00  0.00    -0.094 A 
ATOM      9  C9  DEN d   1      -0.551   1.662  -0.088  0.00  0.00    -0.072 A 
ENDROOT
TORSDOF 0
ENDMDL
