MODEL 1
REMARK minimizedAffinity -5.0789752
REMARK minimizedRMSD -1
REMARK  0 active torsions:
REMARK  status: ('A' for Active; 'I' for Inactive)
ROOT
ATOM      1  C1  DEN d   1       0.308   0.006  -0.038  0.00  0.00     0.130 A 
ATOM      2  C2  DEN d   1       0.610  -0.298   1.358  0.00  0.00    -0.031 A 
ATOM      3  C3  DEN d   1      -0.023   0.739   2.198  0.00  0.00     0.027 A 
ATOM      4  C4  DEN d   1      -1.437   2.772   1.476  0.00  0.00     0.027 A 
ATOM      5  C5  DEN d   1      -1.956   3.452   0.396  0.00  0.00    -0.003 A 
ATOM      6  C6  DEN d   1      -1.729   3.054  -0.895  0.00  0.00     0.001 A 
ATOM      7  C7  DEN d   1      -1.002   1.919  -1.137  0.00  0.00     0.017 A 
ATOM      8  C8  DEN d   1      -0.470   1.232  -0.054  0.00  0.00    -0.094 A 
ATOM      9  C9  DEN d   1      -0.720   1.643   1.244  0.00  0.00    -0.072 A 
ENDROOT
TORSDOF 0
ENDMDL
