MODEL 1
REMARK minimizedAffinity -2.06872177
REMARK minimizedRMSD -1
REMARK  0 active torsions:
REMARK  status: ('A' for Active; 'I' for Inactive)
ROOT
ATOM      1  C1  DEN d   1       0.791  -0.021  -1.381  0.00  0.00     0.130 A 
ATOM      2  C2  DEN d   1       0.653  -1.474  -1.337  0.00  0.00    -0.031 A 
ATOM      3  C3  DEN d   1       0.341  -1.861   0.054  0.00  0.00     0.027 A 
ATOM      4  C4  DEN d   1       0.056  -0.359   2.131  0.00  0.00     0.027 A 
ATOM      5  C5  DEN d   1       0.091   0.938   2.592  0.00  0.00    -0.003 A 
ATOM      6  C6  DEN d   1       0.392   1.995   1.774  0.00  0.00     0.001 A 
ATOM      7  C7  DEN d   1       0.627   1.778   0.442  0.00  0.00     0.017 A 
ATOM      8  C8  DEN d   1       0.601   0.471  -0.028  0.00  0.00    -0.094 A 
ATOM      9  C9  DEN d   1       0.282  -0.582   0.812  0.00  0.00    -0.072 A 
ENDROOT
TORSDOF 0
ENDMDL
