MODEL 1
REMARK minimizedAffinity 7.01292706
REMARK minimizedRMSD -1
REMARK  0 active torsions:
REMARK  status: ('A' for Active; 'I' for Inactive)
ROOT
ATOM      1  C1  BNZ d   1       0.617  -3.597  -5.991  0.00  0.00     0.000 A 
ATOM      2  C2  BNZ d   1       1.875  -4.137  -6.000  0.00  0.00     0.000 A 
ATOM      3  C3  BNZ d   1       2.873  -3.598  -5.237  0.00  0.00     0.000 A 
ATOM      4  C4  BNZ d   1       2.622  -2.498  -4.498  0.00  0.00     0.000 A 
ATOM      5  C5  BNZ d   1       1.361  -1.936  -4.486  0.00  0.00     0.000 A 
ATOM      6  C6  BNZ d   1       0.349  -2.505  -5.225  0.00  0.00     0.000 A 
ENDROOT
TORSDOF 0
ENDMDL
