MODEL 1
REMARK minimizedAffinity 2.25953007
REMARK minimizedRMSD -1
REMARK  0 active torsions:
REMARK  status: ('A' for Active; 'I' for Inactive)
ROOT
ATOM      1  C1  BNZ d   1       1.523  -1.979   4.663  0.00  0.00     0.000 A 
ATOM      2  C2  BNZ d   1       1.690  -0.621   4.735  0.00  0.00     0.000 A 
ATOM      3  C3  BNZ d   1       1.083   0.208   3.834  0.00  0.00     0.000 A 
ATOM      4  C4  BNZ d   1       0.344  -0.323   2.838  0.00  0.00     0.000 A 
ATOM      5  C5  BNZ d   1       0.174  -1.690   2.746  0.00  0.00     0.000 A 
ATOM      6  C6  BNZ d   1       0.755  -2.519   3.679  0.00  0.00     0.000 A 
ENDROOT
TORSDOF 0
ENDMDL
