MODEL 1
REMARK minimizedAffinity 4.25019503
REMARK minimizedRMSD -1
REMARK  0 active torsions:
REMARK  status: ('A' for Active; 'I' for Inactive)
ROOT
ATOM      1  C1  BNZ d   1      -0.490  -1.257  -1.920  0.00  0.00     0.000 A 
ATOM      2  C2  BNZ d   1       0.360  -0.486  -2.666  0.00  0.00     0.000 A 
ATOM      3  C3  BNZ d   1       0.468  -0.669  -4.016  0.00  0.00     0.000 A 
ATOM      4  C4  BNZ d   1      -0.243  -1.648  -4.611  0.00  0.00     0.000 A 
ATOM      5  C5  BNZ d   1      -1.099  -2.440  -3.871  0.00  0.00     0.000 A 
ATOM      6  C6  BNZ d   1      -1.234  -2.227  -2.518  0.00  0.00     0.000 A 
ENDROOT
TORSDOF 0
ENDMDL
