MODEL 1
REMARK minimizedAffinity 8.52516842
REMARK minimizedRMSD -1
REMARK  0 active torsions:
REMARK  status: ('A' for Active; 'I' for Inactive)
ROOT
ATOM      1  C1  BNZ d   1      -1.922  -3.726  -5.991  0.00  0.00     0.000 A 
ATOM      2  C2  BNZ d   1      -2.612  -4.844  -5.604  0.00  0.00     0.000 A 
ATOM      3  C3  BNZ d   1      -1.950  -5.974  -5.214  0.00  0.00     0.000 A 
ATOM      4  C4  BNZ d   1      -0.602  -5.999  -5.249  0.00  0.00     0.000 A 
ATOM      5  C5  BNZ d   1       0.108  -4.883  -5.645  0.00  0.00     0.000 A 
ATOM      6  C6  BNZ d   1      -0.561  -3.734  -6.000  0.00  0.00     0.000 A 
ENDROOT
TORSDOF 0
ENDMDL
