MODEL 1
REMARK minimizedAffinity -0.411278039
REMARK minimizedRMSD -1
REMARK  0 active torsions:
REMARK  status: ('A' for Active; 'I' for Inactive)
ROOT
ATOM      1  C1  BNZ d   1      -0.775  -0.721   2.248  0.00  0.00     0.000 A 
ATOM      2  C2  BNZ d   1       0.273  -1.122   3.032  0.00  0.00     0.000 A 
ATOM      3  C3  BNZ d   1       0.994  -0.214   3.756  0.00  0.00     0.000 A 
ATOM      4  C4  BNZ d   1       0.692   1.097   3.663  0.00  0.00     0.000 A 
ATOM      5  C5  BNZ d   1      -0.356   1.519   2.870  0.00  0.00     0.000 A 
ATOM      6  C6  BNZ d   1      -1.105   0.597   2.173  0.00  0.00     0.000 A 
ENDROOT
TORSDOF 0
ENDMDL
