MODEL 1
REMARK minimizedAffinity 6.73897505
REMARK minimizedRMSD -1
REMARK  0 active torsions:
REMARK  status: ('A' for Active; 'I' for Inactive)
ROOT
ATOM      1  C1  BNZ d   1       2.033  -0.490  -5.221  0.00  0.00     0.000 A 
ATOM      2  C2  BNZ d   1       0.907   0.218  -4.897  0.00  0.00     0.000 A 
ATOM      3  C3  BNZ d   1      -0.192  -0.411  -4.382  0.00  0.00     0.000 A 
ATOM      4  C4  BNZ d   1      -0.178  -1.751  -4.230  0.00  0.00     0.000 A 
ATOM      5  C5  BNZ d   1       0.947  -2.480  -4.561  0.00  0.00     0.000 A 
ATOM      6  C6  BNZ d   1       2.065  -1.838  -5.042  0.00  0.00     0.000 A 
ENDROOT
TORSDOF 0
ENDMDL
