MODEL 1
REMARK minimizedAffinity 6.78842211
REMARK minimizedRMSD -1
REMARK  0 active torsions:
REMARK  status: ('A' for Active; 'I' for Inactive)
ROOT
ATOM      1  C1  BNZ d   1       0.688   0.397   2.619  0.00  0.00     0.000 A 
ATOM      2  C2  BNZ d   1       0.608  -0.852   2.063  0.00  0.00     0.000 A 
ATOM      3  C3  BNZ d   1      -0.565  -1.307   1.530  0.00  0.00     0.000 A 
ATOM      4  C4  BNZ d   1      -1.665  -0.529   1.588  0.00  0.00     0.000 A 
ATOM      5  C5  BNZ d   1      -1.603   0.729   2.153  0.00  0.00     0.000 A 
ATOM      6  C6  BNZ d   1      -0.411   1.199   2.654  0.00  0.00     0.000 A 
ENDROOT
TORSDOF 0
ENDMDL
