MODEL 1
REMARK minimizedAffinity 1.43284547
REMARK minimizedRMSD -1
REMARK  0 active torsions:
REMARK  status: ('A' for Active; 'I' for Inactive)
ROOT
ATOM      1  C1  BNZ d   1       1.450  -0.520   3.667  0.00  0.00     0.000 A 
ATOM      2  C2  BNZ d   1       0.822   0.695   3.717  0.00  0.00     0.000 A 
ATOM      3  C3  BNZ d   1      -0.362   0.899   3.065  0.00  0.00     0.000 A 
ATOM      4  C4  BNZ d   1      -0.895  -0.099   2.331  0.00  0.00     0.000 A 
ATOM      5  C5  BNZ d   1      -0.268  -1.328   2.262  0.00  0.00     0.000 A 
ATOM      6  C6  BNZ d   1       0.903  -1.541   2.952  0.00  0.00     0.000 A 
ENDROOT
TORSDOF 0
ENDMDL
