MODEL 1
REMARK minimizedAffinity 9.35723305
REMARK minimizedRMSD -1
REMARK  0 active torsions:
REMARK  status: ('A' for Active; 'I' for Inactive)
ROOT
ATOM      1  C1  BNZ d   1       0.331  -0.342  -5.526  0.00  0.00     0.000 A 
ATOM      2  C2  BNZ d   1      -0.773  -1.149  -5.443  0.00  0.00     0.000 A 
ATOM      3  C3  BNZ d   1      -1.192  -1.641  -4.239  0.00  0.00     0.000 A 
ATOM      4  C4  BNZ d   1      -0.485  -1.358  -3.125  0.00  0.00     0.000 A 
ATOM      5  C5  BNZ d   1       0.635  -0.554  -3.193  0.00  0.00     0.000 A 
ATOM      6  C6  BNZ d   1       1.031  -0.029  -4.402  0.00  0.00     0.000 A 
ENDROOT
TORSDOF 0
ENDMDL
