MODEL 1
REMARK minimizedAffinity -1.48817313
REMARK minimizedRMSD -1
REMARK  2 active torsions:
REMARK  status: ('A' for Active; 'I' for Inactive)
REMARK    1  A    between atoms: C1_2  and  C2_3 
REMARK    2  A    between atoms: C2_3  and  C3_4 
ROOT
ATOM      1  C3  UNL d   1      -0.084   0.452   0.279  0.00  0.00    -0.075 A 
ATOM      2  C4  UNL d   1      -0.591  -0.841   0.084  0.00  0.00     0.002 A 
ATOM      3  C5  UNL d   1      -1.953  -1.099   0.243  0.00  0.00     0.002 A 
ATOM      4  C6  UNL d   1      -2.821  -0.073   0.609  0.00  0.00    -0.004 A 
ATOM      5  C7  UNL d   1      -2.326   1.212   0.822  0.00  0.00     0.002 A 
ATOM      6  C8  UNL d   1      -0.964   1.474   0.659  0.00  0.00     0.002 A 
ENDROOT
BRANCH   1   7
ATOM      7  C2  UNL d   1       1.384   0.744   0.080  0.00  0.00     0.056 C 
BRANCH   7   8
ATOM      8  C1  UNL d   1       2.243  -0.504  -0.147  0.00  0.00     0.007 C 
ATOM      9  C   UNL d   1       3.354  -0.664   0.882  0.00  0.00     0.009 C 
ENDBRANCH   7   8
ENDBRANCH   1   7
TORSDOF 2
ENDMDL
