MODEL 1
REMARK minimizedAffinity -4.80479145
REMARK minimizedRMSD -1
REMARK  2 active torsions:
REMARK  status: ('A' for Active; 'I' for Inactive)
REMARK    1  A    between atoms: C1_2  and  C2_3 
REMARK    2  A    between atoms: C2_3  and  C3_4 
ROOT
ATOM      1  C3  UNL d   1       0.619   1.529  -1.408  0.00  0.00    -0.075 A 
ATOM      2  C4  UNL d   1      -0.137   1.910  -2.526  0.00  0.00     0.002 A 
ATOM      3  C5  UNL d   1       0.493   2.265  -3.719  0.00  0.00     0.002 A 
ATOM      4  C6  UNL d   1       1.883   2.253  -3.807  0.00  0.00    -0.004 A 
ATOM      5  C7  UNL d   1       2.645   1.892  -2.698  0.00  0.00     0.002 A 
ATOM      6  C8  UNL d   1       2.017   1.532  -1.504  0.00  0.00     0.002 A 
ENDROOT
BRANCH   1   7
ATOM      7  C2  UNL d   1      -0.057   1.116  -0.123  0.00  0.00     0.056 C 
BRANCH   7   8
ATOM      8  C1  UNL d   1      -0.521  -0.345  -0.104  0.00  0.00     0.007 C 
ATOM      9  C   UNL d   1       0.516  -1.296   0.479  0.00  0.00     0.009 C 
ENDBRANCH   7   8
ENDBRANCH   1   7
TORSDOF 2
ENDMDL
