MODEL 1
REMARK minimizedAffinity -5.02092838
REMARK minimizedRMSD -1
REMARK  2 active torsions:
REMARK  status: ('A' for Active; 'I' for Inactive)
REMARK    1  A    between atoms: C1_2  and  C2_3 
REMARK    2  A    between atoms: C2_3  and  C3_4 
ROOT
ATOM      1  C3  UNL d   1      -0.125   0.049  -0.246  0.00  0.00    -0.075 A 
ATOM      2  C4  UNL d   1      -1.518  -0.008  -0.091  0.00  0.00     0.002 A 
ATOM      3  C5  UNL d   1      -2.112  -1.070   0.590  0.00  0.00     0.002 A 
ATOM      4  C6  UNL d   1      -1.325  -2.092   1.116  0.00  0.00    -0.004 A 
ATOM      5  C7  UNL d   1       0.058  -2.054   0.954  0.00  0.00     0.002 A 
ATOM      6  C8  UNL d   1       0.656  -0.990   0.276  0.00  0.00     0.002 A 
ENDROOT
BRANCH   1   7
ATOM      7  C2  UNL d   1       0.526   1.211  -0.957  0.00  0.00     0.056 C 
BRANCH   7   8
ATOM      8  C1  UNL d   1       0.647   1.026  -2.473  0.00  0.00     0.007 C 
ATOM      9  C   UNL d   1       0.570   2.337  -3.245  0.00  0.00     0.009 C 
ENDBRANCH   7   8
ENDBRANCH   1   7
TORSDOF 2
ENDMDL
