MODEL 1
REMARK minimizedAffinity -5.12542772
REMARK minimizedRMSD -1
REMARK  2 active torsions:
REMARK  status: ('A' for Active; 'I' for Inactive)
REMARK    1  A    between atoms: C1_2  and  C2_3 
REMARK    2  A    between atoms: C2_3  and  C3_4 
ROOT
ATOM      1  C3  UNL d   1       0.258   0.026  -0.201  0.00  0.00    -0.075 A 
ATOM      2  C4  UNL d   1      -1.107   0.270   0.005  0.00  0.00     0.002 A 
ATOM      3  C5  UNL d   1      -1.940  -0.734   0.500  0.00  0.00     0.002 A 
ATOM      4  C6  UNL d   1      -1.421  -1.995   0.786  0.00  0.00    -0.004 A 
ATOM      5  C7  UNL d   1      -0.069  -2.254   0.570  0.00  0.00     0.002 A 
ATOM      6  C8  UNL d   1       0.767  -1.249   0.078  0.00  0.00     0.002 A 
ENDROOT
BRANCH   1   7
ATOM      7  C2  UNL d   1       1.170   1.117  -0.709  0.00  0.00     0.056 C 
BRANCH   7   8
ATOM      8  C1  UNL d   1       0.812   1.629  -2.108  0.00  0.00     0.007 C 
ATOM      9  C   UNL d   1       1.912   1.390  -3.134  0.00  0.00     0.009 C 
ENDBRANCH   7   8
ENDBRANCH   1   7
TORSDOF 2
ENDMDL
