MODEL 1
REMARK minimizedAffinity -5.26997423
REMARK minimizedRMSD -1
REMARK  2 active torsions:
REMARK  status: ('A' for Active; 'I' for Inactive)
REMARK    1  A    between atoms: C1_2  and  C2_3 
REMARK    2  A    between atoms: C2_3  and  C3_4 
ROOT
ATOM      1  C3  UNL d   1      -0.126  -0.315   0.048  0.00  0.00    -0.075 A 
ATOM      2  C4  UNL d   1       0.632  -1.373   0.570  0.00  0.00     0.002 A 
ATOM      3  C5  UNL d   1       0.011  -2.420   1.252  0.00  0.00     0.002 A 
ATOM      4  C6  UNL d   1      -1.371  -2.418   1.428  0.00  0.00    -0.004 A 
ATOM      5  C7  UNL d   1      -2.132  -1.363   0.928  0.00  0.00     0.002 A 
ATOM      6  C8  UNL d   1      -1.513  -0.317   0.242  0.00  0.00     0.002 A 
ENDROOT
BRANCH   1   7
ATOM      7  C2  UNL d   1       0.537   0.807  -0.716  0.00  0.00     0.056 C 
BRANCH   7   8
ATOM      8  C1  UNL d   1      -0.022   1.015  -2.127  0.00  0.00     0.007 C 
ATOM      9  C   UNL d   1       0.899   1.831  -3.024  0.00  0.00     0.009 C 
ENDBRANCH   7   8
ENDBRANCH   1   7
TORSDOF 2
ENDMDL
