MODEL 1
REMARK minimizedAffinity -5.2490263
REMARK minimizedRMSD -1
REMARK  2 active torsions:
REMARK  status: ('A' for Active; 'I' for Inactive)
REMARK    1  A    between atoms: C1_2  and  C2_3 
REMARK    2  A    between atoms: C2_3  and  C3_4 
ROOT
ATOM      1  C3  UNL d   1       0.227   0.339  -0.093  0.00  0.00    -0.075 A 
ATOM      2  C4  UNL d   1      -1.080   0.196   0.396  0.00  0.00     0.002 A 
ATOM      3  C5  UNL d   1      -1.565  -1.059   0.762  0.00  0.00     0.002 A 
ATOM      4  C6  UNL d   1      -0.757  -2.186   0.635  0.00  0.00    -0.004 A 
ATOM      5  C7  UNL d   1       0.537  -2.058   0.135  0.00  0.00     0.002 A 
ATOM      6  C8  UNL d   1       1.028  -0.803  -0.228  0.00  0.00     0.002 A 
ENDROOT
BRANCH   1   7
ATOM      7  C2  UNL d   1       0.769   1.699  -0.464  0.00  0.00     0.056 C 
BRANCH   7   8
ATOM      8  C1  UNL d   1       1.347   1.775  -1.881  0.00  0.00     0.007 C 
ATOM      9  C   UNL d   1       0.306   2.121  -2.937  0.00  0.00     0.009 C 
ENDBRANCH   7   8
ENDBRANCH   1   7
TORSDOF 2
ENDMDL
