MODEL 1
REMARK minimizedAffinity -5.04858494
REMARK minimizedRMSD -1
REMARK  2 active torsions:
REMARK  status: ('A' for Active; 'I' for Inactive)
REMARK    1  A    between atoms: C1_2  and  C2_3 
REMARK    2  A    between atoms: C2_3  and  C3_4 
ROOT
ATOM      1  C3  UNL d   1      -0.076   0.191   0.086  0.00  0.00    -0.075 A 
ATOM      2  C4  UNL d   1      -1.246  -0.386   0.602  0.00  0.00     0.002 A 
ATOM      3  C5  UNL d   1      -1.195  -1.605   1.279  0.00  0.00     0.002 A 
ATOM      4  C6  UNL d   1       0.020  -2.267   1.438  0.00  0.00    -0.004 A 
ATOM      5  C7  UNL d   1       1.186  -1.711   0.915  0.00  0.00     0.002 A 
ATOM      6  C8  UNL d   1       1.139  -0.489   0.241  0.00  0.00     0.002 A 
ENDROOT
BRANCH   1   7
ATOM      7  C2  UNL d   1      -0.120   1.524  -0.622  0.00  0.00     0.056 C 
BRANCH   7   8
ATOM      8  C1  UNL d   1       0.981   1.710  -1.671  0.00  0.00     0.007 C 
ATOM      9  C   UNL d   1       0.520   2.491  -2.894  0.00  0.00     0.009 C 
ENDBRANCH   7   8
ENDBRANCH   1   7
TORSDOF 2
ENDMDL
