MODEL 1
REMARK minimizedAffinity -5.34564781
REMARK minimizedRMSD -1
REMARK  2 active torsions:
REMARK  status: ('A' for Active; 'I' for Inactive)
REMARK    1  A    between atoms: C1_2  and  C2_3 
REMARK    2  A    between atoms: C2_3  and  C3_4 
ROOT
ATOM      1  C3  UNL d   1      -0.208  -0.111  -0.155  0.00  0.00    -0.075 A 
ATOM      2  C4  UNL d   1      -1.582  -0.298   0.053  0.00  0.00     0.002 A 
ATOM      3  C5  UNL d   1      -2.064  -1.505   0.560  0.00  0.00     0.002 A 
ATOM      4  C6  UNL d   1      -1.181  -2.542   0.856  0.00  0.00    -0.004 A 
ATOM      5  C7  UNL d   1       0.184  -2.373   0.638  0.00  0.00     0.002 A 
ATOM      6  C8  UNL d   1       0.669  -1.165   0.134  0.00  0.00     0.002 A 
ENDROOT
BRANCH   1   7
ATOM      7  C2  UNL d   1       0.323   1.203  -0.677  0.00  0.00     0.056 C 
BRANCH   7   8
ATOM      8  C1  UNL d   1       0.183   1.374  -2.193  0.00  0.00     0.007 C 
ATOM      9  C   UNL d   1       1.008   2.529  -2.745  0.00  0.00     0.009 C 
ENDBRANCH   7   8
ENDBRANCH   1   7
TORSDOF 2
ENDMDL
