MODEL 1
REMARK minimizedAffinity -4.78179598
REMARK minimizedRMSD -1
REMARK  2 active torsions:
REMARK  status: ('A' for Active; 'I' for Inactive)
REMARK    1  A    between atoms: C1_2  and  C2_3 
REMARK    2  A    between atoms: C2_3  and  C3_4 
ROOT
ATOM      1  C3  UNL d   1       0.233   0.107  -0.019  0.00  0.00    -0.075 A 
ATOM      2  C4  UNL d   1      -1.140  -0.167  -0.097  0.00  0.00     0.002 A 
ATOM      3  C5  UNL d   1      -1.678  -1.282   0.545  0.00  0.00     0.002 A 
ATOM      4  C6  UNL d   1      -0.850  -2.142   1.264  0.00  0.00    -0.004 A 
ATOM      5  C7  UNL d   1       0.518  -1.889   1.334  0.00  0.00     0.002 A 
ATOM      6  C8  UNL d   1       1.058  -0.772   0.696  0.00  0.00     0.002 A 
ENDROOT
BRANCH   1   7
ATOM      7  C2  UNL d   1       0.816   1.328  -0.688  0.00  0.00     0.056 C 
BRANCH   7   8
ATOM      8  C1  UNL d   1       0.475   1.447  -2.177  0.00  0.00     0.007 C 
ATOM      9  C   UNL d   1       1.417   2.371  -2.938  0.00  0.00     0.009 C 
ENDBRANCH   7   8
ENDBRANCH   1   7
TORSDOF 2
ENDMDL
