MODEL 1
REMARK minimizedAffinity 6.06158543
REMARK minimizedRMSD -1
REMARK  1 active torsions:
REMARK  status: ('A' for Active; 'I' for Inactive)
REMARK    1  A    between atoms: N_2  and  C1_3 
ROOT
ATOM      1  C1  UNL d   1       0.109  -0.639   0.673  0.00  0.00     0.143 A 
ATOM      2  C2  UNL d   1      -0.927  -0.236  -0.177  0.00  0.00    -0.057 A 
ATOM      3  C3  UNL d   1      -2.201   0.061   0.322  0.00  0.00     0.033 A 
ATOM      4  C4  UNL d   1      -2.471  -0.070   1.680  0.00  0.00    -0.042 A 
ATOM      5  C5  UNL d   1      -1.464  -0.493   2.540  0.00  0.00     0.033 A 
ATOM      6  C6  UNL d   1      -0.192  -0.782   2.037  0.00  0.00    -0.057 A 
ENDROOT
BRANCH   1   7
ATOM      7  N   UNL d   1       1.369  -1.043   0.226  0.00  0.00    -0.732 N 
ATOM      8  C   UNL d   1       1.921  -0.510  -1.001  0.00  0.00     0.284 C 
ATOM      9  H3  UNL d   1       2.043  -1.124   0.984  0.00  0.00     0.395 HD
ENDBRANCH   1   7
TORSDOF 1
ENDMDL
