MODEL 1
REMARK minimizedAffinity 7.25849199
REMARK minimizedRMSD -1
REMARK  1 active torsions:
REMARK  status: ('A' for Active; 'I' for Inactive)
REMARK    1  A    between atoms: N_2  and  C1_3 
ROOT
ATOM      1  C1  UNL d   1       1.986   5.387   4.529  0.00  0.00     0.143 A 
ATOM      2  C2  UNL d   1       1.496   4.192   3.991  0.00  0.00    -0.057 A 
ATOM      3  C3  UNL d   1       0.274   3.653   4.411  0.00  0.00     0.033 A 
ATOM      4  C4  UNL d   1      -0.469   4.287   5.401  0.00  0.00    -0.042 A 
ATOM      5  C5  UNL d   1       0.010   5.462   5.969  0.00  0.00     0.033 A 
ATOM      6  C6  UNL d   1       1.228   5.999   5.540  0.00  0.00    -0.057 A 
ENDROOT
BRANCH   1   7
ATOM      7  N   UNL d   1       3.240   5.921   4.225  0.00  0.00    -0.732 N 
ATOM      8  C   UNL d   1       3.697   5.995   2.853  0.00  0.00     0.284 C 
ATOM      9  H3  UNL d   1       3.456   6.747   4.779  0.00  0.00     0.395 HD
ENDBRANCH   1   7
TORSDOF 1
ENDMDL
