MODEL 1
REMARK minimizedAffinity 0.573401988
REMARK minimizedRMSD -1
REMARK  1 active torsions:
REMARK  status: ('A' for Active; 'I' for Inactive)
REMARK    1  A    between atoms: N_2  and  C1_3 
ROOT
ATOM      1  C1  UNL d   1       3.150   5.923   3.440  0.00  0.00     0.143 A 
ATOM      2  C2  UNL d   1       3.726   5.977   4.714  0.00  0.00    -0.057 A 
ATOM      3  C3  UNL d   1       2.934   6.000   5.868  0.00  0.00     0.033 A 
ATOM      4  C4  UNL d   1       1.546   5.998   5.767  0.00  0.00    -0.042 A 
ATOM      5  C5  UNL d   1       0.952   5.970   4.510  0.00  0.00     0.033 A 
ATOM      6  C6  UNL d   1       1.749   5.941   3.362  0.00  0.00    -0.057 A 
ENDROOT
BRANCH   1   7
ATOM      7  N   UNL d   1       3.881   5.998   2.252  0.00  0.00    -0.732 N 
ATOM      8  C   UNL d   1       5.326   5.920   2.270  0.00  0.00     0.284 C 
ATOM      9  H3  UNL d   1       3.446   5.477   1.494  0.00  0.00     0.395 HD
ENDBRANCH   1   7
TORSDOF 1
ENDMDL
