MODEL 1
REMARK minimizedAffinity -1.77152812
REMARK minimizedRMSD -1
REMARK  1 active torsions:
REMARK  status: ('A' for Active; 'I' for Inactive)
REMARK    1  A    between atoms: N_2  and  C1_3 
ROOT
ATOM      1  C1  UNL d   1      -2.122   2.489  -3.242  0.00  0.00     0.143 A 
ATOM      2  C2  UNL d   1      -0.776   2.857  -3.340  0.00  0.00    -0.057 A 
ATOM      3  C3  UNL d   1       0.247   1.969  -2.983  0.00  0.00     0.033 A 
ATOM      4  C4  UNL d   1      -0.061   0.704  -2.494  0.00  0.00    -0.042 A 
ATOM      5  C5  UNL d   1      -1.393   0.326  -2.364  0.00  0.00     0.033 A 
ATOM      6  C6  UNL d   1      -2.409   1.214  -2.728  0.00  0.00    -0.057 A 
ENDROOT
BRANCH   1   7
ATOM      7  N   UNL d   1      -3.187   3.360  -3.487  0.00  0.00    -0.732 N 
ATOM      8  C   UNL d   1      -4.546   2.967  -3.183  0.00  0.00     0.284 C 
ATOM      9  H3  UNL d   1      -2.967   4.322  -3.238  0.00  0.00     0.395 HD
ENDBRANCH   1   7
TORSDOF 1
ENDMDL
