MODEL 1
REMARK minimizedAffinity -1.86673546
REMARK minimizedRMSD -1
REMARK  0 active torsions:
REMARK  status: ('A' for Active; 'I' for Inactive)
ROOT
ATOM      1  C   UNL d   1      -0.934  -2.514   1.468  0.00  0.00    -0.002 A 
ATOM      2  C1  UNL d   1       0.205  -3.127   0.964  0.00  0.00     0.010 A 
ATOM      3  C2  UNL d   1       1.083  -2.422   0.138  0.00  0.00     0.041 A 
ATOM      4  C3  UNL d   1       0.796  -1.079  -0.174  0.00  0.00    -0.075 A 
ATOM      5  S   UNL d   1       1.729  -0.020  -1.164  0.00  0.00     0.015 SA
ATOM      6  C4  UNL d   1       0.638   1.271  -0.940  0.00  0.00     0.022 A 
ATOM      7  C5  UNL d   1      -0.418   0.920  -0.133  0.00  0.00     0.026 A 
ATOM      8  C6  UNL d   1      -0.344  -0.440   0.323  0.00  0.00    -0.082 A 
ATOM      9  C7  UNL d   1      -1.215  -1.181   1.157  0.00  0.00     0.045 A 
ENDROOT
TORSDOF 0
ENDMDL
