MODEL 1
REMARK minimizedAffinity -1.93787038
REMARK minimizedRMSD -1
REMARK  0 active torsions:
REMARK  status: ('A' for Active; 'I' for Inactive)
ROOT
ATOM      1  C   UNL d   1      -1.103  -2.444   0.714  0.00  0.00    -0.002 A 
ATOM      2  C1  UNL d   1       0.172  -2.870   0.371  0.00  0.00     0.010 A 
ATOM      3  C2  UNL d   1       1.148  -1.950  -0.015  0.00  0.00     0.041 A 
ATOM      4  C3  UNL d   1       0.819  -0.580  -0.049  0.00  0.00    -0.075 A 
ATOM      5  S   UNL d   1       1.852   0.727  -0.489  0.00  0.00     0.015 SA
ATOM      6  C4  UNL d   1       0.626   1.882  -0.231  0.00  0.00     0.022 A 
ATOM      7  C5  UNL d   1      -0.550   1.301   0.181  0.00  0.00     0.026 A 
ATOM      8  C6  UNL d   1      -0.459  -0.127   0.294  0.00  0.00    -0.082 A 
ATOM      9  C7  UNL d   1      -1.426  -1.085   0.680  0.00  0.00     0.045 A 
ENDROOT
TORSDOF 0
ENDMDL
