MODEL 1
REMARK minimizedAffinity -5.28730774
REMARK minimizedRMSD -1
REMARK  0 active torsions:
REMARK  status: ('A' for Active; 'I' for Inactive)
ROOT
ATOM      1  C   UNL d   1       0.281  -3.531  -0.389  0.00  0.00    -0.002 A 
ATOM      2  C1  UNL d   1       0.440  -3.238  -1.736  0.00  0.00     0.010 A 
ATOM      3  C2  UNL d   1       0.438  -1.915  -2.180  0.00  0.00     0.041 A 
ATOM      4  C3  UNL d   1       0.274  -0.880  -1.239  0.00  0.00    -0.075 A 
ATOM      5  S   UNL d   1       0.240   0.815  -1.552  0.00  0.00     0.015 SA
ATOM      6  C4  UNL d   1       0.015   1.191   0.095  0.00  0.00     0.022 A 
ATOM      7  C5  UNL d   1      -0.036   0.063   0.879  0.00  0.00     0.026 A 
ATOM      8  C6  UNL d   1       0.113  -1.149   0.123  0.00  0.00    -0.082 A 
ATOM      9  C7  UNL d   1       0.118  -2.502   0.542  0.00  0.00     0.045 A 
ENDROOT
TORSDOF 0
ENDMDL
