MODEL 1
REMARK minimizedAffinity -1.6547277
REMARK minimizedRMSD -1
REMARK  0 active torsions:
REMARK  status: ('A' for Active; 'I' for Inactive)
ROOT
ATOM      1  C   UNL d   1      -0.298  -2.626   0.769  0.00  0.00    -0.002 A 
ATOM      2  C1  UNL d   1      -1.084  -1.687   1.423  0.00  0.00     0.010 A 
ATOM      3  C2  UNL d   1      -1.121  -0.362   0.984  0.00  0.00     0.041 A 
ATOM      4  C3  UNL d   1      -0.349   0.007  -0.135  0.00  0.00    -0.075 A 
ATOM      5  S   UNL d   1      -0.238   1.571  -0.851  0.00  0.00     0.015 SA
ATOM      6  C4  UNL d   1       0.855   1.031  -2.042  0.00  0.00     0.022 A 
ATOM      7  C5  UNL d   1       1.139  -0.308  -1.911  0.00  0.00     0.026 A 
ATOM      8  C6  UNL d   1       0.450  -0.920  -0.810  0.00  0.00    -0.082 A 
ATOM      9  C7  UNL d   1       0.467  -2.256  -0.340  0.00  0.00     0.045 A 
ENDROOT
TORSDOF 0
ENDMDL
