MODEL 1
REMARK minimizedAffinity -0.483010322
REMARK minimizedRMSD -1
REMARK  0 active torsions:
REMARK  status: ('A' for Active; 'I' for Inactive)
ROOT
ATOM      1  C   UNL d   1       1.135   4.334   1.699  0.00  0.00    -0.002 A 
ATOM      2  C1  UNL d   1       2.428   3.900   1.443  0.00  0.00     0.010 A 
ATOM      3  C2  UNL d   1       2.656   2.789   0.627  0.00  0.00     0.041 A 
ATOM      4  C3  UNL d   1       1.552   2.118   0.066  0.00  0.00    -0.075 A 
ATOM      5  S   UNL d   1       1.590   0.736  -0.964  0.00  0.00     0.015 SA
ATOM      6  C4  UNL d   1      -0.109   0.690  -1.089  0.00  0.00     0.022 A 
ATOM      7  C5  UNL d   1      -0.707   1.697  -0.369  0.00  0.00     0.026 A 
ATOM      8  C6  UNL d   1       0.241   2.537   0.308  0.00  0.00    -0.082 A 
ATOM      9  C7  UNL d   1       0.042   3.665   1.140  0.00  0.00     0.045 A 
ENDROOT
TORSDOF 0
ENDMDL
