MODEL 1
REMARK minimizedAffinity 0.410433888
REMARK minimizedRMSD -1
REMARK  0 active torsions:
REMARK  status: ('A' for Active; 'I' for Inactive)
ROOT
ATOM      1  C   UNL d   1       0.328  -2.807   0.368  0.00  0.00    -0.002 A 
ATOM      2  C1  UNL d   1      -0.915  -2.426   0.852  0.00  0.00     0.010 A 
ATOM      3  C2  UNL d   1      -1.267  -1.076   0.921  0.00  0.00     0.041 A 
ATOM      4  C3  UNL d   1      -0.339  -0.108   0.490  0.00  0.00    -0.075 A 
ATOM      5  S   UNL d   1      -0.552   1.603   0.482  0.00  0.00     0.015 SA
ATOM      6  C4  UNL d   1       1.003   1.868  -0.165  0.00  0.00     0.022 A 
ATOM      7  C5  UNL d   1       1.681   0.691  -0.376  0.00  0.00     0.026 A 
ATOM      8  C6  UNL d   1       0.918  -0.467  -0.002  0.00  0.00    -0.082 A 
ATOM      9  C7  UNL d   1       1.245  -1.844  -0.059  0.00  0.00     0.045 A 
ENDROOT
TORSDOF 0
ENDMDL
