MODEL 1
REMARK minimizedAffinity 9.4524622
REMARK minimizedRMSD -1
REMARK  0 active torsions:
REMARK  status: ('A' for Active; 'I' for Inactive)
ROOT
ATOM      1  O1  BZF d   1       0.552   4.140  -0.320  0.00  0.00    -0.204 OA
ATOM      2  C2  BZF d   1       0.353   5.072   0.680  0.00  0.00     0.174 A 
ATOM      3  C3  BZF d   1       0.765   4.590   1.871  0.00  0.00    -0.012 A 
ATOM      4  C3A BZF d   1       1.336   3.311   1.582  0.00  0.00    -0.107 A 
ATOM      5  C4  BZF d   1       1.930   2.352   2.353  0.00  0.00     0.055 A 
ATOM      6  C5  BZF d   1       2.314   1.184   1.774  0.00  0.00    -0.016 A 
ATOM      7  C6  BZF d   1       2.116   0.939   0.431  0.00  0.00     0.022 A 
ATOM      8  C7  BZF d   1       1.535   1.862  -0.375  0.00  0.00     0.029 A 
ATOM      9  C7A BZF d   1       1.176   3.056   0.200  0.00  0.00     0.058 A 
ENDROOT
TORSDOF 0
ENDMDL
