MODEL 1
REMARK minimizedAffinity 8.698843
REMARK minimizedRMSD -1
REMARK  0 active torsions:
REMARK  status: ('A' for Active; 'I' for Inactive)
ROOT
ATOM      1  O1  BZF d   1      -5.954   1.979   4.028  0.00  0.00    -0.204 OA
ATOM      2  C2  BZF d   1      -5.979   1.849   5.403  0.00  0.00     0.174 A 
ATOM      3  C3  BZF d   1      -5.913   3.057   5.999  0.00  0.00    -0.012 A 
ATOM      4  C3A BZF d   1      -5.936   4.006   4.928  0.00  0.00    -0.107 A 
ATOM      5  C4  BZF d   1      -5.912   5.371   4.883  0.00  0.00     0.055 A 
ATOM      6  C5  BZF d   1      -5.871   5.991   3.674  0.00  0.00    -0.016 A 
ATOM      7  C6  BZF d   1      -5.849   5.279   2.493  0.00  0.00     0.022 A 
ATOM      8  C7  BZF d   1      -5.878   3.924   2.487  0.00  0.00     0.029 A 
ATOM      9  C7A BZF d   1      -5.951   3.295   3.706  0.00  0.00     0.058 A 
ENDROOT
TORSDOF 0
ENDMDL
