MODEL 1
REMARK minimizedAffinity 9.84380054
REMARK minimizedRMSD -1
REMARK  0 active torsions:
REMARK  status: ('A' for Active; 'I' for Inactive)
ROOT
ATOM      1  O1  BZF d   1       5.781   2.655   0.833  0.00  0.00    -0.204 OA
ATOM      2  C2  BZF d   1       5.912   2.894   2.187  0.00  0.00     0.174 A 
ATOM      3  C3  BZF d   1       4.965   2.235   2.884  0.00  0.00    -0.012 A 
ATOM      4  C3A BZF d   1       4.250   1.466   1.912  0.00  0.00    -0.107 A 
ATOM      5  C4  BZF d   1       3.202   0.593   1.991  0.00  0.00     0.055 A 
ATOM      6  C5  BZF d   1       2.692   0.068   0.846  0.00  0.00    -0.016 A 
ATOM      7  C6  BZF d   1       3.201   0.397  -0.393  0.00  0.00     0.022 A 
ATOM      8  C7  BZF d   1       4.242   1.255  -0.522  0.00  0.00     0.029 A 
ATOM      9  C7A BZF d   1       4.781   1.762   0.636  0.00  0.00     0.058 A 
ENDROOT
TORSDOF 0
ENDMDL
