MODEL 1
REMARK minimizedAffinity 15.7090826
REMARK minimizedRMSD -1
REMARK  0 active torsions:
REMARK  status: ('A' for Active; 'I' for Inactive)
ROOT
ATOM      1  O1  BZF d   1       2.536  -0.019   0.005  0.00  0.00    -0.204 OA
ATOM      2  C2  BZF d   1       2.909   1.250  -0.392  0.00  0.00     0.174 A 
ATOM      3  C3  BZF d   1       4.181   1.511  -0.027  0.00  0.00    -0.012 A 
ATOM      4  C3A BZF d   1       4.662   0.296   0.557  0.00  0.00    -0.107 A 
ATOM      5  C4  BZF d   1       5.860  -0.077   1.095  0.00  0.00     0.055 A 
ATOM      6  C5  BZF d   1       5.980  -1.313   1.647  0.00  0.00    -0.016 A 
ATOM      7  C6  BZF d   1       4.922  -2.198   1.683  0.00  0.00     0.022 A 
ATOM      8  C7  BZF d   1       3.715  -1.874   1.158  0.00  0.00     0.029 A 
ATOM      9  C7A BZF d   1       3.600  -0.638   0.570  0.00  0.00     0.058 A 
ENDROOT
TORSDOF 0
ENDMDL
