MODEL 1
REMARK minimizedAffinity 8.44428539
REMARK minimizedRMSD -1
REMARK  0 active torsions:
REMARK  status: ('A' for Active; 'I' for Inactive)
ROOT
ATOM      1  O1  BZF d   1       2.164   1.785  -0.308  0.00  0.00    -0.204 OA
ATOM      2  C2  BZF d   1       1.662   0.506  -0.164  0.00  0.00     0.174 A 
ATOM      3  C3  BZF d   1       2.637  -0.351   0.203  0.00  0.00    -0.012 A 
ATOM      4  C3A BZF d   1       3.802   0.459   0.384  0.00  0.00    -0.107 A 
ATOM      5  C4  BZF d   1       5.085   0.186   0.763  0.00  0.00     0.055 A 
ATOM      6  C5  BZF d   1       6.000   1.191   0.770  0.00  0.00    -0.016 A 
ATOM      7  C6  BZF d   1       5.667   2.478   0.400  0.00  0.00     0.022 A 
ATOM      8  C7  BZF d   1       4.405   2.798   0.022  0.00  0.00     0.029 A 
ATOM      9  C7A BZF d   1       3.472   1.791   0.045  0.00  0.00     0.058 A 
ENDROOT
TORSDOF 0
ENDMDL
