MODEL 1
REMARK minimizedAffinity 2.7322185
REMARK minimizedRMSD -1
REMARK  0 active torsions:
REMARK  status: ('A' for Active; 'I' for Inactive)
ROOT
ATOM      1  O1  BZF d   1       3.926   2.590   2.212  0.00  0.00    -0.204 OA
ATOM      2  C2  BZF d   1       5.113   3.187   2.593  0.00  0.00     0.174 A 
ATOM      3  C3  BZF d   1       5.998   3.183   1.575  0.00  0.00    -0.012 A 
ATOM      4  C3A BZF d   1       5.291   2.627   0.463  0.00  0.00    -0.107 A 
ATOM      5  C4  BZF d   1       5.631   2.378  -0.836  0.00  0.00     0.055 A 
ATOM      6  C5  BZF d   1       4.732   1.760  -1.647  0.00  0.00    -0.016 A 
ATOM      7  C6  BZF d   1       3.489   1.373  -1.191  0.00  0.00     0.022 A 
ATOM      8  C7  BZF d   1       3.105   1.603   0.088  0.00  0.00     0.029 A 
ATOM      9  C7A BZF d   1       3.998   2.257   0.901  0.00  0.00     0.058 A 
ENDROOT
TORSDOF 0
ENDMDL
