MODEL 1
REMARK minimizedAffinity 3.1184907
REMARK minimizedRMSD -1
REMARK  0 active torsions:
REMARK  status: ('A' for Active; 'I' for Inactive)
ROOT
ATOM      1  C1  DEN d   1      -2.075  -4.900  -1.613  0.00  0.00     0.130 A 
ATOM      2  C2  DEN d   1      -3.386  -5.454  -1.945  0.00  0.00    -0.031 A 
ATOM      3  C3  DEN d   1      -3.323  -5.981  -3.322  0.00  0.00     0.027 A 
ATOM      4  C4  DEN d   1      -1.334  -6.000  -4.964  0.00  0.00     0.027 A 
ATOM      5  C5  DEN d   1      -0.017  -5.633  -5.137  0.00  0.00    -0.003 A 
ATOM      6  C6  DEN d   1       0.689  -4.971  -4.168  0.00  0.00     0.001 A 
ATOM      7  C7  DEN d   1       0.096  -4.696  -2.964  0.00  0.00     0.017 A 
ATOM      8  C8  DEN d   1      -1.233  -5.056  -2.785  0.00  0.00    -0.094 A 
ATOM      9  C9  DEN d   1      -1.926  -5.735  -3.772  0.00  0.00    -0.072 A 
ENDROOT
TORSDOF 0
ENDMDL
