MODEL 1
REMARK minimizedAffinity 4.65699816
REMARK minimizedRMSD -1
REMARK  0 active torsions:
REMARK  status: ('A' for Active; 'I' for Inactive)
ROOT
ATOM      1  C1  DEN d   1       1.394   0.943   0.990  0.00  0.00     0.130 A 
ATOM      2  C2  DEN d   1       0.712   0.759  -0.289  0.00  0.00    -0.031 A 
ATOM      3  C3  DEN d   1       0.307  -0.657  -0.390  0.00  0.00     0.027 A 
ATOM      4  C4  DEN d   1       0.662  -2.572   1.301  0.00  0.00     0.027 A 
ATOM      5  C5  DEN d   1       1.200  -2.903   2.525  0.00  0.00    -0.003 A 
ATOM      6  C6  DEN d   1       1.865  -1.991   3.301  0.00  0.00     0.001 A 
ATOM      7  C7  DEN d   1       1.969  -0.691   2.882  0.00  0.00     0.017 A 
ATOM      8  C8  DEN d   1       1.436  -0.351   1.646  0.00  0.00    -0.094 A 
ATOM      9  C9  DEN d   1       0.757  -1.285   0.881  0.00  0.00    -0.072 A 
ENDROOT
TORSDOF 0
ENDMDL
