MODEL 1
REMARK minimizedAffinity 6.62066126
REMARK minimizedRMSD -1
REMARK  0 active torsions:
REMARK  status: ('A' for Active; 'I' for Inactive)
ROOT
ATOM      1  C1  DEN d   1       0.202  -1.064  -0.102  0.00  0.00     0.130 A 
ATOM      2  C2  DEN d   1       0.508   0.354  -0.272  0.00  0.00    -0.031 A 
ATOM      3  C3  DEN d   1       1.353   0.778   0.862  0.00  0.00     0.027 A 
ATOM      4  C4  DEN d   1       2.218  -0.617   2.852  0.00  0.00     0.027 A 
ATOM      5  C5  DEN d   1       2.212  -1.865   3.435  0.00  0.00    -0.003 A 
ATOM      6  C6  DEN d   1       1.513  -2.916   2.903  0.00  0.00     0.001 A 
ATOM      7  C7  DEN d   1       0.828  -2.750   1.728  0.00  0.00     0.017 A 
ATOM      8  C8  DEN d   1       0.824  -1.493   1.138  0.00  0.00    -0.094 A 
ATOM      9  C9  DEN d   1       1.546  -0.446   1.685  0.00  0.00    -0.072 A 
ENDROOT
TORSDOF 0
ENDMDL
