MODEL 1
REMARK minimizedAffinity 10.5986557
REMARK minimizedRMSD -1
REMARK  0 active torsions:
REMARK  status: ('A' for Active; 'I' for Inactive)
ROOT
ATOM      1  C1  DEN d   1      -1.610  -1.144   1.793  0.00  0.00     0.130 A 
ATOM      2  C2  DEN d   1      -2.311  -0.385   0.762  0.00  0.00    -0.031 A 
ATOM      3  C3  DEN d   1      -1.299   0.290  -0.076  0.00  0.00     0.027 A 
ATOM      4  C4  DEN d   1       1.272   0.230   0.121  0.00  0.00     0.027 A 
ATOM      5  C5  DEN d   1       2.331  -0.269   0.847  0.00  0.00    -0.003 A 
ATOM      6  C6  DEN d   1       2.151  -1.061   1.950  0.00  0.00     0.001 A 
ATOM      7  C7  DEN d   1       0.884  -1.414   2.333  0.00  0.00     0.017 A 
ATOM      8  C8  DEN d   1      -0.189  -0.908   1.611  0.00  0.00    -0.094 A 
ATOM      9  C9  DEN d   1       0.014  -0.119   0.491  0.00  0.00    -0.072 A 
ENDROOT
TORSDOF 0
ENDMDL
