MODEL 1
REMARK minimizedAffinity 1.36294711
REMARK minimizedRMSD -1
REMARK  0 active torsions:
REMARK  status: ('A' for Active; 'I' for Inactive)
ROOT
ATOM      1  C1  DEN d   1       1.924  -5.952  -3.535  0.00  0.00     0.130 A 
ATOM      2  C2  DEN d   1       2.191  -5.912  -4.970  0.00  0.00    -0.031 A 
ATOM      3  C3  DEN d   1       0.894  -5.871  -5.675  0.00  0.00     0.027 A 
ATOM      4  C4  DEN d   1      -1.489  -5.861  -4.688  0.00  0.00     0.027 A 
ATOM      5  C5  DEN d   1      -2.221  -5.896  -3.522  0.00  0.00    -0.003 A 
ATOM      6  C6  DEN d   1      -1.629  -5.986  -2.290  0.00  0.00     0.001 A 
ATOM      7  C7  DEN d   1      -0.262  -5.998  -2.194  0.00  0.00     0.017 A 
ATOM      8  C8  DEN d   1       0.483  -5.970  -3.365  0.00  0.00    -0.094 A 
ATOM      9  C9  DEN d   1      -0.135  -5.867  -4.600  0.00  0.00    -0.072 A 
ENDROOT
TORSDOF 0
ENDMDL
