MODEL 1
REMARK minimizedAffinity 5.96574163
REMARK minimizedRMSD -1
REMARK  0 active torsions:
REMARK  status: ('A' for Active; 'I' for Inactive)
ROOT
ATOM      1  C1  DEN d   1      -2.536  -5.980  -4.535  0.00  0.00     0.130 A 
ATOM      2  C2  DEN d   1      -3.194  -6.000  -3.231  0.00  0.00    -0.031 A 
ATOM      3  C3  DEN d   1      -2.147  -5.982  -2.191  0.00  0.00     0.027 A 
ATOM      4  C4  DEN d   1       0.417  -5.920  -2.470  0.00  0.00     0.027 A 
ATOM      5  C5  DEN d   1       1.446  -5.905  -3.385  0.00  0.00    -0.003 A 
ATOM      6  C6  DEN d   1       1.223  -5.947  -4.736  0.00  0.00     0.001 A 
ATOM      7  C7  DEN d   1      -0.061  -5.962  -5.212  0.00  0.00     0.017 A 
ATOM      8  C8  DEN d   1      -1.104  -5.985  -4.295  0.00  0.00    -0.094 A 
ATOM      9  C9  DEN d   1      -0.859  -5.929  -2.934  0.00  0.00    -0.072 A 
ENDROOT
TORSDOF 0
ENDMDL
