MODEL 1
REMARK minimizedAffinity -1.02188754
REMARK minimizedRMSD -1
REMARK  0 active torsions:
REMARK  status: ('A' for Active; 'I' for Inactive)
ROOT
ATOM      1  C1  DEN d   1      -0.776  -5.985  -5.991  0.00  0.00     0.130 A 
ATOM      2  C2  DEN d   1       0.684  -5.941  -5.989  0.00  0.00    -0.031 A 
ATOM      3  C3  DEN d   1       1.138  -5.926  -4.583  0.00  0.00     0.027 A 
ATOM      4  C4  DEN d   1      -0.270  -5.972  -2.423  0.00  0.00     0.027 A 
ATOM      5  C5  DEN d   1      -1.551  -6.000  -1.919  0.00  0.00    -0.003 A 
ATOM      6  C6  DEN d   1      -2.656  -5.990  -2.729  0.00  0.00     0.001 A 
ATOM      7  C7  DEN d   1      -2.499  -5.997  -4.090  0.00  0.00     0.017 A 
ATOM      8  C8  DEN d   1      -1.210  -5.962  -4.606  0.00  0.00    -0.094 A 
ATOM      9  C9  DEN d   1      -0.106  -5.985  -3.770  0.00  0.00    -0.072 A 
ENDROOT
TORSDOF 0
ENDMDL
