MODEL 1
REMARK minimizedAffinity -0.270608187
REMARK minimizedRMSD -1
REMARK  0 active torsions:
REMARK  status: ('A' for Active; 'I' for Inactive)
ROOT
ATOM      1  C1  DEN d   1       0.646  -5.997  -3.009  0.00  0.00     0.130 A 
ATOM      2  C2  DEN d   1       1.042  -6.000  -4.415  0.00  0.00    -0.031 A 
ATOM      3  C3  DEN d   1      -0.186  -5.969  -5.234  0.00  0.00     0.027 A 
ATOM      4  C4  DEN d   1      -2.648  -5.912  -4.468  0.00  0.00     0.027 A 
ATOM      5  C5  DEN d   1      -3.483  -5.909  -3.372  0.00  0.00    -0.003 A 
ATOM      6  C6  DEN d   1      -3.005  -5.969  -2.090  0.00  0.00     0.001 A 
ATOM      7  C7  DEN d   1      -1.653  -5.989  -1.870  0.00  0.00     0.017 A 
ATOM      8  C8  DEN d   1      -0.805  -6.000  -2.969  0.00  0.00    -0.094 A 
ATOM      9  C9  DEN d   1      -1.307  -5.926  -4.258  0.00  0.00    -0.072 A 
ENDROOT
TORSDOF 0
ENDMDL
