MODEL 1
REMARK minimizedAffinity 3.00092697
REMARK minimizedRMSD -1
REMARK  0 active torsions:
REMARK  status: ('A' for Active; 'I' for Inactive)
ROOT
ATOM      1  C1  DEN d   1      -1.741  -6.000  -3.213  0.00  0.00     0.130 A 
ATOM      2  C2  DEN d   1      -2.726  -5.972  -4.291  0.00  0.00    -0.031 A 
ATOM      3  C3  DEN d   1      -1.997  -5.956  -5.575  0.00  0.00     0.027 A 
ATOM      4  C4  DEN d   1       0.547  -5.975  -5.998  0.00  0.00     0.027 A 
ATOM      5  C5  DEN d   1       1.785  -5.985  -5.394  0.00  0.00    -0.003 A 
ATOM      6  C6  DEN d   1       1.934  -5.967  -4.032  0.00  0.00     0.001 A 
ATOM      7  C7  DEN d   1       0.825  -5.983  -3.228  0.00  0.00     0.017 A 
ATOM      8  C8  DEN d   1      -0.427  -5.965  -3.830  0.00  0.00    -0.094 A 
ATOM      9  C9  DEN d   1      -0.556  -5.996  -5.208  0.00  0.00    -0.072 A 
ENDROOT
TORSDOF 0
ENDMDL
