MODEL 1
REMARK minimizedAffinity 11.0083761
REMARK minimizedRMSD -1
REMARK  0 active torsions:
REMARK  status: ('A' for Active; 'I' for Inactive)
ROOT
ATOM      1  C1  DEN d   1      -0.270  -5.804  -2.264  0.00  0.00     0.130 A 
ATOM      2  C2  DEN d   1       0.898  -5.831  -1.388  0.00  0.00    -0.031 A 
ATOM      3  C3  DEN d   1       2.104  -5.902  -2.237  0.00  0.00     0.027 A 
ATOM      4  C4  DEN d   1       2.274  -5.969  -4.810  0.00  0.00     0.027 A 
ATOM      5  C5  DEN d   1       1.552  -5.980  -5.983  0.00  0.00    -0.003 A 
ATOM      6  C6  DEN d   1       0.183  -5.967  -5.998  0.00  0.00     0.001 A 
ATOM      7  C7  DEN d   1      -0.508  -5.897  -4.817  0.00  0.00     0.017 A 
ATOM      8  C8  DEN d   1       0.213  -5.894  -3.630  0.00  0.00    -0.094 A 
ATOM      9  C9  DEN d   1       1.597  -5.895  -3.636  0.00  0.00    -0.072 A 
ENDROOT
TORSDOF 0
ENDMDL
