MODEL 1
REMARK minimizedAffinity -0.220167771
REMARK minimizedRMSD -1
REMARK  0 active torsions:
REMARK  status: ('A' for Active; 'I' for Inactive)
ROOT
ATOM      1  C1  DEN d   1      -0.861  -6.000  -5.824  0.00  0.00     0.130 A 
ATOM      2  C2  DEN d   1       0.591  -5.966  -5.979  0.00  0.00    -0.031 A 
ATOM      3  C3  DEN d   1       1.193  -5.952  -4.631  0.00  0.00     0.027 A 
ATOM      4  C4  DEN d   1       0.026  -5.983  -2.331  0.00  0.00     0.027 A 
ATOM      5  C5  DEN d   1      -1.194  -6.000  -1.691  0.00  0.00    -0.003 A 
ATOM      6  C6  DEN d   1      -2.379  -5.984  -2.378  0.00  0.00     0.001 A 
ATOM      7  C7  DEN d   1      -2.369  -5.995  -3.748  0.00  0.00     0.017 A 
ATOM      8  C8  DEN d   1      -1.143  -5.971  -4.400  0.00  0.00    -0.094 A 
ATOM      9  C9  DEN d   1       0.044  -6.000  -3.688  0.00  0.00    -0.072 A 
ENDROOT
TORSDOF 0
ENDMDL
