MODEL 1
REMARK minimizedAffinity 1.98992121
REMARK minimizedRMSD -1
REMARK  0 active torsions:
REMARK  status: ('A' for Active; 'I' for Inactive)
ROOT
ATOM      1  C1  DEN d   1      -0.882  -5.997  -5.429  0.00  0.00     0.130 A 
ATOM      2  C2  DEN d   1       0.561  -5.959  -5.209  0.00  0.00    -0.031 A 
ATOM      3  C3  DEN d   1       0.800  -5.942  -3.751  0.00  0.00     0.027 A 
ATOM      4  C4  DEN d   1      -0.916  -5.977  -1.826  0.00  0.00     0.027 A 
ATOM      5  C5  DEN d   1      -2.258  -5.999  -1.519  0.00  0.00    -0.003 A 
ATOM      6  C6  DEN d   1      -3.229  -5.987  -2.485  0.00  0.00     0.001 A 
ATOM      7  C7  DEN d   1      -2.870  -5.999  -3.807  0.00  0.00     0.017 A 
ATOM      8  C8  DEN d   1      -1.519  -5.970  -4.125  0.00  0.00    -0.094 A 
ATOM      9  C9  DEN d   1      -0.553  -5.994  -3.133  0.00  0.00    -0.072 A 
ENDROOT
TORSDOF 0
ENDMDL
