MODEL 1
REMARK minimizedAffinity 0.993259847
REMARK minimizedRMSD -1
REMARK  0 active torsions:
REMARK  status: ('A' for Active; 'I' for Inactive)
ROOT
ATOM      1  C1  DEN d   1       0.600  -5.963  -2.557  0.00  0.00     0.130 A 
ATOM      2  C2  DEN d   1       1.383  -5.986  -3.789  0.00  0.00    -0.031 A 
ATOM      3  C3  DEN d   1       0.443  -6.000  -4.927  0.00  0.00     0.027 A 
ATOM      4  C4  DEN d   1      -2.136  -5.983  -4.902  0.00  0.00     0.027 A 
ATOM      5  C5  DEN d   1      -3.251  -5.977  -4.092  0.00  0.00    -0.003 A 
ATOM      6  C6  DEN d   1      -3.161  -5.999  -2.726  0.00  0.00     0.001 A 
ATOM      7  C7  DEN d   1      -1.929  -5.984  -2.126  0.00  0.00     0.017 A 
ATOM      8  C8  DEN d   1      -0.801  -5.998  -2.936  0.00  0.00    -0.094 A 
ATOM      9  C9  DEN d   1      -0.913  -5.963  -4.315  0.00  0.00    -0.072 A 
ENDROOT
TORSDOF 0
ENDMDL
