MODEL 1
REMARK minimizedAffinity 7.06043768
REMARK minimizedRMSD -1
REMARK  0 active torsions:
REMARK  status: ('A' for Active; 'I' for Inactive)
ROOT
ATOM      1  C1  DEN d   1      -3.453   0.207   0.805  0.00  0.00     0.130 A 
ATOM      2  C2  DEN d   1      -2.600  -0.975   0.719  0.00  0.00    -0.031 A 
ATOM      3  C3  DEN d   1      -2.942  -1.695  -0.524  0.00  0.00     0.027 A 
ATOM      4  C4  DEN d   1      -4.698  -1.096  -2.316  0.00  0.00     0.027 A 
ATOM      5  C5  DEN d   1      -5.675  -0.192  -2.672  0.00  0.00    -0.003 A 
ATOM      6  C6  DEN d   1      -6.000   0.881  -1.885  0.00  0.00     0.001 A 
ATOM      7  C7  DEN d   1      -5.311   1.102  -0.721  0.00  0.00     0.017 A 
ATOM      8  C8  DEN d   1      -4.331   0.191  -0.351  0.00  0.00    -0.094 A 
ATOM      9  C9  DEN d   1      -4.008  -0.880  -1.167  0.00  0.00    -0.072 A 
ENDROOT
TORSDOF 0
ENDMDL
