MODEL 1
REMARK minimizedAffinity 0.491444677
REMARK minimizedRMSD -1
REMARK  0 active torsions:
REMARK  status: ('A' for Active; 'I' for Inactive)
ROOT
ATOM      1  C1  DEN d   1      -0.520  -5.951  -5.996  0.00  0.00     0.130 A 
ATOM      2  C2  DEN d   1       0.924  -5.888  -5.787  0.00  0.00    -0.031 A 
ATOM      3  C3  DEN d   1       1.175  -5.875  -4.332  0.00  0.00     0.027 A 
ATOM      4  C4  DEN d   1      -0.523  -5.952  -2.392  0.00  0.00     0.027 A 
ATOM      5  C5  DEN d   1      -1.862  -5.999  -2.073  0.00  0.00    -0.003 A 
ATOM      6  C6  DEN d   1      -2.841  -5.999  -3.031  0.00  0.00     0.001 A 
ATOM      7  C7  DEN d   1      -2.494  -5.997  -4.356  0.00  0.00     0.017 A 
ATOM      8  C8  DEN d   1      -1.146  -5.942  -4.685  0.00  0.00    -0.094 A 
ATOM      9  C9  DEN d   1      -0.171  -5.955  -3.702  0.00  0.00    -0.072 A 
ENDROOT
TORSDOF 0
ENDMDL
