MODEL 1
REMARK minimizedAffinity 3.5920279
REMARK minimizedRMSD -1
REMARK  0 active torsions:
REMARK  status: ('A' for Active; 'I' for Inactive)
ROOT
ATOM      1  C   UNL d   1       1.812   1.631   1.421  0.00  0.00     0.078 C 
ATOM      2  C1  UNL d   1       1.366   1.104   0.090  0.00  0.00    -0.077 A 
ATOM      3  C2  UNL d   1       1.665   1.788  -1.094  0.00  0.00    -0.001 A 
ATOM      4  C3  UNL d   1       1.235   1.291  -2.325  0.00  0.00     0.003 A 
ATOM      5  C4  UNL d   1       0.502   0.107  -2.384  0.00  0.00    -0.005 A 
ATOM      6  C5  UNL d   1       0.197  -0.580  -1.211  0.00  0.00     0.003 A 
ATOM      7  C6  UNL d   1       0.627  -0.084   0.021  0.00  0.00    -0.001 A 
ENDROOT
TORSDOF 0
ENDMDL
