MODEL 1
REMARK minimizedAffinity -0.0912833512
REMARK minimizedRMSD -1
REMARK  0 active torsions:
REMARK  status: ('A' for Active; 'I' for Inactive)
ROOT
ATOM      1  C   UNL d   1       1.000   1.171   1.787  0.00  0.00     0.078 C 
ATOM      2  C1  UNL d   1       1.028   0.860   0.320  0.00  0.00    -0.077 A 
ATOM      3  C2  UNL d   1       1.619   1.742  -0.593  0.00  0.00    -0.001 A 
ATOM      4  C3  UNL d   1       1.630   1.444  -1.957  0.00  0.00     0.003 A 
ATOM      5  C4  UNL d   1       1.050   0.265  -2.420  0.00  0.00    -0.005 A 
ATOM      6  C5  UNL d   1       0.457  -0.618  -1.519  0.00  0.00     0.003 A 
ATOM      7  C6  UNL d   1       0.446  -0.322  -0.155  0.00  0.00    -0.001 A 
ENDROOT
TORSDOF 0
ENDMDL
