MODEL 1
REMARK minimizedAffinity -1.56480837
REMARK minimizedRMSD -1
REMARK  0 active torsions:
REMARK  status: ('A' for Active; 'I' for Inactive)
ROOT
ATOM      1  C   UNL d   1       1.249   2.637  -2.345  0.00  0.00     0.078 C 
ATOM      2  C1  UNL d   1       1.163   1.419  -1.474  0.00  0.00    -0.077 A 
ATOM      3  C2  UNL d   1       1.321   1.513  -0.086  0.00  0.00    -0.001 A 
ATOM      4  C3  UNL d   1       1.249   0.369   0.711  0.00  0.00     0.003 A 
ATOM      5  C4  UNL d   1       1.020  -0.876   0.129  0.00  0.00    -0.005 A 
ATOM      6  C5  UNL d   1       0.864  -0.979  -1.251  0.00  0.00     0.003 A 
ATOM      7  C6  UNL d   1       0.936   0.163  -2.050  0.00  0.00    -0.001 A 
ENDROOT
TORSDOF 0
ENDMDL
