MODEL 1
REMARK minimizedAffinity 4.96688032
REMARK minimizedRMSD -1
REMARK  0 active torsions:
REMARK  status: ('A' for Active; 'I' for Inactive)
ROOT
ATOM      1  C   UNL d   1       1.772   3.812  -1.222  0.00  0.00     0.078 C 
ATOM      2  C1  UNL d   1       1.467   2.359  -1.011  0.00  0.00    -0.077 A 
ATOM      3  C2  UNL d   1       0.920   1.580  -2.038  0.00  0.00    -0.001 A 
ATOM      4  C3  UNL d   1       0.632   0.231  -1.824  0.00  0.00     0.003 A 
ATOM      5  C4  UNL d   1       0.886  -0.350  -0.584  0.00  0.00    -0.005 A 
ATOM      6  C5  UNL d   1       1.429   0.417   0.445  0.00  0.00     0.003 A 
ATOM      7  C6  UNL d   1       1.718   1.766   0.233  0.00  0.00    -0.001 A 
ENDROOT
TORSDOF 0
ENDMDL
