MODEL 1
REMARK minimizedAffinity 0.425219059
REMARK minimizedRMSD -1
REMARK  0 active torsions:
REMARK  status: ('A' for Active; 'I' for Inactive)
ROOT
ATOM      1  C   UNL d   1       1.494  -0.562  -3.068  0.00  0.00     0.078 C 
ATOM      2  C1  UNL d   1       1.387   0.251  -1.812  0.00  0.00    -0.077 A 
ATOM      3  C2  UNL d   1       0.724  -0.248  -0.684  0.00  0.00    -0.001 A 
ATOM      4  C3  UNL d   1       0.623   0.524   0.474  0.00  0.00     0.003 A 
ATOM      5  C4  UNL d   1       1.182   1.800   0.516  0.00  0.00    -0.005 A 
ATOM      6  C5  UNL d   1       1.841   2.306  -0.602  0.00  0.00     0.003 A 
ATOM      7  C6  UNL d   1       1.943   1.535  -1.762  0.00  0.00    -0.001 A 
ENDROOT
TORSDOF 0
ENDMDL
