MODEL 1
REMARK minimizedAffinity 2.554142
REMARK minimizedRMSD -1
REMARK  0 active torsions:
REMARK  status: ('A' for Active; 'I' for Inactive)
ROOT
ATOM      1  C   UNL d   1       1.256   1.557   1.735  0.00  0.00     0.078 C 
ATOM      2  C1  UNL d   1       1.151   1.053   0.327  0.00  0.00    -0.077 A 
ATOM      3  C2  UNL d   1       1.262   1.926  -0.762  0.00  0.00    -0.001 A 
ATOM      4  C3  UNL d   1       1.153   1.444  -2.067  0.00  0.00     0.003 A 
ATOM      5  C4  UNL d   1       0.930   0.088  -2.296  0.00  0.00    -0.005 A 
ATOM      6  C5  UNL d   1       0.816  -0.788  -1.219  0.00  0.00     0.003 A 
ATOM      7  C6  UNL d   1       0.925  -0.308   0.087  0.00  0.00    -0.001 A 
ENDROOT
TORSDOF 0
ENDMDL
