MODEL 1
REMARK minimizedAffinity -0.825662792
REMARK minimizedRMSD -1
REMARK  0 active torsions:
REMARK  status: ('A' for Active; 'I' for Inactive)
ROOT
ATOM      1  C   UNL d   1       1.129  -1.396  -1.242  0.00  0.00     0.078 C 
ATOM      2  C1  UNL d   1       1.464  -0.259  -0.323  0.00  0.00    -0.077 A 
ATOM      3  C2  UNL d   1       2.782  -0.028   0.087  0.00  0.00    -0.001 A 
ATOM      4  C3  UNL d   1       3.078   1.028   0.951  0.00  0.00     0.003 A 
ATOM      5  C4  UNL d   1       2.061   1.861   1.412  0.00  0.00    -0.005 A 
ATOM      6  C5  UNL d   1       0.745   1.637   1.012  0.00  0.00     0.003 A 
ATOM      7  C6  UNL d   1       0.447   0.582   0.148  0.00  0.00    -0.001 A 
ENDROOT
TORSDOF 0
ENDMDL
