MODEL 1
REMARK minimizedAffinity -1.16359246
REMARK minimizedRMSD -1
REMARK  0 active torsions:
REMARK  status: ('A' for Active; 'I' for Inactive)
ROOT
ATOM      1  C   UNL d   1       1.534   1.178   2.333  0.00  0.00     0.078 C 
ATOM      2  C1  UNL d   1       1.127   0.751   0.954  0.00  0.00    -0.077 A 
ATOM      3  C2  UNL d   1       0.592   1.669   0.043  0.00  0.00    -0.001 A 
ATOM      4  C3  UNL d   1       0.208   1.255  -1.234  0.00  0.00     0.003 A 
ATOM      5  C4  UNL d   1       0.356  -0.078  -1.611  0.00  0.00    -0.005 A 
ATOM      6  C5  UNL d   1       0.886  -1.000  -0.710  0.00  0.00     0.003 A 
ATOM      7  C6  UNL d   1       1.269  -0.588   0.567  0.00  0.00    -0.001 A 
ENDROOT
TORSDOF 0
ENDMDL
