MODEL 1
REMARK minimizedAffinity 1.35856867
REMARK minimizedRMSD -1
REMARK  0 active torsions:
REMARK  status: ('A' for Active; 'I' for Inactive)
ROOT
ATOM      1  C   UNL d   1       1.550   1.924   1.627  0.00  0.00     0.078 C 
ATOM      2  C1  UNL d   1       1.347   1.224   0.317  0.00  0.00    -0.077 A 
ATOM      3  C2  UNL d   1       1.116   1.947  -0.859  0.00  0.00    -0.001 A 
ATOM      4  C3  UNL d   1       0.919   1.282  -2.070  0.00  0.00     0.003 A 
ATOM      5  C4  UNL d   1       0.949  -0.111  -2.116  0.00  0.00    -0.005 A 
ATOM      6  C5  UNL d   1       1.176  -0.839  -0.950  0.00  0.00     0.003 A 
ATOM      7  C6  UNL d   1       1.373  -0.175   0.261  0.00  0.00    -0.001 A 
ENDROOT
TORSDOF 0
ENDMDL
