MODEL 1
REMARK minimizedAffinity 1.26937342
REMARK minimizedRMSD -1
REMARK  0 active torsions:
REMARK  status: ('A' for Active; 'I' for Inactive)
ROOT
ATOM      1  C   UNL d   1       2.965   2.195   2.150  0.00  0.00     0.078 C 
ATOM      2  C1  UNL d   1       2.213   1.480   1.068  0.00  0.00    -0.077 A 
ATOM      3  C2  UNL d   1       0.827   1.299   1.151  0.00  0.00    -0.001 A 
ATOM      4  C3  UNL d   1       0.142   0.623   0.141  0.00  0.00     0.003 A 
ATOM      5  C4  UNL d   1       0.834   0.121  -0.960  0.00  0.00    -0.005 A 
ATOM      6  C5  UNL d   1       2.213   0.294  -1.050  0.00  0.00     0.003 A 
ATOM      7  C6  UNL d   1       2.901   0.970  -0.041  0.00  0.00    -0.001 A 
ENDROOT
TORSDOF 0
ENDMDL
