MODEL 1
REMARK minimizedAffinity 0.954779685
REMARK minimizedRMSD -1
REMARK  0 active torsions:
REMARK  status: ('A' for Active; 'I' for Inactive)
ROOT
ATOM      1  C   UNL d   1       2.060   1.838   2.015  0.00  0.00     0.078 C 
ATOM      2  C1  UNL d   1       1.520   1.109   0.822  0.00  0.00    -0.077 A 
ATOM      3  C2  UNL d   1       0.581   1.708  -0.026  0.00  0.00    -0.001 A 
ATOM      4  C3  UNL d   1       0.080   1.013  -1.128  0.00  0.00     0.003 A 
ATOM      5  C4  UNL d   1       0.511  -0.285  -1.392  0.00  0.00    -0.005 A 
ATOM      6  C5  UNL d   1       1.445  -0.890  -0.553  0.00  0.00     0.003 A 
ATOM      7  C6  UNL d   1       1.947  -0.197   0.549  0.00  0.00    -0.001 A 
ENDROOT
TORSDOF 0
ENDMDL
