MODEL 1
REMARK minimizedAffinity 9.29694462
REMARK minimizedRMSD -1
REMARK  0 active torsions:
REMARK  status: ('A' for Active; 'I' for Inactive)
ROOT
ATOM      1  C2' OXE d   1       0.361   0.450  -1.793  0.00  0.00     0.078 C 
ATOM      2  C1' OXE d   1       3.079  -0.170  -1.463  0.00  0.00     0.078 C 
ATOM      3  C1  OXE d   1       2.661   0.499  -2.749  0.00  0.00    -0.078 A 
ATOM      4  C2  OXE d   1       1.322   0.756  -2.921  0.00  0.00    -0.078 A 
ATOM      5  C3  OXE d   1       0.890   1.421  -4.065  0.00  0.00     0.003 A 
ATOM      6  C4  OXE d   1       1.784   1.692  -5.108  0.00  0.00    -0.002 A 
ATOM      7  C5  OXE d   1       3.145   1.403  -4.969  0.00  0.00    -0.002 A 
ATOM      8  C6  OXE d   1       3.606   0.846  -3.781  0.00  0.00     0.003 A 
ENDROOT
TORSDOF 0
ENDMDL
