MODEL 1
REMARK minimizedAffinity 11.9110842
REMARK minimizedRMSD -1
REMARK  0 active torsions:
REMARK  status: ('A' for Active; 'I' for Inactive)
ROOT
ATOM      1  C2' OXE d   1       0.801   2.706   1.568  0.00  0.00     0.078 C 
ATOM      2  C1' OXE d   1       2.844   3.749  -0.049  0.00  0.00     0.078 C 
ATOM      3  C1  OXE d   1       3.246   2.917   1.143  0.00  0.00    -0.078 A 
ATOM      4  C2  OXE d   1       2.242   2.450   1.955  0.00  0.00    -0.078 A 
ATOM      5  C3  OXE d   1       2.554   1.631   3.037  0.00  0.00     0.003 A 
ATOM      6  C4  OXE d   1       3.890   1.408   3.394  0.00  0.00    -0.002 A 
ATOM      7  C5  OXE d   1       4.929   1.908   2.603  0.00  0.00    -0.002 A 
ATOM      8  C6  OXE d   1       4.625   2.627   1.453  0.00  0.00     0.003 A 
ENDROOT
TORSDOF 0
ENDMDL
