MODEL 1
REMARK minimizedAffinity -1.00132871
REMARK minimizedRMSD -1
REMARK  0 active torsions:
REMARK  status: ('A' for Active; 'I' for Inactive)
ROOT
ATOM      1  C2' OXE d   1       0.924   2.583   0.118  0.00  0.00     0.078 C 
ATOM      2  C1' OXE d   1       0.544   0.561  -1.792  0.00  0.00     0.078 C 
ATOM      3  C1  OXE d   1       1.410   1.735  -2.174  0.00  0.00    -0.078 A 
ATOM      4  C2  OXE d   1       1.552   2.743  -1.250  0.00  0.00    -0.078 A 
ATOM      5  C3  OXE d   1       2.384   3.823  -1.531  0.00  0.00     0.003 A 
ATOM      6  C4  OXE d   1       2.954   3.967  -2.802  0.00  0.00    -0.002 A 
ATOM      7  C5  OXE d   1       2.789   2.972  -3.771  0.00  0.00    -0.002 A 
ATOM      8  C6  OXE d   1       2.057   1.832  -3.459  0.00  0.00     0.003 A 
ENDROOT
TORSDOF 0
ENDMDL
