MODEL 1
REMARK minimizedAffinity 1.70798671
REMARK minimizedRMSD -1
REMARK  0 active torsions:
REMARK  status: ('A' for Active; 'I' for Inactive)
ROOT
ATOM      1  C2' OXE d   1       4.501   0.028   2.001  0.00  0.00     0.078 C 
ATOM      2  C1' OXE d   1       4.529   2.651   3.001  0.00  0.00     0.078 C 
ATOM      3  C1  OXE d   1       5.057   1.553   3.890  0.00  0.00    -0.078 A 
ATOM      4  C2  OXE d   1       4.996   0.267   3.411  0.00  0.00    -0.078 A 
ATOM      5  C3  OXE d   1       5.519  -0.777   4.169  0.00  0.00     0.003 A 
ATOM      6  C4  OXE d   1       5.966  -0.549   5.476  0.00  0.00    -0.002 A 
ATOM      7  C5  OXE d   1       6.000   0.748   5.999  0.00  0.00    -0.002 A 
ATOM      8  C6  OXE d   1       5.589   1.814   5.205  0.00  0.00     0.003 A 
ENDROOT
TORSDOF 0
ENDMDL
