MODEL 1
REMARK minimizedAffinity 5.71626282
REMARK minimizedRMSD -1
REMARK  0 active torsions:
REMARK  status: ('A' for Active; 'I' for Inactive)
ROOT
ATOM      1  C2' OXE d   1       2.162   4.717   0.269  0.00  0.00     0.078 C 
ATOM      2  C1' OXE d   1       0.643   2.361   0.435  0.00  0.00     0.078 C 
ATOM      3  C1  OXE d   1       1.976   2.390   1.139  0.00  0.00    -0.078 A 
ATOM      4  C2  OXE d   1       2.733   3.530   1.014  0.00  0.00    -0.078 A 
ATOM      5  C3  OXE d   1       3.947   3.629   1.689  0.00  0.00     0.003 A 
ATOM      6  C4  OXE d   1       4.473   2.523   2.368  0.00  0.00    -0.002 A 
ATOM      7  C5  OXE d   1       3.736   1.339   2.474  0.00  0.00    -0.002 A 
ATOM      8  C6  OXE d   1       2.470   1.271   1.903  0.00  0.00     0.003 A 
ENDROOT
TORSDOF 0
ENDMDL
