MODEL 1
REMARK minimizedAffinity 9.18330193
REMARK minimizedRMSD -1
REMARK  0 active torsions:
REMARK  status: ('A' for Active; 'I' for Inactive)
ROOT
ATOM      1  C2' OXE d   1      -4.344  -3.800   4.007  0.00  0.00     0.078 C 
ATOM      2  C1' OXE d   1      -5.807  -1.549   4.828  0.00  0.00     0.078 C 
ATOM      3  C1  OXE d   1      -4.503  -1.316   4.106  0.00  0.00    -0.078 A 
ATOM      4  C2  OXE d   1      -3.772  -2.423   3.749  0.00  0.00    -0.078 A 
ATOM      5  C3  OXE d   1      -2.589  -2.266   3.033  0.00  0.00     0.003 A 
ATOM      6  C4  OXE d   1      -2.061  -0.989   2.807  0.00  0.00    -0.002 A 
ATOM      7  C5  OXE d   1      -2.771   0.152   3.198  0.00  0.00    -0.002 A 
ATOM      8  C6  OXE d   1      -4.011   0.006   3.809  0.00  0.00     0.003 A 
ENDROOT
TORSDOF 0
ENDMDL
