MODEL 1
REMARK minimizedAffinity 4.92995691
REMARK minimizedRMSD -1
REMARK  0 active torsions:
REMARK  status: ('A' for Active; 'I' for Inactive)
ROOT
ATOM      1  C2' OXE d   1       1.270  -4.073  -3.791  0.00  0.00     0.078 C 
ATOM      2  C1' OXE d   1       1.996  -2.419  -1.643  0.00  0.00     0.078 C 
ATOM      3  C1  OXE d   1       1.709  -1.763  -2.970  0.00  0.00    -0.078 A 
ATOM      4  C2  OXE d   1       1.400  -2.584  -4.027  0.00  0.00    -0.078 A 
ATOM      5  C3  OXE d   1       1.073  -2.027  -5.260  0.00  0.00     0.003 A 
ATOM      6  C4  OXE d   1       1.205  -0.649  -5.473  0.00  0.00    -0.002 A 
ATOM      7  C5  OXE d   1       1.558   0.201  -4.420  0.00  0.00    -0.002 A 
ATOM      8  C6  OXE d   1       1.771  -0.334  -3.154  0.00  0.00     0.003 A 
ENDROOT
TORSDOF 0
ENDMDL
