MODEL 1
REMARK minimizedAffinity 2.37490344
REMARK minimizedRMSD -1
REMARK  0 active torsions:
REMARK  status: ('A' for Active; 'I' for Inactive)
ROOT
ATOM      1  C2' OXE d   1       1.602  -2.757  -1.270  0.00  0.00     0.078 C 
ATOM      2  C1' OXE d   1      -0.701  -3.633   0.074  0.00  0.00     0.078 C 
ATOM      3  C1  OXE d   1      -0.551  -2.153  -0.174  0.00  0.00    -0.078 A 
ATOM      4  C2  OXE d   1       0.601  -1.728  -0.791  0.00  0.00    -0.078 A 
ATOM      5  C3  OXE d   1       0.764  -0.379  -1.093  0.00  0.00     0.003 A 
ATOM      6  C4  OXE d   1      -0.163   0.566  -0.638  0.00  0.00    -0.002 A 
ATOM      7  C5  OXE d   1      -1.324   0.159   0.028  0.00  0.00    -0.002 A 
ATOM      8  C6  OXE d   1      -1.553  -1.197   0.230  0.00  0.00     0.003 A 
ENDROOT
TORSDOF 0
ENDMDL
