MODEL 1
REMARK minimizedAffinity 1.22227013
REMARK minimizedRMSD -1
REMARK  0 active torsions:
REMARK  status: ('A' for Active; 'I' for Inactive)
ROOT
ATOM      1  C2' OXE d   1      -1.996  -0.737   0.268  0.00  0.00     0.078 C 
ATOM      2  C1' OXE d   1      -0.204  -2.883   0.519  0.00  0.00     0.078 C 
ATOM      3  C1  OXE d   1       0.162  -1.768  -0.429  0.00  0.00    -0.078 A 
ATOM      4  C2  OXE d   1      -0.743  -0.745  -0.581  0.00  0.00    -0.078 A 
ATOM      5  C3  OXE d   1      -0.431   0.335  -1.401  0.00  0.00     0.003 A 
ATOM      6  C4  OXE d   1       0.726   0.315  -2.190  0.00  0.00    -0.002 A 
ATOM      7  C5  OXE d   1       1.642  -0.737  -2.081  0.00  0.00    -0.002 A 
ATOM      8  C6  OXE d   1       1.396  -1.763  -1.175  0.00  0.00     0.003 A 
ENDROOT
TORSDOF 0
ENDMDL
