MODEL 1
REMARK minimizedAffinity 6.90936852
REMARK minimizedRMSD -1
REMARK  0 active torsions:
REMARK  status: ('A' for Active; 'I' for Inactive)
ROOT
ATOM      1  C2' OXE d   1       0.738   0.463  -1.393  0.00  0.00     0.078 C 
ATOM      2  C1' OXE d   1       2.491  -1.675  -1.883  0.00  0.00     0.078 C 
ATOM      3  C1  OXE d   1       1.246  -1.955  -1.079  0.00  0.00    -0.078 A 
ATOM      4  C2  OXE d   1       0.418  -0.894  -0.804  0.00  0.00    -0.078 A 
ATOM      5  C3  OXE d   1      -0.771  -1.108  -0.113  0.00  0.00     0.003 A 
ATOM      6  C4  OXE d   1      -1.055  -2.364   0.437  0.00  0.00    -0.002 A 
ATOM      7  C5  OXE d   1      -0.205  -3.450   0.203  0.00  0.00    -0.002 A 
ATOM      8  C6  OXE d   1       0.925  -3.273  -0.587  0.00  0.00     0.003 A 
ENDROOT
TORSDOF 0
ENDMDL
