MODEL 1
REMARK minimizedAffinity 11.7675743
REMARK minimizedRMSD -1
REMARK  0 active torsions:
REMARK  status: ('A' for Active; 'I' for Inactive)
ROOT
ATOM      1  C2' OXE d   1       0.378   0.558  -0.412  0.00  0.00     0.078 C 
ATOM      2  C1' OXE d   1      -1.598  -0.860   0.989  0.00  0.00     0.078 C 
ATOM      3  C1  OXE d   1      -0.445  -1.644   0.413  0.00  0.00    -0.078 A 
ATOM      4  C2  OXE d   1       0.493  -0.948  -0.311  0.00  0.00    -0.078 A 
ATOM      5  C3  OXE d   1       1.606  -1.613  -0.817  0.00  0.00     0.003 A 
ATOM      6  C4  OXE d   1       1.700  -3.007  -0.728  0.00  0.00    -0.002 A 
ATOM      7  C5  OXE d   1       0.735  -3.740  -0.029  0.00  0.00    -0.002 A 
ATOM      8  C6  OXE d   1      -0.319  -3.070   0.583  0.00  0.00     0.003 A 
ENDROOT
TORSDOF 0
ENDMDL
