MODEL 1
REMARK minimizedAffinity 2.80621409
REMARK minimizedRMSD -1
REMARK  0 active torsions:
REMARK  status: ('A' for Active; 'I' for Inactive)
ROOT
ATOM      1  C2' OXE d   1      -0.545  -3.485  -0.002  0.00  0.00     0.078 C 
ATOM      2  C1' OXE d   1       1.689  -2.596  -1.452  0.00  0.00     0.078 C 
ATOM      3  C1  OXE d   1       0.712  -1.558  -0.958  0.00  0.00    -0.078 A 
ATOM      4  C2  OXE d   1      -0.402  -2.006  -0.290  0.00  0.00    -0.078 A 
ATOM      5  C3  OXE d   1      -1.307  -1.087   0.235  0.00  0.00     0.003 A 
ATOM      6  C4  OXE d   1      -1.173   0.278  -0.044  0.00  0.00    -0.002 A 
ATOM      7  C5  OXE d   1      -0.066   0.752  -0.757  0.00  0.00    -0.002 A 
ATOM      8  C6  OXE d   1       0.905  -0.147  -1.183  0.00  0.00     0.003 A 
ENDROOT
TORSDOF 0
ENDMDL
