MODEL 1
REMARK minimizedAffinity 2.06283069
REMARK minimizedRMSD -1
REMARK  0 active torsions:
REMARK  status: ('A' for Active; 'I' for Inactive)
ROOT
ATOM      1  C2' OXE d   1      -0.647   0.958  -1.141  0.00  0.00     0.078 C 
ATOM      2  C1' OXE d   1       1.202   0.052  -3.049  0.00  0.00     0.078 C 
ATOM      3  C1  OXE d   1       1.042  -0.755  -1.785  0.00  0.00    -0.078 A 
ATOM      4  C2  OXE d   1       0.170  -0.279  -0.837  0.00  0.00    -0.078 A 
ATOM      5  C3  OXE d   1      -0.055  -1.014   0.324  0.00  0.00     0.003 A 
ATOM      6  C4  OXE d   1       0.712  -2.152   0.602  0.00  0.00    -0.002 A 
ATOM      7  C5  OXE d   1       1.635  -2.632  -0.333  0.00  0.00    -0.002 A 
ATOM      8  C6  OXE d   1       1.781  -1.971  -1.547  0.00  0.00     0.003 A 
ENDROOT
TORSDOF 0
ENDMDL
