MODEL 1
REMARK minimizedAffinity 3.23553944
REMARK minimizedRMSD -1
REMARK  0 active torsions:
REMARK  status: ('A' for Active; 'I' for Inactive)
ROOT
ATOM      1  C2' OXE d   1       0.370  -1.319  -0.368  0.00  0.00     0.078 C 
ATOM      2  C1' OXE d   1       1.832  -2.692  -2.332  0.00  0.00     0.078 C 
ATOM      3  C1  OXE d   1       1.518  -1.237  -2.577  0.00  0.00    -0.078 A 
ATOM      4  C2  OXE d   1       0.762  -0.586  -1.632  0.00  0.00    -0.078 A 
ATOM      5  C3  OXE d   1       0.490   0.771  -1.782  0.00  0.00     0.003 A 
ATOM      6  C4  OXE d   1       0.848   1.439  -2.960  0.00  0.00    -0.002 A 
ATOM      7  C5  OXE d   1       1.583   0.784  -3.953  0.00  0.00    -0.002 A 
ATOM      8  C6  OXE d   1       1.962  -0.540  -3.758  0.00  0.00     0.003 A 
ENDROOT
TORSDOF 0
ENDMDL
