MODEL 1
REMARK minimizedAffinity 2.19949746
REMARK minimizedRMSD -1
REMARK  0 active torsions:
REMARK  status: ('A' for Active; 'I' for Inactive)
ROOT
ATOM      1  C2' OXE d   1       0.059   0.954  -1.358  0.00  0.00     0.078 C 
ATOM      2  C1' OXE d   1       1.903  -0.555  -2.841  0.00  0.00     0.078 C 
ATOM      3  C1  OXE d   1       1.275  -1.202  -1.632  0.00  0.00    -0.078 A 
ATOM      4  C2  OXE d   1       0.408  -0.440  -0.886  0.00  0.00    -0.078 A 
ATOM      5  C3  OXE d   1      -0.241  -1.006   0.207  0.00  0.00     0.003 A 
ATOM      6  C4  OXE d   1       0.095  -2.294   0.643  0.00  0.00    -0.002 A 
ATOM      7  C5  OXE d   1       1.005  -3.073  -0.080  0.00  0.00    -0.002 A 
ATOM      8  C6  OXE d   1       1.570  -2.559  -1.242  0.00  0.00     0.003 A 
ENDROOT
TORSDOF 0
ENDMDL
