MODEL 1
REMARK minimizedAffinity 2.62764645
REMARK minimizedRMSD -1
REMARK  0 active torsions:
REMARK  status: ('A' for Active; 'I' for Inactive)
ROOT
ATOM      1  C2' OXE d   1       4.885   1.254   2.198  0.00  0.00     0.078 C 
ATOM      2  C1' OXE d   1       4.884   2.863   4.498  0.00  0.00     0.078 C 
ATOM      3  C1  OXE d   1       5.292   1.418   4.650  0.00  0.00    -0.078 A 
ATOM      4  C2  OXE d   1       5.244   0.627   3.528  0.00  0.00    -0.078 A 
ATOM      5  C3  OXE d   1       5.662  -0.699   3.601  0.00  0.00     0.003 A 
ATOM      6  C4  OXE d   1       5.983  -1.274   4.837  0.00  0.00    -0.002 A 
ATOM      7  C5  OXE d   1       6.000  -0.495   5.999  0.00  0.00    -0.002 A 
ATOM      8  C6  OXE d   1       5.698   0.860   5.916  0.00  0.00     0.003 A 
ENDROOT
TORSDOF 0
ENDMDL
