MODEL 1
REMARK minimizedAffinity 11.5877533
REMARK minimizedRMSD -1
REMARK  0 active torsions:
REMARK  status: ('A' for Active; 'I' for Inactive)
ROOT
ATOM      1  C2' OXE d   1       2.256  -1.017  -2.831  0.00  0.00     0.078 C 
ATOM      2  C1' OXE d   1       1.233  -3.628  -2.953  0.00  0.00     0.078 C 
ATOM      3  C1  OXE d   1       0.948  -2.818  -1.713  0.00  0.00    -0.078 A 
ATOM      4  C2  OXE d   1       1.491  -1.558  -1.642  0.00  0.00    -0.078 A 
ATOM      5  C3  OXE d   1       1.213  -0.748  -0.545  0.00  0.00     0.003 A 
ATOM      6  C4  OXE d   1       0.514  -1.260   0.555  0.00  0.00    -0.002 A 
ATOM      7  C5  OXE d   1      -0.015  -2.554   0.520  0.00  0.00    -0.002 A 
ATOM      8  C6  OXE d   1       0.156  -3.330  -0.622  0.00  0.00     0.003 A 
ENDROOT
TORSDOF 0
ENDMDL
