MODEL 1
REMARK minimizedAffinity 0.270507485
REMARK minimizedRMSD -1
REMARK  0 active torsions:
REMARK  status: ('A' for Active; 'I' for Inactive)
ROOT
ATOM      1  C2' OXE d   1      -0.199   1.899  -1.450  0.00  0.00     0.078 C 
ATOM      2  C1' OXE d   1       1.453   1.123  -3.583  0.00  0.00     0.078 C 
ATOM      3  C1  OXE d   1       1.174   0.107  -2.503  0.00  0.00    -0.078 A 
ATOM      4  C2  OXE d   1       0.403   0.511  -1.440  0.00  0.00    -0.078 A 
ATOM      5  C3  OXE d   1       0.070  -0.403  -0.444  0.00  0.00     0.003 A 
ATOM      6  C4  OXE d   1       0.639  -1.682  -0.436  0.00  0.00    -0.002 A 
ATOM      7  C5  OXE d   1       1.459  -2.100  -1.489  0.00  0.00    -0.002 A 
ATOM      8  C6  OXE d   1       1.701  -1.234  -2.550  0.00  0.00     0.003 A 
ENDROOT
TORSDOF 0
ENDMDL
