MODEL 1
REMARK minimizedAffinity -1.86200416
REMARK minimizedRMSD -1
REMARK  0 active torsions:
REMARK  status: ('A' for Active; 'I' for Inactive)
ROOT
ATOM      1  C2' OXE d   1       5.415   2.841   4.875  0.00  0.00     0.078 C 
ATOM      2  C1' OXE d   1       4.126   1.432   2.817  0.00  0.00     0.078 C 
ATOM      3  C1  OXE d   1       4.758   0.632   3.928  0.00  0.00    -0.078 A 
ATOM      4  C2  OXE d   1       5.427   1.328   4.907  0.00  0.00    -0.078 A 
ATOM      5  C3  OXE d   1       5.982   0.642   5.983  0.00  0.00     0.003 A 
ATOM      6  C4  OXE d   1       5.998  -0.758   6.000  0.00  0.00    -0.002 A 
ATOM      7  C5  OXE d   1       5.357  -1.487   4.993  0.00  0.00    -0.002 A 
ATOM      8  C6  OXE d   1       4.697  -0.808   3.975  0.00  0.00     0.003 A 
ENDROOT
TORSDOF 0
ENDMDL
