MODEL 1
REMARK minimizedAffinity -4.06846666
REMARK minimizedRMSD -1
REMARK  1 active torsions:
REMARK  status: ('A' for Active; 'I' for Inactive)
REMARK    1  A    between atoms: C3_4  and  O_7 
ROOT
ATOM      1  C   UNL d   1       0.593  -0.811   0.002  0.00  0.00    -0.033 A 
ATOM      2  C1  UNL d   1      -0.391  -0.139   0.731  0.00  0.00     0.039 A 
ATOM      3  C2  UNL d   1      -0.137   1.136   1.238  0.00  0.00    -0.080 A 
ATOM      4  C3  UNL d   1       1.101   1.729   1.010  0.00  0.00     0.150 A 
ATOM      5  C4  UNL d   1       2.085   1.067   0.282  0.00  0.00    -0.007 A 
ATOM      6  C5  UNL d   1       1.830  -0.207  -0.223  0.00  0.00     0.039 A 
ENDROOT
BRANCH   4   7
ATOM      7  O   UNL d   1       1.397   2.970   1.490  0.00  0.00    -0.526 OA
ATOM      8  H5  UNL d   1       0.634   3.294   1.997  0.00  0.00     0.418 HD
ENDBRANCH   4   7
TORSDOF 1
ENDMDL
