MODEL 1
REMARK minimizedAffinity -3.79308438
REMARK minimizedRMSD -1
REMARK  1 active torsions:
REMARK  status: ('A' for Active; 'I' for Inactive)
REMARK    1  A    between atoms: C3_4  and  O_7 
ROOT
ATOM      1  C   UNL d   1       1.159   2.579   1.382  0.00  0.00    -0.033 A 
ATOM      2  C1  UNL d   1       0.423   1.847   2.316  0.00  0.00     0.039 A 
ATOM      3  C2  UNL d   1      -0.107   0.602   1.970  0.00  0.00    -0.080 A 
ATOM      4  C3  UNL d   1       0.108   0.101   0.689  0.00  0.00     0.150 A 
ATOM      5  C4  UNL d   1       0.843   0.823  -0.245  0.00  0.00    -0.007 A 
ATOM      6  C5  UNL d   1       1.370   2.066   0.102  0.00  0.00     0.039 A 
ENDROOT
BRANCH   4   7
ATOM      7  O   UNL d   1      -0.393  -1.107   0.304  0.00  0.00    -0.526 OA
ATOM      8  H5  UNL d   1      -0.903  -1.479   1.043  0.00  0.00     0.418 HD
ENDBRANCH   4   7
TORSDOF 1
ENDMDL
