MODEL 1
REMARK minimizedAffinity -4.15771723
REMARK minimizedRMSD -1
REMARK  1 active torsions:
REMARK  status: ('A' for Active; 'I' for Inactive)
REMARK    1  A    between atoms: C3_4  and  O_7 
ROOT
ATOM      1  C   UNL d   1       0.130  -0.379   0.078  0.00  0.00    -0.033 A 
ATOM      2  C1  UNL d   1       1.182   0.366  -0.460  0.00  0.00     0.039 A 
ATOM      3  C2  UNL d   1       1.460   1.642   0.033  0.00  0.00    -0.080 A 
ATOM      4  C3  UNL d   1       0.680   2.161   1.064  0.00  0.00     0.150 A 
ATOM      5  C4  UNL d   1      -0.366   1.423   1.607  0.00  0.00    -0.007 A 
ATOM      6  C5  UNL d   1      -0.643   0.149   1.112  0.00  0.00     0.039 A 
ENDROOT
BRANCH   4   7
ATOM      7  O   UNL d   1       0.911   3.404   1.575  0.00  0.00    -0.526 OA
ATOM      8  H5  UNL d   1       1.646   3.807   1.083  0.00  0.00     0.418 HD
ENDBRANCH   4   7
TORSDOF 1
ENDMDL
