MODEL 1
REMARK minimizedAffinity -2.5525887
REMARK minimizedRMSD -1
REMARK  1 active torsions:
REMARK  status: ('A' for Active; 'I' for Inactive)
REMARK    1  A    between atoms: C3_4  and  O_7 
ROOT
ATOM      1  C   UNL d   1       1.123  -0.373  -1.032  0.00  0.00    -0.033 A 
ATOM      2  C1  UNL d   1       0.012   0.080  -0.318  0.00  0.00     0.039 A 
ATOM      3  C2  UNL d   1       0.085   1.268   0.412  0.00  0.00    -0.080 A 
ATOM      4  C3  UNL d   1       1.274   1.993   0.419  0.00  0.00     0.150 A 
ATOM      5  C4  UNL d   1       2.383   1.549  -0.294  0.00  0.00    -0.007 A 
ATOM      6  C5  UNL d   1       2.308   0.362  -1.021  0.00  0.00     0.039 A 
ENDROOT
BRANCH   4   7
ATOM      7  O   UNL d   1       1.395   3.155   1.120  0.00  0.00    -0.526 OA
ATOM      8  H5  UNL d   1       0.559   3.323   1.586  0.00  0.00     0.418 HD
ENDBRANCH   4   7
TORSDOF 1
ENDMDL
