MODEL 1
REMARK minimizedAffinity -3.54868412
REMARK minimizedRMSD -1
REMARK  1 active torsions:
REMARK  status: ('A' for Active; 'I' for Inactive)
REMARK    1  A    between atoms: C3_4  and  O_7 
ROOT
ATOM      1  C   UNL d   1      -1.458  -1.738   2.796  0.00  0.00    -0.033 A 
ATOM      2  C1  UNL d   1      -1.330  -0.486   2.191  0.00  0.00     0.039 A 
ATOM      3  C2  UNL d   1      -0.972  -0.393   0.845  0.00  0.00    -0.080 A 
ATOM      4  C3  UNL d   1      -0.746  -1.557   0.115  0.00  0.00     0.150 A 
ATOM      5  C4  UNL d   1      -0.876  -2.807   0.710  0.00  0.00    -0.007 A 
ATOM      6  C5  UNL d   1      -1.232  -2.899   2.055  0.00  0.00     0.039 A 
ENDROOT
BRANCH   4   7
ATOM      7  O   UNL d   1      -0.390  -1.516  -1.200  0.00  0.00    -0.526 OA
ATOM      8  H5  UNL d   1      -0.310  -0.585  -1.468  0.00  0.00     0.418 HD
ENDBRANCH   4   7
TORSDOF 1
ENDMDL
