MODEL 1
REMARK minimizedAffinity -2.99589896
REMARK minimizedRMSD -1
REMARK  1 active torsions:
REMARK  status: ('A' for Active; 'I' for Inactive)
REMARK    1  A    between atoms: C3_4  and  O_7 
ROOT
ATOM      1  C   UNL d   1       1.822   1.534  -0.827  0.00  0.00    -0.033 A 
ATOM      2  C1  UNL d   1       1.109   0.401  -0.432  0.00  0.00     0.039 A 
ATOM      3  C2  UNL d   1       0.337   0.429   0.731  0.00  0.00    -0.080 A 
ATOM      4  C3  UNL d   1       0.286   1.596   1.489  0.00  0.00     0.150 A 
ATOM      5  C4  UNL d   1       0.991   2.730   1.099  0.00  0.00    -0.007 A 
ATOM      6  C5  UNL d   1       1.762   2.699  -0.062  0.00  0.00     0.039 A 
ENDROOT
BRANCH   4   7
ATOM      7  O   UNL d   1      -0.449   1.670   2.634  0.00  0.00    -0.526 OA
ATOM      8  H5  UNL d   1      -0.859   0.804   2.794  0.00  0.00     0.418 HD
ENDBRANCH   4   7
TORSDOF 1
ENDMDL
