MODEL 1
REMARK minimizedAffinity -4.80863285
REMARK minimizedRMSD -1
REMARK  1 active torsions:
REMARK  status: ('A' for Active; 'I' for Inactive)
REMARK    1  A    between atoms: C3_4  and  O_7 
ROOT
ATOM      1  C   UNL d   1       0.949   2.253   1.191  0.00  0.00    -0.033 A 
ATOM      2  C1  UNL d   1      -0.213   1.654   1.683  0.00  0.00     0.039 A 
ATOM      3  C2  UNL d   1      -0.648   0.435   1.159  0.00  0.00    -0.080 A 
ATOM      4  C3  UNL d   1       0.087  -0.175   0.146  0.00  0.00     0.150 A 
ATOM      5  C4  UNL d   1       1.248   0.414  -0.345  0.00  0.00    -0.007 A 
ATOM      6  C5  UNL d   1       1.680   1.631   0.178  0.00  0.00     0.039 A 
ENDROOT
BRANCH   4   7
ATOM      7  O   UNL d   1      -0.301  -1.362  -0.399  0.00  0.00    -0.526 OA
ATOM      8  H5  UNL d   1      -1.134  -1.635   0.018  0.00  0.00     0.418 HD
ENDBRANCH   4   7
TORSDOF 1
ENDMDL
