MODEL 1
REMARK minimizedAffinity -4.42119646
REMARK minimizedRMSD -1
REMARK  1 active torsions:
REMARK  status: ('A' for Active; 'I' for Inactive)
REMARK    1  A    between atoms: C3_4  and  O_7 
ROOT
ATOM      1  C   UNL d   1       1.089   2.554   1.424  0.00  0.00    -0.033 A 
ATOM      2  C1  UNL d   1      -0.089   1.922   1.824  0.00  0.00     0.039 A 
ATOM      3  C2  UNL d   1      -0.482   0.726   1.220  0.00  0.00    -0.080 A 
ATOM      4  C3  UNL d   1       0.311   0.173   0.219  0.00  0.00     0.150 A 
ATOM      5  C4  UNL d   1       1.489   0.796  -0.182  0.00  0.00    -0.007 A 
ATOM      6  C5  UNL d   1       1.879   1.990   0.421  0.00  0.00     0.039 A 
ENDROOT
BRANCH   4   7
ATOM      7  O   UNL d   1      -0.033  -0.990  -0.403  0.00  0.00    -0.526 OA
ATOM      8  H5  UNL d   1      -0.884  -1.291  -0.043  0.00  0.00     0.418 HD
ENDBRANCH   4   7
TORSDOF 1
ENDMDL
