MODEL 1
REMARK minimizedAffinity -4.61608028
REMARK minimizedRMSD -1
REMARK  1 active torsions:
REMARK  status: ('A' for Active; 'I' for Inactive)
REMARK    1  A    between atoms: C3_4  and  O_7 
ROOT
ATOM      1  C   UNL d   1       0.254  -0.267  -0.085  0.00  0.00    -0.033 A 
ATOM      2  C1  UNL d   1       1.348   0.389  -0.652  0.00  0.00     0.039 A 
ATOM      3  C2  UNL d   1       1.763   1.623  -0.148  0.00  0.00    -0.080 A 
ATOM      4  C3  UNL d   1       1.077   2.189   0.923  0.00  0.00     0.150 A 
ATOM      5  C4  UNL d   1      -0.012   1.539   1.496  0.00  0.00    -0.007 A 
ATOM      6  C5  UNL d   1      -0.425   0.307   0.990  0.00  0.00     0.039 A 
ENDROOT
BRANCH   4   7
ATOM      7  O   UNL d   1       1.441   3.394   1.447  0.00  0.00    -0.526 OA
ATOM      8  H5  UNL d   1       2.191   3.738   0.932  0.00  0.00     0.418 HD
ENDBRANCH   4   7
TORSDOF 1
ENDMDL
