MODEL 1
REMARK minimizedAffinity -2.40899968
REMARK minimizedRMSD -1
REMARK  1 active torsions:
REMARK  status: ('A' for Active; 'I' for Inactive)
REMARK    1  A    between atoms: C3_4  and  O_7 
ROOT
ATOM      1  C   UNL d   1      -2.104  -3.717  -0.991  0.00  0.00    -0.033 A 
ATOM      2  C1  UNL d   1      -2.009  -2.519  -1.701  0.00  0.00     0.039 A 
ATOM      3  C2  UNL d   1      -0.780  -1.865  -1.809  0.00  0.00    -0.080 A 
ATOM      4  C3  UNL d   1       0.344  -2.420  -1.204  0.00  0.00     0.150 A 
ATOM      5  C4  UNL d   1       0.257  -3.615  -0.498  0.00  0.00    -0.007 A 
ATOM      6  C5  UNL d   1      -0.971  -4.266  -0.391  0.00  0.00     0.039 A 
ENDROOT
BRANCH   4   7
ATOM      7  O   UNL d   1       1.564  -1.816  -1.278  0.00  0.00    -0.526 OA
ATOM      8  H5  UNL d   1       1.467  -0.985  -1.772  0.00  0.00     0.418 HD
ENDBRANCH   4   7
TORSDOF 1
ENDMDL
