MODEL 1
REMARK minimizedAffinity -2.56352663
REMARK minimizedRMSD -1
REMARK  1 active torsions:
REMARK  status: ('A' for Active; 'I' for Inactive)
REMARK    1  A    between atoms: C3_4  and  O_7 
ROOT
ATOM      1  C   UNL d   1      -2.762  -3.027  -1.865  0.00  0.00    -0.033 A 
ATOM      2  C1  UNL d   1      -2.325  -2.076  -2.788  0.00  0.00     0.039 A 
ATOM      3  C2  UNL d   1      -1.219  -1.275  -2.497  0.00  0.00    -0.080 A 
ATOM      4  C3  UNL d   1      -0.560  -1.435  -1.282  0.00  0.00     0.150 A 
ATOM      5  C4  UNL d   1      -0.988  -2.384  -0.359  0.00  0.00    -0.007 A 
ATOM      6  C5  UNL d   1      -2.093  -3.182  -0.650  0.00  0.00     0.039 A 
ENDROOT
BRANCH   4   7
ATOM      7  O   UNL d   1       0.521  -0.673  -0.951  0.00  0.00    -0.526 OA
ATOM      8  H5  UNL d   1       0.685  -0.042  -1.672  0.00  0.00     0.418 HD
ENDBRANCH   4   7
TORSDOF 1
ENDMDL
