MODEL 1
REMARK minimizedAffinity -1.20114851
REMARK minimizedRMSD -1
REMARK  1 active torsions:
REMARK  status: ('A' for Active; 'I' for Inactive)
REMARK    1  A    between atoms: C3_4  and  O_7 
ROOT
ATOM      1  C   UNL d   1       2.176   1.131  -0.515  0.00  0.00    -0.033 A 
ATOM      2  C1  UNL d   1       0.889   1.576  -0.209  0.00  0.00     0.039 A 
ATOM      3  C2  UNL d   1      -0.215   0.764  -0.477  0.00  0.00    -0.080 A 
ATOM      4  C3  UNL d   1      -0.018  -0.490  -1.049  0.00  0.00     0.150 A 
ATOM      5  C4  UNL d   1       1.262  -0.942  -1.353  0.00  0.00    -0.007 A 
ATOM      6  C5  UNL d   1       2.363  -0.129  -1.086  0.00  0.00     0.039 A 
ENDROOT
BRANCH   4   7
ATOM      7  O   UNL d   1      -1.064  -1.316  -1.333  0.00  0.00    -0.526 OA
ATOM      8  H5  UNL d   1      -1.889  -0.861  -1.096  0.00  0.00     0.418 HD
ENDBRANCH   4   7
TORSDOF 1
ENDMDL
