MODEL 1
REMARK minimizedAffinity -3.25466776
REMARK minimizedRMSD -1
REMARK  1 active torsions:
REMARK  status: ('A' for Active; 'I' for Inactive)
REMARK    1  A    between atoms: C3_4  and  O_7 
ROOT
ATOM      1  C   UNL d   1       0.279   2.865   1.335  0.00  0.00    -0.033 A 
ATOM      2  C1  UNL d   1      -0.267   1.881   2.162  0.00  0.00     0.039 A 
ATOM      3  C2  UNL d   1      -0.366   0.564   1.710  0.00  0.00    -0.080 A 
ATOM      4  C3  UNL d   1       0.086   0.244   0.433  0.00  0.00     0.150 A 
ATOM      5  C4  UNL d   1       0.635   1.218  -0.394  0.00  0.00    -0.007 A 
ATOM      6  C5  UNL d   1       0.732   2.533   0.058  0.00  0.00     0.039 A 
ENDROOT
BRANCH   4   7
ATOM      7  O   UNL d   1       0.007  -1.028  -0.054  0.00  0.00    -0.526 OA
ATOM      8  H5  UNL d   1      -0.420  -1.587   0.616  0.00  0.00     0.418 HD
ENDBRANCH   4   7
TORSDOF 1
ENDMDL
