MODEL 1
REMARK minimizedAffinity -5.15791512
REMARK minimizedRMSD -1
REMARK  1 active torsions:
REMARK  status: ('A' for Active; 'I' for Inactive)
REMARK    1  A    between atoms: C3_4  and  O_7 
ROOT
ATOM      1  C   UNL d   1       2.449   2.297   0.798  0.00  0.00    -0.033 A 
ATOM      2  C1  UNL d   1       2.895   1.294  -0.064  0.00  0.00     0.039 A 
ATOM      3  C2  UNL d   1       2.017   0.295  -0.490  0.00  0.00    -0.080 A 
ATOM      4  C3  UNL d   1       0.697   0.312  -0.048  0.00  0.00     0.150 A 
ATOM      5  C4  UNL d   1       0.244   1.311   0.808  0.00  0.00    -0.007 A 
ATOM      6  C5  UNL d   1       1.123   2.307   1.233  0.00  0.00     0.039 A 
ENDROOT
BRANCH   4   7
ATOM      7  O   UNL d   1      -0.196  -0.644  -0.432  0.00  0.00    -0.526 OA
ATOM      8  H5  UNL d   1       0.264  -1.284  -1.000  0.00  0.00     0.418 HD
ENDBRANCH   4   7
TORSDOF 1
ENDMDL
