MODEL 1
REMARK minimizedAffinity -4.71531248
REMARK minimizedRMSD -1
REMARK  1 active torsions:
REMARK  status: ('A' for Active; 'I' for Inactive)
REMARK    1  A    between atoms: C3_4  and  O_7 
ROOT
ATOM      1  C   UNL d   1       0.980   2.687   1.261  0.00  0.00    -0.033 A 
ATOM      2  C1  UNL d   1       1.676   2.220   0.145  0.00  0.00     0.039 A 
ATOM      3  C2  UNL d   1       1.372   0.970  -0.397  0.00  0.00    -0.080 A 
ATOM      4  C3  UNL d   1       0.370   0.198   0.185  0.00  0.00     0.150 A 
ATOM      5  C4  UNL d   1      -0.330   0.659   1.295  0.00  0.00    -0.007 A 
ATOM      6  C5  UNL d   1      -0.025   1.907   1.836  0.00  0.00     0.039 A 
ENDROOT
BRANCH   4   7
ATOM      7  O   UNL d   1       0.041  -1.030  -0.305  0.00  0.00    -0.526 OA
ATOM      8  H5  UNL d   1       0.627  -1.230  -1.054  0.00  0.00     0.418 HD
ENDBRANCH   4   7
TORSDOF 1
ENDMDL
