MODEL 1
REMARK minimizedAffinity -3.2632103
REMARK minimizedRMSD -1
REMARK  1 active torsions:
REMARK  status: ('A' for Active; 'I' for Inactive)
REMARK    1  A    between atoms: C3_4  and  O_7 
ROOT
ATOM      1  C   UNL d   1       0.651  -0.315  -0.319  0.00  0.00    -0.033 A 
ATOM      2  C1  UNL d   1      -0.186   0.033   0.743  0.00  0.00     0.039 A 
ATOM      3  C2  UNL d   1      -0.114   1.312   1.300  0.00  0.00    -0.080 A 
ATOM      4  C3  UNL d   1       0.797   2.231   0.786  0.00  0.00     0.150 A 
ATOM      5  C4  UNL d   1       1.631   1.891  -0.274  0.00  0.00    -0.007 A 
ATOM      6  C5  UNL d   1       1.558   0.614  -0.829  0.00  0.00     0.039 A 
ENDROOT
BRANCH   4   7
ATOM      7  O   UNL d   1       0.907   3.488   1.300  0.00  0.00    -0.526 OA
ATOM      8  H5  UNL d   1       0.289   3.571   2.046  0.00  0.00     0.418 HD
ENDBRANCH   4   7
TORSDOF 1
ENDMDL
