MODEL 1
REMARK minimizedAffinity -4.10055256
REMARK minimizedRMSD -1
REMARK  1 active torsions:
REMARK  status: ('A' for Active; 'I' for Inactive)
REMARK    1  A    between atoms: C3_4  and  O_7 
ROOT
ATOM      1  C   UNL d   1       0.895  -1.276  -0.865  0.00  0.00    -0.033 A 
ATOM      2  C1  UNL d   1      -0.222  -0.813  -0.166  0.00  0.00     0.039 A 
ATOM      3  C2  UNL d   1      -0.209   0.458   0.411  0.00  0.00    -0.080 A 
ATOM      4  C3  UNL d   1       0.925   1.256   0.281  0.00  0.00     0.150 A 
ATOM      5  C4  UNL d   1       2.039   0.803  -0.417  0.00  0.00    -0.007 A 
ATOM      6  C5  UNL d   1       2.025  -0.467  -0.991  0.00  0.00     0.039 A 
ENDROOT
BRANCH   4   7
ATOM      7  O   UNL d   1       0.986   2.502   0.831  0.00  0.00    -0.526 OA
ATOM      8  H5  UNL d   1       0.155   2.669   1.307  0.00  0.00     0.418 HD
ENDBRANCH   4   7
TORSDOF 1
ENDMDL
