MODEL 1
REMARK minimizedAffinity -4.1283989
REMARK minimizedRMSD -1
REMARK  1 active torsions:
REMARK  status: ('A' for Active; 'I' for Inactive)
REMARK    1  A    between atoms: C3_4  and  O_7 
ROOT
ATOM      1  C   UNL d   1       0.406  -0.244  -0.046  0.00  0.00    -0.033 A 
ATOM      2  C1  UNL d   1       1.342   0.483  -0.785  0.00  0.00     0.039 A 
ATOM      3  C2  UNL d   1       1.823   1.700  -0.299  0.00  0.00    -0.080 A 
ATOM      4  C3  UNL d   1       1.362   2.178   0.924  0.00  0.00     0.150 A 
ATOM      5  C4  UNL d   1       0.433   1.457   1.667  0.00  0.00    -0.007 A 
ATOM      6  C5  UNL d   1      -0.047   0.242   1.180  0.00  0.00     0.039 A 
ENDROOT
BRANCH   4   7
ATOM      7  O   UNL d   1       1.799   3.364   1.436  0.00  0.00    -0.526 OA
ATOM      8  H5  UNL d   1       2.416   3.765   0.801  0.00  0.00     0.418 HD
ENDBRANCH   4   7
TORSDOF 1
ENDMDL
