MODEL 1
REMARK minimizedAffinity 7.67441797
REMARK minimizedRMSD -1
REMARK  0 active torsions:
REMARK  status: ('A' for Active; 'I' for Inactive)
ROOT
ATOM      1  C   UNL d   1       1.552   1.062   0.303  0.00  0.00     0.124 A 
ATOM      2  C1  UNL d   1       0.726  -0.021   0.569  0.00  0.00     0.062 A 
ATOM      3  C2  UNL d   1      -0.024  -0.597  -0.453  0.00  0.00     0.162 A 
ATOM      4  C3  UNL d   1       0.050  -0.092  -1.751  0.00  0.00    -0.034 A 
ATOM      5  C4  UNL d   1       0.883   0.998  -2.011  0.00  0.00     0.162 A 
ATOM      6  C5  UNL d   1       1.630   1.570  -0.986  0.00  0.00     0.062 A 
ATOM      7  F   UNL d   1       2.428   2.616  -1.245  0.00  0.00    -0.097 F 
ATOM      8  F1  UNL d   1       0.978   1.509  -3.247  0.00  0.00    -0.096 F 
ATOM      9  I   UNL d   1      -1.069  -0.950  -3.281  0.00  0.00    -0.060 I 
ATOM     10  F2  UNL d   1      -0.814  -1.642  -0.167  0.00  0.00    -0.096 F 
ATOM     11  F3  UNL d   1       0.648  -0.513   1.813  0.00  0.00    -0.097 F 
ATOM     12  F4  UNL d   1       2.272   1.615   1.288  0.00  0.00    -0.092 F 
ENDROOT
TORSDOF 0
ENDMDL
