MODEL 1
REMARK minimizedAffinity 11.3487415
REMARK minimizedRMSD -1
REMARK  0 active torsions:
REMARK  status: ('A' for Active; 'I' for Inactive)
ROOT
ATOM      1  C   UNL d   1      -0.164  -0.166   1.594  0.00  0.00     0.124 A 
ATOM      2  C1  UNL d   1      -0.372   0.761   2.605  0.00  0.00     0.062 A 
ATOM      3  C2  UNL d   1       0.707   1.264   3.327  0.00  0.00     0.162 A 
ATOM      4  C3  UNL d   1       2.005   0.840   3.040  0.00  0.00    -0.034 A 
ATOM      5  C4  UNL d   1       2.206  -0.094   2.021  0.00  0.00     0.162 A 
ATOM      6  C5  UNL d   1       1.124  -0.593   1.303  0.00  0.00     0.062 A 
ATOM      7  F   UNL d   1       1.327  -1.489   0.326  0.00  0.00    -0.097 F 
ATOM      8  F1  UNL d   1       3.440  -0.523   1.719  0.00  0.00    -0.096 F 
ATOM      9  I   UNL d   1       3.621   1.589   4.117  0.00  0.00    -0.060 I 
ATOM     10  F2  UNL d   1       0.477   2.159   4.299  0.00  0.00    -0.096 F 
ATOM     11  F3  UNL d   1      -1.615   1.174   2.889  0.00  0.00    -0.097 F 
ATOM     12  F4  UNL d   1      -1.204  -0.648   0.902  0.00  0.00    -0.092 F 
ENDROOT
TORSDOF 0
ENDMDL
