MODEL 1
REMARK minimizedAffinity 17.4081154
REMARK minimizedRMSD -1
REMARK  0 active torsions:
REMARK  status: ('A' for Active; 'I' for Inactive)
ROOT
ATOM      1  C   UNL d   1      -1.094   0.352   1.937  0.00  0.00     0.124 A 
ATOM      2  C1  UNL d   1       0.054   0.913   2.477  0.00  0.00     0.062 A 
ATOM      3  C2  UNL d   1       1.309   0.508   2.031  0.00  0.00     0.162 A 
ATOM      4  C3  UNL d   1       1.422  -0.463   1.036  0.00  0.00    -0.034 A 
ATOM      5  C4  UNL d   1       0.262  -1.024   0.498  0.00  0.00     0.162 A 
ATOM      6  C5  UNL d   1      -0.989  -0.616   0.948  0.00  0.00     0.062 A 
ATOM      7  F   UNL d   1      -2.097  -1.160   0.424  0.00  0.00    -0.097 F 
ATOM      8  F1  UNL d   1       0.335  -1.961  -0.460  0.00  0.00    -0.096 F 
ATOM      9  I   UNL d   1       3.296  -1.072   0.365  0.00  0.00    -0.060 I 
ATOM     10  F2  UNL d   1       2.402   1.068   2.571  0.00  0.00    -0.096 F 
ATOM     11  F3  UNL d   1      -0.044   1.848   3.434  0.00  0.00    -0.097 F 
ATOM     12  F4  UNL d   1      -2.300   0.742   2.369  0.00  0.00    -0.092 F 
ENDROOT
TORSDOF 0
ENDMDL
