MODEL 1
REMARK minimizedAffinity 24.9968109
REMARK minimizedRMSD -1
REMARK  0 active torsions:
REMARK  status: ('A' for Active; 'I' for Inactive)
ROOT
ATOM      1  C   UNL d   1       1.207   0.416   2.981  0.00  0.00     0.124 A 
ATOM      2  C1  UNL d   1       1.049  -0.952   3.158  0.00  0.00     0.062 A 
ATOM      3  C2  UNL d   1      -0.174  -1.556   2.882  0.00  0.00     0.162 A 
ATOM      4  C3  UNL d   1      -1.249  -0.794   2.425  0.00  0.00    -0.034 A 
ATOM      5  C4  UNL d   1      -1.083   0.581   2.251  0.00  0.00     0.162 A 
ATOM      6  C5  UNL d   1       0.141   1.181   2.528  0.00  0.00     0.062 A 
ATOM      7  F   UNL d   1       0.292   2.502   2.356  0.00  0.00    -0.097 F 
ATOM      8  F1  UNL d   1      -2.096   1.344   1.813  0.00  0.00    -0.096 F 
ATOM      9  I   UNL d   1      -3.080  -1.694   2.012  0.00  0.00    -0.060 I 
ATOM     10  F2  UNL d   1      -0.299  -2.880   3.062  0.00  0.00    -0.096 F 
ATOM     11  F3  UNL d   1       2.076  -1.693   3.597  0.00  0.00    -0.097 F 
ATOM     12  F4  UNL d   1       2.384   0.995   3.248  0.00  0.00    -0.092 F 
ENDROOT
TORSDOF 0
ENDMDL
