MODEL 1
REMARK minimizedAffinity 15.5491095
REMARK minimizedRMSD -1
REMARK  0 active torsions:
REMARK  status: ('A' for Active; 'I' for Inactive)
ROOT
ATOM      1  C   UNL d   1      -0.380   1.588   3.637  0.00  0.00     0.124 A 
ATOM      2  C1  UNL d   1       0.999   1.733   3.604  0.00  0.00     0.062 A 
ATOM      3  C2  UNL d   1       1.750   1.072   2.636  0.00  0.00     0.162 A 
ATOM      4  C3  UNL d   1       1.122   0.260   1.692  0.00  0.00    -0.034 A 
ATOM      5  C4  UNL d   1      -0.266   0.118   1.732  0.00  0.00     0.162 A 
ATOM      6  C5  UNL d   1      -1.012   0.781   2.701  0.00  0.00     0.062 A 
ATOM      7  F   UNL d   1      -2.345   0.639   2.731  0.00  0.00    -0.097 F 
ATOM      8  F1  UNL d   1      -0.902  -0.655   0.839  0.00  0.00    -0.096 F 
ATOM      9  I   UNL d   1       2.241  -0.730   0.243  0.00  0.00    -0.060 I 
ATOM     10  F2  UNL d   1       3.082   1.231   2.628  0.00  0.00    -0.096 F 
ATOM     11  F3  UNL d   1       1.612   2.512   4.508  0.00  0.00    -0.097 F 
ATOM     12  F4  UNL d   1      -1.100   2.224   4.570  0.00  0.00    -0.092 F 
ENDROOT
TORSDOF 0
ENDMDL
