MODEL 1
REMARK minimizedAffinity 16.0923901
REMARK minimizedRMSD -1
REMARK  0 active torsions:
REMARK  status: ('A' for Active; 'I' for Inactive)
ROOT
ATOM      1  C   UNL d   1      -0.168   1.856   4.085  0.00  0.00     0.124 A 
ATOM      2  C1  UNL d   1      -0.875   1.045   3.208  0.00  0.00     0.062 A 
ATOM      3  C2  UNL d   1      -0.202   0.308   2.238  0.00  0.00     0.162 A 
ATOM      4  C3  UNL d   1       1.188   0.379   2.139  0.00  0.00    -0.034 A 
ATOM      5  C4  UNL d   1       1.892   1.198   3.024  0.00  0.00     0.162 A 
ATOM      6  C5  UNL d   1       1.214   1.932   3.992  0.00  0.00     0.062 A 
ATOM      7  F   UNL d   1       1.899   2.716   4.838  0.00  0.00    -0.097 F 
ATOM      8  F1  UNL d   1       3.228   1.290   2.957  0.00  0.00    -0.096 F 
ATOM      9  I   UNL d   1       2.199  -0.720   0.690  0.00  0.00    -0.060 I 
ATOM     10  F2  UNL d   1      -0.911  -0.467   1.404  0.00  0.00    -0.096 F 
ATOM     11  F3  UNL d   1      -2.211   0.970   3.296  0.00  0.00    -0.097 F 
ATOM     12  F4  UNL d   1      -0.819   2.564   5.017  0.00  0.00    -0.092 F 
ENDROOT
TORSDOF 0
ENDMDL
