MODEL 1
REMARK minimizedAffinity 22.749403
REMARK minimizedRMSD -1
REMARK  0 active torsions:
REMARK  status: ('A' for Active; 'I' for Inactive)
ROOT
ATOM      1  C   UNL d   1       4.027   1.126   4.322  0.00  0.00     0.124 A 
ATOM      2  C1  UNL d   1       2.973   1.746   4.979  0.00  0.00     0.062 A 
ATOM      3  C2  UNL d   1       1.661   1.505   4.581  0.00  0.00     0.162 A 
ATOM      4  C3  UNL d   1       1.395   0.639   3.521  0.00  0.00    -0.034 A 
ATOM      5  C4  UNL d   1       2.460   0.020   2.864  0.00  0.00     0.162 A 
ATOM      6  C5  UNL d   1       3.769   0.264   3.265  0.00  0.00     0.062 A 
ATOM      7  F   UNL d   1       4.786  -0.336   2.629  0.00  0.00    -0.097 F 
ATOM      8  F1  UNL d   1       2.240  -0.818   1.840  0.00  0.00    -0.096 F 
ATOM      9  I   UNL d   1      -0.565   0.277   2.923  0.00  0.00    -0.060 I 
ATOM     10  F2  UNL d   1       0.663   2.118   5.234  0.00  0.00    -0.096 F 
ATOM     11  F3  UNL d   1       3.219   2.580   6.000  0.00  0.00    -0.097 F 
ATOM     12  F4  UNL d   1       5.288   1.360   4.706  0.00  0.00    -0.092 F 
ENDROOT
TORSDOF 0
ENDMDL
