MODEL 1
REMARK minimizedAffinity -0.457564592
REMARK minimizedRMSD -1
REMARK  2 active torsions:
REMARK  status: ('A' for Active; 'I' for Inactive)
REMARK    1  A    between atoms: C1_2  and  C2_3 
REMARK    2  A    between atoms: C2_3  and  C3_4 
ROOT
ATOM      1  C3  UNL d   1      -3.170  -5.955  -3.690  0.00  0.00    -0.075 A 
ATOM      2  C4  UNL d   1      -1.888  -5.932  -3.122  0.00  0.00     0.002 A 
ATOM      3  C5  UNL d   1      -0.755  -5.863  -3.933  0.00  0.00     0.002 A 
ATOM      4  C6  UNL d   1      -0.888  -5.826  -5.320  0.00  0.00    -0.004 A 
ATOM      5  C7  UNL d   1      -2.157  -5.865  -5.895  0.00  0.00     0.002 A 
ATOM      6  C8  UNL d   1      -3.292  -5.930  -5.085  0.00  0.00     0.002 A 
ENDROOT
BRANCH   1   7
ATOM      7  C2  UNL d   1      -4.401  -6.000  -2.816  0.00  0.00     0.056 C 
BRANCH   7   8
ATOM      8  C1  UNL d   1      -4.287  -5.168  -1.534  0.00  0.00     0.007 C 
ATOM      9  C   UNL d   1      -4.434  -5.997  -0.266  0.00  0.00     0.009 C 
ENDBRANCH   7   8
ENDBRANCH   1   7
TORSDOF 2
ENDMDL
