MODEL 1
REMARK minimizedAffinity 6.01511192
REMARK minimizedRMSD -1
REMARK  2 active torsions:
REMARK  status: ('A' for Active; 'I' for Inactive)
REMARK    1  A    between atoms: C1_2  and  C2_3 
REMARK    2  A    between atoms: C2_3  and  C3_4 
ROOT
ATOM      1  C3  UNL d   1      -1.399  -5.835  -3.002  0.00  0.00    -0.075 A 
ATOM      2  C4  UNL d   1      -0.161  -5.510  -2.428  0.00  0.00     0.002 A 
ATOM      3  C5  UNL d   1       0.967  -5.332  -3.230  0.00  0.00     0.002 A 
ATOM      4  C6  UNL d   1       0.874  -5.486  -4.611  0.00  0.00    -0.004 A 
ATOM      5  C7  UNL d   1      -0.347  -5.825  -5.191  0.00  0.00     0.002 A 
ATOM      6  C8  UNL d   1      -1.478  -5.999  -4.391  0.00  0.00     0.002 A 
ENDROOT
BRANCH   1   7
ATOM      7  C2  UNL d   1      -2.629  -6.000  -2.142  0.00  0.00     0.056 C 
BRANCH   7   8
ATOM      8  C1  UNL d   1      -3.948  -5.910  -2.917  0.00  0.00     0.007 C 
ATOM      9  C   UNL d   1      -5.177  -5.999  -2.022  0.00  0.00     0.009 C 
ENDBRANCH   7   8
ENDBRANCH   1   7
TORSDOF 2
ENDMDL
