MODEL 1
REMARK minimizedAffinity 13.1604729
REMARK minimizedRMSD -1
REMARK  2 active torsions:
REMARK  status: ('A' for Active; 'I' for Inactive)
REMARK    1  A    between atoms: C1_2  and  C2_3 
REMARK    2  A    between atoms: C2_3  and  C3_4 
ROOT
ATOM      1  C3  UNL d   1      -2.273   2.524  -3.527  0.00  0.00    -0.075 A 
ATOM      2  C4  UNL d   1      -2.112   3.839  -3.989  0.00  0.00     0.002 A 
ATOM      3  C5  UNL d   1      -0.836   4.376  -4.166  0.00  0.00     0.002 A 
ATOM      4  C6  UNL d   1       0.291   3.612  -3.874  0.00  0.00    -0.004 A 
ATOM      5  C7  UNL d   1       0.143   2.310  -3.399  0.00  0.00     0.002 A 
ATOM      6  C8  UNL d   1      -1.132   1.768  -3.226  0.00  0.00     0.002 A 
ENDROOT
BRANCH   1   7
ATOM      7  C2  UNL d   1      -3.650   1.927  -3.362  0.00  0.00     0.056 C 
BRANCH   7   8
ATOM      8  C1  UNL d   1      -3.712   0.420  -3.632  0.00  0.00     0.007 C 
ATOM      9  C   UNL d   1      -4.832  -0.280  -2.873  0.00  0.00     0.009 C 
ENDBRANCH   7   8
ENDBRANCH   1   7
TORSDOF 2
ENDMDL
