MODEL 1
REMARK minimizedAffinity -0.54784745
REMARK minimizedRMSD -1
REMARK  2 active torsions:
REMARK  status: ('A' for Active; 'I' for Inactive)
REMARK    1  A    between atoms: C1_2  and  C2_3 
REMARK    2  A    between atoms: C2_3  and  C3_4 
ROOT
ATOM      1  C3  UNL d   1      -0.749  -5.626  -4.330  0.00  0.00    -0.075 A 
ATOM      2  C4  UNL d   1      -0.035  -5.863  -3.147  0.00  0.00     0.002 A 
ATOM      3  C5  UNL d   1      -0.704  -5.999  -1.931  0.00  0.00     0.002 A 
ATOM      4  C6  UNL d   1      -2.092  -5.888  -1.880  0.00  0.00    -0.004 A 
ATOM      5  C7  UNL d   1      -2.811  -5.636  -3.046  0.00  0.00     0.002 A 
ATOM      6  C8  UNL d   1      -2.144  -5.504  -4.266  0.00  0.00     0.002 A 
ENDROOT
BRANCH   1   7
ATOM      7  C2  UNL d   1      -0.033  -5.507  -5.655  0.00  0.00     0.056 C 
BRANCH   7   8
ATOM      8  C1  UNL d   1       1.418  -5.999  -5.625  0.00  0.00     0.007 C 
ATOM      9  C   UNL d   1       2.436  -4.873  -5.744  0.00  0.00     0.009 C 
ENDBRANCH   7   8
ENDBRANCH   1   7
TORSDOF 2
ENDMDL
