MODEL 1
REMARK minimizedAffinity 4.33478546
REMARK minimizedRMSD -1
REMARK  2 active torsions:
REMARK  status: ('A' for Active; 'I' for Inactive)
REMARK    1  A    between atoms: C1_2  and  C2_3 
REMARK    2  A    between atoms: C2_3  and  C3_4 
ROOT
ATOM      1  C3  UNL d   1      -0.123  -5.894  -3.888  0.00  0.00    -0.075 A 
ATOM      2  C4  UNL d   1      -0.782  -5.702  -5.111  0.00  0.00     0.002 A 
ATOM      3  C5  UNL d   1      -2.172  -5.583  -5.156  0.00  0.00     0.002 A 
ATOM      4  C6  UNL d   1      -2.919  -5.666  -3.983  0.00  0.00    -0.004 A 
ATOM      5  C7  UNL d   1      -2.276  -5.873  -2.764  0.00  0.00     0.002 A 
ATOM      6  C8  UNL d   1      -0.885  -5.987  -2.716  0.00  0.00     0.002 A 
ENDROOT
BRANCH   1   7
ATOM      7  C2  UNL d   1       1.383  -5.994  -3.830  0.00  0.00     0.056 C 
BRANCH   7   8
ATOM      8  C1  UNL d   1       2.107  -4.672  -4.108  0.00  0.00     0.007 C 
ATOM      9  C   UNL d   1       1.157  -3.500  -4.319  0.00  0.00     0.009 C 
ENDBRANCH   7   8
ENDBRANCH   1   7
TORSDOF 2
ENDMDL
