MODEL 1
REMARK minimizedAffinity 0.209486872
REMARK minimizedRMSD -1
REMARK  2 active torsions:
REMARK  status: ('A' for Active; 'I' for Inactive)
REMARK    1  A    between atoms: C1_2  and  C2_3 
REMARK    2  A    between atoms: C2_3  and  C3_4 
ROOT
ATOM      1  C3  UNL d   1      -1.560  -5.922  -3.488  0.00  0.00    -0.075 A 
ATOM      2  C4  UNL d   1      -0.231  -5.999  -3.048  0.00  0.00     0.002 A 
ATOM      3  C5  UNL d   1       0.823  -5.904  -3.957  0.00  0.00     0.002 A 
ATOM      4  C6  UNL d   1       0.562  -5.742  -5.316  0.00  0.00    -0.004 A 
ATOM      5  C7  UNL d   1      -0.755  -5.681  -5.766  0.00  0.00     0.002 A 
ATOM      6  C8  UNL d   1      -1.812  -5.771  -4.858  0.00  0.00     0.002 A 
ENDROOT
BRANCH   1   7
ATOM      7  C2  UNL d   1      -2.705  -5.994  -2.505  0.00  0.00     0.056 C 
BRANCH   7   8
ATOM      8  C1  UNL d   1      -4.035  -5.471  -3.057  0.00  0.00     0.007 C 
ATOM      9  C   UNL d   1      -4.126  -3.950  -3.060  0.00  0.00     0.009 C 
ENDBRANCH   7   8
ENDBRANCH   1   7
TORSDOF 2
ENDMDL
