MODEL 1
REMARK minimizedAffinity -2.17954469
REMARK minimizedRMSD -1
REMARK  2 active torsions:
REMARK  status: ('A' for Active; 'I' for Inactive)
REMARK    1  A    between atoms: C1_2  and  C2_3 
REMARK    2  A    between atoms: C2_3  and  C3_4 
ROOT
ATOM      1  C3  UNL d   1      -0.872  -5.815  -3.586  0.00  0.00    -0.075 A 
ATOM      2  C4  UNL d   1      -1.505  -5.588  -4.816  0.00  0.00     0.002 A 
ATOM      3  C5  UNL d   1      -0.767  -5.570  -6.000  0.00  0.00     0.002 A 
ATOM      4  C6  UNL d   1       0.612  -5.767  -5.967  0.00  0.00    -0.004 A 
ATOM      5  C7  UNL d   1       1.253  -5.976  -4.748  0.00  0.00     0.002 A 
ATOM      6  C8  UNL d   1       0.516  -6.000  -3.563  0.00  0.00     0.002 A 
ENDROOT
BRANCH   1   7
ATOM      7  C2  UNL d   1      -1.670  -5.865  -2.304  0.00  0.00     0.056 C 
BRANCH   7   8
ATOM      8  C1  UNL d   1      -3.000  -5.106  -2.367  0.00  0.00     0.007 C 
ATOM      9  C   UNL d   1      -4.212  -5.998  -2.136  0.00  0.00     0.009 C 
ENDBRANCH   7   8
ENDBRANCH   1   7
TORSDOF 2
ENDMDL
