MODEL 1
REMARK minimizedAffinity -0.0184141099
REMARK minimizedRMSD -1
REMARK  2 active torsions:
REMARK  status: ('A' for Active; 'I' for Inactive)
REMARK    1  A    between atoms: C1_2  and  C2_3 
REMARK    2  A    between atoms: C2_3  and  C3_4 
ROOT
ATOM      1  C3  UNL d   1      -1.126  -5.231  -3.941  0.00  0.00    -0.075 A 
ATOM      2  C4  UNL d   1      -0.023  -5.637  -3.176  0.00  0.00     0.002 A 
ATOM      3  C5  UNL d   1       1.177  -5.988  -3.795  0.00  0.00     0.002 A 
ATOM      4  C6  UNL d   1       1.286  -5.947  -5.183  0.00  0.00    -0.004 A 
ATOM      5  C7  UNL d   1       0.192  -5.561  -5.954  0.00  0.00     0.002 A 
ATOM      6  C8  UNL d   1      -1.009  -5.205  -5.337  0.00  0.00     0.002 A 
ENDROOT
BRANCH   1   7
ATOM      7  C2  UNL d   1      -2.419  -4.822  -3.275  0.00  0.00     0.056 C 
BRANCH   7   8
ATOM      8  C1  UNL d   1      -3.319  -5.999  -2.885  0.00  0.00     0.007 C 
ATOM      9  C   UNL d   1      -4.084  -5.766  -1.589  0.00  0.00     0.009 C 
ENDBRANCH   7   8
ENDBRANCH   1   7
TORSDOF 2
ENDMDL
