MODEL 1
REMARK minimizedAffinity 2.787884
REMARK minimizedRMSD -1
REMARK  2 active torsions:
REMARK  status: ('A' for Active; 'I' for Inactive)
REMARK    1  A    between atoms: C1_2  and  C2_3 
REMARK    2  A    between atoms: C2_3  and  C3_4 
ROOT
ATOM      1  C3  UNL d   1       0.326  -2.197   1.668  0.00  0.00    -0.075 A 
ATOM      2  C4  UNL d   1      -0.684  -2.221   0.695  0.00  0.00     0.002 A 
ATOM      3  C5  UNL d   1      -1.844  -2.970   0.895  0.00  0.00     0.002 A 
ATOM      4  C6  UNL d   1      -2.004  -3.712   2.064  0.00  0.00    -0.004 A 
ATOM      5  C7  UNL d   1      -1.000  -3.709   3.030  0.00  0.00     0.002 A 
ATOM      6  C8  UNL d   1       0.159  -2.957   2.834  0.00  0.00     0.002 A 
ENDROOT
BRANCH   1   7
ATOM      7  C2  UNL d   1       1.570  -1.365   1.470  0.00  0.00     0.056 C 
BRANCH   7   8
ATOM      8  C1  UNL d   1       1.326   0.146   1.526  0.00  0.00     0.007 C 
ATOM      9  C   UNL d   1       1.513   0.835   0.181  0.00  0.00     0.009 C 
ENDBRANCH   7   8
ENDBRANCH   1   7
TORSDOF 2
ENDMDL
