MODEL 1
REMARK minimizedAffinity -0.295109153
REMARK minimizedRMSD -1
REMARK  2 active torsions:
REMARK  status: ('A' for Active; 'I' for Inactive)
REMARK    1  A    between atoms: C1_2  and  C2_3 
REMARK    2  A    between atoms: C2_3  and  C3_4 
ROOT
ATOM      1  C3  UNL d   1      -0.021   3.070  -1.528  0.00  0.00    -0.075 A 
ATOM      2  C4  UNL d   1       0.895   3.223  -2.579  0.00  0.00     0.002 A 
ATOM      3  C5  UNL d   1       0.448   3.465  -3.879  0.00  0.00     0.002 A 
ATOM      4  C6  UNL d   1      -0.917   3.548  -4.145  0.00  0.00    -0.004 A 
ATOM      5  C7  UNL d   1      -1.836   3.382  -3.111  0.00  0.00     0.002 A 
ATOM      6  C8  UNL d   1      -1.391   3.143  -1.810  0.00  0.00     0.002 A 
ENDROOT
BRANCH   1   7
ATOM      7  C2  UNL d   1       0.457   2.837  -0.115  0.00  0.00     0.056 C 
BRANCH   7   8
ATOM      8  C1  UNL d   1       0.090   1.460   0.448  0.00  0.00     0.007 C 
ATOM      9  C   UNL d   1       1.189   0.422   0.262  0.00  0.00     0.009 C 
ENDBRANCH   7   8
ENDBRANCH   1   7
TORSDOF 2
ENDMDL
