MODEL 1
REMARK minimizedAffinity 3.82307506
REMARK minimizedRMSD -1
REMARK  2 active torsions:
REMARK  status: ('A' for Active; 'I' for Inactive)
REMARK    1  A    between atoms: C1_2  and  C2_3 
REMARK    2  A    between atoms: C2_3  and  C3_4 
ROOT
ATOM      1  C3  UNL d   1      -1.521  -5.761  -3.086  0.00  0.00    -0.075 A 
ATOM      2  C4  UNL d   1      -2.140  -6.000  -4.322  0.00  0.00     0.002 A 
ATOM      3  C5  UNL d   1      -1.422  -5.867  -5.511  0.00  0.00     0.002 A 
ATOM      4  C6  UNL d   1      -0.083  -5.484  -5.481  0.00  0.00    -0.004 A 
ATOM      5  C7  UNL d   1       0.537  -5.228  -4.260  0.00  0.00     0.002 A 
ATOM      6  C8  UNL d   1      -0.178  -5.364  -3.068  0.00  0.00     0.002 A 
ENDROOT
BRANCH   1   7
ATOM      7  C2  UNL d   1      -2.284  -5.932  -1.794  0.00  0.00     0.056 C 
BRANCH   7   8
ATOM      8  C1  UNL d   1      -3.584  -5.123  -1.726  0.00  0.00     0.007 C 
ATOM      9  C   UNL d   1      -4.830  -5.995  -1.652  0.00  0.00     0.009 C 
ENDBRANCH   7   8
ENDBRANCH   1   7
TORSDOF 2
ENDMDL
