MODEL 1
REMARK minimizedAffinity 1.34050167
REMARK minimizedRMSD -1
REMARK  2 active torsions:
REMARK  status: ('A' for Active; 'I' for Inactive)
REMARK    1  A    between atoms: C1_2  and  C2_3 
REMARK    2  A    between atoms: C2_3  and  C3_4 
ROOT
ATOM      1  C3  UNL d   1      -1.059  -5.994  -4.196  0.00  0.00    -0.075 A 
ATOM      2  C4  UNL d   1      -2.461  -6.000  -4.222  0.00  0.00     0.002 A 
ATOM      3  C5  UNL d   1      -3.192  -5.989  -3.034  0.00  0.00     0.002 A 
ATOM      4  C6  UNL d   1      -2.532  -5.982  -1.807  0.00  0.00    -0.004 A 
ATOM      5  C7  UNL d   1      -1.139  -5.993  -1.769  0.00  0.00     0.002 A 
ATOM      6  C8  UNL d   1      -0.406  -6.000  -2.957  0.00  0.00     0.002 A 
ENDROOT
BRANCH   1   7
ATOM      7  C2  UNL d   1      -0.263  -5.976  -5.479  0.00  0.00     0.056 C 
BRANCH   7   8
ATOM      8  C1  UNL d   1       1.255  -5.966  -5.271  0.00  0.00     0.007 C 
ATOM      9  C   UNL d   1       1.798  -4.599  -4.877  0.00  0.00     0.009 C 
ENDBRANCH   7   8
ENDBRANCH   1   7
TORSDOF 2
ENDMDL
