MODEL 1
REMARK minimizedAffinity 0.886478662
REMARK minimizedRMSD -1
REMARK  1 active torsions:
REMARK  status: ('A' for Active; 'I' for Inactive)
REMARK    1  A    between atoms: C1_2  and  C2_3 
ROOT
ATOM      1  C2  UNL d   1       3.704   4.032  -4.129  0.00  0.00    -0.076 A 
ATOM      2  C3  UNL d   1       3.295   5.282  -4.624  0.00  0.00     0.004 A 
ATOM      3  C4  UNL d   1       4.094   5.998  -5.514  0.00  0.00    -0.003 A 
ATOM      4  C5  UNL d   1       5.314   5.474  -5.925  0.00  0.00     0.000 A 
ATOM      5  C6  UNL d   1       5.728   4.226  -5.459  0.00  0.00     0.000 A 
ATOM      6  C7  UNL d   1       4.927   3.485  -4.573  0.00  0.00    -0.073 A 
ATOM      7  C8  UNL d   1       5.425   2.148  -4.097  0.00  0.00     0.078 C 
ENDROOT
BRANCH   1   8
ATOM      8  C1  UNL d   1       2.808   3.314  -3.145  0.00  0.00     0.053 C 
ATOM      9  C   UNL d   1       1.357   3.757  -3.248  0.00  0.00     0.018 C 
ENDBRANCH   1   8
TORSDOF 1
ENDMDL
