MODEL 1
REMARK minimizedAffinity 6.82932186
REMARK minimizedRMSD -1
REMARK  1 active torsions:
REMARK  status: ('A' for Active; 'I' for Inactive)
REMARK    1  A    between atoms: C1_2  and  C2_3 
ROOT
ATOM      1  C2  UNL d   1      -3.651  -3.863  -2.222  0.00  0.00    -0.076 A 
ATOM      2  C3  UNL d   1      -4.840  -3.154  -2.465  0.00  0.00     0.004 A 
ATOM      3  C4  UNL d   1      -5.866  -3.711  -3.226  0.00  0.00    -0.003 A 
ATOM      4  C5  UNL d   1      -5.719  -4.988  -3.757  0.00  0.00     0.000 A 
ATOM      5  C6  UNL d   1      -4.554  -5.713  -3.512  0.00  0.00     0.000 A 
ATOM      6  C7  UNL d   1      -3.517  -5.172  -2.733  0.00  0.00    -0.073 A 
ATOM      7  C8  UNL d   1      -2.279  -5.996  -2.506  0.00  0.00     0.078 C 
ENDROOT
BRANCH   1   8
ATOM      8  C1  UNL d   1      -2.562  -3.197  -1.412  0.00  0.00     0.053 C 
ATOM      9  C   UNL d   1      -2.331  -3.881  -0.073  0.00  0.00     0.018 C 
ENDBRANCH   1   8
TORSDOF 1
ENDMDL
