MODEL 1
REMARK minimizedAffinity 10.5427322
REMARK minimizedRMSD -1
REMARK  1 active torsions:
REMARK  status: ('A' for Active; 'I' for Inactive)
REMARK    1  A    between atoms: C1_2  and  C2_3 
ROOT
ATOM      1  C2  UNL d   1      -0.420   2.211   2.388  0.00  0.00    -0.076 A 
ATOM      2  C3  UNL d   1      -0.530   3.443   1.719  0.00  0.00     0.004 A 
ATOM      3  C4  UNL d   1       0.455   3.866   0.829  0.00  0.00    -0.003 A 
ATOM      4  C5  UNL d   1       1.567   3.065   0.594  0.00  0.00     0.000 A 
ATOM      5  C6  UNL d   1       1.684   1.832   1.236  0.00  0.00     0.000 A 
ATOM      6  C7  UNL d   1       0.691   1.383   2.123  0.00  0.00    -0.073 A 
ATOM      7  C8  UNL d   1       0.871   0.048   2.793  0.00  0.00     0.078 C 
ENDROOT
BRANCH   1   8
ATOM      8  C1  UNL d   1      -1.508   1.817   3.362  0.00  0.00     0.053 C 
ATOM      9  C   UNL d   1      -2.902   1.992   2.782  0.00  0.00     0.018 C 
ENDBRANCH   1   8
TORSDOF 1
ENDMDL
