MODEL 1
REMARK minimizedAffinity 0.552974641
REMARK minimizedRMSD -1
REMARK  1 active torsions:
REMARK  status: ('A' for Active; 'I' for Inactive)
REMARK    1  A    between atoms: C1_2  and  C2_3 
ROOT
ATOM      1  C2  UNL d   1       1.082   0.503   1.506  0.00  0.00    -0.076 A 
ATOM      2  C3  UNL d   1       0.275  -0.223   2.399  0.00  0.00     0.004 A 
ATOM      3  C4  UNL d   1      -0.074  -1.547   2.137  0.00  0.00    -0.003 A 
ATOM      4  C5  UNL d   1       0.379  -2.166   0.977  0.00  0.00     0.000 A 
ATOM      5  C6  UNL d   1       1.195  -1.466   0.088  0.00  0.00     0.000 A 
ATOM      6  C7  UNL d   1       1.569  -0.136   0.346  0.00  0.00    -0.073 A 
ATOM      7  C8  UNL d   1       2.446   0.573  -0.649  0.00  0.00     0.078 C 
ENDROOT
BRANCH   1   8
ATOM      8  C1  UNL d   1       1.405   1.944   1.830  0.00  0.00     0.053 C 
ATOM      9  C   UNL d   1       0.175   2.837   1.807  0.00  0.00     0.018 C 
ENDBRANCH   1   8
TORSDOF 1
ENDMDL
