MODEL 1
REMARK minimizedAffinity 12.6799994
REMARK minimizedRMSD -1
REMARK  1 active torsions:
REMARK  status: ('A' for Active; 'I' for Inactive)
REMARK    1  A    between atoms: C1_2  and  C2_3 
ROOT
ATOM      1  C2  UNL d   1      -3.303  -5.164  -3.128  0.00  0.00    -0.076 A 
ATOM      2  C3  UNL d   1      -4.336  -6.000  -3.586  0.00  0.00     0.004 A 
ATOM      3  C4  UNL d   1      -5.674  -5.665  -3.382  0.00  0.00    -0.003 A 
ATOM      4  C5  UNL d   1      -6.000  -4.489  -2.717  0.00  0.00     0.000 A 
ATOM      5  C6  UNL d   1      -4.988  -3.639  -2.270  0.00  0.00     0.000 A 
ATOM      6  C7  UNL d   1      -3.635  -3.954  -2.482  0.00  0.00    -0.073 A 
ATOM      7  C8  UNL d   1      -2.584  -3.004  -1.974  0.00  0.00     0.078 C 
ENDROOT
BRANCH   1   8
ATOM      8  C1  UNL d   1      -1.871  -5.593  -3.354  0.00  0.00     0.053 C 
ATOM      9  C   UNL d   1      -1.371  -5.243  -4.747  0.00  0.00     0.018 C 
ENDBRANCH   1   8
TORSDOF 1
ENDMDL
