MODEL 1
REMARK minimizedAffinity 4.49418831
REMARK minimizedRMSD -1
REMARK  1 active torsions:
REMARK  status: ('A' for Active; 'I' for Inactive)
REMARK    1  A    between atoms: C1_2  and  C2_3 
ROOT
ATOM      1  C2  UNL d   1       0.481  -0.067   0.153  0.00  0.00    -0.076 A 
ATOM      2  C3  UNL d   1       1.145   1.137   0.444  0.00  0.00     0.004 A 
ATOM      3  C4  UNL d   1       1.306   1.567   1.760  0.00  0.00    -0.003 A 
ATOM      4  C5  UNL d   1       0.805   0.799   2.806  0.00  0.00     0.000 A 
ATOM      5  C6  UNL d   1       0.159  -0.407   2.536  0.00  0.00     0.000 A 
ATOM      6  C7  UNL d   1       0.003  -0.863   1.216  0.00  0.00    -0.073 A 
ATOM      7  C8  UNL d   1      -0.707  -2.168   0.982  0.00  0.00     0.078 C 
ENDROOT
BRANCH   1   8
ATOM      8  C1  UNL d   1       0.313  -0.469  -1.295  0.00  0.00     0.053 C 
ATOM      9  C   UNL d   1       0.515   0.696  -2.251  0.00  0.00     0.018 C 
ENDBRANCH   1   8
TORSDOF 1
ENDMDL
