MODEL 1
REMARK minimizedAffinity -5.61409521
REMARK minimizedRMSD -1
REMARK  1 active torsions:
REMARK  status: ('A' for Active; 'I' for Inactive)
REMARK    1  A    between atoms: C1_2  and  C2_3 
ROOT
ATOM      1  C2  UNL d   1      -0.222   0.307  -0.083  0.00  0.00    -0.077 A 
ATOM      2  C3  UNL d   1      -0.527  -0.848   0.652  0.00  0.00     0.002 A 
ATOM      3  C4  UNL d   1       0.465  -1.792   0.928  0.00  0.00     0.002 A 
ATOM      4  C5  UNL d   1       1.767  -1.589   0.476  0.00  0.00    -0.004 A 
ATOM      5  C6  UNL d   1       2.080  -0.445  -0.257  0.00  0.00     0.002 A 
ATOM      6  C7  UNL d   1       1.090   0.499  -0.534  0.00  0.00     0.002 A 
ENDROOT
BRANCH   1   7
ATOM      7  C1  UNL d   1      -1.278   1.350  -0.339  0.00  0.00     0.055 C 
ATOM      8  C   UNL d   1      -1.348   1.716  -1.814  0.00  0.00     0.019 C 
ENDBRANCH   1   7
TORSDOF 1
ENDMDL
