MODEL 1
REMARK minimizedAffinity -4.97883987
REMARK minimizedRMSD -1
REMARK  1 active torsions:
REMARK  status: ('A' for Active; 'I' for Inactive)
REMARK    1  A    between atoms: C1_2  and  C2_3 
ROOT
ATOM      1  C2  UNL d   1       0.087   0.043  -0.189  0.00  0.00    -0.077 A 
ATOM      2  C3  UNL d   1      -0.721  -0.891   0.472  0.00  0.00     0.002 A 
ATOM      3  C4  UNL d   1      -0.156  -2.027   1.054  0.00  0.00     0.002 A 
ATOM      4  C5  UNL d   1       1.219  -2.237   0.984  0.00  0.00    -0.004 A 
ATOM      5  C6  UNL d   1       2.032  -1.315   0.327  0.00  0.00     0.002 A 
ATOM      6  C7  UNL d   1       1.469  -0.179  -0.257  0.00  0.00     0.002 A 
ENDROOT
BRANCH   1   7
ATOM      7  C1  UNL d   1      -0.514   1.294  -0.775  0.00  0.00     0.055 C 
ATOM      8  C   UNL d   1      -1.980   1.091  -1.128  0.00  0.00     0.019 C 
ENDBRANCH   1   7
TORSDOF 1
ENDMDL
