MODEL 1
REMARK minimizedAffinity -4.0927906
REMARK minimizedRMSD -1
REMARK  1 active torsions:
REMARK  status: ('A' for Active; 'I' for Inactive)
REMARK    1  A    between atoms: C1_2  and  C2_3 
ROOT
ATOM      1  C2  UNL d   1      -0.184  -0.335   0.172  0.00  0.00    -0.077 A 
ATOM      2  C3  UNL d   1      -0.744  -1.587   0.463  0.00  0.00     0.002 A 
ATOM      3  C4  UNL d   1       0.078  -2.695   0.679  0.00  0.00     0.002 A 
ATOM      4  C5  UNL d   1       1.463  -2.561   0.612  0.00  0.00    -0.004 A 
ATOM      5  C6  UNL d   1       2.029  -1.320   0.322  0.00  0.00     0.002 A 
ATOM      6  C7  UNL d   1       1.210  -0.212   0.104  0.00  0.00     0.002 A 
ENDROOT
BRANCH   1   7
ATOM      7  C1  UNL d   1      -1.067   0.871  -0.013  0.00  0.00     0.055 C 
ATOM      8  C   UNL d   1      -1.238   1.211  -1.487  0.00  0.00     0.019 C 
ENDBRANCH   1   7
TORSDOF 1
ENDMDL
