MODEL 1
REMARK minimizedAffinity -2.60795474
REMARK minimizedRMSD -1
REMARK  1 active torsions:
REMARK  status: ('A' for Active; 'I' for Inactive)
REMARK    1  A    between atoms: C1_2  and  C2_3 
ROOT
ATOM      1  C2  UNL d   1       0.663  -0.655   0.448  0.00  0.00    -0.077 A 
ATOM      2  C3  UNL d   1       0.539   0.442  -0.416  0.00  0.00     0.002 A 
ATOM      3  C4  UNL d   1      -0.577   1.277  -0.341  0.00  0.00     0.002 A 
ATOM      4  C5  UNL d   1      -1.575   1.026   0.598  0.00  0.00    -0.004 A 
ATOM      5  C6  UNL d   1      -1.462  -0.064   1.460  0.00  0.00     0.002 A 
ATOM      6  C7  UNL d   1      -0.347  -0.900   1.386  0.00  0.00     0.002 A 
ENDROOT
BRANCH   1   7
ATOM      7  C1  UNL d   1       1.890  -1.528   0.401  0.00  0.00     0.055 C 
ATOM      8  C   UNL d   1       1.546  -2.983   0.688  0.00  0.00     0.019 C 
ENDBRANCH   1   7
TORSDOF 1
ENDMDL
