MODEL 1
REMARK minimizedAffinity 1.06868947
REMARK minimizedRMSD -1
REMARK  1 active torsions:
REMARK  status: ('A' for Active; 'I' for Inactive)
REMARK    1  A    between atoms: C1_2  and  C2_3 
ROOT
ATOM      1  C2  UNL d   1      -0.638  -0.382  -0.292  0.00  0.00    -0.077 A 
ATOM      2  C3  UNL d   1      -0.936  -0.405   1.078  0.00  0.00     0.002 A 
ATOM      3  C4  UNL d   1      -1.256  -1.607   1.711  0.00  0.00     0.002 A 
ATOM      4  C5  UNL d   1      -1.278  -2.795   0.983  0.00  0.00    -0.004 A 
ATOM      5  C6  UNL d   1      -0.985  -2.783  -0.380  0.00  0.00     0.002 A 
ATOM      6  C7  UNL d   1      -0.666  -1.581  -1.015  0.00  0.00     0.002 A 
ENDROOT
BRANCH   1   7
ATOM      7  C1  UNL d   1      -0.244   0.906  -0.966  0.00  0.00     0.055 C 
ATOM      8  C   UNL d   1      -0.160   0.738  -2.476  0.00  0.00     0.019 C 
ENDBRANCH   1   7
TORSDOF 1
ENDMDL
