MODEL 1
REMARK minimizedAffinity -5.09638977
REMARK minimizedRMSD -1
REMARK  1 active torsions:
REMARK  status: ('A' for Active; 'I' for Inactive)
REMARK    1  A    between atoms: C1_2  and  C2_3 
ROOT
ATOM      1  C2  UNL d   1      -0.125  -0.207   0.181  0.00  0.00    -0.077 A 
ATOM      2  C3  UNL d   1      -0.505  -1.151   1.146  0.00  0.00     0.002 A 
ATOM      3  C4  UNL d   1       0.364  -2.183   1.505  0.00  0.00     0.002 A 
ATOM      4  C5  UNL d   1       1.619  -2.278   0.909  0.00  0.00    -0.004 A 
ATOM      5  C6  UNL d   1       2.006  -1.346  -0.053  0.00  0.00     0.002 A 
ATOM      6  C7  UNL d   1       1.138  -0.314  -0.415  0.00  0.00     0.002 A 
ENDROOT
BRANCH   1   7
ATOM      7  C1  UNL d   1      -1.042   0.935  -0.172  0.00  0.00     0.055 C 
ATOM      8  C   UNL d   1      -1.473   0.868  -1.630  0.00  0.00     0.019 C 
ENDBRANCH   1   7
TORSDOF 1
ENDMDL
