MODEL 1
REMARK minimizedAffinity -3.93753052
REMARK minimizedRMSD -1
REMARK  1 active torsions:
REMARK  status: ('A' for Active; 'I' for Inactive)
REMARK    1  A    between atoms: C1_2  and  C2_3 
ROOT
ATOM      1  C2  UNL d   1      -0.371   0.077   0.067  0.00  0.00    -0.077 A 
ATOM      2  C3  UNL d   1      -0.612  -1.048   0.868  0.00  0.00     0.002 A 
ATOM      3  C4  UNL d   1       0.380  -2.015   1.044  0.00  0.00     0.002 A 
ATOM      4  C5  UNL d   1       1.620  -1.864   0.426  0.00  0.00    -0.004 A 
ATOM      5  C6  UNL d   1       1.868  -0.750  -0.374  0.00  0.00     0.002 A 
ATOM      6  C7  UNL d   1       0.878   0.217  -0.552  0.00  0.00     0.002 A 
ENDROOT
BRANCH   1   7
ATOM      7  C1  UNL d   1      -1.422   1.145  -0.085  0.00  0.00     0.055 C 
ATOM      8  C   UNL d   1      -1.617   1.528  -1.545  0.00  0.00     0.019 C 
ENDBRANCH   1   7
TORSDOF 1
ENDMDL
