MODEL 1
REMARK minimizedAffinity -4.62116385
REMARK minimizedRMSD -1
REMARK  1 active torsions:
REMARK  status: ('A' for Active; 'I' for Inactive)
REMARK    1  A    between atoms: C1_2  and  C2_3 
ROOT
ATOM      1  C2  UNL d   1       0.570  -0.069  -0.479  0.00  0.00    -0.077 A 
ATOM      2  C3  UNL d   1      -0.271  -1.077   0.013  0.00  0.00     0.002 A 
ATOM      3  C4  UNL d   1       0.231  -2.066   0.861  0.00  0.00     0.002 A 
ATOM      4  C5  UNL d   1       1.575  -2.054   1.228  0.00  0.00    -0.004 A 
ATOM      5  C6  UNL d   1       2.421  -1.057   0.743  0.00  0.00     0.002 A 
ATOM      6  C7  UNL d   1       1.921  -0.069  -0.106  0.00  0.00     0.002 A 
ENDROOT
BRANCH   1   7
ATOM      7  C1  UNL d   1       0.020   1.026  -1.354  0.00  0.00     0.055 C 
ATOM      8  C   UNL d   1      -1.405   1.388  -0.958  0.00  0.00     0.019 C 
ENDBRANCH   1   7
TORSDOF 1
ENDMDL
