MODEL 1
REMARK minimizedAffinity -4.24943924
REMARK minimizedRMSD -1
REMARK  1 active torsions:
REMARK  status: ('A' for Active; 'I' for Inactive)
REMARK    1  A    between atoms: C1_2  and  C2_3 
ROOT
ATOM      1  C2  UNL d   1       0.098   0.289  -0.155  0.00  0.00    -0.077 A 
ATOM      2  C3  UNL d   1       1.450   0.193  -0.512  0.00  0.00     0.002 A 
ATOM      3  C4  UNL d   1       2.191  -0.940  -0.172  0.00  0.00     0.002 A 
ATOM      4  C5  UNL d   1       1.589  -1.986   0.523  0.00  0.00    -0.004 A 
ATOM      5  C6  UNL d   1       0.245  -1.899   0.885  0.00  0.00     0.002 A 
ATOM      6  C7  UNL d   1      -0.498  -0.767   0.547  0.00  0.00     0.002 A 
ENDROOT
BRANCH   1   7
ATOM      7  C1  UNL d   1      -0.716   1.489  -0.564  0.00  0.00     0.055 C 
ATOM      8  C   UNL d   1      -1.563   1.190  -1.793  0.00  0.00     0.019 C 
ENDBRANCH   1   7
TORSDOF 1
ENDMDL
