MODEL 1
REMARK minimizedAffinity -6.49491167
REMARK minimizedRMSD -1
REMARK  1 active torsions:
REMARK  status: ('A' for Active; 'I' for Inactive)
REMARK    1  A    between atoms: C1_2  and  C2_3 
ROOT
ATOM      1  C2  UNL d   1      -0.010  -1.306   1.244  0.00  0.00    -0.077 A 
ATOM      2  C3  UNL d   1      -0.925  -1.449   2.297  0.00  0.00     0.002 A 
ATOM      3  C4  UNL d   1      -0.844  -2.544   3.159  0.00  0.00     0.002 A 
ATOM      4  C5  UNL d   1       0.153  -3.501   2.980  0.00  0.00    -0.004 A 
ATOM      5  C6  UNL d   1       1.066  -3.369   1.935  0.00  0.00     0.002 A 
ATOM      6  C7  UNL d   1       0.986  -2.275   1.072  0.00  0.00     0.002 A 
ENDROOT
BRANCH   1   7
ATOM      7  C1  UNL d   1      -0.066  -0.100   0.343  0.00  0.00     0.055 C 
ATOM      8  C   UNL d   1       0.765  -0.309  -0.914  0.00  0.00     0.019 C 
ENDBRANCH   1   7
TORSDOF 1
ENDMDL
