MODEL 1
REMARK minimizedAffinity -4.46954823
REMARK minimizedRMSD -1
REMARK  0 active torsions:
REMARK  status: ('A' for Active; 'I' for Inactive)
ROOT
ATOM      1  C4' PXY d   1      -0.796   0.970  -1.658  0.00  0.00     0.077 C 
ATOM      2  C1' PXY d   1       1.619  -1.427   3.015  0.00  0.00     0.077 C 
ATOM      3  C1  PXY d   1       0.975  -0.804   1.792  0.00  0.00    -0.082 A 
ATOM      4  C2  PXY d   1       1.733  -0.409   0.782  0.00  0.00     0.003 A 
ATOM      5  C3  PXY d   1       1.169   0.185  -0.317  0.00  0.00     0.003 A 
ATOM      6  C4  PXY d   1      -0.189   0.328  -0.408  0.00  0.00    -0.082 A 
ATOM      7  C5  PXY d   1      -0.971  -0.083   0.614  0.00  0.00     0.003 A 
ATOM      8  C6  PXY d   1      -0.376  -0.646   1.739  0.00  0.00     0.003 A 
ENDROOT
TORSDOF 0
ENDMDL
