MODEL 1
REMARK minimizedAffinity -5.64332724
REMARK minimizedRMSD -1
REMARK  0 active torsions:
REMARK  status: ('A' for Active; 'I' for Inactive)
ROOT
ATOM      1  C4' PXY d   1      -0.700   0.476  -1.781  0.00  0.00     0.077 C 
ATOM      2  C1' PXY d   1       2.016  -1.210   3.036  0.00  0.00     0.077 C 
ATOM      3  C1  PXY d   1       1.292  -0.772   1.777  0.00  0.00    -0.082 A 
ATOM      4  C2  PXY d   1       1.963  -0.658   0.643  0.00  0.00     0.003 A 
ATOM      5  C3  PXY d   1       1.331  -0.232  -0.497  0.00  0.00     0.003 A 
ATOM      6  C4  PXY d   1      -0.013   0.028  -0.488  0.00  0.00    -0.082 A 
ATOM      7  C5  PXY d   1      -0.707  -0.096   0.663  0.00  0.00     0.003 A 
ATOM      8  C6  PXY d   1      -0.038  -0.489   1.819  0.00  0.00     0.003 A 
ENDROOT
TORSDOF 0
ENDMDL
