MODEL 1
REMARK minimizedAffinity -5.84498882
REMARK minimizedRMSD -1
REMARK  0 active torsions:
REMARK  status: ('A' for Active; 'I' for Inactive)
ROOT
ATOM      1  C4' PXY d   1      -0.844   0.978  -0.875  0.00  0.00     0.077 C 
ATOM      2  C1' PXY d   1       2.591  -2.099   2.610  0.00  0.00     0.077 C 
ATOM      3  C1  PXY d   1       1.700  -1.290   1.688  0.00  0.00    -0.082 A 
ATOM      4  C2  PXY d   1       0.577  -0.769   2.155  0.00  0.00     0.003 A 
ATOM      5  C3  PXY d   1      -0.256  -0.061   1.327  0.00  0.00     0.003 A 
ATOM      6  C4  PXY d   1       0.090   0.162   0.021  0.00  0.00    -0.082 A 
ATOM      7  C5  PXY d   1       1.240  -0.357  -0.460  0.00  0.00     0.003 A 
ATOM      8  C6  PXY d   1       2.051  -1.108   0.386  0.00  0.00     0.003 A 
ENDROOT
TORSDOF 0
ENDMDL
