MODEL 1
REMARK minimizedAffinity -4.85396624
REMARK minimizedRMSD -1
REMARK  0 active torsions:
REMARK  status: ('A' for Active; 'I' for Inactive)
ROOT
ATOM      1  C4' PXY d   1      -1.296   0.541  -1.558  0.00  0.00     0.077 C 
ATOM      2  C1' PXY d   1       1.713  -1.679   2.851  0.00  0.00     0.077 C 
ATOM      3  C1  PXY d   1       0.935  -1.094   1.689  0.00  0.00    -0.082 A 
ATOM      4  C2  PXY d   1      -0.291  -0.637   1.886  0.00  0.00     0.003 A 
ATOM      5  C3  PXY d   1      -1.021  -0.135   0.839  0.00  0.00     0.003 A 
ATOM      6  C4  PXY d   1      -0.470  -0.049  -0.411  0.00  0.00    -0.082 A 
ATOM      7  C5  PXY d   1       0.785  -0.503  -0.618  0.00  0.00     0.003 A 
ATOM      8  C6  PXY d   1       1.493  -1.048   0.449  0.00  0.00     0.003 A 
ENDROOT
TORSDOF 0
ENDMDL
