MODEL 1
REMARK minimizedAffinity -4.9951725
REMARK minimizedRMSD -1
REMARK  0 active torsions:
REMARK  status: ('A' for Active; 'I' for Inactive)
ROOT
ATOM      1  C4' PXY d   1       2.068  -1.731   3.051  0.00  0.00     0.077 C 
ATOM      2  C1' PXY d   1      -0.381   0.385  -1.738  0.00  0.00     0.077 C 
ATOM      3  C1  PXY d   1       0.266  -0.180  -0.489  0.00  0.00    -0.082 A 
ATOM      4  C2  PXY d   1      -0.230   0.124   0.699  0.00  0.00     0.003 A 
ATOM      5  C3  PXY d   1       0.362  -0.353   1.840  0.00  0.00     0.003 A 
ATOM      6  C4  PXY d   1       1.442  -1.191   1.763  0.00  0.00    -0.082 A 
ATOM      7  C5  PXY d   1       1.948  -1.514   0.554  0.00  0.00     0.003 A 
ATOM      8  C6  PXY d   1       1.357  -0.987  -0.591  0.00  0.00     0.003 A 
ENDROOT
TORSDOF 0
ENDMDL
