MODEL 1
REMARK minimizedAffinity -5.0593648
REMARK minimizedRMSD -1
REMARK  0 active torsions:
REMARK  status: ('A' for Active; 'I' for Inactive)
ROOT
ATOM      1  C4' PXY d   1      -1.095   0.911  -1.484  0.00  0.00     0.077 C 
ATOM      2  C1' PXY d   1       1.647  -1.668   2.903  0.00  0.00     0.077 C 
ATOM      3  C1  PXY d   1       0.916  -0.994   1.758  0.00  0.00    -0.082 A 
ATOM      4  C2  PXY d   1       1.507  -0.886   0.579  0.00  0.00     0.003 A 
ATOM      5  C3  PXY d   1       0.873  -0.251  -0.458  0.00  0.00     0.003 A 
ATOM      6  C4  PXY d   1      -0.399   0.230  -0.302  0.00  0.00    -0.082 A 
ATOM      7  C5  PXY d   1      -1.012   0.114   0.894  0.00  0.00     0.003 A 
ATOM      8  C6  PXY d   1      -0.336  -0.497   1.946  0.00  0.00     0.003 A 
ENDROOT
TORSDOF 0
ENDMDL
