MODEL 1
REMARK minimizedAffinity -5.94068575
REMARK minimizedRMSD -1
REMARK  0 active torsions:
REMARK  status: ('A' for Active; 'I' for Inactive)
ROOT
ATOM      1  C4' PXY d   1      -0.118  -0.072  -2.050  0.00  0.00     0.077 C 
ATOM      2  C1' PXY d   1       1.609  -1.408   3.302  0.00  0.00     0.077 C 
ATOM      3  C1  PXY d   1       1.143  -1.056   1.903  0.00  0.00    -0.082 A 
ATOM      4  C2  PXY d   1       1.849  -1.458   0.859  0.00  0.00     0.003 A 
ATOM      5  C3  PXY d   1       1.461  -1.122  -0.412  0.00  0.00     0.003 A 
ATOM      6  C4  PXY d   1       0.308  -0.412  -0.619  0.00  0.00    -0.082 A 
ATOM      7  C5  PXY d   1      -0.423  -0.007   0.440  0.00  0.00     0.003 A 
ATOM      8  C6  PXY d   1       0.011  -0.324   1.725  0.00  0.00     0.003 A 
ENDROOT
TORSDOF 0
ENDMDL
