MODEL 1
REMARK minimizedAffinity -4.55123186
REMARK minimizedRMSD -1
REMARK  0 active torsions:
REMARK  status: ('A' for Active; 'I' for Inactive)
ROOT
ATOM      1  C4' PXY d   1       3.441  -2.089   0.422  0.00  0.00     0.077 C 
ATOM      2  C1' PXY d   1      -1.720   0.198   1.667  0.00  0.00     0.077 C 
ATOM      3  C1  PXY d   1      -0.362  -0.400   1.353  0.00  0.00    -0.082 A 
ATOM      4  C2  PXY d   1       0.072  -0.415   0.103  0.00  0.00     0.003 A 
ATOM      5  C3  PXY d   1       1.283  -0.981  -0.203  0.00  0.00     0.003 A 
ATOM      6  C4  PXY d   1       2.082  -1.487   0.787  0.00  0.00    -0.082 A 
ATOM      7  C5  PXY d   1       1.650  -1.465   2.066  0.00  0.00     0.003 A 
ATOM      8  C6  PXY d   1       0.400  -0.924   2.351  0.00  0.00     0.003 A 
ENDROOT
TORSDOF 0
ENDMDL
