MODEL 1
REMARK minimizedAffinity -4.33100462
REMARK minimizedRMSD -1
REMARK  0 active torsions:
REMARK  status: ('A' for Active; 'I' for Inactive)
ROOT
ATOM      1  C4' PXY d   1      -1.053   0.800  -2.049  0.00  0.00     0.077 C 
ATOM      2  C1' PXY d   1       1.661  -0.761   2.811  0.00  0.00     0.077 C 
ATOM      3  C1  PXY d   1       0.939  -0.358   1.540  0.00  0.00    -0.082 A 
ATOM      4  C2  PXY d   1       1.638   0.010   0.479  0.00  0.00     0.003 A 
ATOM      5  C3  PXY d   1       1.001   0.408  -0.668  0.00  0.00     0.003 A 
ATOM      6  C4  PXY d   1      -0.366   0.377  -0.748  0.00  0.00    -0.082 A 
ATOM      7  C5  PXY d   1      -1.086  -0.008   0.327  0.00  0.00     0.003 A 
ATOM      8  C6  PXY d   1      -0.421  -0.369   1.496  0.00  0.00     0.003 A 
ENDROOT
TORSDOF 0
ENDMDL
