MODEL 1
REMARK minimizedAffinity -4.02186441
REMARK minimizedRMSD -1
REMARK  0 active torsions:
REMARK  status: ('A' for Active; 'I' for Inactive)
ROOT
ATOM      1  C4' PXY d   1      -0.668   0.379  -2.027  0.00  0.00     0.077 C 
ATOM      2  C1' PXY d   1       1.443  -1.179   3.124  0.00  0.00     0.077 C 
ATOM      3  C1  PXY d   1       0.878  -0.774   1.777  0.00  0.00    -0.082 A 
ATOM      4  C2  PXY d   1       1.667  -0.755   0.715  0.00  0.00     0.003 A 
ATOM      5  C3  PXY d   1       1.180  -0.360  -0.504  0.00  0.00     0.003 A 
ATOM      6  C4  PXY d   1      -0.142  -0.033  -0.649  0.00  0.00    -0.082 A 
ATOM      7  C5  PXY d   1      -0.956  -0.060   0.428  0.00  0.00     0.003 A 
ATOM      8  C6  PXY d   1      -0.432  -0.424   1.665  0.00  0.00     0.003 A 
ENDROOT
TORSDOF 0
ENDMDL
