MODEL 1
REMARK minimizedAffinity -5.02405405
REMARK minimizedRMSD -1
REMARK  0 active torsions:
REMARK  status: ('A' for Active; 'I' for Inactive)
ROOT
ATOM      1  C4' PXY d   1      -0.780   1.142  -1.821  0.00  0.00     0.077 C 
ATOM      2  C1' PXY d   1       0.826  -1.699   2.950  0.00  0.00     0.077 C 
ATOM      3  C1  PXY d   1       0.417  -0.951   1.696  0.00  0.00    -0.082 A 
ATOM      4  C2  PXY d   1      -0.812  -0.474   1.591  0.00  0.00     0.003 A 
ATOM      5  C3  PXY d   1      -1.208   0.177   0.451  0.00  0.00     0.003 A 
ATOM      6  C4  PXY d   1      -0.321   0.389  -0.570  0.00  0.00    -0.082 A 
ATOM      7  C5  PXY d   1       0.939  -0.086  -0.466  0.00  0.00     0.003 A 
ATOM      8  C6  PXY d   1       1.309  -0.780   0.683  0.00  0.00     0.003 A 
ENDROOT
TORSDOF 0
ENDMDL
