MODEL 1
REMARK minimizedAffinity -5.52448463
REMARK minimizedRMSD -1
REMARK  0 active torsions:
REMARK  status: ('A' for Active; 'I' for Inactive)
ROOT
ATOM      1  C4' PXY d   1       2.988  -2.037   0.582  0.00  0.00     0.077 C 
ATOM      2  C1' PXY d   1      -2.128   0.401   1.723  0.00  0.00     0.077 C 
ATOM      3  C1  PXY d   1      -0.782  -0.234   1.435  0.00  0.00    -0.082 A 
ATOM      4  C2  PXY d   1      -0.428  -0.478   0.184  0.00  0.00     0.003 A 
ATOM      5  C3  PXY d   1       0.772  -1.081  -0.092  0.00  0.00     0.003 A 
ATOM      6  C4  PXY d   1       1.642  -1.388   0.919  0.00  0.00    -0.082 A 
ATOM      7  C5  PXY d   1       1.293  -1.132   2.198  0.00  0.00     0.003 A 
ATOM      8  C6  PXY d   1       0.053  -0.558   2.460  0.00  0.00     0.003 A 
ENDROOT
TORSDOF 0
ENDMDL
