MODEL 1
REMARK minimizedAffinity -5.74597788
REMARK minimizedRMSD -1
REMARK  0 active torsions:
REMARK  status: ('A' for Active; 'I' for Inactive)
ROOT
ATOM      1  C4' PXY d   1       1.573  -1.245   3.231  0.00  0.00     0.077 C 
ATOM      2  C1' PXY d   1      -0.851   0.794  -1.604  0.00  0.00     0.077 C 
ATOM      3  C1  PXY d   1      -0.212   0.249  -0.343  0.00  0.00    -0.082 A 
ATOM      4  C2  PXY d   1      -0.635   0.667   0.839  0.00  0.00     0.003 A 
ATOM      5  C3  PXY d   1      -0.047   0.208   1.989  0.00  0.00     0.003 A 
ATOM      6  C4  PXY d   1       0.950  -0.729   1.931  0.00  0.00    -0.082 A 
ATOM      7  C5  PXY d   1       1.381  -1.168   0.729  0.00  0.00     0.003 A 
ATOM      8  C6  PXY d   1       0.798  -0.659  -0.428  0.00  0.00     0.003 A 
ENDROOT
TORSDOF 0
ENDMDL
