MODEL 1
REMARK minimizedAffinity -5.39962959
REMARK minimizedRMSD -1
REMARK  0 active torsions:
REMARK  status: ('A' for Active; 'I' for Inactive)
ROOT
ATOM      1  C4' PXY d   1      -1.882   0.123  -1.007  0.00  0.00     0.077 C 
ATOM      2  C1' PXY d   1       2.018  -1.136   3.070  0.00  0.00     0.077 C 
ATOM      3  C1  PXY d   1       0.986  -0.814   2.007  0.00  0.00    -0.082 A 
ATOM      4  C2  PXY d   1       1.384  -0.451   0.798  0.00  0.00     0.003 A 
ATOM      5  C3  PXY d   1       0.465  -0.125  -0.165  0.00  0.00     0.003 A 
ATOM      6  C4  PXY d   1      -0.876  -0.222   0.095  0.00  0.00    -0.082 A 
ATOM      7  C5  PXY d   1      -1.290  -0.601   1.322  0.00  0.00     0.003 A 
ATOM      8  C6  PXY d   1      -0.341  -0.888   2.299  0.00  0.00     0.003 A 
ENDROOT
TORSDOF 0
ENDMDL
