MODEL 1
REMARK minimizedAffinity -4.92718554
REMARK minimizedRMSD -1
REMARK  0 active torsions:
REMARK  status: ('A' for Active; 'I' for Inactive)
ROOT
ATOM      1  C4' PXY d   1       2.995  -2.343   0.761  0.00  0.00     0.077 C 
ATOM      2  C1' PXY d   1      -1.763   0.632   2.153  0.00  0.00     0.077 C 
ATOM      3  C1  PXY d   1      -0.511  -0.147   1.801  0.00  0.00    -0.082 A 
ATOM      4  C2  PXY d   1      -0.100  -0.191   0.543  0.00  0.00     0.003 A 
ATOM      5  C3  PXY d   1       1.012  -0.917   0.202  0.00  0.00     0.003 A 
ATOM      6  C4  PXY d   1       1.741  -1.561   1.165  0.00  0.00    -0.082 A 
ATOM      7  C5  PXY d   1       1.335  -1.512   2.451  0.00  0.00     0.003 A 
ATOM      8  C6  PXY d   1       0.181  -0.804   2.771  0.00  0.00     0.003 A 
ENDROOT
TORSDOF 0
ENDMDL
