MODEL 1
REMARK minimizedAffinity -0.101114042
REMARK minimizedRMSD -1
REMARK  2 active torsions:
REMARK  status: ('A' for Active; 'I' for Inactive)
REMARK    1  A    between atoms: C1_2  and  C2_3 
REMARK    2  A    between atoms: C2_3  and  C3_4 
ROOT
ATOM      1  C3  UNL d   1       2.401  -0.941   2.719  0.00  0.00    -0.075 A 
ATOM      2  C4  UNL d   1       3.073  -0.541   1.555  0.00  0.00     0.002 A 
ATOM      3  C5  UNL d   1       4.453  -0.335   1.569  0.00  0.00     0.002 A 
ATOM      4  C6  UNL d   1       5.175  -0.516   2.747  0.00  0.00    -0.004 A 
ATOM      5  C7  UNL d   1       4.515  -0.897   3.913  0.00  0.00     0.002 A 
ATOM      6  C8  UNL d   1       3.135  -1.108   3.901  0.00  0.00     0.002 A 
ENDROOT
BRANCH   1   7
ATOM      7  C2  UNL d   1       0.912  -1.194   2.703  0.00  0.00     0.056 C 
BRANCH   7   8
ATOM      8  C1  UNL d   1       0.517  -2.555   2.119  0.00  0.00     0.007 C 
ATOM      9  C   UNL d   1       1.660  -3.562   2.117  0.00  0.00     0.009 C 
ENDBRANCH   7   8
ENDBRANCH   1   7
TORSDOF 2
ENDMDL
