MODEL 1
REMARK minimizedAffinity -4.28797245
REMARK minimizedRMSD -1
REMARK  2 active torsions:
REMARK  status: ('A' for Active; 'I' for Inactive)
REMARK    1  A    between atoms: C1_2  and  C2_3 
REMARK    2  A    between atoms: C2_3  and  C3_4 
ROOT
ATOM      1  C3  UNL d   1      -3.535   1.643  -2.574  0.00  0.00    -0.075 A 
ATOM      2  C4  UNL d   1      -4.776   1.964  -2.006  0.00  0.00     0.002 A 
ATOM      3  C5  UNL d   1      -5.148   1.433  -0.770  0.00  0.00     0.002 A 
ATOM      4  C6  UNL d   1      -4.290   0.569  -0.093  0.00  0.00    -0.004 A 
ATOM      5  C7  UNL d   1      -3.061   0.230  -0.656  0.00  0.00     0.002 A 
ATOM      6  C8  UNL d   1      -2.685   0.763  -1.890  0.00  0.00     0.002 A 
ENDROOT
BRANCH   1   7
ATOM      7  C2  UNL d   1      -3.114   2.236  -3.897  0.00  0.00     0.056 C 
BRANCH   7   8
ATOM      8  C1  UNL d   1      -1.597   2.335  -4.082  0.00  0.00     0.007 C 
ATOM      9  C   UNL d   1      -1.058   3.745  -3.878  0.00  0.00     0.009 C 
ENDBRANCH   7   8
ENDBRANCH   1   7
TORSDOF 2
ENDMDL
