MODEL 1
REMARK minimizedAffinity -1.750669
REMARK minimizedRMSD -1
REMARK  2 active torsions:
REMARK  status: ('A' for Active; 'I' for Inactive)
REMARK    1  A    between atoms: C1_2  and  C2_3 
REMARK    2  A    between atoms: C2_3  and  C3_4 
ROOT
ATOM      1  C3  UNL d   1       2.212  -1.388   2.229  0.00  0.00    -0.075 A 
ATOM      2  C4  UNL d   1       3.362  -0.834   1.649  0.00  0.00     0.002 A 
ATOM      3  C5  UNL d   1       4.365  -0.286   2.449  0.00  0.00     0.002 A 
ATOM      4  C6  UNL d   1       4.227  -0.276   3.835  0.00  0.00    -0.004 A 
ATOM      5  C7  UNL d   1       3.081  -0.809   4.421  0.00  0.00     0.002 A 
ATOM      6  C8  UNL d   1       2.077  -1.362   3.623  0.00  0.00     0.002 A 
ENDROOT
BRANCH   1   7
ATOM      7  C2  UNL d   1       1.136  -2.009   1.370  0.00  0.00     0.056 C 
BRANCH   7   8
ATOM      8  C1  UNL d   1       0.611  -1.088   0.264  0.00  0.00     0.007 C 
ATOM      9  C   UNL d   1       0.055   0.228   0.792  0.00  0.00     0.009 C 
ENDBRANCH   7   8
ENDBRANCH   1   7
TORSDOF 2
ENDMDL
