MODEL 1
REMARK minimizedAffinity -2.91104269
REMARK minimizedRMSD -1
REMARK  2 active torsions:
REMARK  status: ('A' for Active; 'I' for Inactive)
REMARK    1  A    between atoms: C1_2  and  C2_3 
REMARK    2  A    between atoms: C2_3  and  C3_4 
ROOT
ATOM      1  C3  UNL d   1       1.346  -1.682   2.478  0.00  0.00    -0.075 A 
ATOM      2  C4  UNL d   1       2.497  -1.754   1.681  0.00  0.00     0.002 A 
ATOM      3  C5  UNL d   1       2.600  -0.996   0.514  0.00  0.00     0.002 A 
ATOM      4  C6  UNL d   1       1.552  -0.165   0.125  0.00  0.00    -0.004 A 
ATOM      5  C7  UNL d   1       0.396  -0.098   0.901  0.00  0.00     0.002 A 
ATOM      6  C8  UNL d   1       0.292  -0.853   2.071  0.00  0.00     0.002 A 
ENDROOT
BRANCH   1   7
ATOM      7  C2  UNL d   1       1.240  -2.478   3.757  0.00  0.00     0.056 C 
BRANCH   7   8
ATOM      8  C1  UNL d   1       1.085  -1.618   5.016  0.00  0.00     0.007 C 
ATOM      9  C   UNL d   1       0.064  -2.172   6.000  0.00  0.00     0.009 C 
ENDBRANCH   7   8
ENDBRANCH   1   7
TORSDOF 2
ENDMDL
