MODEL 1
REMARK minimizedAffinity 0.790543079
REMARK minimizedRMSD -1
REMARK  2 active torsions:
REMARK  status: ('A' for Active; 'I' for Inactive)
REMARK    1  A    between atoms: C1_2  and  C2_3 
REMARK    2  A    between atoms: C2_3  and  C3_4 
ROOT
ATOM      1  C3  UNL d   1       2.280   4.785   0.573  0.00  0.00    -0.075 A 
ATOM      2  C4  UNL d   1       1.882   4.393  -0.714  0.00  0.00     0.002 A 
ATOM      3  C5  UNL d   1       0.558   4.546  -1.124  0.00  0.00     0.002 A 
ATOM      4  C6  UNL d   1      -0.387   5.082  -0.251  0.00  0.00    -0.004 A 
ATOM      5  C7  UNL d   1      -0.007   5.460   1.035  0.00  0.00     0.002 A 
ATOM      6  C8  UNL d   1       1.319   5.312   1.446  0.00  0.00     0.002 A 
ENDROOT
BRANCH   1   7
ATOM      7  C2  UNL d   1       3.718   4.650   1.012  0.00  0.00     0.056 C 
BRANCH   7   8
ATOM      8  C1  UNL d   1       4.644   4.061  -0.057  0.00  0.00     0.007 C 
ATOM      9  C   UNL d   1       5.341   5.123  -0.898  0.00  0.00     0.009 C 
ENDBRANCH   7   8
ENDBRANCH   1   7
TORSDOF 2
ENDMDL
