MODEL 1
REMARK minimizedAffinity -3.81346393
REMARK minimizedRMSD -1
REMARK  2 active torsions:
REMARK  status: ('A' for Active; 'I' for Inactive)
REMARK    1  A    between atoms: C1_2  and  C2_3 
REMARK    2  A    between atoms: C2_3  and  C3_4 
ROOT
ATOM      1  C3  UNL d   1      -4.509  -0.559  -1.085  0.00  0.00    -0.075 A 
ATOM      2  C4  UNL d   1      -3.589  -0.011  -1.992  0.00  0.00     0.002 A 
ATOM      3  C5  UNL d   1      -3.867   1.190  -2.644  0.00  0.00     0.002 A 
ATOM      4  C6  UNL d   1      -5.069   1.853  -2.408  0.00  0.00    -0.004 A 
ATOM      5  C7  UNL d   1      -5.998   1.310  -1.522  0.00  0.00     0.002 A 
ATOM      6  C8  UNL d   1      -5.720   0.110  -0.864  0.00  0.00     0.002 A 
ENDROOT
BRANCH   1   7
ATOM      7  C2  UNL d   1      -4.202  -1.843  -0.354  0.00  0.00     0.056 C 
BRANCH   7   8
ATOM      8  C1  UNL d   1      -2.730  -1.997   0.046  0.00  0.00     0.007 C 
ATOM      9  C   UNL d   1      -2.268  -3.447   0.090  0.00  0.00     0.009 C 
ENDBRANCH   7   8
ENDBRANCH   1   7
TORSDOF 2
ENDMDL
