MODEL 1
REMARK minimizedAffinity 2.74229836
REMARK minimizedRMSD -1
REMARK  2 active torsions:
REMARK  status: ('A' for Active; 'I' for Inactive)
REMARK    1  A    between atoms: C1_2  and  C2_3 
REMARK    2  A    between atoms: C2_3  and  C3_4 
ROOT
ATOM      1  C3  UNL d   1       1.888  -0.485   1.044  0.00  0.00    -0.075 A 
ATOM      2  C4  UNL d   1       1.164  -0.771   2.211  0.00  0.00     0.002 A 
ATOM      3  C5  UNL d   1       1.828  -1.106   3.391  0.00  0.00     0.002 A 
ATOM      4  C6  UNL d   1       3.219  -1.170   3.418  0.00  0.00    -0.004 A 
ATOM      5  C7  UNL d   1       3.947  -0.904   2.260  0.00  0.00     0.002 A 
ATOM      6  C8  UNL d   1       3.286  -0.564   1.079  0.00  0.00     0.002 A 
ENDROOT
BRANCH   1   7
ATOM      7  C2  UNL d   1       1.177  -0.092  -0.229  0.00  0.00     0.056 C 
BRANCH   7   8
ATOM      8  C1  UNL d   1       1.946   0.918  -1.087  0.00  0.00     0.007 C 
ATOM      9  C   UNL d   1       1.996   2.311  -0.475  0.00  0.00     0.009 C 
ENDBRANCH   7   8
ENDBRANCH   1   7
TORSDOF 2
ENDMDL
