MODEL 1
REMARK minimizedAffinity 5.82698488
REMARK minimizedRMSD -1
REMARK  2 active torsions:
REMARK  status: ('A' for Active; 'I' for Inactive)
REMARK    1  A    between atoms: C1_2  and  C2_3 
REMARK    2  A    between atoms: C2_3  and  C3_4 
ROOT
ATOM      1  C3  UNL d   1       3.207  -0.917   1.919  0.00  0.00    -0.075 A 
ATOM      2  C4  UNL d   1       2.682  -1.354   3.144  0.00  0.00     0.002 A 
ATOM      3  C5  UNL d   1       3.513  -1.512   4.254  0.00  0.00     0.002 A 
ATOM      4  C6  UNL d   1       4.877  -1.248   4.151  0.00  0.00    -0.004 A 
ATOM      5  C7  UNL d   1       5.411  -0.830   2.934  0.00  0.00     0.002 A 
ATOM      6  C8  UNL d   1       4.582  -0.666   1.823  0.00  0.00     0.002 A 
ENDROOT
BRANCH   1   7
ATOM      7  C2  UNL d   1       2.308  -0.715   0.722  0.00  0.00     0.056 C 
BRANCH   7   8
ATOM      8  C1  UNL d   1       0.816  -0.879   1.028  0.00  0.00     0.007 C 
ATOM      9  C   UNL d   1       0.147  -1.964   0.194  0.00  0.00     0.009 C 
ENDBRANCH   7   8
ENDBRANCH   1   7
TORSDOF 2
ENDMDL
