MODEL 1
REMARK minimizedAffinity 2.7307024
REMARK minimizedRMSD -1
REMARK  2 active torsions:
REMARK  status: ('A' for Active; 'I' for Inactive)
REMARK    1  A    between atoms: C1_2  and  C2_3 
REMARK    2  A    between atoms: C2_3  and  C3_4 
ROOT
ATOM      1  C3  UNL d   1      -0.532  -2.441   0.610  0.00  0.00    -0.075 A 
ATOM      2  C4  UNL d   1       0.261  -2.886  -0.457  0.00  0.00     0.002 A 
ATOM      3  C5  UNL d   1       1.233  -2.053  -1.012  0.00  0.00     0.002 A 
ATOM      4  C6  UNL d   1       1.416  -0.764  -0.517  0.00  0.00    -0.004 A 
ATOM      5  C7  UNL d   1       0.621  -0.305   0.531  0.00  0.00     0.002 A 
ATOM      6  C8  UNL d   1      -0.348  -1.138   1.093  0.00  0.00     0.002 A 
ENDROOT
BRANCH   1   7
ATOM      7  C2  UNL d   1      -1.565  -3.348   1.236  0.00  0.00     0.056 C 
BRANCH   7   8
ATOM      8  C1  UNL d   1      -2.713  -3.729   0.295  0.00  0.00     0.007 C 
ATOM      9  C   UNL d   1      -3.628  -2.559  -0.040  0.00  0.00     0.009 C 
ENDBRANCH   7   8
ENDBRANCH   1   7
TORSDOF 2
ENDMDL
