MODEL 1
REMARK minimizedAffinity 7.18260717
REMARK minimizedRMSD -1
REMARK  2 active torsions:
REMARK  status: ('A' for Active; 'I' for Inactive)
REMARK    1  A    between atoms: C1_2  and  C2_3 
REMARK    2  A    between atoms: C2_3  and  C3_4 
ROOT
ATOM      1  C3  UNL d   1      -0.145  -2.003   0.615  0.00  0.00    -0.075 A 
ATOM      2  C4  UNL d   1      -1.013  -0.936   0.893  0.00  0.00     0.002 A 
ATOM      3  C5  UNL d   1      -0.537   0.375   0.923  0.00  0.00     0.002 A 
ATOM      4  C6  UNL d   1       0.811   0.636   0.687  0.00  0.00    -0.004 A 
ATOM      5  C7  UNL d   1       1.685  -0.417   0.427  0.00  0.00     0.002 A 
ATOM      6  C8  UNL d   1       1.211  -1.730   0.392  0.00  0.00     0.002 A 
ENDROOT
BRANCH   1   7
ATOM      7  C2  UNL d   1      -0.659  -3.421   0.552  0.00  0.00     0.056 C 
BRANCH   7   8
ATOM      8  C1  UNL d   1      -1.984  -3.637   1.291  0.00  0.00     0.007 C 
ATOM      9  C   UNL d   1      -2.859  -4.709   0.653  0.00  0.00     0.009 C 
ENDBRANCH   7   8
ENDBRANCH   1   7
TORSDOF 2
ENDMDL
