MODEL 1
REMARK minimizedAffinity 5.84602261
REMARK minimizedRMSD -1
REMARK  2 active torsions:
REMARK  status: ('A' for Active; 'I' for Inactive)
REMARK    1  A    between atoms: C1_2  and  C2_3 
REMARK    2  A    between atoms: C2_3  and  C3_4 
ROOT
ATOM      1  C3  UNL d   1       2.283  -0.838   0.914  0.00  0.00    -0.075 A 
ATOM      2  C4  UNL d   1       2.580  -0.175  -0.285  0.00  0.00     0.002 A 
ATOM      3  C5  UNL d   1       1.643   0.672  -0.877  0.00  0.00     0.002 A 
ATOM      4  C6  UNL d   1       0.395   0.858  -0.285  0.00  0.00    -0.004 A 
ATOM      5  C7  UNL d   1       0.083   0.191   0.898  0.00  0.00     0.002 A 
ATOM      6  C8  UNL d   1       1.021  -0.653   1.495  0.00  0.00     0.002 A 
ENDROOT
BRANCH   1   7
ATOM      7  C2  UNL d   1       3.304  -1.733   1.576  0.00  0.00     0.056 C 
BRANCH   7   8
ATOM      8  C1  UNL d   1       3.425  -1.528   3.090  0.00  0.00     0.007 C 
ATOM      9  C   UNL d   1       4.615  -0.665   3.485  0.00  0.00     0.009 C 
ENDBRANCH   7   8
ENDBRANCH   1   7
TORSDOF 2
ENDMDL
