MODEL 1
REMARK minimizedAffinity 2.66291332
REMARK minimizedRMSD -1
REMARK  2 active torsions:
REMARK  status: ('A' for Active; 'I' for Inactive)
REMARK    1  A    between atoms: C1_2  and  C2_3 
REMARK    2  A    between atoms: C2_3  and  C3_4 
ROOT
ATOM      1  C3  UNL d   1      -1.543  -5.588  -5.172  0.00  0.00    -0.075 A 
ATOM      2  C4  UNL d   1      -1.517  -5.168  -3.834  0.00  0.00     0.002 A 
ATOM      3  C5  UNL d   1      -2.681  -5.178  -3.066  0.00  0.00     0.002 A 
ATOM      4  C6  UNL d   1      -3.886  -5.596  -3.627  0.00  0.00    -0.004 A 
ATOM      5  C7  UNL d   1      -3.927  -5.999  -4.960  0.00  0.00     0.002 A 
ATOM      6  C8  UNL d   1      -2.762  -5.995  -5.729  0.00  0.00     0.002 A 
ENDROOT
BRANCH   1   7
ATOM      7  C2  UNL d   1      -0.280  -5.607  -6.000  0.00  0.00     0.056 C 
BRANCH   7   8
ATOM      8  C1  UNL d   1       1.002  -5.784  -5.179  0.00  0.00     0.007 C 
ATOM      9  C   UNL d   1       2.225  -5.155  -5.833  0.00  0.00     0.009 C 
ENDBRANCH   7   8
ENDBRANCH   1   7
TORSDOF 2
ENDMDL
