MODEL 1
REMARK minimizedAffinity 1.66356444
REMARK minimizedRMSD -1
REMARK  2 active torsions:
REMARK  status: ('A' for Active; 'I' for Inactive)
REMARK    1  A    between atoms: C1_2  and  C2_3 
REMARK    2  A    between atoms: C2_3  and  C3_4 
ROOT
ATOM      1  C3  UNL d   1       2.026  -0.275   0.362  0.00  0.00    -0.075 A 
ATOM      2  C4  UNL d   1       2.324   0.753  -0.544  0.00  0.00     0.002 A 
ATOM      3  C5  UNL d   1       1.372   1.725  -0.851  0.00  0.00     0.002 A 
ATOM      4  C6  UNL d   1       0.109   1.677  -0.265  0.00  0.00    -0.004 A 
ATOM      5  C7  UNL d   1      -0.204   0.651   0.624  0.00  0.00     0.002 A 
ATOM      6  C8  UNL d   1       0.749  -0.321   0.936  0.00  0.00     0.002 A 
ENDROOT
BRANCH   1   7
ATOM      7  C2  UNL d   1       3.063  -1.313   0.721  0.00  0.00     0.056 C 
BRANCH   7   8
ATOM      8  C1  UNL d   1       3.602  -1.188   2.149  0.00  0.00     0.007 C 
ATOM      9  C   UNL d   1       4.952  -0.487   2.222  0.00  0.00     0.009 C 
ENDBRANCH   7   8
ENDBRANCH   1   7
TORSDOF 2
ENDMDL
