MODEL 1
REMARK minimizedAffinity -2.77939415
REMARK minimizedRMSD -1
REMARK  0 active torsions:
REMARK  status: ('A' for Active; 'I' for Inactive)
ROOT
ATOM      1  C   UNL d   1      -0.596   0.907  -0.334  0.00  0.00     0.172 C 
ATOM      2  N   UNL d   1      -1.817   1.158   0.395  0.00  0.00    -0.070 N 
ATOM      3  C1  UNL d   1      -3.061   0.697   0.053  0.00  0.00    -0.004 A 
ATOM      4  C2  UNL d   1      -3.955   1.152   0.998  0.00  0.00    -0.047 A 
ATOM      5  C3  UNL d   1      -3.223   1.914   1.940  0.00  0.00    -0.047 A 
ATOM      6  C4  UNL d   1      -1.903   1.901   1.543  0.00  0.00    -0.004 A 
ENDROOT
TORSDOF 0
ENDMDL
