MODEL 1
REMARK minimizedAffinity -3.47311568
REMARK minimizedRMSD -1
REMARK  0 active torsions:
REMARK  status: ('A' for Active; 'I' for Inactive)
ROOT
ATOM      1  C   UNL d   1       0.474  -0.143   0.241  0.00  0.00     0.172 C 
ATOM      2  N   UNL d   1      -0.798   0.525   0.384  0.00  0.00    -0.070 N 
ATOM      3  C1  UNL d   1      -1.390   1.323  -0.558  0.00  0.00    -0.004 A 
ATOM      4  C2  UNL d   1      -2.588   1.768  -0.042  0.00  0.00    -0.047 A 
ATOM      5  C3  UNL d   1      -2.720   1.219   1.256  0.00  0.00    -0.047 A 
ATOM      6  C4  UNL d   1      -1.598   0.454   1.494  0.00  0.00    -0.004 A 
ENDROOT
TORSDOF 0
ENDMDL
