MODEL 1
REMARK minimizedAffinity -0.299907565
REMARK minimizedRMSD -1
REMARK  0 active torsions:
REMARK  status: ('A' for Active; 'I' for Inactive)
ROOT
ATOM      1  C   UNL d   1       1.114   0.772   0.724  0.00  0.00     0.172 C 
ATOM      2  N   UNL d   1       1.148  -0.529   0.098  0.00  0.00    -0.070 N 
ATOM      3  C1  UNL d   1       2.279  -1.244  -0.196  0.00  0.00    -0.004 A 
ATOM      4  C2  UNL d   1       1.889  -2.427  -0.784  0.00  0.00    -0.047 A 
ATOM      5  C3  UNL d   1       0.475  -2.423  -0.847  0.00  0.00    -0.047 A 
ATOM      6  C4  UNL d   1       0.043  -1.236  -0.294  0.00  0.00    -0.004 A 
ENDROOT
TORSDOF 0
ENDMDL
