MODEL 1
REMARK minimizedAffinity -4.11539555
REMARK minimizedRMSD -1
REMARK  0 active torsions:
REMARK  status: ('A' for Active; 'I' for Inactive)
ROOT
ATOM      1  C   UNL d   1      -0.032   0.399  -0.536  0.00  0.00     0.172 C 
ATOM      2  N   UNL d   1       1.284   0.073  -0.040  0.00  0.00    -0.070 N 
ATOM      3  C1  UNL d   1       2.290   0.970   0.204  0.00  0.00    -0.004 A 
ATOM      4  C2  UNL d   1       3.380   0.266   0.667  0.00  0.00    -0.047 A 
ATOM      5  C3  UNL d   1       3.018  -1.102   0.701  0.00  0.00    -0.047 A 
ATOM      6  C4  UNL d   1       1.715  -1.192   0.258  0.00  0.00    -0.004 A 
ENDROOT
TORSDOF 0
ENDMDL
