MODEL 1
REMARK minimizedAffinity -4.01847982
REMARK minimizedRMSD -1
REMARK  0 active torsions:
REMARK  status: ('A' for Active; 'I' for Inactive)
ROOT
ATOM      1  C   UNL d   1      -0.438   0.372  -0.383  0.00  0.00     0.172 C 
ATOM      2  N   UNL d   1       0.921   0.130   0.039  0.00  0.00    -0.070 N 
ATOM      3  C1  UNL d   1       1.930   1.056   0.052  0.00  0.00    -0.004 A 
ATOM      4  C2  UNL d   1       3.067   0.435   0.520  0.00  0.00    -0.047 A 
ATOM      5  C3  UNL d   1       2.731  -0.911   0.798  0.00  0.00    -0.047 A 
ATOM      6  C4  UNL d   1       1.396  -1.072   0.492  0.00  0.00    -0.004 A 
ENDROOT
TORSDOF 0
ENDMDL
