MODEL 1
REMARK minimizedAffinity -2.75210428
REMARK minimizedRMSD -1
REMARK  0 active torsions:
REMARK  status: ('A' for Active; 'I' for Inactive)
ROOT
ATOM      1  C   UNL d   1       2.498   0.325   0.700  0.00  0.00     0.172 C 
ATOM      2  N   UNL d   1       1.164   0.418   0.154  0.00  0.00    -0.070 N 
ATOM      3  C1  UNL d   1       0.331  -0.639  -0.101  0.00  0.00    -0.004 A 
ATOM      4  C2  UNL d   1      -0.844  -0.135  -0.615  0.00  0.00    -0.047 A 
ATOM      5  C3  UNL d   1      -0.713   1.273  -0.670  0.00  0.00    -0.047 A 
ATOM      6  C4  UNL d   1       0.540   1.588  -0.189  0.00  0.00    -0.004 A 
ENDROOT
TORSDOF 0
ENDMDL
