MODEL 1
REMARK minimizedAffinity -1.13661003
REMARK minimizedRMSD -1
REMARK  0 active torsions:
REMARK  status: ('A' for Active; 'I' for Inactive)
ROOT
ATOM      1  C   UNL d   1       0.149  -1.057  -1.093  0.00  0.00     0.172 C 
ATOM      2  N   UNL d   1       0.337   0.228  -0.461  0.00  0.00    -0.070 N 
ATOM      3  C1  UNL d   1       1.372   1.092  -0.700  0.00  0.00    -0.004 A 
ATOM      4  C2  UNL d   1       1.189   2.201   0.097  0.00  0.00    -0.047 A 
ATOM      5  C3  UNL d   1       0.002   1.997   0.841  0.00  0.00    -0.047 A 
ATOM      6  C4  UNL d   1      -0.504   0.768   0.476  0.00  0.00    -0.004 A 
ENDROOT
TORSDOF 0
ENDMDL
