MODEL 1
REMARK minimizedAffinity 10.1980276
REMARK minimizedRMSD -1
REMARK  1 active torsions:
REMARK  status: ('A' for Active; 'I' for Inactive)
REMARK    1  A    between atoms: C1_2  and  C2_3 
ROOT
ATOM      1  C2  UNL d   1      -1.175   1.660   0.656  0.00  0.00    -0.081 A 
ATOM      2  C3  UNL d   1      -1.687   0.375   0.867  0.00  0.00     0.006 A 
ATOM      3  C4  UNL d   1      -1.857  -0.505  -0.205  0.00  0.00     0.002 A 
ATOM      4  C5  UNL d   1      -1.509  -0.117  -1.503  0.00  0.00    -0.080 A 
ATOM      5  C6  UNL d   1      -1.658  -1.062  -2.658  0.00  0.00     0.076 C 
ATOM      6  C7  UNL d   1      -1.014   1.173  -1.717  0.00  0.00     0.002 A 
ATOM      7  C8  UNL d   1      -0.845   2.054  -0.646  0.00  0.00     0.006 A 
ENDROOT
BRANCH   1   8
ATOM      8  C1  UNL d   1      -0.930   2.588   1.818  0.00  0.00     0.054 C 
ATOM      9  C   UNL d   1       0.210   2.090   2.694  0.00  0.00     0.018 C 
ENDBRANCH   1   8
TORSDOF 1
ENDMDL
