MODEL 1
REMARK minimizedAffinity 7.42356205
REMARK minimizedRMSD -1
REMARK  1 active torsions:
REMARK  status: ('A' for Active; 'I' for Inactive)
REMARK    1  A    between atoms: C1_2  and  C2_3 
ROOT
ATOM      1  C2  UNL d   1      -0.100   3.093   0.138  0.00  0.00    -0.081 A 
ATOM      2  C3  UNL d   1       0.691   4.204   0.454  0.00  0.00     0.006 A 
ATOM      3  C4  UNL d   1       1.207   4.363   1.742  0.00  0.00     0.002 A 
ATOM      4  C5  UNL d   1       0.948   3.410   2.733  0.00  0.00    -0.080 A 
ATOM      5  C6  UNL d   1       1.522   3.553   4.111  0.00  0.00     0.076 C 
ATOM      6  C7  UNL d   1       0.144   2.309   2.422  0.00  0.00     0.002 A 
ATOM      7  C8  UNL d   1      -0.373   2.150   1.135  0.00  0.00     0.006 A 
ENDROOT
BRANCH   1   8
ATOM      8  C1  UNL d   1      -0.605   2.885  -1.267  0.00  0.00     0.054 C 
ATOM      9  C   UNL d   1      -0.828   1.409  -1.563  0.00  0.00     0.018 C 
ENDBRANCH   1   8
TORSDOF 1
ENDMDL
