MODEL 1
REMARK minimizedAffinity 10.2288113
REMARK minimizedRMSD -1
REMARK  1 active torsions:
REMARK  status: ('A' for Active; 'I' for Inactive)
REMARK    1  A    between atoms: C1_2  and  C2_3 
ROOT
ATOM      1  C2  UNL d   1      -0.817   1.682  -1.032  0.00  0.00    -0.081 A 
ATOM      2  C3  UNL d   1       0.259   0.840  -1.340  0.00  0.00     0.006 A 
ATOM      3  C4  UNL d   1       0.043  -0.512  -1.616  0.00  0.00     0.002 A 
ATOM      4  C5  UNL d   1      -1.251  -1.043  -1.597  0.00  0.00    -0.080 A 
ATOM      5  C6  UNL d   1      -1.500  -2.486  -1.921  0.00  0.00     0.076 C 
ATOM      6  C7  UNL d   1      -2.324  -0.205  -1.273  0.00  0.00     0.002 A 
ATOM      7  C8  UNL d   1      -2.109   1.147  -0.996  0.00  0.00     0.006 A 
ENDROOT
BRANCH   1   8
ATOM      8  C1  UNL d   1      -0.594   3.155  -0.798  0.00  0.00     0.054 C 
ATOM      9  C   UNL d   1       0.058   3.407   0.554  0.00  0.00     0.018 C 
ENDBRANCH   1   8
TORSDOF 1
ENDMDL
