MODEL 1
REMARK minimizedAffinity 5.28199196
REMARK minimizedRMSD -1
REMARK  1 active torsions:
REMARK  status: ('A' for Active; 'I' for Inactive)
REMARK    1  A    between atoms: C1_2  and  C2_3 
ROOT
ATOM      1  C2  UNL d   1       3.601  -3.938  -2.412  0.00  0.00    -0.081 A 
ATOM      2  C3  UNL d   1       3.275  -3.540  -1.110  0.00  0.00     0.006 A 
ATOM      3  C4  UNL d   1       4.056  -2.593  -0.443  0.00  0.00     0.002 A 
ATOM      4  C5  UNL d   1       5.170  -2.024  -1.069  0.00  0.00    -0.080 A 
ATOM      5  C6  UNL d   1       5.999  -0.984  -0.375  0.00  0.00     0.076 C 
ATOM      6  C7  UNL d   1       5.506  -2.435  -2.363  0.00  0.00     0.002 A 
ATOM      7  C8  UNL d   1       4.726  -3.381  -3.031  0.00  0.00     0.006 A 
ENDROOT
BRANCH   1   8
ATOM      8  C1  UNL d   1       2.724  -4.911  -3.159  0.00  0.00     0.054 C 
ATOM      9  C   UNL d   1       2.192  -5.998  -2.235  0.00  0.00     0.018 C 
ENDBRANCH   1   8
TORSDOF 1
ENDMDL
