MODEL 1
REMARK minimizedAffinity 0.525852621
REMARK minimizedRMSD -1
REMARK  1 active torsions:
REMARK  status: ('A' for Active; 'I' for Inactive)
REMARK    1  A    between atoms: C1_2  and  C2_3 
ROOT
ATOM      1  C2  UNL d   1       0.374   3.869   0.799  0.00  0.00    -0.081 A 
ATOM      2  C3  UNL d   1       0.681   5.222   0.612  0.00  0.00     0.006 A 
ATOM      3  C4  UNL d   1       0.320   5.874  -0.569  0.00  0.00     0.002 A 
ATOM      4  C5  UNL d   1      -0.362   5.186  -1.579  0.00  0.00    -0.080 A 
ATOM      5  C6  UNL d   1      -0.783   5.882  -2.840  0.00  0.00     0.076 C 
ATOM      6  C7  UNL d   1      -0.654   3.830  -1.400  0.00  0.00     0.002 A 
ATOM      7  C8  UNL d   1      -0.292   3.178  -0.219  0.00  0.00     0.006 A 
ENDROOT
BRANCH   1   8
ATOM      8  C1  UNL d   1       0.705   3.180   2.099  0.00  0.00     0.054 C 
ATOM      9  C   UNL d   1       1.921   3.809   2.764  0.00  0.00     0.018 C 
ENDBRANCH   1   8
TORSDOF 1
ENDMDL
