MODEL 1
REMARK minimizedAffinity 3.99343562
REMARK minimizedRMSD -1
REMARK  1 active torsions:
REMARK  status: ('A' for Active; 'I' for Inactive)
REMARK    1  A    between atoms: C1_2  and  C2_3 
ROOT
ATOM      1  C2  UNL d   1      -1.152   2.493  -0.945  0.00  0.00    -0.081 A 
ATOM      2  C3  UNL d   1      -2.487   2.368  -1.347  0.00  0.00     0.006 A 
ATOM      3  C4  UNL d   1      -3.102   1.114  -1.381  0.00  0.00     0.002 A 
ATOM      4  C5  UNL d   1      -2.395  -0.034  -1.006  0.00  0.00    -0.080 A 
ATOM      5  C6  UNL d   1      -3.053  -1.382  -1.009  0.00  0.00     0.076 C 
ATOM      6  C7  UNL d   1      -1.056   0.089  -0.622  0.00  0.00     0.002 A 
ATOM      7  C8  UNL d   1      -0.440   1.342  -0.589  0.00  0.00     0.006 A 
ENDROOT
BRANCH   1   8
ATOM      8  C1  UNL d   1      -0.505   3.851  -0.846  0.00  0.00     0.054 C 
ATOM      9  C   UNL d   1      -0.019   4.130   0.569  0.00  0.00     0.018 C 
ENDBRANCH   1   8
TORSDOF 1
ENDMDL
