MODEL 1
REMARK minimizedAffinity -3.58122659
REMARK minimizedRMSD -1
REMARK  0 active torsions:
REMARK  status: ('A' for Active; 'I' for Inactive)
ROOT
ATOM      1  C   UNL d   1       4.161   1.192  -1.973  0.00  0.00     0.172 C 
ATOM      2  N   UNL d   1       3.037   0.634  -1.258  0.00  0.00    -0.070 N 
ATOM      3  C1  UNL d   1       2.207   1.323  -0.413  0.00  0.00    -0.004 A 
ATOM      4  C2  UNL d   1       1.264   0.439   0.065  0.00  0.00    -0.047 A 
ATOM      5  C3  UNL d   1       1.537  -0.825  -0.512  0.00  0.00    -0.047 A 
ATOM      6  C4  UNL d   1       2.639  -0.675  -1.327  0.00  0.00    -0.004 A 
ENDROOT
TORSDOF 0
ENDMDL
