MODEL 1
REMARK minimizedAffinity 1.64112115
REMARK minimizedRMSD -1
REMARK  0 active torsions:
REMARK  status: ('A' for Active; 'I' for Inactive)
ROOT
ATOM      1  C   UNL d   1      -5.885   1.122  -2.763  0.00  0.00     0.172 C 
ATOM      2  N   UNL d   1      -5.384   0.825  -1.442  0.00  0.00    -0.070 N 
ATOM      3  C1  UNL d   1      -5.999   1.154  -0.263  0.00  0.00    -0.004 A 
ATOM      4  C2  UNL d   1      -5.206   0.697   0.768  0.00  0.00    -0.047 A 
ATOM      5  C3  UNL d   1      -4.076   0.073   0.189  0.00  0.00    -0.047 A 
ATOM      6  C4  UNL d   1      -4.212   0.166  -1.180  0.00  0.00    -0.004 A 
ENDROOT
TORSDOF 0
ENDMDL
