MODEL 1
REMARK minimizedAffinity -0.573665023
REMARK minimizedRMSD -1
REMARK  0 active torsions:
REMARK  status: ('A' for Active; 'I' for Inactive)
ROOT
ATOM      1  C   UNL d   1       1.378  -1.106  -0.293  0.00  0.00     0.172 C 
ATOM      2  N   UNL d   1       2.235   0.043  -0.471  0.00  0.00    -0.070 N 
ATOM      3  C1  UNL d   1       3.326   0.105  -1.296  0.00  0.00    -0.004 A 
ATOM      4  C2  UNL d   1       3.870   1.367  -1.183  0.00  0.00    -0.047 A 
ATOM      5  C3  UNL d   1       3.078   2.087  -0.258  0.00  0.00    -0.047 A 
ATOM      6  C4  UNL d   1       2.072   1.244   0.167  0.00  0.00    -0.004 A 
ENDROOT
TORSDOF 0
ENDMDL
