MODEL 1
REMARK minimizedAffinity 0.574463308
REMARK minimizedRMSD -1
REMARK  0 active torsions:
REMARK  status: ('A' for Active; 'I' for Inactive)
ROOT
ATOM      1  C   UNL d   1       2.206   0.839   2.232  0.00  0.00     0.172 C 
ATOM      2  N   UNL d   1       2.475   0.643   0.827  0.00  0.00    -0.070 N 
ATOM      3  C1  UNL d   1       3.437   1.292   0.100  0.00  0.00    -0.004 A 
ATOM      4  C2  UNL d   1       3.374   0.826  -1.196  0.00  0.00    -0.047 A 
ATOM      5  C3  UNL d   1       2.337  -0.137  -1.249  0.00  0.00    -0.047 A 
ATOM      6  C4  UNL d   1       1.798  -0.230   0.017  0.00  0.00    -0.004 A 
ENDROOT
TORSDOF 0
ENDMDL
