MODEL 1
REMARK minimizedAffinity -2.45614815
REMARK minimizedRMSD -1
REMARK  0 active torsions:
REMARK  status: ('A' for Active; 'I' for Inactive)
ROOT
ATOM      1  C   UNL d   1       1.115  -1.033   0.061  0.00  0.00     0.172 C 
ATOM      2  N   UNL d   1       2.058   0.015  -0.253  0.00  0.00    -0.070 N 
ATOM      3  C1  UNL d   1       1.867   1.353  -0.033  0.00  0.00    -0.004 A 
ATOM      4  C2  UNL d   1       2.994   2.017  -0.467  0.00  0.00    -0.047 A 
ATOM      5  C3  UNL d   1       3.892   1.045  -0.966  0.00  0.00    -0.047 A 
ATOM      6  C4  UNL d   1       3.288  -0.186  -0.821  0.00  0.00    -0.004 A 
ENDROOT
TORSDOF 0
ENDMDL
