MODEL 1
REMARK minimizedAffinity 0.624124885
REMARK minimizedRMSD -1
REMARK  0 active torsions:
REMARK  status: ('A' for Active; 'I' for Inactive)
ROOT
ATOM      1  C   UNL d   1       3.810   2.254  -0.699  0.00  0.00     0.172 C 
ATOM      2  N   UNL d   1       2.923   1.115  -0.647  0.00  0.00    -0.070 N 
ATOM      3  C1  UNL d   1       1.580   1.161  -0.382  0.00  0.00    -0.004 A 
ATOM      4  C2  UNL d   1       1.097  -0.129  -0.426  0.00  0.00    -0.047 A 
ATOM      5  C3  UNL d   1       2.188  -0.980  -0.727  0.00  0.00    -0.047 A 
ATOM      6  C4  UNL d   1       3.306  -0.183  -0.859  0.00  0.00    -0.004 A 
ENDROOT
TORSDOF 0
ENDMDL
