MODEL 1
REMARK minimizedAffinity 0.164444372
REMARK minimizedRMSD -1
REMARK  0 active torsions:
REMARK  status: ('A' for Active; 'I' for Inactive)
ROOT
ATOM      1  C   UNL d   1      -5.889   5.983   3.469  0.00  0.00     0.172 C 
ATOM      2  N   UNL d   1      -5.724   5.040   2.388  0.00  0.00    -0.070 N 
ATOM      3  C1  UNL d   1      -6.000   3.700   2.449  0.00  0.00    -0.004 A 
ATOM      4  C2  UNL d   1      -5.711   3.153   1.217  0.00  0.00    -0.047 A 
ATOM      5  C3  UNL d   1      -5.244   4.201   0.388  0.00  0.00    -0.047 A 
ATOM      6  C4  UNL d   1      -5.262   5.358   1.138  0.00  0.00    -0.004 A 
ENDROOT
TORSDOF 0
ENDMDL
