MODEL 1
REMARK minimizedAffinity 1.89280808
REMARK minimizedRMSD -1
REMARK  0 active torsions:
REMARK  status: ('A' for Active; 'I' for Inactive)
ROOT
ATOM      1  C   UNL d   1       3.975   1.474  -1.571  0.00  0.00     0.172 C 
ATOM      2  N   UNL d   1       3.051   0.474  -1.089  0.00  0.00    -0.070 N 
ATOM      3  C1  UNL d   1       3.210  -0.881  -1.206  0.00  0.00    -0.004 A 
ATOM      4  C2  UNL d   1       2.118  -1.486  -0.623  0.00  0.00    -0.047 A 
ATOM      5  C3  UNL d   1       1.273  -0.459  -0.138  0.00  0.00    -0.047 A 
ATOM      6  C4  UNL d   1       1.875   0.745  -0.440  0.00  0.00    -0.004 A 
ENDROOT
TORSDOF 0
ENDMDL
