MODEL 1
REMARK minimizedAffinity -5.45493793
REMARK minimizedRMSD -1
REMARK  1 active torsions:
REMARK  status: ('A' for Active; 'I' for Inactive)
REMARK    1  A    between atoms: C1_2  and  C2_3 
ROOT
ATOM      1  C2  UNL d   1      -0.100  -0.356   0.045  0.00  0.00    -0.077 A 
ATOM      2  C3  UNL d   1       0.803   0.476   0.722  0.00  0.00     0.002 A 
ATOM      3  C4  UNL d   1       0.355   1.335   1.727  0.00  0.00     0.002 A 
ATOM      4  C5  UNL d   1      -0.996   1.368   2.066  0.00  0.00    -0.004 A 
ATOM      5  C6  UNL d   1      -1.902   0.546   1.397  0.00  0.00     0.002 A 
ATOM      6  C7  UNL d   1      -1.456  -0.312   0.392  0.00  0.00     0.002 A 
ENDROOT
BRANCH   1   7
ATOM      7  C1  UNL d   1       0.389  -1.319  -1.006  0.00  0.00     0.055 C 
ATOM      8  C   UNL d   1       1.063  -0.587  -2.157  0.00  0.00     0.019 C 
ENDBRANCH   1   7
TORSDOF 1
ENDMDL
