MODEL 1
REMARK minimizedAffinity -4.0793972
REMARK minimizedRMSD -1
REMARK  1 active torsions:
REMARK  status: ('A' for Active; 'I' for Inactive)
REMARK    1  A    between atoms: C1_2  and  C2_3 
ROOT
ATOM      1  C2  UNL d   1       0.663  -0.089  -0.389  0.00  0.00    -0.077 A 
ATOM      2  C3  UNL d   1       1.384   0.228   0.771  0.00  0.00     0.002 A 
ATOM      3  C4  UNL d   1       0.742   0.814   1.864  0.00  0.00     0.002 A 
ATOM      4  C5  UNL d   1      -0.623   1.085   1.808  0.00  0.00    -0.004 A 
ATOM      5  C6  UNL d   1      -1.349   0.775   0.658  0.00  0.00     0.002 A 
ATOM      6  C7  UNL d   1      -0.708   0.190  -0.435  0.00  0.00     0.002 A 
ENDROOT
BRANCH   1   7
ATOM      7  C1  UNL d   1       1.344  -0.766  -1.549  0.00  0.00     0.055 C 
ATOM      8  C   UNL d   1       1.219   0.058  -2.822  0.00  0.00     0.019 C 
ENDBRANCH   1   7
TORSDOF 1
ENDMDL
