MODEL 1
REMARK minimizedAffinity -5.72041893
REMARK minimizedRMSD -1
REMARK  1 active torsions:
REMARK  status: ('A' for Active; 'I' for Inactive)
REMARK    1  A    between atoms: C1_2  and  C2_3 
ROOT
ATOM      1  C2  UNL d   1       0.076  -0.209   0.580  0.00  0.00    -0.077 A 
ATOM      2  C3  UNL d   1       0.821  -0.179   1.768  0.00  0.00     0.002 A 
ATOM      3  C4  UNL d   1       0.304   0.435   2.911  0.00  0.00     0.002 A 
ATOM      4  C5  UNL d   1      -0.961   1.020   2.878  0.00  0.00    -0.004 A 
ATOM      5  C6  UNL d   1      -1.708   0.997   1.701  0.00  0.00     0.002 A 
ATOM      6  C7  UNL d   1      -1.192   0.385   0.557  0.00  0.00     0.002 A 
ENDROOT
BRANCH   1   7
ATOM      7  C1  UNL d   1       0.612  -0.914  -0.638  0.00  0.00     0.055 C 
ATOM      8  C   UNL d   1       0.416  -0.075  -1.893  0.00  0.00     0.019 C 
ENDBRANCH   1   7
TORSDOF 1
ENDMDL
