MODEL 1
REMARK minimizedAffinity -4.48168373
REMARK minimizedRMSD -1
REMARK  1 active torsions:
REMARK  status: ('A' for Active; 'I' for Inactive)
REMARK    1  A    between atoms: C1_2  and  C2_3 
ROOT
ATOM      1  C2  UNL d   1       0.272  -0.802   0.445  0.00  0.00    -0.077 A 
ATOM      2  C3  UNL d   1      -0.034  -0.097   1.618  0.00  0.00     0.002 A 
ATOM      3  C4  UNL d   1      -1.358   0.225   1.923  0.00  0.00     0.002 A 
ATOM      4  C5  UNL d   1      -2.386  -0.157   1.064  0.00  0.00    -0.004 A 
ATOM      5  C6  UNL d   1      -2.091  -0.856  -0.106  0.00  0.00     0.002 A 
ATOM      6  C7  UNL d   1      -0.769  -1.178  -0.413  0.00  0.00     0.002 A 
ENDROOT
BRANCH   1   7
ATOM      7  C1  UNL d   1       1.694  -1.193   0.139  0.00  0.00     0.055 C 
ATOM      8  C   UNL d   1       2.477  -1.477   1.413  0.00  0.00     0.019 C 
ENDBRANCH   1   7
TORSDOF 1
ENDMDL
