MODEL 1
REMARK minimizedAffinity 7.49824667
REMARK minimizedRMSD -1
REMARK  0 active torsions:
REMARK  status: ('A' for Active; 'I' for Inactive)
ROOT
ATOM      1  C1  DEN d   1      -0.813  -1.028   2.272  0.00  0.00     0.130 A 
ATOM      2  C2  DEN d   1       0.122  -1.095   3.392  0.00  0.00    -0.031 A 
ATOM      3  C3  DEN d   1       1.493  -1.091   2.842  0.00  0.00     0.027 A 
ATOM      4  C4  DEN d   1       2.254  -0.982   0.380  0.00  0.00     0.027 A 
ATOM      5  C5  DEN d   1       1.822  -0.924  -0.926  0.00  0.00    -0.003 A 
ATOM      6  C6  DEN d   1       0.493  -0.932  -1.257  0.00  0.00     0.001 A 
ATOM      7  C7  DEN d   1      -0.453  -0.952  -0.267  0.00  0.00     0.017 A 
ATOM      8  C8  DEN d   1      -0.025  -1.018   1.053  0.00  0.00    -0.094 A 
ATOM      9  C9  DEN d   1       1.323  -0.997   1.367  0.00  0.00    -0.072 A 
ENDROOT
TORSDOF 0
ENDMDL
