MODEL 1
REMARK minimizedAffinity 8.13896179
REMARK minimizedRMSD -1
REMARK  0 active torsions:
REMARK  status: ('A' for Active; 'I' for Inactive)
ROOT
ATOM      1  C1  DEN d   1      -5.548   3.447  -4.548  0.00  0.00     0.130 A 
ATOM      2  C2  DEN d   1      -4.797   4.450  -5.298  0.00  0.00    -0.031 A 
ATOM      3  C3  DEN d   1      -3.693   3.764  -5.999  0.00  0.00     0.027 A 
ATOM      4  C4  DEN d   1      -3.079   1.259  -5.999  0.00  0.00     0.027 A 
ATOM      5  C5  DEN d   1      -3.418   0.020  -5.501  0.00  0.00    -0.003 A 
ATOM      6  C6  DEN d   1      -4.461  -0.157  -4.631  0.00  0.00     0.001 A 
ATOM      7  C7  DEN d   1      -5.231   0.916  -4.267  0.00  0.00     0.017 A 
ATOM      8  C8  DEN d   1      -4.891   2.169  -4.759  0.00  0.00    -0.094 A 
ATOM      9  C9  DEN d   1      -3.841   2.326  -5.648  0.00  0.00    -0.072 A 
ENDROOT
TORSDOF 0
ENDMDL
