MODEL 1
REMARK minimizedAffinity 10.961298
REMARK minimizedRMSD -1
REMARK  0 active torsions:
REMARK  status: ('A' for Active; 'I' for Inactive)
ROOT
ATOM      1  C1  DEN d   1       0.866  -0.610  -0.270  0.00  0.00     0.130 A 
ATOM      2  C2  DEN d   1       2.097  -1.394  -0.257  0.00  0.00    -0.031 A 
ATOM      3  C3  DEN d   1       2.275  -1.943   1.103  0.00  0.00     0.027 A 
ATOM      4  C4  DEN d   1       0.767  -1.660   3.176  0.00  0.00     0.027 A 
ATOM      5  C5  DEN d   1      -0.382  -1.072   3.657  0.00  0.00    -0.003 A 
ATOM      6  C6  DEN d   1      -1.172  -0.268   2.878  0.00  0.00     0.001 A 
ATOM      7  C7  DEN d   1      -0.846  -0.066   1.563  0.00  0.00     0.017 A 
ATOM      8  C8  DEN d   1       0.315  -0.649   1.073  0.00  0.00    -0.094 A 
ATOM      9  C9  DEN d   1       1.094  -1.469   1.873  0.00  0.00    -0.072 A 
ENDROOT
TORSDOF 0
ENDMDL
