MODEL 1
REMARK minimizedAffinity 3.50247502
REMARK minimizedRMSD -1
REMARK  0 active torsions:
REMARK  status: ('A' for Active; 'I' for Inactive)
ROOT
ATOM      1  C1  DEN d   1       1.035  -1.631   3.217  0.00  0.00     0.130 A 
ATOM      2  C2  DEN d   1       0.050  -0.626   2.825  0.00  0.00    -0.031 A 
ATOM      3  C3  DEN d   1       0.274  -0.298   1.403  0.00  0.00     0.027 A 
ATOM      4  C4  DEN d   1       2.038  -1.245  -0.223  0.00  0.00     0.027 A 
ATOM      5  C5  DEN d   1       3.100  -2.114  -0.345  0.00  0.00    -0.003 A 
ATOM      6  C6  DEN d   1       3.566  -2.851   0.711  0.00  0.00     0.001 A 
ATOM      7  C7  DEN d   1       2.939  -2.767   1.926  0.00  0.00     0.017 A 
ATOM      8  C8  DEN d   1       1.872  -1.888   2.059  0.00  0.00    -0.094 A 
ATOM      9  C9  DEN d   1       1.408  -1.161   0.976  0.00  0.00    -0.072 A 
ENDROOT
TORSDOF 0
ENDMDL
