MODEL 1
REMARK minimizedAffinity 9.58955288
REMARK minimizedRMSD -1
REMARK  0 active torsions:
REMARK  status: ('A' for Active; 'I' for Inactive)
ROOT
ATOM      1  C1  DEN d   1       0.414  -0.750  -1.195  0.00  0.00     0.130 A 
ATOM      2  C2  DEN d   1       1.827  -1.080  -1.365  0.00  0.00    -0.031 A 
ATOM      3  C3  DEN d   1       2.371  -1.449  -0.043  0.00  0.00     0.027 A 
ATOM      4  C4  DEN d   1       1.169  -1.547   2.237  0.00  0.00     0.027 A 
ATOM      5  C5  DEN d   1      -0.030  -1.344   2.884  0.00  0.00    -0.003 A 
ATOM      6  C6  DEN d   1      -1.147  -0.900   2.228  0.00  0.00     0.001 A 
ATOM      7  C7  DEN d   1      -1.100  -0.687   0.875  0.00  0.00     0.017 A 
ATOM      8  C8  DEN d   1       0.107  -0.883   0.218  0.00  0.00    -0.094 A 
ATOM      9  C9  DEN d   1       1.222  -1.344   0.897  0.00  0.00    -0.072 A 
ENDROOT
TORSDOF 0
ENDMDL
