MODEL 1
REMARK minimizedAffinity 10.0634356
REMARK minimizedRMSD -1
REMARK  0 active torsions:
REMARK  status: ('A' for Active; 'I' for Inactive)
ROOT
ATOM      1  C   UNL d   1       4.129   0.407   0.054  0.00  0.00     0.078 C 
ATOM      2  C1  UNL d   1       3.327   0.577   1.310  0.00  0.00    -0.077 A 
ATOM      3  C2  UNL d   1       2.669  -0.510   1.898  0.00  0.00    -0.001 A 
ATOM      4  C3  UNL d   1       1.918  -0.336   3.062  0.00  0.00     0.003 A 
ATOM      5  C4  UNL d   1       1.818   0.925   3.647  0.00  0.00    -0.005 A 
ATOM      6  C5  UNL d   1       2.467   2.013   3.068  0.00  0.00     0.003 A 
ATOM      7  C6  UNL d   1       3.219   1.840   1.905  0.00  0.00    -0.001 A 
ENDROOT
TORSDOF 0
ENDMDL
