MODEL 1
REMARK minimizedAffinity 6.97296762
REMARK minimizedRMSD -1
REMARK  0 active torsions:
REMARK  status: ('A' for Active; 'I' for Inactive)
ROOT
ATOM      1  C   UNL d   1      -2.380   0.796  -1.216  0.00  0.00     0.078 C 
ATOM      2  C1  UNL d   1      -2.979   1.039  -2.569  0.00  0.00    -0.077 A 
ATOM      3  C2  UNL d   1      -2.852   0.093  -3.594  0.00  0.00    -0.001 A 
ATOM      4  C3  UNL d   1      -3.406   0.336  -4.852  0.00  0.00     0.003 A 
ATOM      5  C4  UNL d   1      -4.090   1.525  -5.097  0.00  0.00    -0.005 A 
ATOM      6  C5  UNL d   1      -4.219   2.473  -4.084  0.00  0.00     0.003 A 
ATOM      7  C6  UNL d   1      -3.666   2.232  -2.826  0.00  0.00    -0.001 A 
ENDROOT
TORSDOF 0
ENDMDL
