MODEL 1
REMARK minimizedAffinity 0.384339094
REMARK minimizedRMSD -1
REMARK  0 active torsions:
REMARK  status: ('A' for Active; 'I' for Inactive)
ROOT
ATOM      1  C   UNL d   1       4.334  -0.839   1.323  0.00  0.00     0.078 C 
ATOM      2  C1  UNL d   1       3.264   0.199   1.485  0.00  0.00    -0.077 A 
ATOM      3  C2  UNL d   1       2.947   0.718   2.746  0.00  0.00    -0.001 A 
ATOM      4  C3  UNL d   1       1.941   1.677   2.882  0.00  0.00     0.003 A 
ATOM      5  C4  UNL d   1       1.243   2.122   1.762  0.00  0.00    -0.005 A 
ATOM      6  C5  UNL d   1       1.550   1.609   0.503  0.00  0.00     0.003 A 
ATOM      7  C6  UNL d   1       2.555   0.651   0.365  0.00  0.00    -0.001 A 
ENDROOT
TORSDOF 0
ENDMDL
