MODEL 1
REMARK minimizedAffinity -2.52428269
REMARK minimizedRMSD -1
REMARK  0 active torsions:
REMARK  status: ('A' for Active; 'I' for Inactive)
ROOT
ATOM      1  C   UNL d   1       2.372  -5.994  -1.638  0.00  0.00     0.078 C 
ATOM      2  C1  UNL d   1       2.806  -5.999  -3.073  0.00  0.00    -0.077 A 
ATOM      3  C2  UNL d   1       4.163  -5.989  -3.416  0.00  0.00    -0.001 A 
ATOM      4  C3  UNL d   1       4.553  -5.983  -4.757  0.00  0.00     0.003 A 
ATOM      5  C4  UNL d   1       3.591  -5.986  -5.765  0.00  0.00    -0.005 A 
ATOM      6  C5  UNL d   1       2.238  -5.994  -5.433  0.00  0.00     0.003 A 
ATOM      7  C6  UNL d   1       1.846  -5.999  -4.094  0.00  0.00    -0.001 A 
ENDROOT
TORSDOF 0
ENDMDL
