MODEL 1
REMARK minimizedAffinity 1.36961257
REMARK minimizedRMSD -1
REMARK  0 active torsions:
REMARK  status: ('A' for Active; 'I' for Inactive)
ROOT
ATOM      1  C   UNL d   1       1.343  -2.469   5.635  0.00  0.00     0.078 C 
ATOM      2  C1  UNL d   1       1.877  -2.050   4.298  0.00  0.00    -0.077 A 
ATOM      3  C2  UNL d   1       3.143  -2.463   3.865  0.00  0.00    -0.001 A 
ATOM      4  C3  UNL d   1       3.631  -2.058   2.622  0.00  0.00     0.003 A 
ATOM      5  C4  UNL d   1       2.860  -1.237   1.802  0.00  0.00    -0.005 A 
ATOM      6  C5  UNL d   1       1.600  -0.819   2.225  0.00  0.00     0.003 A 
ATOM      7  C6  UNL d   1       1.111  -1.223   3.468  0.00  0.00    -0.001 A 
ENDROOT
TORSDOF 0
ENDMDL
