MODEL 1
REMARK minimizedAffinity -0.210510209
REMARK minimizedRMSD -1
REMARK  0 active torsions:
REMARK  status: ('A' for Active; 'I' for Inactive)
ROOT
ATOM      1  C   UNL d   1      -1.457  -6.000   0.516  0.00  0.00     0.078 C 
ATOM      2  C1  UNL d   1       0.024  -5.991   0.283  0.00  0.00    -0.077 A 
ATOM      3  C2  UNL d   1       0.549  -5.995  -1.015  0.00  0.00    -0.001 A 
ATOM      4  C3  UNL d   1       1.930  -5.997  -1.218  0.00  0.00     0.003 A 
ATOM      5  C4  UNL d   1       2.797  -5.997  -0.127  0.00  0.00    -0.005 A 
ATOM      6  C5  UNL d   1       2.284  -5.995   1.168  0.00  0.00     0.003 A 
ATOM      7  C6  UNL d   1       0.903  -5.993   1.373  0.00  0.00    -0.001 A 
ENDROOT
TORSDOF 0
ENDMDL
