MODEL 1
REMARK minimizedAffinity 1.56924951
REMARK minimizedRMSD -1
REMARK  0 active torsions:
REMARK  status: ('A' for Active; 'I' for Inactive)
ROOT
ATOM      1  C   UNL d   1       1.798  -0.127   2.647  0.00  0.00     0.078 C 
ATOM      2  C1  UNL d   1       1.976  -1.327   3.529  0.00  0.00    -0.077 A 
ATOM      3  C2  UNL d   1       0.875  -1.948   4.133  0.00  0.00    -0.001 A 
ATOM      4  C3  UNL d   1       1.056  -3.058   4.959  0.00  0.00     0.003 A 
ATOM      5  C4  UNL d   1       2.337  -3.557   5.191  0.00  0.00    -0.005 A 
ATOM      6  C5  UNL d   1       3.438  -2.944   4.596  0.00  0.00     0.003 A 
ATOM      7  C6  UNL d   1       3.259  -1.834   3.770  0.00  0.00    -0.001 A 
ENDROOT
TORSDOF 0
ENDMDL
