MODEL 1
REMARK minimizedAffinity -1.70095646
REMARK minimizedRMSD -1
REMARK  1 active torsions:
REMARK  status: ('A' for Active; 'I' for Inactive)
REMARK    1  A    between atoms: C3_4  and  O_7 
ROOT
ATOM      1  C   UNL d   1      -3.354   0.162  -3.473  0.00  0.00    -0.033 A 
ATOM      2  C1  UNL d   1      -3.276   1.308  -2.680  0.00  0.00     0.039 A 
ATOM      3  C2  UNL d   1      -2.678   1.248  -1.420  0.00  0.00    -0.080 A 
ATOM      4  C3  UNL d   1      -2.160   0.038  -0.966  0.00  0.00     0.150 A 
ATOM      5  C4  UNL d   1      -2.230  -1.107  -1.753  0.00  0.00    -0.007 A 
ATOM      6  C5  UNL d   1      -2.829  -1.046  -3.010  0.00  0.00     0.039 A 
ENDROOT
BRANCH   4   7
ATOM      7  O   UNL d   1      -1.571  -0.071   0.259  0.00  0.00    -0.526 OA
ATOM      8  H5  UNL d   1      -1.620   0.792   0.702  0.00  0.00     0.418 HD
ENDBRANCH   4   7
TORSDOF 1
ENDMDL
