MODEL 1
REMARK minimizedAffinity -4.51595259
REMARK minimizedRMSD -1
REMARK  1 active torsions:
REMARK  status: ('A' for Active; 'I' for Inactive)
REMARK    1  A    between atoms: C3_4  and  O_7 
ROOT
ATOM      1  C   UNL d   1      -0.493   0.129  -0.223  0.00  0.00    -0.033 A 
ATOM      2  C1  UNL d   1       0.068  -1.149  -0.188  0.00  0.00     0.039 A 
ATOM      3  C2  UNL d   1       1.425  -1.310   0.101  0.00  0.00    -0.080 A 
ATOM      4  C3  UNL d   1       2.208  -0.187   0.354  0.00  0.00     0.150 A 
ATOM      5  C4  UNL d   1       1.654   1.089   0.325  0.00  0.00    -0.007 A 
ATOM      6  C5  UNL d   1       0.300   1.248   0.035  0.00  0.00     0.039 A 
ENDROOT
BRANCH   4   7
ATOM      7  O   UNL d   1       3.537  -0.294   0.636  0.00  0.00    -0.526 OA
ATOM      8  H5  UNL d   1       3.786  -1.232   0.594  0.00  0.00     0.418 HD
ENDBRANCH   4   7
TORSDOF 1
ENDMDL
