MODEL 1
REMARK minimizedAffinity -2.84747672
REMARK minimizedRMSD -1
REMARK  1 active torsions:
REMARK  status: ('A' for Active; 'I' for Inactive)
REMARK    1  A    between atoms: C3_4  and  O_7 
ROOT
ATOM      1  C   UNL d   1      -0.940   0.421  -0.226  0.00  0.00    -0.033 A 
ATOM      2  C1  UNL d   1      -0.308  -0.752   0.192  0.00  0.00     0.039 A 
ATOM      3  C2  UNL d   1       1.050  -0.739   0.515  0.00  0.00    -0.080 A 
ATOM      4  C3  UNL d   1       1.764   0.452   0.417  0.00  0.00     0.150 A 
ATOM      5  C4  UNL d   1       1.141   1.625   0.006  0.00  0.00    -0.007 A 
ATOM      6  C5  UNL d   1      -0.215   1.610  -0.317  0.00  0.00     0.039 A 
ENDROOT
BRANCH   4   7
ATOM      7  O   UNL d   1       3.093   0.513   0.717  0.00  0.00    -0.526 OA
ATOM      8  H5  UNL d   1       3.395  -0.379   0.959  0.00  0.00     0.418 HD
ENDBRANCH   4   7
TORSDOF 1
ENDMDL
