MODEL 1
REMARK minimizedAffinity -5.41829205
REMARK minimizedRMSD -1
REMARK  1 active torsions:
REMARK  status: ('A' for Active; 'I' for Inactive)
REMARK    1  A    between atoms: C3_4  and  O_7 
ROOT
ATOM      1  C   UNL d   1      -0.766  -0.469   0.348  0.00  0.00    -0.033 A 
ATOM      2  C1  UNL d   1      -0.085  -1.671   0.551  0.00  0.00     0.039 A 
ATOM      3  C2  UNL d   1       1.308  -1.680   0.642  0.00  0.00    -0.080 A 
ATOM      4  C3  UNL d   1       2.007  -0.481   0.530  0.00  0.00     0.150 A 
ATOM      5  C4  UNL d   1       1.335   0.720   0.331  0.00  0.00    -0.007 A 
ATOM      6  C5  UNL d   1      -0.056   0.727   0.239  0.00  0.00     0.039 A 
ENDROOT
BRANCH   4   7
ATOM      7  O   UNL d   1       3.368  -0.440   0.607  0.00  0.00    -0.526 OA
ATOM      8  H5  UNL d   1       3.697  -1.347   0.717  0.00  0.00     0.418 HD
ENDBRANCH   4   7
TORSDOF 1
ENDMDL
