MODEL 1
REMARK minimizedAffinity -4.36825418
REMARK minimizedRMSD -1
REMARK  1 active torsions:
REMARK  status: ('A' for Active; 'I' for Inactive)
REMARK    1  A    between atoms: C3_4  and  O_7 
ROOT
ATOM      1  C   UNL d   1      -1.332   0.563   0.123  0.00  0.00    -0.033 A 
ATOM      2  C1  UNL d   1      -0.764  -0.702   0.284  0.00  0.00     0.039 A 
ATOM      3  C2  UNL d   1       0.617  -0.834   0.441  0.00  0.00    -0.080 A 
ATOM      4  C3  UNL d   1       1.418   0.305   0.436  0.00  0.00     0.150 A 
ATOM      5  C4  UNL d   1       0.858   1.568   0.280  0.00  0.00    -0.007 A 
ATOM      6  C5  UNL d   1      -0.521   1.698   0.123  0.00  0.00     0.039 A 
ENDROOT
BRANCH   4   7
ATOM      7  O   UNL d   1       2.771   0.225   0.581  0.00  0.00    -0.526 OA
ATOM      8  H5  UNL d   1       3.019  -0.712   0.650  0.00  0.00     0.418 HD
ENDBRANCH   4   7
TORSDOF 1
ENDMDL
