MODEL 1
REMARK minimizedAffinity -4.84400034
REMARK minimizedRMSD -1
REMARK  1 active torsions:
REMARK  status: ('A' for Active; 'I' for Inactive)
REMARK    1  A    between atoms: C3_4  and  O_7 
ROOT
ATOM      1  C   UNL d   1      -0.308  -0.020   0.253  0.00  0.00    -0.033 A 
ATOM      2  C1  UNL d   1       0.363   1.168   0.551  0.00  0.00     0.039 A 
ATOM      3  C2  UNL d   1       1.741   1.156   0.773  0.00  0.00    -0.080 A 
ATOM      4  C3  UNL d   1       2.436  -0.048   0.692  0.00  0.00     0.150 A 
ATOM      5  C4  UNL d   1       1.774  -1.234   0.391  0.00  0.00    -0.007 A 
ATOM      6  C5  UNL d   1       0.398  -1.220   0.171  0.00  0.00     0.039 A 
ENDROOT
BRANCH   4   7
ATOM      7  O   UNL d   1       3.781  -0.110   0.905  0.00  0.00    -0.526 OA
ATOM      8  H5  UNL d   1       4.098   0.780   1.131  0.00  0.00     0.418 HD
ENDBRANCH   4   7
TORSDOF 1
ENDMDL
