MODEL 1
REMARK minimizedAffinity 3.87520337
REMARK minimizedRMSD -1
REMARK  1 active torsions:
REMARK  status: ('A' for Active; 'I' for Inactive)
REMARK    1  A    between atoms: N_2  and  C1_3 
ROOT
ATOM      1  C1  UNL d   1      -1.245   1.587   1.352  0.00  0.00     0.143 A 
ATOM      2  C2  UNL d   1       0.112   1.811   1.098  0.00  0.00    -0.057 A 
ATOM      3  C3  UNL d   1       1.018   0.747   1.001  0.00  0.00     0.033 A 
ATOM      4  C4  UNL d   1       0.585  -0.562   1.187  0.00  0.00    -0.042 A 
ATOM      5  C5  UNL d   1      -0.755  -0.806   1.466  0.00  0.00     0.033 A 
ATOM      6  C6  UNL d   1      -1.656   0.260   1.555  0.00  0.00    -0.057 A 
ENDROOT
BRANCH   1   7
ATOM      7  N   UNL d   1      -2.176   2.608   1.558  0.00  0.00    -0.732 N 
ATOM      8  C   UNL d   1      -3.269   2.432   2.490  0.00  0.00     0.284 C 
ATOM      9  H3  UNL d   1      -1.743   3.528   1.594  0.00  0.00     0.395 HD
ENDBRANCH   1   7
TORSDOF 1
ENDMDL
