MODEL 1
REMARK minimizedAffinity -0.961097777
REMARK minimizedRMSD -1
REMARK  1 active torsions:
REMARK  status: ('A' for Active; 'I' for Inactive)
REMARK    1  A    between atoms: N_2  and  C1_3 
ROOT
ATOM      1  C1  UNL d   1       0.164   0.341   0.968  0.00  0.00     0.143 A 
ATOM      2  C2  UNL d   1      -0.842  -0.599   1.215  0.00  0.00    -0.057 A 
ATOM      3  C3  UNL d   1      -2.083  -0.214   1.737  0.00  0.00     0.033 A 
ATOM      4  C4  UNL d   1      -2.330   1.119   2.049  0.00  0.00    -0.042 A 
ATOM      5  C5  UNL d   1      -1.335   2.067   1.836  0.00  0.00     0.033 A 
ATOM      6  C6  UNL d   1      -0.101   1.677   1.309  0.00  0.00    -0.057 A 
ENDROOT
BRANCH   1   7
ATOM      7  N   UNL d   1       1.453   0.008   0.544  0.00  0.00    -0.732 N 
ATOM      8  C   UNL d   1       2.114   0.785  -0.483  0.00  0.00     0.284 C 
ATOM      9  H3  UNL d   1       2.058  -0.263   1.315  0.00  0.00     0.395 HD
ENDBRANCH   1   7
TORSDOF 1
ENDMDL
