MODEL 1
REMARK minimizedAffinity 8.71808434
REMARK minimizedRMSD -1
REMARK  1 active torsions:
REMARK  status: ('A' for Active; 'I' for Inactive)
REMARK    1  A    between atoms: N_2  and  C1_3 
ROOT
ATOM      1  C1  UNL d   1      -0.475  -0.731   2.836  0.00  0.00     0.143 A 
ATOM      2  C2  UNL d   1       0.883  -0.403   2.764  0.00  0.00    -0.057 A 
ATOM      3  C3  UNL d   1       1.302   0.861   2.332  0.00  0.00     0.033 A 
ATOM      4  C4  UNL d   1       0.368   1.813   1.935  0.00  0.00    -0.042 A 
ATOM      5  C5  UNL d   1      -0.986   1.500   1.975  0.00  0.00     0.033 A 
ATOM      6  C6  UNL d   1      -1.399   0.238   2.414  0.00  0.00    -0.057 A 
ENDROOT
BRANCH   1   7
ATOM      7  N   UNL d   1      -0.952  -2.003   3.163  0.00  0.00    -0.732 N 
ATOM      8  C   UNL d   1      -2.269  -2.171   3.739  0.00  0.00     0.284 C 
ATOM      9  H3  UNL d   1      -0.713  -2.700   2.461  0.00  0.00     0.395 HD
ENDBRANCH   1   7
TORSDOF 1
ENDMDL
