MODEL 1
REMARK minimizedAffinity 2.3485229
REMARK minimizedRMSD -1
REMARK  1 active torsions:
REMARK  status: ('A' for Active; 'I' for Inactive)
REMARK    1  A    between atoms: N_2  and  C1_3 
ROOT
ATOM      1  C1  UNL d   1      -1.432   0.089   1.398  0.00  0.00     0.143 A 
ATOM      2  C2  UNL d   1      -1.255   1.351   0.821  0.00  0.00    -0.057 A 
ATOM      3  C3  UNL d   1       0.021   1.903   0.658  0.00  0.00     0.033 A 
ATOM      4  C4  UNL d   1       1.145   1.211   1.097  0.00  0.00    -0.042 A 
ATOM      5  C5  UNL d   1       0.992  -0.034   1.696  0.00  0.00     0.033 A 
ATOM      6  C6  UNL d   1      -0.285  -0.582   1.850  0.00  0.00    -0.057 A 
ENDROOT
BRANCH   1   7
ATOM      7  N   UNL d   1      -2.681  -0.470   1.678  0.00  0.00    -0.732 N 
ATOM      8  C   UNL d   1      -3.598   0.188   2.584  0.00  0.00     0.284 C 
ATOM      9  H3  UNL d   1      -3.125  -0.863   0.851  0.00  0.00     0.395 HD
ENDBRANCH   1   7
TORSDOF 1
ENDMDL
