MODEL 1
REMARK minimizedAffinity 4.73165989
REMARK minimizedRMSD -1
REMARK  1 active torsions:
REMARK  status: ('A' for Active; 'I' for Inactive)
REMARK    1  A    between atoms: N_2  and  C1_3 
ROOT
ATOM      1  C1  UNL d   1      -5.571   3.603   5.453  0.00  0.00     0.143 A 
ATOM      2  C2  UNL d   1      -5.999   2.388   6.000  0.00  0.00    -0.057 A 
ATOM      3  C3  UNL d   1      -5.615   1.164   5.439  0.00  0.00     0.033 A 
ATOM      4  C4  UNL d   1      -4.818   1.134   4.300  0.00  0.00    -0.042 A 
ATOM      5  C5  UNL d   1      -4.401   2.330   3.725  0.00  0.00     0.033 A 
ATOM      6  C6  UNL d   1      -4.782   3.549   4.294  0.00  0.00    -0.057 A 
ENDROOT
BRANCH   1   7
ATOM      7  N   UNL d   1      -5.999   4.853   5.907  0.00  0.00    -0.732 N 
ATOM      8  C   UNL d   1      -5.071   5.960   6.000  0.00  0.00     0.284 C 
ATOM      9  H3  UNL d   1      -6.914   5.107   5.541  0.00  0.00     0.395 HD
ENDBRANCH   1   7
TORSDOF 1
ENDMDL
