MODEL 1
REMARK minimizedAffinity 4.2018342
REMARK minimizedRMSD -1
REMARK  1 active torsions:
REMARK  status: ('A' for Active; 'I' for Inactive)
REMARK    1  A    between atoms: N_2  and  C1_3 
ROOT
ATOM      1  C1  UNL d   1      -2.062   2.352   2.502  0.00  0.00     0.143 A 
ATOM      2  C2  UNL d   1      -1.348   1.152   2.414  0.00  0.00    -0.057 A 
ATOM      3  C3  UNL d   1      -0.359   0.966   1.441  0.00  0.00     0.033 A 
ATOM      4  C4  UNL d   1      -0.085   1.969   0.517  0.00  0.00    -0.042 A 
ATOM      5  C5  UNL d   1      -0.800   3.161   0.570  0.00  0.00     0.033 A 
ATOM      6  C6  UNL d   1      -1.782   3.344   1.548  0.00  0.00    -0.057 A 
ENDROOT
BRANCH   1   7
ATOM      7  N   UNL d   1      -3.125   2.562   3.383  0.00  0.00    -0.732 N 
ATOM      8  C   UNL d   1      -3.988   1.467   3.772  0.00  0.00     0.284 C 
ATOM      9  H3  UNL d   1      -2.879   3.189   4.146  0.00  0.00     0.395 HD
ENDBRANCH   1   7
TORSDOF 1
ENDMDL
