MODEL 1
REMARK minimizedAffinity 8.07193279
REMARK minimizedRMSD -1
REMARK  1 active torsions:
REMARK  status: ('A' for Active; 'I' for Inactive)
REMARK    1  A    between atoms: N_2  and  C1_3 
ROOT
ATOM      1  C1  UNL d   1       4.807   3.541  -4.768  0.00  0.00     0.143 A 
ATOM      2  C2  UNL d   1       4.725   4.770  -5.431  0.00  0.00    -0.057 A 
ATOM      3  C3  UNL d   1       3.491   5.384  -5.673  0.00  0.00     0.033 A 
ATOM      4  C4  UNL d   1       2.309   4.763  -5.281  0.00  0.00    -0.042 A 
ATOM      5  C5  UNL d   1       2.365   3.529  -4.643  0.00  0.00     0.033 A 
ATOM      6  C6  UNL d   1       3.601   2.924  -4.397  0.00  0.00    -0.057 A 
ENDROOT
BRANCH   1   7
ATOM      7  N   UNL d   1       5.997   2.833  -4.585  0.00  0.00    -0.732 N 
ATOM      8  C   UNL d   1       5.988   1.517  -3.983  0.00  0.00     0.284 C 
ATOM      9  H3  UNL d   1       6.628   2.923  -5.378  0.00  0.00     0.395 HD
ENDBRANCH   1   7
TORSDOF 1
ENDMDL
