MODEL 1
REMARK minimizedAffinity -0.416736007
REMARK minimizedRMSD -1
REMARK  0 active torsions:
REMARK  status: ('A' for Active; 'I' for Inactive)
ROOT
ATOM      1  C4' PXY d   1       2.442  -0.810   0.278  0.00  0.00     0.077 C 
ATOM      2  C1' PXY d   1      -2.313   2.026   1.940  0.00  0.00     0.077 C 
ATOM      3  C1  PXY d   1      -1.067   1.274   1.514  0.00  0.00    -0.082 A 
ATOM      4  C2  PXY d   1      -0.153   1.886   0.780  0.00  0.00     0.003 A 
ATOM      5  C3  PXY d   1       0.965   1.212   0.359  0.00  0.00     0.003 A 
ATOM      6  C4  PXY d   1       1.173  -0.087   0.739  0.00  0.00    -0.082 A 
ATOM      7  C5  PXY d   1       0.250  -0.716   1.497  0.00  0.00     0.003 A 
ATOM      8  C6  PXY d   1      -0.897  -0.026   1.879  0.00  0.00     0.003 A 
ENDROOT
TORSDOF 0
ENDMDL
