MODEL 1
REMARK minimizedAffinity -1.13620424
REMARK minimizedRMSD -1
REMARK  0 active torsions:
REMARK  status: ('A' for Active; 'I' for Inactive)
ROOT
ATOM      1  C4' PXY d   1      -5.622  -6.000   1.587  0.00  0.00     0.077 C 
ATOM      2  C1' PXY d   1      -3.673  -2.617  -2.676  0.00  0.00     0.077 C 
ATOM      3  C1  PXY d   1      -4.180  -3.515  -1.565  0.00  0.00    -0.082 A 
ATOM      4  C2  PXY d   1      -5.146  -3.087  -0.768  0.00  0.00     0.003 A 
ATOM      5  C3  PXY d   1      -5.594  -3.874   0.262  0.00  0.00     0.003 A 
ATOM      6  C4  PXY d   1      -5.085  -5.131   0.446  0.00  0.00    -0.082 A 
ATOM      7  C5  PXY d   1      -4.107  -5.579  -0.369  0.00  0.00     0.003 A 
ATOM      8  C6  PXY d   1      -3.637  -4.749  -1.383  0.00  0.00     0.003 A 
ENDROOT
TORSDOF 0
ENDMDL
