MODEL 1
REMARK minimizedAffinity 0.204515636
REMARK minimizedRMSD -1
REMARK  0 active torsions:
REMARK  status: ('A' for Active; 'I' for Inactive)
ROOT
ATOM      1  C4' PXY d   1      -3.475   1.882   2.779  0.00  0.00     0.077 C 
ATOM      2  C1' PXY d   1       1.485   0.240   0.307  0.00  0.00     0.077 C 
ATOM      3  C1  PXY d   1       0.178   0.661   0.950  0.00  0.00    -0.082 A 
ATOM      4  C2  PXY d   1      -0.003   1.924   1.297  0.00  0.00     0.003 A 
ATOM      5  C3  PXY d   1      -1.166   2.316   1.909  0.00  0.00     0.003 A 
ATOM      6  C4  PXY d   1      -2.176   1.414   2.119  0.00  0.00    -0.082 A 
ATOM      7  C5  PXY d   1      -2.003   0.125   1.757  0.00  0.00     0.003 A 
ATOM      8  C6  PXY d   1      -0.798  -0.260   1.175  0.00  0.00     0.003 A 
ENDROOT
TORSDOF 0
ENDMDL
