MODEL 1
REMARK minimizedAffinity 7.60216808
REMARK minimizedRMSD -1
REMARK  0 active torsions:
REMARK  status: ('A' for Active; 'I' for Inactive)
ROOT
ATOM      1  C4' PXY d   1       1.130   2.416   0.012  0.00  0.00     0.077 C 
ATOM      2  C1' PXY d   1      -3.689   2.429   3.204  0.00  0.00     0.077 C 
ATOM      3  C1  PXY d   1      -2.432   2.432   2.358  0.00  0.00    -0.082 A 
ATOM      4  C2  PXY d   1      -1.505   1.510   2.560  0.00  0.00     0.003 A 
ATOM      5  C3  PXY d   1      -0.347   1.517   1.825  0.00  0.00     0.003 A 
ATOM      6  C4  PXY d   1      -0.160   2.446   0.837  0.00  0.00    -0.082 A 
ATOM      7  C5  PXY d   1      -1.106   3.384   0.617  0.00  0.00     0.003 A 
ATOM      8  C6  PXY d   1      -2.255   3.384   1.402  0.00  0.00     0.003 A 
ENDROOT
TORSDOF 0
ENDMDL
