MODEL 1
REMARK minimizedAffinity -3.26930404
REMARK minimizedRMSD -1
REMARK  0 active torsions:
REMARK  status: ('A' for Active; 'I' for Inactive)
ROOT
ATOM      1  C4' PXY d   1       1.261   0.964   0.284  0.00  0.00     0.077 C 
ATOM      2  C1' PXY d   1      -3.970   0.915   2.745  0.00  0.00     0.077 C 
ATOM      3  C1  PXY d   1      -2.597   0.915   2.102  0.00  0.00    -0.082 A 
ATOM      4  C2  PXY d   1      -1.895   2.036   2.058  0.00  0.00     0.003 A 
ATOM      5  C3  PXY d   1      -0.665   2.061   1.452  0.00  0.00     0.003 A 
ATOM      6  C4  PXY d   1      -0.126   0.915   0.932  0.00  0.00    -0.082 A 
ATOM      7  C5  PXY d   1      -0.831  -0.235   0.982  0.00  0.00     0.003 A 
ATOM      8  C6  PXY d   1      -2.095  -0.230   1.565  0.00  0.00     0.003 A 
ENDROOT
TORSDOF 0
ENDMDL
