MODEL 1
REMARK minimizedAffinity -4.03321409
REMARK minimizedRMSD -1
REMARK  0 active torsions:
REMARK  status: ('A' for Active; 'I' for Inactive)
ROOT
ATOM      1  C4' PXY d   1       2.091   0.023   3.900  0.00  0.00     0.077 C 
ATOM      2  C1' PXY d   1      -1.453   1.720  -0.339  0.00  0.00     0.077 C 
ATOM      3  C1  PXY d   1      -0.517   1.286   0.772  0.00  0.00    -0.082 A 
ATOM      4  C2  PXY d   1      -0.327  -0.003   1.001  0.00  0.00     0.003 A 
ATOM      5  C3  PXY d   1       0.491  -0.413   2.023  0.00  0.00     0.003 A 
ATOM      6  C4  PXY d   1       1.163   0.506   2.783  0.00  0.00    -0.082 A 
ATOM      7  C5  PXY d   1       0.982   1.824   2.548  0.00  0.00     0.003 A 
ATOM      8  C6  PXY d   1       0.116   2.219   1.533  0.00  0.00     0.003 A 
ENDROOT
TORSDOF 0
ENDMDL
