MODEL 1
REMARK minimizedAffinity -1.74208283
REMARK minimizedRMSD -1
REMARK  0 active torsions:
REMARK  status: ('A' for Active; 'I' for Inactive)
ROOT
ATOM      1  C4' PXY d   1      -3.868   1.976   3.254  0.00  0.00     0.077 C 
ATOM      2  C1' PXY d   1       1.088   0.277   0.811  0.00  0.00     0.077 C 
ATOM      3  C1  PXY d   1      -0.207   0.734   1.454  0.00  0.00    -0.082 A 
ATOM      4  C2  PXY d   1      -1.031  -0.161   1.973  0.00  0.00     0.003 A 
ATOM      5  C3  PXY d   1      -2.221   0.233   2.530  0.00  0.00     0.003 A 
ATOM      6  C4  PXY d   1      -2.546   1.561   2.603  0.00  0.00    -0.082 A 
ATOM      7  C5  PXY d   1      -1.705   2.481   2.085  0.00  0.00     0.003 A 
ATOM      8  C6  PXY d   1      -0.521   2.058   1.488  0.00  0.00     0.003 A 
ENDROOT
TORSDOF 0
ENDMDL
