MODEL 1
REMARK minimizedAffinity -1.81536663
REMARK minimizedRMSD -1
REMARK  0 active torsions:
REMARK  status: ('A' for Active; 'I' for Inactive)
ROOT
ATOM      1  C4' PXY d   1       1.313   0.514   0.685  0.00  0.00     0.077 C 
ATOM      2  C1' PXY d   1      -3.869   2.121   2.679  0.00  0.00     0.077 C 
ATOM      3  C1  PXY d   1      -2.507   1.712   2.154  0.00  0.00    -0.082 A 
ATOM      4  C2  PXY d   1      -2.331   0.492   1.674  0.00  0.00     0.003 A 
ATOM      5  C3  PXY d   1      -1.097   0.095   1.225  0.00  0.00     0.003 A 
ATOM      6  C4  PXY d   1      -0.047   0.974   1.217  0.00  0.00    -0.082 A 
ATOM      7  C5  PXY d   1      -0.222   2.224   1.695  0.00  0.00     0.003 A 
ATOM      8  C6  PXY d   1      -1.472   2.594   2.185  0.00  0.00     0.003 A 
ENDROOT
TORSDOF 0
ENDMDL
