MODEL 1
REMARK minimizedAffinity 2.85656476
REMARK minimizedRMSD -1
REMARK  0 active torsions:
REMARK  status: ('A' for Active; 'I' for Inactive)
ROOT
ATOM      1  C4' PXY d   1       2.809   0.157  -0.537  0.00  0.00     0.077 C 
ATOM      2  C1' PXY d   1      -2.292  -0.052   2.174  0.00  0.00     0.077 C 
ATOM      3  C1  PXY d   1      -0.949  -0.005   1.472  0.00  0.00    -0.082 A 
ATOM      4  C2  PXY d   1      -0.661   1.014   0.679  0.00  0.00     0.003 A 
ATOM      5  C3  PXY d   1       0.536   1.057   0.011  0.00  0.00     0.003 A 
ATOM      6  C4  PXY d   1       1.469   0.073   0.199  0.00  0.00    -0.082 A 
ATOM      7  C5  PXY d   1       1.187  -0.965   1.015  0.00  0.00     0.003 A 
ATOM      8  C6  PXY d   1      -0.050  -1.010   1.652  0.00  0.00     0.003 A 
ENDROOT
TORSDOF 0
ENDMDL
