MODEL 1
REMARK minimizedAffinity 0.185170054
REMARK minimizedRMSD -1
REMARK  0 active torsions:
REMARK  status: ('A' for Active; 'I' for Inactive)
ROOT
ATOM      1  C4' PXY d   1      -3.437  -0.445   2.856  0.00  0.00     0.077 C 
ATOM      2  C1' PXY d   1       1.194   1.564   0.039  0.00  0.00     0.077 C 
ATOM      3  C1  PXY d   1      -0.017   1.025   0.775  0.00  0.00    -0.082 A 
ATOM      4  C2  PXY d   1      -1.094   1.782   0.905  0.00  0.00     0.003 A 
ATOM      5  C3  PXY d   1      -2.186   1.323   1.596  0.00  0.00     0.003 A 
ATOM      6  C4  PXY d   1      -2.195   0.055   2.112  0.00  0.00    -0.082 A 
ATOM      7  C5  PXY d   1      -1.104  -0.728   1.975  0.00  0.00     0.003 A 
ATOM      8  C6  PXY d   1       0.009  -0.228   1.306  0.00  0.00     0.003 A 
ENDROOT
TORSDOF 0
ENDMDL
