MODEL 1
REMARK minimizedAffinity 1.77280343
REMARK minimizedRMSD -1
REMARK  0 active torsions:
REMARK  status: ('A' for Active; 'I' for Inactive)
ROOT
ATOM      1  C4' PXY d   1      -0.128  -2.670   1.628  0.00  0.00     0.077 C 
ATOM      2  C1' PXY d   1      -0.467   3.074   1.075  0.00  0.00     0.077 C 
ATOM      3  C1  PXY d   1      -0.391   1.567   1.221  0.00  0.00    -0.082 A 
ATOM      4  C2  PXY d   1       0.727   1.007   1.656  0.00  0.00     0.003 A 
ATOM      5  C3  PXY d   1       0.823  -0.356   1.763  0.00  0.00     0.003 A 
ATOM      6  C4  PXY d   1      -0.253  -1.152   1.474  0.00  0.00    -0.082 A 
ATOM      7  C5  PXY d   1      -1.400  -0.588   1.040  0.00  0.00     0.003 A 
ATOM      8  C6  PXY d   1      -1.464   0.795   0.898  0.00  0.00     0.003 A 
ENDROOT
TORSDOF 0
ENDMDL
