MODEL 1
REMARK minimizedAffinity 3.29726577
REMARK minimizedRMSD -1
REMARK  0 active torsions:
REMARK  status: ('A' for Active; 'I' for Inactive)
ROOT
ATOM      1  C4' PXY d   1       1.979  -0.425   0.565  0.00  0.00     0.077 C 
ATOM      2  C1' PXY d   1      -3.066   1.897   2.168  0.00  0.00     0.077 C 
ATOM      3  C1  PXY d   1      -1.739   1.299   1.741  0.00  0.00    -0.082 A 
ATOM      4  C2  PXY d   1      -1.612  -0.015   1.656  0.00  0.00     0.003 A 
ATOM      5  C3  PXY d   1      -0.410  -0.574   1.302  0.00  0.00     0.003 A 
ATOM      6  C4  PXY d   1       0.656   0.223   0.982  0.00  0.00    -0.082 A 
ATOM      7  C5  PXY d   1       0.531   1.565   1.057  0.00  0.00     0.003 A 
ATOM      8  C6  PXY d   1      -0.685   2.111   1.457  0.00  0.00     0.003 A 
ENDROOT
TORSDOF 0
ENDMDL
