MODEL 1
REMARK minimizedAffinity 4.35652065
REMARK minimizedRMSD -1
REMARK  0 active torsions:
REMARK  status: ('A' for Active; 'I' for Inactive)
ROOT
ATOM      1  C4' PXY d   1      -1.006   2.451   2.064  0.00  0.00     0.077 C 
ATOM      2  C1' PXY d   1       3.479  -0.418  -0.188  0.00  0.00     0.077 C 
ATOM      3  C1  PXY d   1       2.306   0.345   0.397  0.00  0.00    -0.082 A 
ATOM      4  C2  PXY d   1       1.752  -0.070   1.524  0.00  0.00     0.003 A 
ATOM      5  C3  PXY d   1       0.671   0.589   2.049  0.00  0.00     0.003 A 
ATOM      6  C4  PXY d   1       0.185   1.717   1.443  0.00  0.00    -0.082 A 
ATOM      7  C5  PXY d   1       0.752   2.153   0.298  0.00  0.00     0.003 A 
ATOM      8  C6  PXY d   1       1.823   1.446  -0.241  0.00  0.00     0.003 A 
ENDROOT
TORSDOF 0
ENDMDL
