MODEL 1
REMARK minimizedAffinity 5.62536526
REMARK minimizedRMSD -1
REMARK  0 active torsions:
REMARK  status: ('A' for Active; 'I' for Inactive)
ROOT
ATOM      1  C4' PXY d   1      -4.164   2.076   3.621  0.00  0.00     0.077 C 
ATOM      2  C1' PXY d   1       0.839   1.355   0.816  0.00  0.00     0.077 C 
ATOM      3  C1  PXY d   1      -0.476   1.532   1.550  0.00  0.00    -0.082 A 
ATOM      4  C2  PXY d   1      -1.021   2.734   1.636  0.00  0.00     0.003 A 
ATOM      5  C3  PXY d   1      -2.193   2.917   2.323  0.00  0.00     0.003 A 
ATOM      6  C4  PXY d   1      -2.842   1.849   2.882  0.00  0.00    -0.082 A 
ATOM      7  C5  PXY d   1      -2.298   0.617   2.790  0.00  0.00     0.003 A 
ATOM      8  C6  PXY d   1      -1.086   0.459   2.123  0.00  0.00     0.003 A 
ENDROOT
TORSDOF 0
ENDMDL
