MODEL 1
REMARK minimizedAffinity -0.0773701593
REMARK minimizedRMSD -1
REMARK  0 active torsions:
REMARK  status: ('A' for Active; 'I' for Inactive)
ROOT
ATOM      1  C4' PXY d   1      -4.393  -0.021  -2.612  0.00  0.00     0.077 C 
ATOM      2  C1' PXY d   1      -3.279  -5.512  -1.189  0.00  0.00     0.077 C 
ATOM      3  C1  PXY d   1      -3.562  -4.072  -1.571  0.00  0.00    -0.082 A 
ATOM      4  C2  PXY d   1      -4.122  -3.259  -0.690  0.00  0.00     0.003 A 
ATOM      5  C3  PXY d   1      -4.414  -1.963  -1.030  0.00  0.00     0.003 A 
ATOM      6  C4  PXY d   1      -4.080  -1.479  -2.267  0.00  0.00    -0.082 A 
ATOM      7  C5  PXY d   1      -3.499  -2.300  -3.168  0.00  0.00     0.003 A 
ATOM      8  C6  PXY d   1      -3.249  -3.623  -2.817  0.00  0.00     0.003 A 
ENDROOT
TORSDOF 0
ENDMDL
