MODEL 1
REMARK minimizedAffinity 0.170402497
REMARK minimizedRMSD -1
REMARK  0 active torsions:
REMARK  status: ('A' for Active; 'I' for Inactive)
ROOT
ATOM      1  C4' PXY d   1       1.073   1.922   0.538  0.00  0.00     0.077 C 
ATOM      2  C1' PXY d   1      -3.990   1.559   3.303  0.00  0.00     0.077 C 
ATOM      3  C1  PXY d   1      -2.658   1.645   2.586  0.00  0.00    -0.082 A 
ATOM      4  C2  PXY d   1      -2.324   2.761   1.957  0.00  0.00     0.003 A 
ATOM      5  C3  PXY d   1      -1.137   2.844   1.276  0.00  0.00     0.003 A 
ATOM      6  C4  PXY d   1      -0.259   1.794   1.283  0.00  0.00    -0.082 A 
ATOM      7  C5  PXY d   1      -0.587   0.656   1.931  0.00  0.00     0.003 A 
ATOM      8  C6  PXY d   1      -1.815   0.577   2.582  0.00  0.00     0.003 A 
ENDROOT
TORSDOF 0
ENDMDL
