MODEL 1
REMARK minimizedAffinity -2.06994295
REMARK minimizedRMSD -1
REMARK  0 active torsions:
REMARK  status: ('A' for Active; 'I' for Inactive)
ROOT
ATOM      1  C4' PXY d   1       1.595   0.033   0.306  0.00  0.00     0.077 C 
ATOM      2  C1' PXY d   1      -3.518   1.422   2.617  0.00  0.00     0.077 C 
ATOM      3  C1  PXY d   1      -2.176   1.070   2.006  0.00  0.00    -0.082 A 
ATOM      4  C2  PXY d   1      -1.887  -0.195   1.747  0.00  0.00     0.003 A 
ATOM      5  C3  PXY d   1      -0.666  -0.535   1.224  0.00  0.00     0.003 A 
ATOM      6  C4  PXY d   1       0.249   0.436   0.914  0.00  0.00    -0.082 A 
ATOM      7  C5  PXY d   1      -0.042   1.730   1.165  0.00  0.00     0.003 A 
ATOM      8  C6  PXY d   1      -1.271   2.050   1.734  0.00  0.00     0.003 A 
ENDROOT
TORSDOF 0
ENDMDL
