MODEL 1
REMARK minimizedAffinity 1.75607848
REMARK minimizedRMSD -1
REMARK  0 active torsions:
REMARK  status: ('A' for Active; 'I' for Inactive)
ROOT
ATOM      1  C4' PXY d   1      -3.524  -0.522   2.197  0.00  0.00     0.077 C 
ATOM      2  C1' PXY d   1       1.703   1.427   0.683  0.00  0.00     0.077 C 
ATOM      3  C1  PXY d   1       0.335   0.905   1.074  0.00  0.00    -0.082 A 
ATOM      4  C2  PXY d   1      -0.638   1.759   1.347  0.00  0.00     0.003 A 
ATOM      5  C3  PXY d   1      -1.872   1.304   1.733  0.00  0.00     0.003 A 
ATOM      6  C4  PXY d   1      -2.129  -0.040   1.789  0.00  0.00    -0.082 A 
ATOM      7  C5  PXY d   1      -1.145  -0.918   1.501  0.00  0.00     0.003 A 
ATOM      8  C6  PXY d   1       0.113  -0.435   1.151  0.00  0.00     0.003 A 
ENDROOT
TORSDOF 0
ENDMDL
