MODEL 1
REMARK minimizedAffinity -2.11410308
REMARK minimizedRMSD -1
REMARK  0 active torsions:
REMARK  status: ('A' for Active; 'I' for Inactive)
ROOT
ATOM      1  C4' PXY d   1       2.557  -0.230   0.449  0.00  0.00     0.077 C 
ATOM      2  C1' PXY d   1      -2.385   2.145   2.281  0.00  0.00     0.077 C 
ATOM      3  C1  PXY d   1      -1.085   1.533   1.795  0.00  0.00    -0.082 A 
ATOM      4  C2  PXY d   1      -1.009   0.227   1.600  0.00  0.00     0.003 A 
ATOM      5  C3  PXY d   1       0.167  -0.347   1.192  0.00  0.00     0.003 A 
ATOM      6  C4  PXY d   1       1.263   0.432   0.930  0.00  0.00    -0.082 A 
ATOM      7  C5  PXY d   1       1.191   1.767   1.116  0.00  0.00     0.003 A 
ATOM      8  C6  PXY d   1      -0.001   2.324   1.570  0.00  0.00     0.003 A 
ENDROOT
TORSDOF 0
ENDMDL
