MODEL 1
REMARK minimizedAffinity -2.15539479
REMARK minimizedRMSD -1
REMARK  0 active torsions:
REMARK  status: ('A' for Active; 'I' for Inactive)
ROOT
ATOM      1  C4' PXY d   1      -2.760   1.914   2.485  0.00  0.00     0.077 C 
ATOM      2  C1' PXY d   1       2.261   0.295   0.123  0.00  0.00     0.077 C 
ATOM      3  C1  PXY d   1       0.939   0.708   0.740  0.00  0.00    -0.082 A 
ATOM      4  C2  PXY d   1       0.643   1.992   0.852  0.00  0.00     0.003 A 
ATOM      5  C3  PXY d   1      -0.534   2.384   1.436  0.00  0.00     0.003 A 
ATOM      6  C4  PXY d   1      -1.441   1.451   1.861  0.00  0.00    -0.082 A 
ATOM      7  C5  PXY d   1      -1.151   0.138   1.740  0.00  0.00     0.003 A 
ATOM      8  C6  PXY d   1       0.068  -0.239   1.182  0.00  0.00     0.003 A 
ENDROOT
TORSDOF 0
ENDMDL
