MODEL 1
REMARK minimizedAffinity -4.46334791
REMARK minimizedRMSD -1
REMARK  0 active torsions:
REMARK  status: ('A' for Active; 'I' for Inactive)
ROOT
ATOM      1  C4' PXY d   1      -2.415   0.966   0.167  0.00  0.00     0.077 C 
ATOM      2  C1' PXY d   1       2.160  -0.269   3.478  0.00  0.00     0.077 C 
ATOM      3  C1  PXY d   1       0.968   0.059   2.600  0.00  0.00    -0.082 A 
ATOM      4  C2  PXY d   1      -0.209   0.293   3.156  0.00  0.00     0.003 A 
ATOM      5  C3  PXY d   1      -1.305   0.559   2.376  0.00  0.00     0.003 A 
ATOM      6  C4  PXY d   1      -1.182   0.640   1.015  0.00  0.00    -0.082 A 
ATOM      7  C5  PXY d   1       0.018   0.414   0.440  0.00  0.00     0.003 A 
ATOM      8  C6  PXY d   1       1.109   0.104   1.247  0.00  0.00     0.003 A 
ENDROOT
TORSDOF 0
ENDMDL
