MODEL 1
REMARK minimizedAffinity -4.29534245
REMARK minimizedRMSD -1
REMARK  0 active torsions:
REMARK  status: ('A' for Active; 'I' for Inactive)
ROOT
ATOM      1  C4' PXY d   1       2.250   1.257  -3.253  0.00  0.00     0.077 C 
ATOM      2  C1' PXY d   1      -2.469  -1.512  -5.119  0.00  0.00     0.077 C 
ATOM      3  C1  PXY d   1      -1.231  -0.780  -4.641  0.00  0.00    -0.082 A 
ATOM      4  C2  PXY d   1      -0.490  -1.305  -3.678  0.00  0.00     0.003 A 
ATOM      5  C3  PXY d   1       0.615  -0.641  -3.212  0.00  0.00     0.003 A 
ATOM      6  C4  PXY d   1       0.996   0.548  -3.773  0.00  0.00    -0.082 A 
ATOM      7  C5  PXY d   1       0.252   1.086  -4.763  0.00  0.00     0.003 A 
ATOM      8  C6  PXY d   1      -0.889   0.416  -5.194  0.00  0.00     0.003 A 
ENDROOT
TORSDOF 0
ENDMDL
