MODEL 1
REMARK minimizedAffinity -3.72239208
REMARK minimizedRMSD -1
REMARK  0 active torsions:
REMARK  status: ('A' for Active; 'I' for Inactive)
ROOT
ATOM      1  C4' PXY d   1       0.743  -0.732  -1.502  0.00  0.00     0.077 C 
ATOM      2  C1' PXY d   1       0.709   0.020   4.229  0.00  0.00     0.077 C 
ATOM      3  C1  PXY d   1       0.705  -0.178   2.726  0.00  0.00    -0.082 A 
ATOM      4  C2  PXY d   1       1.786  -0.649   2.125  0.00  0.00     0.003 A 
ATOM      5  C3  PXY d   1       1.810  -0.804   0.763  0.00  0.00     0.003 A 
ATOM      6  C4  PXY d   1       0.699  -0.525   0.014  0.00  0.00    -0.082 A 
ATOM      7  C5  PXY d   1      -0.412  -0.055   0.621  0.00  0.00     0.003 A 
ATOM      8  C6  PXY d   1      -0.402   0.134   2.000  0.00  0.00     0.003 A 
ENDROOT
TORSDOF 0
ENDMDL
