MODEL 1
REMARK minimizedAffinity -3.90811014
REMARK minimizedRMSD -1
REMARK  0 active torsions:
REMARK  status: ('A' for Active; 'I' for Inactive)
ROOT
ATOM      1  C4' PXY d   1       0.126  -1.416  -1.231  0.00  0.00     0.077 C 
ATOM      2  C1' PXY d   1      -0.426   1.954   3.433  0.00  0.00     0.077 C 
ATOM      3  C1  PXY d   1      -0.269   1.074   2.209  0.00  0.00    -0.082 A 
ATOM      4  C2  PXY d   1      -1.336   0.742   1.500  0.00  0.00     0.003 A 
ATOM      5  C3  PXY d   1      -1.216  -0.079   0.408  0.00  0.00     0.003 A 
ATOM      6  C4  PXY d   1       0.016  -0.522   0.007  0.00  0.00    -0.082 A 
ATOM      7  C5  PXY d   1       1.111  -0.180   0.719  0.00  0.00     0.003 A 
ATOM      8  C6  PXY d   1       0.962   0.621   1.848  0.00  0.00     0.003 A 
ENDROOT
TORSDOF 0
ENDMDL
