MODEL 1
REMARK minimizedAffinity -4.13054132
REMARK minimizedRMSD -1
REMARK  0 active torsions:
REMARK  status: ('A' for Active; 'I' for Inactive)
ROOT
ATOM      1  C4' PXY d   1       0.510  -1.114  -0.901  0.00  0.00     0.077 C 
ATOM      2  C1' PXY d   1       0.035   1.430   4.268  0.00  0.00     0.077 C 
ATOM      3  C1  PXY d   1       0.173   0.762   2.914  0.00  0.00    -0.082 A 
ATOM      4  C2  PXY d   1      -0.752   0.963   1.989  0.00  0.00     0.003 A 
ATOM      5  C3  PXY d   1      -0.660   0.341   0.770  0.00  0.00     0.003 A 
ATOM      6  C4  PXY d   1       0.417  -0.452   0.477  0.00  0.00    -0.082 A 
ATOM      7  C5  PXY d   1       1.370  -0.654   1.411  0.00  0.00     0.003 A 
ATOM      8  C6  PXY d   1       1.237  -0.046   2.657  0.00  0.00     0.003 A 
ENDROOT
TORSDOF 0
ENDMDL
