MODEL 1
REMARK minimizedAffinity -4.71756363
REMARK minimizedRMSD -1
REMARK  0 active torsions:
REMARK  status: ('A' for Active; 'I' for Inactive)
ROOT
ATOM      1  C4' PXY d   1      -1.391   0.189   2.415  0.00  0.00     0.077 C 
ATOM      2  C1' PXY d   1       0.824  -0.129  -2.915  0.00  0.00     0.077 C 
ATOM      3  C1  PXY d   1       0.240  -0.058  -1.518  0.00  0.00    -0.082 A 
ATOM      4  C2  PXY d   1      -0.116   1.114  -1.017  0.00  0.00     0.003 A 
ATOM      5  C3  PXY d   1      -0.617   1.200   0.257  0.00  0.00     0.003 A 
ATOM      6  C4  PXY d   1      -0.805   0.069   1.005  0.00  0.00    -0.082 A 
ATOM      7  C5  PXY d   1      -0.455  -1.131   0.497  0.00  0.00     0.003 A 
ATOM      8  C6  PXY d   1       0.090  -1.193  -0.783  0.00  0.00     0.003 A 
ENDROOT
TORSDOF 0
ENDMDL
