MODEL 1
REMARK minimizedAffinity -1.77568841
REMARK minimizedRMSD -1
REMARK  0 active torsions:
REMARK  status: ('A' for Active; 'I' for Inactive)
ROOT
ATOM      1  C4' PXY d   1       2.460   0.867  -3.036  0.00  0.00     0.077 C 
ATOM      2  C1' PXY d   1      -2.661  -0.915  -5.039  0.00  0.00     0.077 C 
ATOM      3  C1  PXY d   1      -1.320  -0.454  -4.502  0.00  0.00    -0.082 A 
ATOM      4  C2  PXY d   1      -0.763   0.643  -4.989  0.00  0.00     0.003 A 
ATOM      5  C3  PXY d   1       0.464   1.057  -4.538  0.00  0.00     0.003 A 
ATOM      6  C4  PXY d   1       1.103   0.369  -3.541  0.00  0.00    -0.082 A 
ATOM      7  C5  PXY d   1       0.536  -0.745  -3.032  0.00  0.00     0.003 A 
ATOM      8  C6  PXY d   1      -0.691  -1.171  -3.532  0.00  0.00     0.003 A 
ENDROOT
TORSDOF 0
ENDMDL
