MODEL 1
REMARK minimizedAffinity -3.19875121
REMARK minimizedRMSD -1
REMARK  0 active torsions:
REMARK  status: ('A' for Active; 'I' for Inactive)
ROOT
ATOM      1  C4' PXY d   1      -0.076  -0.485  -1.103  0.00  0.00     0.077 C 
ATOM      2  C1' PXY d   1      -0.328   1.663   4.258  0.00  0.00     0.077 C 
ATOM      3  C1  PXY d   1      -0.251   1.107   2.849  0.00  0.00    -0.082 A 
ATOM      4  C2  PXY d   1      -1.337   0.606   2.284  0.00  0.00     0.003 A 
ATOM      5  C3  PXY d   1      -1.279   0.070   1.023  0.00  0.00     0.003 A 
ATOM      6  C4  PXY d   1      -0.108   0.096   0.313  0.00  0.00    -0.082 A 
ATOM      7  C5  PXY d   1       1.002   0.615   0.879  0.00  0.00     0.003 A 
ATOM      8  C6  PXY d   1       0.931   1.117   2.175  0.00  0.00     0.003 A 
ENDROOT
TORSDOF 0
ENDMDL
