MODEL 1
REMARK minimizedAffinity -4.66235971
REMARK minimizedRMSD -1
REMARK  0 active torsions:
REMARK  status: ('A' for Active; 'I' for Inactive)
ROOT
ATOM      1  C   UNL d   1      -1.388   0.769  -0.785  0.00  0.00     0.077 C 
ATOM      2  C1  UNL d   1      -0.011   0.745  -0.191  0.00  0.00    -0.074 A 
ATOM      3  C2  UNL d   1       0.734   1.921  -0.056  0.00  0.00    -0.005 A 
ATOM      4  C3  UNL d   1       2.010   1.884   0.507  0.00  0.00     0.006 A 
ATOM      5  C4  UNL d   1       2.551   0.674   0.942  0.00  0.00    -0.005 A 
ATOM      6  C5  UNL d   1       1.820  -0.512   0.816  0.00  0.00    -0.074 A 
ATOM      7  C6  UNL d   1       2.383  -1.820   1.287  0.00  0.00     0.077 C 
ATOM      8  C7  UNL d   1       0.536  -0.466   0.255  0.00  0.00    -0.001 A 
ENDROOT
TORSDOF 0
ENDMDL
