MODEL 1
REMARK minimizedAffinity -2.50878072
REMARK minimizedRMSD -1
REMARK  0 active torsions:
REMARK  status: ('A' for Active; 'I' for Inactive)
ROOT
ATOM      1  C   UNL d   1      -2.288   0.786  -0.365  0.00  0.00     0.077 C 
ATOM      2  C1  UNL d   1      -0.865   0.594   0.070  0.00  0.00    -0.074 A 
ATOM      3  C2  UNL d   1      -0.218   1.556   0.852  0.00  0.00    -0.005 A 
ATOM      4  C3  UNL d   1       1.103   1.359   1.257  0.00  0.00     0.006 A 
ATOM      5  C4  UNL d   1       1.787   0.202   0.885  0.00  0.00    -0.005 A 
ATOM      6  C5  UNL d   1       1.155  -0.771   0.104  0.00  0.00    -0.074 A 
ATOM      7  C6  UNL d   1       1.874  -2.025  -0.297  0.00  0.00     0.077 C 
ATOM      8  C7  UNL d   1      -0.174  -0.570  -0.294  0.00  0.00    -0.001 A 
ENDROOT
TORSDOF 0
ENDMDL
