MODEL 1
REMARK minimizedAffinity -4.930336
REMARK minimizedRMSD -1
REMARK  0 active torsions:
REMARK  status: ('A' for Active; 'I' for Inactive)
ROOT
ATOM      1  C   UNL d   1       0.059   1.927  -0.719  0.00  0.00     0.077 C 
ATOM      2  C1  UNL d   1       0.398   0.484  -0.492  0.00  0.00    -0.074 A 
ATOM      3  C2  UNL d   1      -0.246  -0.527  -1.214  0.00  0.00    -0.005 A 
ATOM      4  C3  UNL d   1       0.086  -1.865  -0.999  0.00  0.00     0.006 A 
ATOM      5  C4  UNL d   1       1.064  -2.204  -0.063  0.00  0.00    -0.005 A 
ATOM      6  C5  UNL d   1       1.718  -1.207   0.667  0.00  0.00    -0.074 A 
ATOM      7  C6  UNL d   1       2.778  -1.554   1.670  0.00  0.00     0.077 C 
ATOM      8  C7  UNL d   1       1.384   0.135   0.441  0.00  0.00    -0.001 A 
ENDROOT
TORSDOF 0
ENDMDL
