MODEL 1
REMARK minimizedAffinity -4.51792002
REMARK minimizedRMSD -1
REMARK  0 active torsions:
REMARK  status: ('A' for Active; 'I' for Inactive)
ROOT
ATOM      1  C   UNL d   1      -2.090   0.503  -0.214  0.00  0.00     0.077 C 
ATOM      2  C1  UNL d   1      -0.677   0.115   0.105  0.00  0.00    -0.074 A 
ATOM      3  C2  UNL d   1      -0.244  -1.206  -0.044  0.00  0.00    -0.005 A 
ATOM      4  C3  UNL d   1       1.076  -1.551   0.248  0.00  0.00     0.006 A 
ATOM      5  C4  UNL d   1       1.974  -0.579   0.691  0.00  0.00    -0.005 A 
ATOM      6  C5  UNL d   1       1.559   0.747   0.846  0.00  0.00    -0.074 A 
ATOM      7  C6  UNL d   1       2.514   1.806   1.312  0.00  0.00     0.077 C 
ATOM      8  C7  UNL d   1       0.233   1.087   0.544  0.00  0.00    -0.001 A 
ENDROOT
TORSDOF 0
ENDMDL
