MODEL 1
REMARK minimizedAffinity -4.91176081
REMARK minimizedRMSD -1
REMARK  0 active torsions:
REMARK  status: ('A' for Active; 'I' for Inactive)
ROOT
ATOM      1  C   UNL d   1      -0.860  -1.632  -2.266  0.00  0.00     0.077 C 
ATOM      2  C1  UNL d   1      -0.227  -0.867  -1.142  0.00  0.00    -0.074 A 
ATOM      3  C2  UNL d   1      -0.741   0.369  -0.735  0.00  0.00    -0.005 A 
ATOM      4  C3  UNL d   1      -0.147   1.064   0.319  0.00  0.00     0.006 A 
ATOM      5  C4  UNL d   1       0.963   0.532   0.975  0.00  0.00    -0.005 A 
ATOM      6  C5  UNL d   1       1.490  -0.703   0.583  0.00  0.00    -0.074 A 
ATOM      7  C6  UNL d   1       2.677  -1.294   1.284  0.00  0.00     0.077 C 
ATOM      8  C7  UNL d   1       0.884  -1.399  -0.472  0.00  0.00    -0.001 A 
ENDROOT
TORSDOF 0
ENDMDL
