MODEL 1
REMARK minimizedAffinity -4.83788633
REMARK minimizedRMSD -1
REMARK  0 active torsions:
REMARK  status: ('A' for Active; 'I' for Inactive)
ROOT
ATOM      1  C   UNL d   1      -1.869   0.529  -0.814  0.00  0.00     0.077 C 
ATOM      2  C1  UNL d   1      -0.490   0.656  -0.237  0.00  0.00    -0.074 A 
ATOM      3  C2  UNL d   1       0.142   1.900  -0.151  0.00  0.00    -0.005 A 
ATOM      4  C3  UNL d   1       1.421   2.003   0.397  0.00  0.00     0.006 A 
ATOM      5  C4  UNL d   1       2.079   0.865   0.863  0.00  0.00    -0.005 A 
ATOM      6  C5  UNL d   1       1.463  -0.388   0.786  0.00  0.00    -0.074 A 
ATOM      7  C6  UNL d   1       2.153  -1.620   1.291  0.00  0.00     0.077 C 
ATOM      8  C7  UNL d   1       0.175  -0.482   0.241  0.00  0.00    -0.001 A 
ENDROOT
TORSDOF 0
ENDMDL
