MODEL 1
REMARK minimizedAffinity -3.1262641
REMARK minimizedRMSD -1
REMARK  0 active torsions:
REMARK  status: ('A' for Active; 'I' for Inactive)
ROOT
ATOM      1  C   UNL d   1       0.042  -2.077  -1.587  0.00  0.00     0.077 C 
ATOM      2  C1  UNL d   1       0.655  -1.123  -0.604  0.00  0.00    -0.074 A 
ATOM      3  C2  UNL d   1       1.243  -1.588   0.577  0.00  0.00    -0.005 A 
ATOM      4  C3  UNL d   1       1.817  -0.690   1.477  0.00  0.00     0.006 A 
ATOM      5  C4  UNL d   1       1.810   0.678   1.205  0.00  0.00    -0.005 A 
ATOM      6  C5  UNL d   1       1.227   1.161   0.029  0.00  0.00    -0.074 A 
ATOM      7  C6  UNL d   1       1.219   2.628  -0.283  0.00  0.00     0.077 C 
ATOM      8  C7  UNL d   1       0.658   0.252  -0.874  0.00  0.00    -0.001 A 
ENDROOT
TORSDOF 0
ENDMDL
