MODEL 1
REMARK minimizedAffinity -3.21925282
REMARK minimizedRMSD -1
REMARK  0 active torsions:
REMARK  status: ('A' for Active; 'I' for Inactive)
ROOT
ATOM      1  C   UNL d   1       0.367   2.643   0.006  0.00  0.00     0.077 C 
ATOM      2  C1  UNL d   1       0.455   1.147  -0.061  0.00  0.00    -0.074 A 
ATOM      3  C2  UNL d   1      -0.563   0.392  -0.652  0.00  0.00    -0.005 A 
ATOM      4  C3  UNL d   1      -0.463  -0.997  -0.715  0.00  0.00     0.006 A 
ATOM      5  C4  UNL d   1       0.656  -1.646  -0.190  0.00  0.00    -0.005 A 
ATOM      6  C5  UNL d   1       1.685  -0.908   0.404  0.00  0.00    -0.074 A 
ATOM      7  C6  UNL d   1       2.898  -1.588   0.965  0.00  0.00     0.077 C 
ATOM      8  C7  UNL d   1       1.580   0.489   0.457  0.00  0.00    -0.001 A 
ENDROOT
TORSDOF 0
ENDMDL
