MODEL 1
REMARK minimizedAffinity 5.33032417
REMARK minimizedRMSD -1
REMARK  0 active torsions:
REMARK  status: ('A' for Active; 'I' for Inactive)
ROOT
ATOM      1  C   UNL d   1       3.107  -3.181  -0.058  0.00  0.00     0.172 C 
ATOM      2  N   UNL d   1       2.470  -1.972  -0.526  0.00  0.00    -0.070 N 
ATOM      3  C1  UNL d   1       1.873  -1.806  -1.747  0.00  0.00    -0.004 A 
ATOM      4  C2  UNL d   1       1.387  -0.518  -1.808  0.00  0.00    -0.047 A 
ATOM      5  C3  UNL d   1       1.705   0.112  -0.582  0.00  0.00    -0.047 A 
ATOM      6  C4  UNL d   1       2.375  -0.810   0.193  0.00  0.00    -0.004 A 
ENDROOT
TORSDOF 0
ENDMDL
