MODEL 1
REMARK minimizedAffinity 14.1017227
REMARK minimizedRMSD -1
REMARK  0 active torsions:
REMARK  status: ('A' for Active; 'I' for Inactive)
ROOT
ATOM      1  C   UNL d   1       2.204  -3.460  -0.320  0.00  0.00     0.172 C 
ATOM      2  N   UNL d   1       2.117  -2.138  -0.895  0.00  0.00    -0.070 N 
ATOM      3  C1  UNL d   1       2.578  -0.984  -0.320  0.00  0.00    -0.004 A 
ATOM      4  C2  UNL d   1       2.305   0.056  -1.182  0.00  0.00    -0.047 A 
ATOM      5  C3  UNL d   1       1.657  -0.492  -2.315  0.00  0.00    -0.047 A 
ATOM      6  C4  UNL d   1       1.553  -1.852  -2.111  0.00  0.00    -0.004 A 
ENDROOT
TORSDOF 0
ENDMDL
