MODEL 1
REMARK minimizedAffinity 11.7977095
REMARK minimizedRMSD -1
REMARK  0 active torsions:
REMARK  status: ('A' for Active; 'I' for Inactive)
ROOT
ATOM      1  C   UNL d   1      -3.255   1.625   2.821  0.00  0.00     0.172 C 
ATOM      2  N   UNL d   1      -1.827   1.429   2.730  0.00  0.00    -0.070 N 
ATOM      3  C1  UNL d   1      -0.927   1.640   3.740  0.00  0.00    -0.004 A 
ATOM      4  C2  UNL d   1       0.328   1.341   3.255  0.00  0.00    -0.047 A 
ATOM      5  C3  UNL d   1       0.177   0.937   1.908  0.00  0.00    -0.047 A 
ATOM      6  C4  UNL d   1      -1.168   1.001   1.608  0.00  0.00    -0.004 A 
ENDROOT
TORSDOF 0
ENDMDL
