MODEL 1
REMARK minimizedAffinity 5.42222548
REMARK minimizedRMSD -1
REMARK  0 active torsions:
REMARK  status: ('A' for Active; 'I' for Inactive)
ROOT
ATOM      1  C   UNL d   1       0.624   5.980   1.149  0.00  0.00     0.172 C 
ATOM      2  N   UNL d   1       1.469   5.981  -0.022  0.00  0.00    -0.070 N 
ATOM      3  C1  UNL d   1       2.838   5.979  -0.018  0.00  0.00    -0.004 A 
ATOM      4  C2  UNL d   1       3.264   5.981  -1.329  0.00  0.00    -0.047 A 
ATOM      5  C3  UNL d   1       2.110   5.985  -2.149  0.00  0.00    -0.047 A 
ATOM      6  C4  UNL d   1       1.013   5.985  -1.314  0.00  0.00    -0.004 A 
ENDROOT
TORSDOF 0
ENDMDL
