MODEL 1
REMARK minimizedAffinity 15.3301992
REMARK minimizedRMSD -1
REMARK  0 active torsions:
REMARK  status: ('A' for Active; 'I' for Inactive)
ROOT
ATOM      1  C   UNL d   1       3.419  -6.000   0.778  0.00  0.00     0.172 C 
ATOM      2  N   UNL d   1       3.446  -4.567   0.606  0.00  0.00    -0.070 N 
ATOM      3  C1  UNL d   1       2.381  -3.785   0.247  0.00  0.00    -0.004 A 
ATOM      4  C2  UNL d   1       2.815  -2.478   0.191  0.00  0.00    -0.047 A 
ATOM      5  C3  UNL d   1       4.190  -2.475   0.528  0.00  0.00    -0.047 A 
ATOM      6  C4  UNL d   1       4.554  -3.780   0.780  0.00  0.00    -0.004 A 
ENDROOT
TORSDOF 0
ENDMDL
