MODEL 1
REMARK minimizedAffinity 11.1767654
REMARK minimizedRMSD -1
REMARK  0 active torsions:
REMARK  status: ('A' for Active; 'I' for Inactive)
ROOT
ATOM      1  C   UNL d   1       2.227   1.273  -3.407  0.00  0.00     0.172 C 
ATOM      2  N   UNL d   1       2.320   2.596  -2.836  0.00  0.00    -0.070 N 
ATOM      3  C1  UNL d   1       3.357   3.068  -2.077  0.00  0.00    -0.004 A 
ATOM      4  C2  UNL d   1       3.067   4.369  -1.727  0.00  0.00    -0.047 A 
ATOM      5  C3  UNL d   1       1.811   4.690  -2.295  0.00  0.00    -0.047 A 
ATOM      6  C4  UNL d   1       1.371   3.575  -2.976  0.00  0.00    -0.004 A 
ENDROOT
TORSDOF 0
ENDMDL
