MODEL 1
REMARK minimizedAffinity 11.0239544
REMARK minimizedRMSD -1
REMARK  0 active torsions:
REMARK  status: ('A' for Active; 'I' for Inactive)
ROOT
ATOM      1  C   UNL d   1      -4.814  -1.430   3.014  0.00  0.00     0.172 C 
ATOM      2  N   UNL d   1      -4.276  -0.097   3.149  0.00  0.00    -0.070 N 
ATOM      3  C1  UNL d   1      -3.162   0.382   2.512  0.00  0.00    -0.004 A 
ATOM      4  C2  UNL d   1      -2.983   1.691   2.903  0.00  0.00    -0.047 A 
ATOM      5  C3  UNL d   1      -4.024   2.010   3.807  0.00  0.00    -0.047 A 
ATOM      6  C4  UNL d   1      -4.810   0.884   3.941  0.00  0.00    -0.004 A 
ENDROOT
TORSDOF 0
ENDMDL
