MODEL 1
REMARK minimizedAffinity 14.6267281
REMARK minimizedRMSD -1
REMARK  0 active torsions:
REMARK  status: ('A' for Active; 'I' for Inactive)
ROOT
ATOM      1  C   UNL d   1      -5.999  -3.394  -5.932  0.00  0.00     0.172 C 
ATOM      2  N   UNL d   1      -4.676  -3.220  -5.381  0.00  0.00    -0.070 N 
ATOM      3  C1  UNL d   1      -4.247  -3.694  -4.170  0.00  0.00    -0.004 A 
ATOM      4  C2  UNL d   1      -2.930  -3.321  -4.013  0.00  0.00    -0.047 A 
ATOM      5  C3  UNL d   1      -2.554  -2.597  -5.169  0.00  0.00    -0.047 A 
ATOM      6  C4  UNL d   1      -3.654  -2.550  -5.999  0.00  0.00    -0.004 A 
ENDROOT
TORSDOF 0
ENDMDL
