MODEL 1
REMARK minimizedAffinity 9.0041666
REMARK minimizedRMSD -1
REMARK  0 active torsions:
REMARK  status: ('A' for Active; 'I' for Inactive)
ROOT
ATOM      1  C   UNL d   1      -3.015   1.156   2.759  0.00  0.00     0.172 C 
ATOM      2  N   UNL d   1      -1.603   1.409   2.593  0.00  0.00    -0.070 N 
ATOM      3  C1  UNL d   1      -1.055   2.518   2.006  0.00  0.00    -0.004 A 
ATOM      4  C2  UNL d   1       0.316   2.382   2.044  0.00  0.00    -0.047 A 
ATOM      5  C3  UNL d   1       0.601   1.147   2.675  0.00  0.00    -0.047 A 
ATOM      6  C4  UNL d   1      -0.605   0.566   3.005  0.00  0.00    -0.004 A 
ENDROOT
TORSDOF 0
ENDMDL
