MODEL 1
REMARK minimizedAffinity -2.65096974
REMARK minimizedRMSD -1
REMARK  0 active torsions:
REMARK  status: ('A' for Active; 'I' for Inactive)
ROOT
ATOM      1  C   UNL d   1       3.123  -5.999  -2.230  0.00  0.00     0.172 C 
ATOM      2  N   UNL d   1       2.819  -4.633  -1.876  0.00  0.00    -0.070 N 
ATOM      3  C1  UNL d   1       3.207  -4.002  -0.725  0.00  0.00    -0.004 A 
ATOM      4  C2  UNL d   1       2.720  -2.713  -0.765  0.00  0.00    -0.047 A 
ATOM      5  C3  UNL d   1       2.012  -2.566  -1.981  0.00  0.00    -0.047 A 
ATOM      6  C4  UNL d   1       2.089  -3.770  -2.650  0.00  0.00    -0.004 A 
ENDROOT
TORSDOF 0
ENDMDL
