MODEL 1
REMARK minimizedAffinity 6.31056166
REMARK minimizedRMSD -1
REMARK  0 active torsions:
REMARK  status: ('A' for Active; 'I' for Inactive)
ROOT
ATOM      1  C   UNL d   1      -3.018   1.518   2.703  0.00  0.00     0.172 C 
ATOM      2  N   UNL d   1      -1.603   1.451   2.425  0.00  0.00    -0.070 N 
ATOM      3  C1  UNL d   1      -1.025   0.769   1.387  0.00  0.00    -0.004 A 
ATOM      4  C2  UNL d   1       0.339   0.953   1.469  0.00  0.00    -0.047 A 
ATOM      5  C3  UNL d   1       0.589   1.772   2.595  0.00  0.00    -0.047 A 
ATOM      6  C4  UNL d   1      -0.630   2.066   3.168  0.00  0.00    -0.004 A 
ENDROOT
TORSDOF 0
ENDMDL
