MODEL 1
REMARK minimizedAffinity 8.34326363
REMARK minimizedRMSD -1
REMARK  0 active torsions:
REMARK  status: ('A' for Active; 'I' for Inactive)
ROOT
ATOM      1  C   UNL d   1      -2.634   0.777   3.369  0.00  0.00     0.172 C 
ATOM      2  N   UNL d   1      -3.483   1.702   4.083  0.00  0.00    -0.070 N 
ATOM      3  C1  UNL d   1      -3.327   2.084   5.389  0.00  0.00    -0.004 A 
ATOM      4  C2  UNL d   1      -4.335   2.973   5.691  0.00  0.00    -0.047 A 
ATOM      5  C3  UNL d   1      -5.125   3.130   4.528  0.00  0.00    -0.047 A 
ATOM      6  C4  UNL d   1      -4.575   2.332   3.547  0.00  0.00    -0.004 A 
ENDROOT
TORSDOF 0
ENDMDL
