MODEL 1
REMARK minimizedAffinity 5.51586008
REMARK minimizedRMSD -1
REMARK  0 active torsions:
REMARK  status: ('A' for Active; 'I' for Inactive)
ROOT
ATOM      1  C   UNL d   1      -2.315   0.641   1.349  0.00  0.00     0.172 C 
ATOM      2  N   UNL d   1      -1.153   1.182   2.013  0.00  0.00    -0.070 N 
ATOM      3  C1  UNL d   1       0.052   0.548   2.158  0.00  0.00    -0.004 A 
ATOM      4  C2  UNL d   1       0.895   1.394   2.846  0.00  0.00    -0.047 A 
ATOM      5  C3  UNL d   1       0.171   2.577   3.126  0.00  0.00    -0.047 A 
ATOM      6  C4  UNL d   1      -1.094   2.419   2.599  0.00  0.00    -0.004 A 
ENDROOT
TORSDOF 0
ENDMDL
