MODEL 1
REMARK minimizedAffinity 7.35225725
REMARK minimizedRMSD -1
REMARK  0 active torsions:
REMARK  status: ('A' for Active; 'I' for Inactive)
ROOT
ATOM      1  C   UNL d   1       3.149   1.161   0.490  0.00  0.00     0.172 C 
ATOM      2  N   UNL d   1       2.606   0.293  -0.528  0.00  0.00    -0.070 N 
ATOM      3  C1  UNL d   1       2.768  -1.065  -0.589  0.00  0.00    -0.004 A 
ATOM      4  C2  UNL d   1       2.098  -1.521  -1.704  0.00  0.00    -0.047 A 
ATOM      5  C3  UNL d   1       1.514  -0.398  -2.335  0.00  0.00    -0.047 A 
ATOM      6  C4  UNL d   1       1.844   0.712  -1.586  0.00  0.00    -0.004 A 
ENDROOT
TORSDOF 0
ENDMDL
