MODEL 1
REMARK minimizedAffinity 6.18062162
REMARK minimizedRMSD -1
REMARK  0 active torsions:
REMARK  status: ('A' for Active; 'I' for Inactive)
ROOT
ATOM      1  C   UNL d   1      -0.746   5.998  -2.607  0.00  0.00     0.172 C 
ATOM      2  N   UNL d   1       0.328   5.999  -1.641  0.00  0.00    -0.070 N 
ATOM      3  C1  UNL d   1       1.665   5.999  -1.935  0.00  0.00    -0.004 A 
ATOM      4  C2  UNL d   1       2.359   6.000  -0.744  0.00  0.00    -0.047 A 
ATOM      5  C3  UNL d   1       1.405   5.999   0.302  0.00  0.00    -0.047 A 
ATOM      6  C4  UNL d   1       0.156   5.999  -0.282  0.00  0.00    -0.004 A 
ENDROOT
TORSDOF 0
ENDMDL
