MODEL 1
REMARK minimizedAffinity 8.55683041
REMARK minimizedRMSD -1
REMARK  0 active torsions:
REMARK  status: ('A' for Active; 'I' for Inactive)
ROOT
ATOM      1  C   UNL d   1       0.212   1.152   2.232  0.00  0.00     0.172 C 
ATOM      2  N   UNL d   1      -1.221   0.994   2.297  0.00  0.00    -0.070 N 
ATOM      3  C1  UNL d   1      -1.958   0.858   3.443  0.00  0.00    -0.004 A 
ATOM      4  C2  UNL d   1      -3.282   0.734   3.081  0.00  0.00    -0.047 A 
ATOM      5  C3  UNL d   1      -3.343   0.797   1.669  0.00  0.00    -0.047 A 
ATOM      6  C4  UNL d   1      -2.053   0.958   1.209  0.00  0.00    -0.004 A 
ENDROOT
TORSDOF 0
ENDMDL
