MODEL 1
REMARK minimizedAffinity 9.68364429
REMARK minimizedRMSD -1
REMARK  0 active torsions:
REMARK  status: ('A' for Active; 'I' for Inactive)
ROOT
ATOM      1  C   UNL d   1      -1.017  -4.169  -2.999  0.00  0.00     0.172 C 
ATOM      2  N   UNL d   1      -1.979  -3.843  -4.026  0.00  0.00    -0.070 N 
ATOM      3  C1  UNL d   1      -3.094  -3.067  -3.858  0.00  0.00    -0.004 A 
ATOM      4  C2  UNL d   1      -3.746  -2.997  -5.070  0.00  0.00    -0.047 A 
ATOM      5  C3  UNL d   1      -2.997  -3.759  -5.999  0.00  0.00    -0.047 A 
ATOM      6  C4  UNL d   1      -1.908  -4.271  -5.326  0.00  0.00    -0.004 A 
ENDROOT
TORSDOF 0
ENDMDL
