MODEL 1
REMARK minimizedAffinity 9.57640171
REMARK minimizedRMSD -1
REMARK  0 active torsions:
REMARK  status: ('A' for Active; 'I' for Inactive)
ROOT
ATOM      1  C   UNL d   1       0.773  -1.586  -1.635  0.00  0.00     0.172 C 
ATOM      2  N   UNL d   1       1.590  -0.400  -1.528  0.00  0.00    -0.070 N 
ATOM      3  C1  UNL d   1       1.820   0.504  -2.531  0.00  0.00    -0.004 A 
ATOM      4  C2  UNL d   1       2.646   1.488  -2.031  0.00  0.00    -0.047 A 
ATOM      5  C3  UNL d   1       2.923   1.163  -0.682  0.00  0.00    -0.047 A 
ATOM      6  C4  UNL d   1       2.257  -0.010  -0.397  0.00  0.00    -0.004 A 
ENDROOT
TORSDOF 0
ENDMDL
