MODEL 1
REMARK minimizedAffinity 10.2807751
REMARK minimizedRMSD -1
REMARK  1 active torsions:
REMARK  status: ('A' for Active; 'I' for Inactive)
REMARK    1  A    between atoms: C1_2  and  C2_3 
ROOT
ATOM      1  C2  UNL d   1       1.002   1.134   1.829  0.00  0.00    -0.081 A 
ATOM      2  C3  UNL d   1       1.025   2.139   0.854  0.00  0.00     0.006 A 
ATOM      3  C4  UNL d   1       2.025   2.158  -0.121  0.00  0.00     0.002 A 
ATOM      4  C5  UNL d   1       3.015   1.170  -0.142  0.00  0.00    -0.080 A 
ATOM      5  C6  UNL d   1       4.077   1.161  -1.201  0.00  0.00     0.076 C 
ATOM      6  C7  UNL d   1       3.003   0.176   0.843  0.00  0.00     0.002 A 
ATOM      7  C8  UNL d   1       2.003   0.156   1.818  0.00  0.00     0.006 A 
ENDROOT
BRANCH   1   8
ATOM      8  C1  UNL d   1      -0.112   1.074   2.842  0.00  0.00     0.054 C 
ATOM      9  C   UNL d   1       0.157   2.003   4.017  0.00  0.00     0.018 C 
ENDBRANCH   1   8
TORSDOF 1
ENDMDL
