MODEL 1
REMARK minimizedAffinity 8.38578129
REMARK minimizedRMSD -1
REMARK  1 active torsions:
REMARK  status: ('A' for Active; 'I' for Inactive)
REMARK    1  A    between atoms: C1_2  and  C2_3 
ROOT
ATOM      1  C2  UNL d   1       4.494   2.311  -0.827  0.00  0.00    -0.081 A 
ATOM      2  C3  UNL d   1       4.649   1.867   0.491  0.00  0.00     0.006 A 
ATOM      3  C4  UNL d   1       3.706   1.012   1.066  0.00  0.00     0.002 A 
ATOM      4  C5  UNL d   1       2.597   0.582   0.331  0.00  0.00    -0.080 A 
ATOM      5  C6  UNL d   1       1.593  -0.360   0.926  0.00  0.00     0.076 C 
ATOM      6  C7  UNL d   1       2.432   1.040  -0.981  0.00  0.00     0.002 A 
ATOM      7  C8  UNL d   1       3.375   1.895  -1.556  0.00  0.00     0.006 A 
ENDROOT
BRANCH   1   8
ATOM      8  C1  UNL d   1       5.543   3.181  -1.472  0.00  0.00     0.054 C 
ATOM      9  C   UNL d   1       6.000   4.287  -0.530  0.00  0.00     0.018 C 
ENDBRANCH   1   8
TORSDOF 1
ENDMDL
