MODEL 1
REMARK minimizedAffinity 7.24374771
REMARK minimizedRMSD -1
REMARK  1 active torsions:
REMARK  status: ('A' for Active; 'I' for Inactive)
REMARK    1  A    between atoms: C1_2  and  C2_3 
ROOT
ATOM      1  C2  UNL d   1       2.219  -1.145  -0.621  0.00  0.00    -0.081 A 
ATOM      2  C3  UNL d   1       2.855  -1.334   0.612  0.00  0.00     0.006 A 
ATOM      3  C4  UNL d   1       3.033  -0.261   1.489  0.00  0.00     0.002 A 
ATOM      4  C5  UNL d   1       2.571   1.016   1.151  0.00  0.00    -0.080 A 
ATOM      5  C6  UNL d   1       2.728   2.170   2.096  0.00  0.00     0.076 C 
ATOM      6  C7  UNL d   1       1.951   1.208  -0.088  0.00  0.00     0.002 A 
ATOM      7  C8  UNL d   1       1.774   0.135  -0.966  0.00  0.00     0.006 A 
ENDROOT
BRANCH   1   8
ATOM      8  C1  UNL d   1       1.969  -2.313  -1.541  0.00  0.00     0.054 C 
ATOM      9  C   UNL d   1       1.537  -1.846  -2.923  0.00  0.00     0.018 C 
ENDBRANCH   1   8
TORSDOF 1
ENDMDL
