MODEL 1
REMARK minimizedAffinity 10.230649
REMARK minimizedRMSD -1
REMARK  1 active torsions:
REMARK  status: ('A' for Active; 'I' for Inactive)
REMARK    1  A    between atoms: C1_2  and  C2_3 
ROOT
ATOM      1  C2  UNL d   1       1.007  -2.930  -0.420  0.00  0.00    -0.081 A 
ATOM      2  C3  UNL d   1       1.521  -2.533   0.820  0.00  0.00     0.006 A 
ATOM      3  C4  UNL d   1       2.301  -1.380   0.927  0.00  0.00     0.002 A 
ATOM      4  C5  UNL d   1       2.574  -0.600  -0.202  0.00  0.00    -0.080 A 
ATOM      5  C6  UNL d   1       3.386   0.657  -0.096  0.00  0.00     0.076 C 
ATOM      6  C7  UNL d   1       2.076  -1.006  -1.444  0.00  0.00     0.002 A 
ATOM      7  C8  UNL d   1       1.296  -2.160  -1.552  0.00  0.00     0.006 A 
ENDROOT
BRANCH   1   8
ATOM      8  C1  UNL d   1       0.112  -4.138  -0.528  0.00  0.00     0.054 C 
ATOM      9  C   UNL d   1      -1.084  -3.861  -1.428  0.00  0.00     0.018 C 
ENDBRANCH   1   8
TORSDOF 1
ENDMDL
