MODEL 1
REMARK minimizedAffinity 15.7777967
REMARK minimizedRMSD -1
REMARK  1 active torsions:
REMARK  status: ('A' for Active; 'I' for Inactive)
REMARK    1  A    between atoms: C1_2  and  C2_3 
ROOT
ATOM      1  C2  UNL d   1       3.967   1.073   0.761  0.00  0.00    -0.081 A 
ATOM      2  C3  UNL d   1       3.406  -0.099   1.284  0.00  0.00     0.006 A 
ATOM      3  C4  UNL d   1       2.443  -0.807   0.561  0.00  0.00     0.002 A 
ATOM      4  C5  UNL d   1       2.031  -0.361  -0.699  0.00  0.00    -0.080 A 
ATOM      5  C6  UNL d   1       1.021  -1.128  -1.499  0.00  0.00     0.076 C 
ATOM      6  C7  UNL d   1       2.579   0.819  -1.214  0.00  0.00     0.002 A 
ATOM      7  C8  UNL d   1       3.541   1.528  -0.492  0.00  0.00     0.006 A 
ENDROOT
BRANCH   1   8
ATOM      8  C1  UNL d   1       5.052   1.804   1.510  0.00  0.00     0.054 C 
ATOM      9  C   UNL d   1       4.581   3.177   1.966  0.00  0.00     0.018 C 
ENDBRANCH   1   8
TORSDOF 1
ENDMDL
