MODEL 1
REMARK minimizedAffinity 12.6157856
REMARK minimizedRMSD -1
REMARK  1 active torsions:
REMARK  status: ('A' for Active; 'I' for Inactive)
REMARK    1  A    between atoms: C1_2  and  C2_3 
ROOT
ATOM      1  C2  UNL d   1       3.223   2.975   2.882  0.00  0.00    -0.081 A 
ATOM      2  C3  UNL d   1       3.746   4.272   2.819  0.00  0.00     0.006 A 
ATOM      3  C4  UNL d   1       3.305   5.257   3.706  0.00  0.00     0.002 A 
ATOM      4  C5  UNL d   1       2.341   4.959   4.675  0.00  0.00    -0.080 A 
ATOM      5  C6  UNL d   1       1.881   6.000   5.652  0.00  0.00     0.076 C 
ATOM      6  C7  UNL d   1       1.805   3.668   4.726  0.00  0.00     0.002 A 
ATOM      7  C8  UNL d   1       2.245   2.683   3.839  0.00  0.00     0.006 A 
ENDROOT
BRANCH   1   8
ATOM      8  C1  UNL d   1       3.743   1.893   1.969  0.00  0.00     0.054 C 
ATOM      9  C   UNL d   1       2.986   1.872   0.649  0.00  0.00     0.018 C 
ENDBRANCH   1   8
TORSDOF 1
ENDMDL
