MODEL 1
REMARK minimizedAffinity 2.94028401
REMARK minimizedRMSD -1
REMARK  0 active torsions:
REMARK  status: ('A' for Active; 'I' for Inactive)
ROOT
ATOM      1  C   UNL d   1       2.334   3.229  -3.007  0.00  0.00     0.172 C 
ATOM      2  N   UNL d   1       1.731   1.973  -2.629  0.00  0.00    -0.070 N 
ATOM      3  C1  UNL d   1       0.408   1.780  -2.329  0.00  0.00    -0.004 A 
ATOM      4  C2  UNL d   1       0.235   0.448  -2.020  0.00  0.00    -0.047 A 
ATOM      5  C3  UNL d   1       1.497  -0.181  -2.138  0.00  0.00    -0.047 A 
ATOM      6  C4  UNL d   1       2.405   0.786  -2.516  0.00  0.00    -0.004 A 
ENDROOT
TORSDOF 0
ENDMDL
