MODEL 1
REMARK minimizedAffinity 0.427146792
REMARK minimizedRMSD -1
REMARK  0 active torsions:
REMARK  status: ('A' for Active; 'I' for Inactive)
ROOT
ATOM      1  C   UNL d   1       5.181   5.035   1.774  0.00  0.00     0.172 C 
ATOM      2  N   UNL d   1       5.114   5.257   3.200  0.00  0.00    -0.070 N 
ATOM      3  C1  UNL d   1       6.000   4.773   4.125  0.00  0.00    -0.004 A 
ATOM      4  C2  UNL d   1       5.590   5.206   5.368  0.00  0.00    -0.047 A 
ATOM      5  C3  UNL d   1       4.418   5.976   5.183  0.00  0.00    -0.047 A 
ATOM      6  C4  UNL d   1       4.145   5.992   3.831  0.00  0.00    -0.004 A 
ENDROOT
TORSDOF 0
ENDMDL
