MODEL 1
REMARK minimizedAffinity 0.141196012
REMARK minimizedRMSD -1
REMARK  0 active torsions:
REMARK  status: ('A' for Active; 'I' for Inactive)
ROOT
ATOM      1  C   UNL d   1       4.956   5.703   0.742  0.00  0.00     0.172 C 
ATOM      2  N   UNL d   1       4.911   5.780   2.183  0.00  0.00    -0.070 N 
ATOM      3  C1  UNL d   1       3.786   5.658   2.954  0.00  0.00    -0.004 A 
ATOM      4  C2  UNL d   1       4.162   5.790   4.274  0.00  0.00    -0.047 A 
ATOM      5  C3  UNL d   1       5.562   5.998   4.296  0.00  0.00    -0.047 A 
ATOM      6  C4  UNL d   1       6.000   5.988   2.988  0.00  0.00    -0.004 A 
ENDROOT
TORSDOF 0
ENDMDL
