MODEL 1
REMARK minimizedAffinity -1.58639634
REMARK minimizedRMSD -1
REMARK  0 active torsions:
REMARK  status: ('A' for Active; 'I' for Inactive)
ROOT
ATOM      1  C   UNL d   1       5.252   5.727   4.327  0.00  0.00     0.172 C 
ATOM      2  N   UNL d   1       5.171   5.425   2.918  0.00  0.00    -0.070 N 
ATOM      3  C1  UNL d   1       4.304   6.000   2.026  0.00  0.00    -0.004 A 
ATOM      4  C2  UNL d   1       4.543   5.445   0.788  0.00  0.00    -0.047 A 
ATOM      5  C3  UNL d   1       5.588   4.503   0.940  0.00  0.00    -0.047 A 
ATOM      6  C4  UNL d   1       5.958   4.511   2.268  0.00  0.00    -0.004 A 
ENDROOT
TORSDOF 0
ENDMDL
