MODEL 1
REMARK minimizedAffinity 4.20618105
REMARK minimizedRMSD -1
REMARK  0 active torsions:
REMARK  status: ('A' for Active; 'I' for Inactive)
ROOT
ATOM      1  C   UNL d   1       1.361  -2.247  -1.550  0.00  0.00     0.172 C 
ATOM      2  N   UNL d   1       1.648  -0.875  -1.899  0.00  0.00    -0.070 N 
ATOM      3  C1  UNL d   1       2.797  -0.197  -1.593  0.00  0.00    -0.004 A 
ATOM      4  C2  UNL d   1       2.682   1.080  -2.100  0.00  0.00    -0.047 A 
ATOM      5  C3  UNL d   1       1.419   1.172  -2.732  0.00  0.00    -0.047 A 
ATOM      6  C4  UNL d   1       0.799  -0.052  -2.592  0.00  0.00    -0.004 A 
ENDROOT
TORSDOF 0
ENDMDL
