MODEL 1
REMARK minimizedAffinity -0.746835947
REMARK minimizedRMSD -1
REMARK  0 active torsions:
REMARK  status: ('A' for Active; 'I' for Inactive)
ROOT
ATOM      1  C   UNL d   1      -5.852  -0.098   2.891  0.00  0.00     0.172 C 
ATOM      2  N   UNL d   1      -4.568   0.531   2.683  0.00  0.00    -0.070 N 
ATOM      3  C1  UNL d   1      -3.360   0.032   3.091  0.00  0.00    -0.004 A 
ATOM      4  C2  UNL d   1      -2.383   0.924   2.703  0.00  0.00    -0.047 A 
ATOM      5  C3  UNL d   1      -3.027   1.996   2.041  0.00  0.00    -0.047 A 
ATOM      6  C4  UNL d   1      -4.379   1.727   2.043  0.00  0.00    -0.004 A 
ENDROOT
TORSDOF 0
ENDMDL
