MODEL 1
REMARK minimizedAffinity 4.46983671
REMARK minimizedRMSD -1
REMARK  0 active torsions:
REMARK  status: ('A' for Active; 'I' for Inactive)
ROOT
ATOM      1  C   UNL d   1      -1.126   0.797  -0.268  0.00  0.00     0.172 C 
ATOM      2  N   UNL d   1      -1.490   0.937   1.122  0.00  0.00    -0.070 N 
ATOM      3  C1  UNL d   1      -2.355   0.126   1.807  0.00  0.00    -0.004 A 
ATOM      4  C2  UNL d   1      -2.433   0.591   3.102  0.00  0.00    -0.047 A 
ATOM      5  C3  UNL d   1      -1.585   1.720   3.199  0.00  0.00    -0.047 A 
ATOM      6  C4  UNL d   1      -1.014   1.912   1.959  0.00  0.00    -0.004 A 
ENDROOT
TORSDOF 0
ENDMDL
