MODEL 1
REMARK minimizedAffinity 0.454708576
REMARK minimizedRMSD -1
REMARK  0 active torsions:
REMARK  status: ('A' for Active; 'I' for Inactive)
ROOT
ATOM      1  C   UNL d   1       4.389   5.612   0.752  0.00  0.00     0.172 C 
ATOM      2  N   UNL d   1       4.800   5.518   2.133  0.00  0.00    -0.070 N 
ATOM      3  C1  UNL d   1       4.102   6.000   3.208  0.00  0.00    -0.004 A 
ATOM      4  C2  UNL d   1       4.826   5.711   4.345  0.00  0.00    -0.047 A 
ATOM      5  C3  UNL d   1       6.000   5.033   3.938  0.00  0.00    -0.047 A 
ATOM      6  C4  UNL d   1       5.958   4.927   2.564  0.00  0.00    -0.004 A 
ENDROOT
TORSDOF 0
ENDMDL
