MODEL 1
REMARK minimizedAffinity 1.95526612
REMARK minimizedRMSD -1
REMARK  0 active torsions:
REMARK  status: ('A' for Active; 'I' for Inactive)
ROOT
ATOM      1  C   UNL d   1       5.077   5.909   5.733  0.00  0.00     0.172 C 
ATOM      2  N   UNL d   1       4.953   5.945   4.295  0.00  0.00    -0.070 N 
ATOM      3  C1  UNL d   1       5.993   5.960   3.404  0.00  0.00    -0.004 A 
ATOM      4  C2  UNL d   1       5.459   5.994   2.134  0.00  0.00    -0.047 A 
ATOM      5  C3  UNL d   1       4.050   6.000   2.266  0.00  0.00    -0.047 A 
ATOM      6  C4  UNL d   1       3.764   5.969   3.614  0.00  0.00    -0.004 A 
ENDROOT
TORSDOF 0
ENDMDL
