MODEL 1
REMARK minimizedAffinity 1.87591887
REMARK minimizedRMSD -1
REMARK  0 active torsions:
REMARK  status: ('A' for Active; 'I' for Inactive)
ROOT
ATOM      1  C   UNL d   1       5.010   5.974   5.846  0.00  0.00     0.172 C 
ATOM      2  N   UNL d   1       4.923   5.974   4.405  0.00  0.00    -0.070 N 
ATOM      3  C1  UNL d   1       3.764   5.990   3.675  0.00  0.00    -0.004 A 
ATOM      4  C2  UNL d   1       4.106   5.984   2.340  0.00  0.00    -0.047 A 
ATOM      5  C3  UNL d   1       5.519   5.963   2.265  0.00  0.00    -0.047 A 
ATOM      6  C4  UNL d   1       5.999   5.957   3.557  0.00  0.00    -0.004 A 
ENDROOT
TORSDOF 0
ENDMDL
