MODEL 1
REMARK minimizedAffinity 3.31672692
REMARK minimizedRMSD -1
REMARK  0 active torsions:
REMARK  status: ('A' for Active; 'I' for Inactive)
ROOT
ATOM      1  C   UNL d   1       0.517   1.121  -5.154  0.00  0.00     0.172 C 
ATOM      2  N   UNL d   1       1.082   1.024  -3.829  0.00  0.00    -0.070 N 
ATOM      3  C1  UNL d   1       1.713   2.034  -3.153  0.00  0.00    -0.004 A 
ATOM      4  C2  UNL d   1       2.105   1.542  -1.927  0.00  0.00    -0.047 A 
ATOM      5  C3  UNL d   1       1.697   0.188  -1.864  0.00  0.00    -0.047 A 
ATOM      6  C4  UNL d   1       1.066  -0.106  -3.055  0.00  0.00    -0.004 A 
ENDROOT
TORSDOF 0
ENDMDL
