MODEL 1
REMARK minimizedAffinity 3.15454006
REMARK minimizedRMSD -1
REMARK  0 active torsions:
REMARK  status: ('A' for Active; 'I' for Inactive)
ROOT
ATOM      1  C   UNL d   1       5.388   5.798   4.205  0.00  0.00     0.172 C 
ATOM      2  N   UNL d   1       5.439   5.323   2.842  0.00  0.00    -0.070 N 
ATOM      3  C1  UNL d   1       4.944   5.981   1.748  0.00  0.00    -0.004 A 
ATOM      4  C2  UNL d   1       5.189   5.200   0.639  0.00  0.00    -0.047 A 
ATOM      5  C3  UNL d   1       5.853   4.032   1.082  0.00  0.00    -0.047 A 
ATOM      6  C4  UNL d   1       5.995   4.134   2.450  0.00  0.00    -0.004 A 
ENDROOT
TORSDOF 0
ENDMDL
