MODEL 1
REMARK minimizedAffinity 5.71062708
REMARK minimizedRMSD -1
REMARK  0 active torsions:
REMARK  status: ('A' for Active; 'I' for Inactive)
ROOT
ATOM      1  C   UNL d   1      -1.156   1.334  -1.545  0.00  0.00     0.172 C 
ATOM      2  N   UNL d   1       0.053   0.984  -2.252  0.00  0.00    -0.070 N 
ATOM      3  C1  UNL d   1       0.172   0.839  -3.609  0.00  0.00    -0.004 A 
ATOM      4  C2  UNL d   1       1.479   0.503  -3.885  0.00  0.00    -0.047 A 
ATOM      5  C3  UNL d   1       2.171   0.443  -2.652  0.00  0.00    -0.047 A 
ATOM      6  C4  UNL d   1       1.264   0.745  -1.658  0.00  0.00    -0.004 A 
ENDROOT
TORSDOF 0
ENDMDL
