MODEL 1
REMARK minimizedAffinity -2.37578964
REMARK minimizedRMSD -1
REMARK  0 active torsions:
REMARK  status: ('A' for Active; 'I' for Inactive)
ROOT
ATOM      1  C   UNL d   1       5.513   4.852   4.263  0.00  0.00     0.172 C 
ATOM      2  N   UNL d   1       5.296   5.133   2.863  0.00  0.00    -0.070 N 
ATOM      3  C1  UNL d   1       4.364   5.999   2.358  0.00  0.00    -0.004 A 
ATOM      4  C2  UNL d   1       4.475   5.986   0.985  0.00  0.00    -0.047 A 
ATOM      5  C3  UNL d   1       5.509   5.079   0.652  0.00  0.00    -0.047 A 
ATOM      6  C4  UNL d   1       6.000   4.565   1.834  0.00  0.00    -0.004 A 
ENDROOT
TORSDOF 0
ENDMDL
