MODEL 1
REMARK minimizedAffinity -1.10594726
REMARK minimizedRMSD -1
REMARK  0 active torsions:
REMARK  status: ('A' for Active; 'I' for Inactive)
ROOT
ATOM      1  C   UNL d   1       5.675   4.784   5.101  0.00  0.00     0.172 C 
ATOM      2  N   UNL d   1       5.426   5.038   3.702  0.00  0.00    -0.070 N 
ATOM      3  C1  UNL d   1       4.588   5.999   3.202  0.00  0.00    -0.004 A 
ATOM      4  C2  UNL d   1       4.627   5.919   1.826  0.00  0.00    -0.047 A 
ATOM      5  C3  UNL d   1       5.519   4.874   1.488  0.00  0.00    -0.047 A 
ATOM      6  C4  UNL d   1       5.999   4.346   2.668  0.00  0.00    -0.004 A 
ENDROOT
TORSDOF 0
ENDMDL
