MODEL 1
REMARK minimizedAffinity -1.68438804
REMARK minimizedRMSD -1
REMARK  0 active torsions:
REMARK  status: ('A' for Active; 'I' for Inactive)
ROOT
ATOM      1  C   UNL d   1       4.863   5.857   4.727  0.00  0.00     0.172 C 
ATOM      2  N   UNL d   1       4.878   5.846   3.284  0.00  0.00    -0.070 N 
ATOM      3  C1  UNL d   1       3.785   6.000   2.473  0.00  0.00    -0.004 A 
ATOM      4  C2  UNL d   1       4.216   5.929   1.166  0.00  0.00    -0.047 A 
ATOM      5  C3  UNL d   1       5.616   5.724   1.192  0.00  0.00    -0.047 A 
ATOM      6  C4  UNL d   1       6.000   5.676   2.515  0.00  0.00    -0.004 A 
ENDROOT
TORSDOF 0
ENDMDL
