MODEL 1
REMARK minimizedAffinity 7.55549383
REMARK minimizedRMSD -1
REMARK  0 active torsions:
REMARK  status: ('A' for Active; 'I' for Inactive)
ROOT
ATOM      1  C   UNL d   1       4.825  -4.170  -2.387  0.00  0.00    -0.002 A 
ATOM      2  C1  UNL d   1       4.294  -4.409  -3.646  0.00  0.00     0.010 A 
ATOM      3  C2  UNL d   1       3.025  -4.975  -3.787  0.00  0.00     0.041 A 
ATOM      4  C3  UNL d   1       2.292  -5.299  -2.628  0.00  0.00    -0.075 A 
ATOM      5  S   UNL d   1       0.718  -6.000  -2.557  0.00  0.00     0.015 SA
ATOM      6  C4  UNL d   1       0.713  -5.997  -0.853  0.00  0.00     0.022 A 
ATOM      7  C5  UNL d   1       1.876  -5.478  -0.334  0.00  0.00     0.026 A 
ATOM      8  C6  UNL d   1       2.804  -5.067  -1.349  0.00  0.00    -0.082 A 
ATOM      9  C7  UNL d   1       4.094  -4.492  -1.240  0.00  0.00     0.045 A 
ENDROOT
TORSDOF 0
ENDMDL
