MODEL 1
REMARK minimizedAffinity 14.2341566
REMARK minimizedRMSD -1
REMARK  0 active torsions:
REMARK  status: ('A' for Active; 'I' for Inactive)
ROOT
ATOM      1  C   UNL d   1       4.108  -5.617  -3.902  0.00  0.00    -0.002 A 
ATOM      2  C1  UNL d   1       3.190  -6.000  -2.935  0.00  0.00     0.010 A 
ATOM      3  C2  UNL d   1       3.094  -5.301  -1.730  0.00  0.00     0.041 A 
ATOM      4  C3  UNL d   1       3.944  -4.199  -1.512  0.00  0.00    -0.075 A 
ATOM      5  S   UNL d   1       4.004  -3.193  -0.113  0.00  0.00     0.015 SA
ATOM      6  C4  UNL d   1       5.250  -2.231  -0.767  0.00  0.00     0.022 A 
ATOM      7  C5  UNL d   1       5.623  -2.653  -2.021  0.00  0.00     0.026 A 
ATOM      8  C6  UNL d   1       4.876  -3.793  -2.471  0.00  0.00    -0.082 A 
ATOM      9  C7  UNL d   1       4.950  -4.523  -3.682  0.00  0.00     0.045 A 
ENDROOT
TORSDOF 0
ENDMDL
