MODEL 1
REMARK minimizedAffinity 13.3364687
REMARK minimizedRMSD -1
REMARK  0 active torsions:
REMARK  status: ('A' for Active; 'I' for Inactive)
ROOT
ATOM      1  C   UNL d   1       0.228   1.972   2.260  0.00  0.00    -0.002 A 
ATOM      2  C1  UNL d   1      -0.734   2.647   2.998  0.00  0.00     0.010 A 
ATOM      3  C2  UNL d   1      -1.189   3.903   2.591  0.00  0.00     0.041 A 
ATOM      4  C3  UNL d   1      -0.658   4.473   1.418  0.00  0.00    -0.075 A 
ATOM      5  S   UNL d   1      -1.065   5.999   0.727  0.00  0.00     0.015 SA
ATOM      6  C4  UNL d   1       0.027   5.791  -0.565  0.00  0.00     0.022 A 
ATOM      7  C5  UNL d   1       0.695   4.592  -0.486  0.00  0.00     0.026 A 
ATOM      8  C6  UNL d   1       0.311   3.812   0.658  0.00  0.00    -0.082 A 
ATOM      9  C7  UNL d   1       0.753   2.541   1.097  0.00  0.00     0.045 A 
ENDROOT
TORSDOF 0
ENDMDL
