MODEL 1
REMARK minimizedAffinity 11.0536346
REMARK minimizedRMSD -1
REMARK  0 active torsions:
REMARK  status: ('A' for Active; 'I' for Inactive)
ROOT
ATOM      1  C   UNL d   1       0.946   3.805   0.058  0.00  0.00    -0.002 A 
ATOM      2  C1  UNL d   1      -0.436   3.888  -0.044  0.00  0.00     0.010 A 
ATOM      3  C2  UNL d   1      -1.256   3.264   0.899  0.00  0.00     0.041 A 
ATOM      4  C3  UNL d   1      -0.659   2.551   1.956  0.00  0.00    -0.075 A 
ATOM      5  S   UNL d   1      -1.464   1.708   3.227  0.00  0.00     0.015 SA
ATOM      6  C4  UNL d   1       0.007   1.220   3.936  0.00  0.00     0.022 A 
ATOM      7  C5  UNL d   1       1.096   1.679   3.233  0.00  0.00     0.026 A 
ATOM      8  C6  UNL d   1       0.730   2.454   2.081  0.00  0.00    -0.082 A 
ATOM      9  C7  UNL d   1       1.535   3.097   1.109  0.00  0.00     0.045 A 
ENDROOT
TORSDOF 0
ENDMDL
