MODEL 1
REMARK minimizedAffinity 20.6273117
REMARK minimizedRMSD -1
REMARK  0 active torsions:
REMARK  status: ('A' for Active; 'I' for Inactive)
ROOT
ATOM      1  C   UNL d   1      -1.956  -0.445  -1.392  0.00  0.00    -0.002 A 
ATOM      2  C1  UNL d   1      -0.593  -0.687  -1.481  0.00  0.00     0.010 A 
ATOM      3  C2  UNL d   1       0.324   0.187  -0.893  0.00  0.00     0.041 A 
ATOM      4  C3  UNL d   1      -0.158   1.318  -0.206  0.00  0.00    -0.075 A 
ATOM      5  S   UNL d   1       0.778   2.526   0.593  0.00  0.00     0.015 SA
ATOM      6  C4  UNL d   1      -0.610   3.392   1.071  0.00  0.00     0.022 A 
ATOM      7  C5  UNL d   1      -1.768   2.789   0.640  0.00  0.00     0.026 A 
ATOM      8  C6  UNL d   1      -1.526   1.584  -0.103  0.00  0.00    -0.082 A 
ATOM      9  C7  UNL d   1      -2.430   0.679  -0.710  0.00  0.00     0.045 A 
ENDROOT
TORSDOF 0
ENDMDL
