MODEL 1
REMARK minimizedAffinity 18.2586727
REMARK minimizedRMSD -1
REMARK  0 active torsions:
REMARK  status: ('A' for Active; 'I' for Inactive)
ROOT
ATOM      1  C   UNL d   1       0.655   2.065   1.225  0.00  0.00    -0.002 A 
ATOM      2  C1  UNL d   1      -0.156   2.586   2.223  0.00  0.00     0.010 A 
ATOM      3  C2  UNL d   1      -0.816   3.803   2.039  0.00  0.00     0.041 A 
ATOM      4  C3  UNL d   1      -0.646   4.493   0.822  0.00  0.00    -0.075 A 
ATOM      5  S   UNL d   1      -1.355   5.999   0.374  0.00  0.00     0.015 SA
ATOM      6  C4  UNL d   1      -0.598   5.986  -1.154  0.00  0.00     0.022 A 
ATOM      7  C5  UNL d   1       0.180   4.867  -1.333  0.00  0.00     0.026 A 
ATOM      8  C6  UNL d   1       0.165   3.988  -0.198  0.00  0.00    -0.082 A 
ATOM      9  C7  UNL d   1       0.821   2.753   0.020  0.00  0.00     0.045 A 
ENDROOT
TORSDOF 0
ENDMDL
