MODEL 1
REMARK minimizedAffinity 11.1941967
REMARK minimizedRMSD -1
REMARK  0 active torsions:
REMARK  status: ('A' for Active; 'I' for Inactive)
ROOT
ATOM      1  C   UNL d   1       6.000  -2.402  -1.239  0.00  0.00    -0.002 A 
ATOM      2  C1  UNL d   1       5.207  -2.323  -2.376  0.00  0.00     0.010 A 
ATOM      3  C2  UNL d   1       3.888  -1.872  -2.292  0.00  0.00     0.041 A 
ATOM      4  C3  UNL d   1       3.375  -1.497  -1.035  0.00  0.00    -0.075 A 
ATOM      5  S   UNL d   1       1.789  -0.915  -0.691  0.00  0.00     0.015 SA
ATOM      6  C4  UNL d   1       2.127  -0.757   0.972  0.00  0.00     0.022 A 
ATOM      7  C5  UNL d   1       3.413  -1.135   1.275  0.00  0.00     0.026 A 
ATOM      8  C6  UNL d   1       4.154  -1.568   0.124  0.00  0.00    -0.082 A 
ATOM      9  C7  UNL d   1       5.487  -2.030   0.006  0.00  0.00     0.045 A 
ENDROOT
TORSDOF 0
ENDMDL
