MODEL 1
REMARK minimizedAffinity 14.204318
REMARK minimizedRMSD -1
REMARK  2 active torsions:
REMARK  status: ('A' for Active; 'I' for Inactive)
REMARK    1  A    between atoms: C2'_3  and  C1'_4 
REMARK    2  A    between atoms: C1'_4  and  C1_5 
ROOT
ATOM      1  C1  I4B d   1      -0.151  -4.984  -2.408  0.00  0.00    -0.075 A 
ATOM      2  C2  I4B d   1       0.453  -5.671  -1.384  0.00  0.00     0.003 A 
ATOM      3  C3  I4B d   1      -0.274  -5.986  -0.211  0.00  0.00     0.002 A 
ATOM      4  C4  I4B d   1      -1.579  -5.555  -0.083  0.00  0.00    -0.004 A 
ATOM      5  C5  I4B d   1      -2.197  -4.879  -1.131  0.00  0.00     0.002 A 
ATOM      6  C6  I4B d   1      -1.482  -4.602  -2.306  0.00  0.00     0.003 A 
ENDROOT
BRANCH   1   7
ATOM      7  C1' I4B d   1       0.656  -4.639  -3.619  0.00  0.00     0.060 C 
BRANCH   7   8
ATOM      8  C2' I4B d   1       0.992  -5.928  -4.339  0.00  0.00    -0.013 C 
ATOM      9  C4' I4B d   1       0.306  -5.999  -5.678  0.00  0.00     0.013 C 
ATOM     10  C3' I4B d   1       2.482  -6.000  -4.490  0.00  0.00     0.013 C 
ENDBRANCH   7   8
ENDBRANCH   1   7
TORSDOF 2
ENDMDL
