MODEL 1
REMARK minimizedAffinity 4.33999157
REMARK minimizedRMSD -1
REMARK  2 active torsions:
REMARK  status: ('A' for Active; 'I' for Inactive)
REMARK    1  A    between atoms: C2'_3  and  C1'_4 
REMARK    2  A    between atoms: C1'_4  and  C1_5 
ROOT
ATOM      1  C1  I4B d   1      -3.567   2.634  -5.457  0.00  0.00    -0.075 A 
ATOM      2  C2  I4B d   1      -2.897   2.030  -4.423  0.00  0.00     0.003 A 
ATOM      3  C3  I4B d   1      -1.711   2.608  -3.907  0.00  0.00     0.002 A 
ATOM      4  C4  I4B d   1      -1.208   3.756  -4.485  0.00  0.00    -0.004 A 
ATOM      5  C5  I4B d   1      -1.902   4.379  -5.519  0.00  0.00     0.002 A 
ATOM      6  C6  I4B d   1      -3.095   3.822  -6.000  0.00  0.00     0.003 A 
ENDROOT
BRANCH   1   7
ATOM      7  C1' I4B d   1      -4.798   1.978  -5.999  0.00  0.00     0.060 C 
BRANCH   7   8
ATOM      8  C2' I4B d   1      -5.999   2.627  -5.342  0.00  0.00    -0.013 C 
ATOM      9  C4' I4B d   1      -5.986   2.415  -3.851  0.00  0.00     0.013 C 
ATOM     10  C3' I4B d   1      -5.981   4.087  -5.683  0.00  0.00     0.013 C 
ENDBRANCH   7   8
ENDBRANCH   1   7
TORSDOF 2
ENDMDL
