MODEL 1
REMARK minimizedAffinity 13.9797783
REMARK minimizedRMSD -1
REMARK  2 active torsions:
REMARK  status: ('A' for Active; 'I' for Inactive)
REMARK    1  A    between atoms: C2'_3  and  C1'_4 
REMARK    2  A    between atoms: C1'_4  and  C1_5 
ROOT
ATOM      1  C1  I4B d   1       3.522   2.186   3.761  0.00  0.00    -0.075 A 
ATOM      2  C2  I4B d   1       4.623   1.446   3.406  0.00  0.00     0.003 A 
ATOM      3  C3  I4B d   1       5.879   1.704   4.006  0.00  0.00     0.002 A 
ATOM      4  C4  I4B d   1       6.000   2.739   4.912  0.00  0.00    -0.004 A 
ATOM      5  C5  I4B d   1       4.878   3.473   5.286  0.00  0.00     0.002 A 
ATOM      6  C6  I4B d   1       3.629   3.188   4.717  0.00  0.00     0.003 A 
ENDROOT
BRANCH   1   7
ATOM      7  C1' I4B d   1       2.218   1.908   3.083  0.00  0.00     0.060 C 
BRANCH   7   8
ATOM      8  C2' I4B d   1       2.506   1.579   1.633  0.00  0.00    -0.013 C 
ATOM      9  C4' I4B d   1       2.115   0.162   1.307  0.00  0.00     0.013 C 
ATOM     10  C3' I4B d   1       1.757   2.557   0.778  0.00  0.00     0.013 C 
ENDBRANCH   7   8
ENDBRANCH   1   7
TORSDOF 2
ENDMDL
