MODEL 1
REMARK minimizedAffinity 4.71471119
REMARK minimizedRMSD -1
REMARK  2 active torsions:
REMARK  status: ('A' for Active; 'I' for Inactive)
REMARK    1  A    between atoms: C2'_3  and  C1'_4 
REMARK    2  A    between atoms: C1'_4  and  C1_5 
ROOT
ATOM      1  C1  I4B d   1       3.276  -5.256  -4.605  0.00  0.00    -0.075 A 
ATOM      2  C2  I4B d   1       4.149  -4.493  -3.870  0.00  0.00     0.003 A 
ATOM      3  C3  I4B d   1       5.525  -4.463  -4.203  0.00  0.00     0.002 A 
ATOM      4  C4  I4B d   1       5.990  -5.244  -5.241  0.00  0.00    -0.004 A 
ATOM      5  C5  I4B d   1       5.100  -5.999  -6.000  0.00  0.00     0.002 A 
ATOM      6  C6  I4B d   1       3.733  -5.996  -5.688  0.00  0.00     0.003 A 
ENDROOT
BRANCH   1   7
ATOM      7  C1' I4B d   1       1.836  -5.290  -4.204  0.00  0.00     0.060 C 
BRANCH   7   8
ATOM      8  C2' I4B d   1       1.735  -4.788  -2.778  0.00  0.00    -0.013 C 
ATOM      9  C4' I4B d   1       0.428  -4.079  -2.540  0.00  0.00     0.013 C 
ATOM     10  C3' I4B d   1       1.888  -5.965  -1.861  0.00  0.00     0.013 C 
ENDBRANCH   7   8
ENDBRANCH   1   7
TORSDOF 2
ENDMDL
