MODEL 1
REMARK minimizedAffinity 11.3832464
REMARK minimizedRMSD -1
REMARK  2 active torsions:
REMARK  status: ('A' for Active; 'I' for Inactive)
REMARK    1  A    between atoms: C2'_3  and  C1'_4 
REMARK    2  A    between atoms: C1'_4  and  C1_5 
ROOT
ATOM      1  C1  I4B d   1       4.520   2.254  -3.753  0.00  0.00    -0.075 A 
ATOM      2  C2  I4B d   1       3.690   2.210  -4.846  0.00  0.00     0.003 A 
ATOM      3  C3  I4B d   1       3.991   2.974  -6.000  0.00  0.00     0.002 A 
ATOM      4  C4  I4B d   1       5.096   3.800  -6.000  0.00  0.00    -0.004 A 
ATOM      5  C5  I4B d   1       5.949   3.825  -4.900  0.00  0.00     0.002 A 
ATOM      6  C6  I4B d   1       5.666   3.038  -3.774  0.00  0.00     0.003 A 
ENDROOT
BRANCH   1   7
ATOM      7  C1' I4B d   1       4.155   1.460  -2.539  0.00  0.00     0.060 C 
BRANCH   7   8
ATOM      8  C2' I4B d   1       3.982   2.426  -1.385  0.00  0.00    -0.013 C 
ATOM      9  C4' I4B d   1       3.024   1.882  -0.358  0.00  0.00     0.013 C 
ATOM     10  C3' I4B d   1       5.333   2.679  -0.785  0.00  0.00     0.013 C 
ENDBRANCH   7   8
ENDBRANCH   1   7
TORSDOF 2
ENDMDL
