MODEL 1
REMARK minimizedAffinity 18.911047
REMARK minimizedRMSD -1
REMARK  2 active torsions:
REMARK  status: ('A' for Active; 'I' for Inactive)
REMARK    1  A    between atoms: C2'_3  and  C1'_4 
REMARK    2  A    between atoms: C1'_4  and  C1_5 
ROOT
ATOM      1  C1  I4B d   1      -2.071  -3.482   0.106  0.00  0.00    -0.075 A 
ATOM      2  C2  I4B d   1      -2.173  -4.744   0.636  0.00  0.00     0.003 A 
ATOM      3  C3  I4B d   1      -1.709  -5.864  -0.095  0.00  0.00     0.002 A 
ATOM      4  C4  I4B d   1      -1.199  -5.684  -1.365  0.00  0.00    -0.004 A 
ATOM      5  C5  I4B d   1      -1.075  -4.401  -1.891  0.00  0.00     0.002 A 
ATOM      6  C6  I4B d   1      -1.502  -3.292  -1.147  0.00  0.00     0.003 A 
ENDROOT
BRANCH   1   7
ATOM      7  C1' I4B d   1      -2.601  -2.325   0.891  0.00  0.00     0.060 C 
BRANCH   7   8
ATOM      8  C2' I4B d   1      -1.463  -1.761   1.718  0.00  0.00    -0.013 C 
ATOM      9  C4' I4B d   1      -1.616  -0.276   1.916  0.00  0.00     0.013 C 
ATOM     10  C3' I4B d   1      -1.443  -2.484   3.032  0.00  0.00     0.013 C 
ENDBRANCH   7   8
ENDBRANCH   1   7
TORSDOF 2
ENDMDL
