MODEL 1
REMARK minimizedAffinity 14.3260441
REMARK minimizedRMSD -1
REMARK  2 active torsions:
REMARK  status: ('A' for Active; 'I' for Inactive)
REMARK    1  A    between atoms: C2'_3  and  C1'_4 
REMARK    2  A    between atoms: C1'_4  and  C1_5 
ROOT
ATOM      1  C1  I4B d   1       2.512   1.863   0.895  0.00  0.00    -0.075 A 
ATOM      2  C2  I4B d   1       3.247   2.129  -0.233  0.00  0.00     0.003 A 
ATOM      3  C3  I4B d   1       4.558   2.651  -0.122  0.00  0.00     0.002 A 
ATOM      4  C4  I4B d   1       5.073   2.938   1.126  0.00  0.00    -0.004 A 
ATOM      5  C5  I4B d   1       4.335   2.646   2.269  0.00  0.00     0.002 A 
ATOM      6  C6  I4B d   1       3.051   2.094   2.154  0.00  0.00     0.003 A 
ENDROOT
BRANCH   1   7
ATOM      7  C1' I4B d   1       1.118   1.343   0.741  0.00  0.00     0.060 C 
BRANCH   7   8
ATOM      8  C2' I4B d   1       0.181   2.532   0.667  0.00  0.00    -0.013 C 
ATOM      9  C4' I4B d   1      -0.170   2.861  -0.760  0.00  0.00     0.013 C 
ATOM     10  C3' I4B d   1      -1.045   2.206   1.465  0.00  0.00     0.013 C 
ENDBRANCH   7   8
ENDBRANCH   1   7
TORSDOF 2
ENDMDL
