MODEL 1
REMARK minimizedAffinity 16.4302616
REMARK minimizedRMSD -1
REMARK  2 active torsions:
REMARK  status: ('A' for Active; 'I' for Inactive)
REMARK    1  A    between atoms: C2'_3  and  C1'_4 
REMARK    2  A    between atoms: C1'_4  and  C1_5 
ROOT
ATOM      1  C1  I4B d   1       0.256   1.958   1.147  0.00  0.00    -0.075 A 
ATOM      2  C2  I4B d   1       0.025   2.723   0.031  0.00  0.00     0.003 A 
ATOM      3  C3  I4B d   1      -1.248   3.305  -0.182  0.00  0.00     0.002 A 
ATOM      4  C4  I4B d   1      -2.268   3.057   0.714  0.00  0.00    -0.004 A 
ATOM      5  C5  I4B d   1      -2.025   2.300   1.856  0.00  0.00     0.002 A 
ATOM      6  C6  I4B d   1      -0.752   1.757   2.081  0.00  0.00     0.003 A 
ENDROOT
BRANCH   1   7
ATOM      7  C1' I4B d   1       1.603   1.330   1.324  0.00  0.00     0.060 C 
BRANCH   7   8
ATOM      8  C2' I4B d   1       2.634   2.440   1.360  0.00  0.00    -0.013 C 
ATOM      9  C4' I4B d   1       3.311   2.511   2.704  0.00  0.00     0.013 C 
ATOM     10  C3' I4B d   1       3.627   2.185   0.266  0.00  0.00     0.013 C 
ENDBRANCH   7   8
ENDBRANCH   1   7
TORSDOF 2
ENDMDL
