MODEL 1
REMARK minimizedAffinity 11.6907425
REMARK minimizedRMSD -1
REMARK  2 active torsions:
REMARK  status: ('A' for Active; 'I' for Inactive)
REMARK    1  A    between atoms: C2'_3  and  C1'_4 
REMARK    2  A    between atoms: C1'_4  and  C1_5 
ROOT
ATOM      1  C1  I4B d   1      -2.386  -3.617   0.427  0.00  0.00    -0.075 A 
ATOM      2  C2  I4B d   1      -2.382  -4.858   1.014  0.00  0.00     0.003 A 
ATOM      3  C3  I4B d   1      -1.985  -5.997   0.272  0.00  0.00     0.002 A 
ATOM      4  C4  I4B d   1      -1.651  -5.857  -1.060  0.00  0.00    -0.004 A 
ATOM      5  C5  I4B d   1      -1.633  -4.595  -1.647  0.00  0.00     0.002 A 
ATOM      6  C6  I4B d   1      -1.991  -3.466  -0.896  0.00  0.00     0.003 A 
ENDROOT
BRANCH   1   7
ATOM      7  C1' I4B d   1      -2.842  -2.441   1.231  0.00  0.00     0.060 C 
BRANCH   7   8
ATOM      8  C2' I4B d   1      -1.659  -1.935   2.030  0.00  0.00    -0.013 C 
ATOM      9  C4' I4B d   1      -1.722  -0.441   2.212  0.00  0.00     0.013 C 
ATOM     10  C3' I4B d   1      -1.658  -2.642   3.353  0.00  0.00     0.013 C 
ENDBRANCH   7   8
ENDBRANCH   1   7
TORSDOF 2
ENDMDL
