MODEL 1
REMARK minimizedAffinity 20.2817364
REMARK minimizedRMSD -1
REMARK  2 active torsions:
REMARK  status: ('A' for Active; 'I' for Inactive)
REMARK    1  A    between atoms: C2'_3  and  C1'_4 
REMARK    2  A    between atoms: C1'_4  and  C1_5 
ROOT
ATOM      1  C1  I4B d   1       2.775   2.682   0.118  0.00  0.00    -0.075 A 
ATOM      2  C2  I4B d   1       3.191   2.106   1.292  0.00  0.00     0.003 A 
ATOM      3  C3  I4B d   1       2.242   1.625   2.226  0.00  0.00     0.002 A 
ATOM      4  C4  I4B d   1       0.895   1.785   1.969  0.00  0.00    -0.004 A 
ATOM      5  C5  I4B d   1       0.475   2.348   0.768  0.00  0.00     0.002 A 
ATOM      6  C6  I4B d   1       1.421   2.789  -0.169  0.00  0.00     0.003 A 
ENDROOT
BRANCH   1   7
ATOM      7  C1' I4B d   1       3.805   3.210  -0.831  0.00  0.00     0.060 C 
BRANCH   7   8
ATOM      8  C2' I4B d   1       4.478   2.025  -1.494  0.00  0.00    -0.013 C 
ATOM      9  C4' I4B d   1       4.167   1.977  -2.967  0.00  0.00     0.013 C 
ATOM     10  C3' I4B d   1       5.954   2.138  -1.256  0.00  0.00     0.013 C 
ENDBRANCH   7   8
ENDBRANCH   1   7
TORSDOF 2
ENDMDL
