MODEL 1
REMARK minimizedAffinity -2.39899206
REMARK minimizedRMSD -1
REMARK  0 active torsions:
REMARK  status: ('A' for Active; 'I' for Inactive)
ROOT
ATOM      1  N1  IND d   1       5.979  -2.550  -3.497  0.00  0.00    -0.196 N 
ATOM      2  C2  IND d   1       5.361  -1.496  -4.111  0.00  0.00     0.054 A 
ATOM      3  C3  IND d   1       4.631  -1.928  -5.164  0.00  0.00    -0.031 A 
ATOM      4  C4  IND d   1       4.227  -4.329  -5.999  0.00  0.00     0.051 A 
ATOM      5  C5  IND d   1       4.608  -5.623  -5.783  0.00  0.00    -0.031 A 
ATOM      6  C6  IND d   1       5.482  -5.967  -4.772  0.00  0.00     0.015 A 
ATOM      7  C7  IND d   1       6.000  -5.025  -3.928  0.00  0.00    -0.016 A 
ATOM      8  C8  IND d   1       5.620  -3.709  -4.149  0.00  0.00    -0.047 A 
ATOM      9  C9  IND d   1       4.767  -3.349  -5.200  0.00  0.00    -0.096 A 
ATOM     10  HN1 IND d   1       6.504  -2.497  -2.818  0.00  0.00     0.298 HD
ENDROOT
TORSDOF 0
ENDMDL
