MODEL 1
REMARK minimizedAffinity 11.9090862
REMARK minimizedRMSD -1
REMARK  0 active torsions:
REMARK  status: ('A' for Active; 'I' for Inactive)
ROOT
ATOM      1  N1  IND d   1      -2.863   2.619  -4.203  0.00  0.00    -0.196 N 
ATOM      2  C2  IND d   1      -3.371   2.507  -2.939  0.00  0.00     0.054 A 
ATOM      3  C3  IND d   1      -2.509   3.028  -2.038  0.00  0.00    -0.031 A 
ATOM      4  C4  IND d   1      -0.253   4.206  -2.423  0.00  0.00     0.051 A 
ATOM      5  C5  IND d   1       0.647   4.515  -3.404  0.00  0.00    -0.031 A 
ATOM      6  C6  IND d   1       0.417   4.205  -4.729  0.00  0.00     0.015 A 
ATOM      7  C7  IND d   1      -0.732   3.580  -5.125  0.00  0.00    -0.016 A 
ATOM      8  C8  IND d   1      -1.644   3.258  -4.131  0.00  0.00    -0.047 A 
ATOM      9  C9  IND d   1      -1.397   3.533  -2.779  0.00  0.00    -0.096 A 
ATOM     10  HN1 IND d   1      -3.240   2.337  -4.923  0.00  0.00     0.298 HD
ENDROOT
TORSDOF 0
ENDMDL
