MODEL 1
REMARK minimizedAffinity -0.472202063
REMARK minimizedRMSD -1
REMARK  0 active torsions:
REMARK  status: ('A' for Active; 'I' for Inactive)
ROOT
ATOM      1  N1  IND d   1      -1.038   0.163   0.540  0.00  0.00    -0.196 N 
ATOM      2  C2  IND d   1      -0.236   1.178   0.097  0.00  0.00     0.054 A 
ATOM      3  C3  IND d   1       0.988   0.703  -0.226  0.00  0.00    -0.031 A 
ATOM      4  C4  IND d   1       1.862  -1.718  -0.201  0.00  0.00     0.051 A 
ATOM      5  C5  IND d   1       1.508  -2.988   0.162  0.00  0.00    -0.031 A 
ATOM      6  C6  IND d   1       0.262  -3.278   0.677  0.00  0.00     0.015 A 
ATOM      7  C7  IND d   1      -0.686  -2.307   0.839  0.00  0.00    -0.016 A 
ATOM      8  C8  IND d   1      -0.328  -1.016   0.478  0.00  0.00    -0.047 A 
ATOM      9  C9  IND d   1       0.950  -0.708  -0.006  0.00  0.00    -0.096 A 
ATOM     10  HN1 IND d   1      -1.849   0.247   0.812  0.00  0.00     0.298 HD
ENDROOT
TORSDOF 0
ENDMDL
