MODEL 1
REMARK minimizedAffinity 7.64792299
REMARK minimizedRMSD -1
REMARK  0 active torsions:
REMARK  status: ('A' for Active; 'I' for Inactive)
ROOT
ATOM      1  N1  IND d   1       1.102   4.864  -2.331  0.00  0.00    -0.196 N 
ATOM      2  C2  IND d   1      -0.118   4.463  -2.799  0.00  0.00     0.054 A 
ATOM      3  C3  IND d   1      -0.322   3.156  -2.521  0.00  0.00    -0.031 A 
ATOM      4  C4  IND d   1       1.167   1.508  -1.220  0.00  0.00     0.051 A 
ATOM      5  C5  IND d   1       2.395   1.402  -0.628  0.00  0.00    -0.031 A 
ATOM      6  C6  IND d   1       3.271   2.467  -0.570  0.00  0.00     0.015 A 
ATOM      7  C7  IND d   1       2.945   3.686  -1.094  0.00  0.00    -0.016 A 
ATOM      8  C8  IND d   1       1.703   3.796  -1.702  0.00  0.00    -0.047 A 
ATOM      9  C9  IND d   1       0.827   2.707  -1.801  0.00  0.00    -0.096 A 
ATOM     10  HN1 IND d   1       1.438   5.651  -2.415  0.00  0.00     0.298 HD
ENDROOT
TORSDOF 0
ENDMDL
