MODEL 1
REMARK minimizedAffinity -0.107358031
REMARK minimizedRMSD -1
REMARK  0 active torsions:
REMARK  status: ('A' for Active; 'I' for Inactive)
ROOT
ATOM      1  N1  IND d   1      -0.074  -1.122   1.608  0.00  0.00    -0.196 N 
ATOM      2  C2  IND d   1       0.521  -2.348   1.499  0.00  0.00     0.054 A 
ATOM      3  C3  IND d   1       0.899  -2.576   0.221  0.00  0.00    -0.031 A 
ATOM      4  C4  IND d   1       0.731  -1.034  -1.834  0.00  0.00     0.051 A 
ATOM      5  C5  IND d   1       0.230   0.172  -2.238  0.00  0.00    -0.031 A 
ATOM      6  C6  IND d   1      -0.409   1.026  -1.362  0.00  0.00     0.015 A 
ATOM      7  C7  IND d   1      -0.561   0.710  -0.042  0.00  0.00    -0.016 A 
ATOM      8  C8  IND d   1      -0.059  -0.516   0.370  0.00  0.00    -0.047 A 
ATOM      9  C9  IND d   1       0.552  -1.406  -0.522  0.00  0.00    -0.096 A 
ATOM     10  HN1 IND d   1      -0.402  -0.786   2.328  0.00  0.00     0.298 HD
ENDROOT
TORSDOF 0
ENDMDL
