MODEL 1
REMARK minimizedAffinity 13.941185
REMARK minimizedRMSD -1
REMARK  0 active torsions:
REMARK  status: ('A' for Active; 'I' for Inactive)
ROOT
ATOM      1  N1  IND d   1       2.402   0.822  -0.301  0.00  0.00    -0.196 N 
ATOM      2  C2  IND d   1       3.258  -0.140   0.158  0.00  0.00     0.054 A 
ATOM      3  C3  IND d   1       2.622  -0.961   1.023  0.00  0.00    -0.031 A 
ATOM      4  C4  IND d   1       0.154  -0.973   1.754  0.00  0.00     0.051 A 
ATOM      5  C5  IND d   1      -1.010  -0.266   1.630  0.00  0.00    -0.031 A 
ATOM      6  C6  IND d   1      -1.098   0.861   0.839  0.00  0.00     0.015 A 
ATOM      7  C7  IND d   1      -0.024   1.319   0.129  0.00  0.00    -0.016 A 
ATOM      8  C8  IND d   1       1.161   0.607   0.257  0.00  0.00    -0.047 A 
ATOM      9  C9  IND d   1       1.267  -0.512   1.092  0.00  0.00    -0.096 A 
ATOM     10  HN1 IND d   1       2.604   1.455  -0.847  0.00  0.00     0.298 HD
ENDROOT
TORSDOF 0
ENDMDL
