MODEL 1
REMARK minimizedAffinity 3.28058314
REMARK minimizedRMSD -1
REMARK  0 active torsions:
REMARK  status: ('A' for Active; 'I' for Inactive)
ROOT
ATOM      1  N1  IND d   1      -4.349  -4.086   3.030  0.00  0.00    -0.196 N 
ATOM      2  C2  IND d   1      -4.886  -5.117   3.750  0.00  0.00     0.054 A 
ATOM      3  C3  IND d   1      -5.496  -5.998   2.926  0.00  0.00    -0.031 A 
ATOM      4  C4  IND d   1      -5.648  -6.000   0.357  0.00  0.00     0.051 A 
ATOM      5  C5  IND d   1      -5.341  -5.246  -0.741  0.00  0.00    -0.031 A 
ATOM      6  C6  IND d   1      -4.672  -4.044  -0.636  0.00  0.00     0.015 A 
ATOM      7  C7  IND d   1      -4.273  -3.554   0.575  0.00  0.00    -0.016 A 
ATOM      8  C8  IND d   1      -4.589  -4.314   1.693  0.00  0.00    -0.047 A 
ATOM      9  C9  IND d   1      -5.305  -5.514   1.596  0.00  0.00    -0.096 A 
ATOM     10  HN1 IND d   1      -3.931  -3.410   3.358  0.00  0.00     0.298 HD
ENDROOT
TORSDOF 0
ENDMDL
