MODEL 1
REMARK minimizedAffinity 0.365140527
REMARK minimizedRMSD -1
REMARK  0 active torsions:
REMARK  status: ('A' for Active; 'I' for Inactive)
ROOT
ATOM      1  N1  IND d   1      -0.852   0.815   0.464  0.00  0.00    -0.196 N 
ATOM      2  C2  IND d   1      -0.460  -0.467   0.736  0.00  0.00     0.054 A 
ATOM      3  C3  IND d   1       0.831  -0.649   0.381  0.00  0.00    -0.031 A 
ATOM      4  C4  IND d   1       2.521   1.045  -0.568  0.00  0.00     0.051 A 
ATOM      5  C5  IND d   1       2.619   2.331  -1.021  0.00  0.00    -0.031 A 
ATOM      6  C6  IND d   1       1.543   3.195  -0.999  0.00  0.00     0.015 A 
ATOM      7  C7  IND d   1       0.328   2.808  -0.510  0.00  0.00    -0.016 A 
ATOM      8  C8  IND d   1       0.223   1.501  -0.056  0.00  0.00    -0.047 A 
ATOM      9  C9  IND d   1       1.300   0.606  -0.116  0.00  0.00    -0.096 A 
ATOM     10  HN1 IND d   1      -1.638   1.138   0.596  0.00  0.00     0.298 HD
ENDROOT
TORSDOF 0
ENDMDL
