MODEL 1
REMARK minimizedAffinity 1.7657553
REMARK minimizedRMSD -1
REMARK  0 active torsions:
REMARK  status: ('A' for Active; 'I' for Inactive)
ROOT
ATOM      1  N1  IND d   1       1.695   2.807  -0.834  0.00  0.00    -0.196 N 
ATOM      2  C2  IND d   1       2.977   2.404  -1.088  0.00  0.00     0.054 A 
ATOM      3  C3  IND d   1       3.104   1.076  -0.868  0.00  0.00    -0.031 A 
ATOM      4  C4  IND d   1       1.318  -0.648  -0.186  0.00  0.00     0.051 A 
ATOM      5  C5  IND d   1       0.009  -0.750   0.194  0.00  0.00    -0.031 A 
ATOM      6  C6  IND d   1      -0.822   0.350   0.250  0.00  0.00     0.015 A 
ATOM      7  C7  IND d   1      -0.376   1.598  -0.085  0.00  0.00    -0.016 A 
ATOM      8  C8  IND d   1       0.954   1.706  -0.465  0.00  0.00    -0.047 A 
ATOM      9  C9  IND d   1       1.814   0.600  -0.483  0.00  0.00    -0.096 A 
ATOM     10  HN1 IND d   1       1.402   3.613  -0.895  0.00  0.00     0.298 HD
ENDROOT
TORSDOF 0
ENDMDL
