MODEL 1
REMARK minimizedAffinity 2.96711063
REMARK minimizedRMSD -1
REMARK  0 active torsions:
REMARK  status: ('A' for Active; 'I' for Inactive)
ROOT
ATOM      1  N1  IND d   1      -0.704   0.540   0.608  0.00  0.00    -0.196 N 
ATOM      2  C2  IND d   1      -0.317  -0.743   0.877  0.00  0.00     0.054 A 
ATOM      3  C3  IND d   1       0.971  -0.932   0.513  0.00  0.00    -0.031 A 
ATOM      4  C4  IND d   1       2.664   0.753  -0.447  0.00  0.00     0.051 A 
ATOM      5  C5  IND d   1       2.765   2.039  -0.900  0.00  0.00    -0.031 A 
ATOM      6  C6  IND d   1       1.694   2.909  -0.870  0.00  0.00     0.015 A 
ATOM      7  C7  IND d   1       0.480   2.527  -0.373  0.00  0.00    -0.016 A 
ATOM      8  C8  IND d   1       0.372   1.221   0.081  0.00  0.00    -0.047 A 
ATOM      9  C9  IND d   1       1.443   0.320   0.014  0.00  0.00    -0.096 A 
ATOM     10  HN1 IND d   1      -1.487   0.867   0.746  0.00  0.00     0.298 HD
ENDROOT
TORSDOF 0
ENDMDL
