MODEL 1
REMARK minimizedAffinity -3.00899863
REMARK minimizedRMSD -1
REMARK  0 active torsions:
REMARK  status: ('A' for Active; 'I' for Inactive)
ROOT
ATOM      1  N1  IND d   1       0.944  -0.809   2.111  0.00  0.00    -0.196 N 
ATOM      2  C2  IND d   1       1.509  -0.559   0.892  0.00  0.00     0.054 A 
ATOM      3  C3  IND d   1       0.775  -1.126  -0.092  0.00  0.00    -0.031 A 
ATOM      4  C4  IND d   1      -1.445  -2.421   0.063  0.00  0.00     0.051 A 
ATOM      5  C5  IND d   1      -2.332  -2.934   0.967  0.00  0.00    -0.031 A 
ATOM      6  C6  IND d   1      -2.171  -2.759   2.326  0.00  0.00     0.015 A 
ATOM      7  C7  IND d   1      -1.118  -2.052   2.834  0.00  0.00    -0.016 A 
ATOM      8  C8  IND d   1      -0.211  -1.535   1.919  0.00  0.00    -0.047 A 
ATOM      9  C9  IND d   1      -0.346  -1.746   0.540  0.00  0.00    -0.096 A 
ATOM     10  HN1 IND d   1       1.257  -0.555   2.871  0.00  0.00     0.298 HD
ENDROOT
TORSDOF 0
ENDMDL
