MODEL 1
REMARK minimizedAffinity 13.0555887
REMARK minimizedRMSD -1
REMARK  0 active torsions:
REMARK  status: ('A' for Active; 'I' for Inactive)
ROOT
ATOM      1  N1  IND d   1       1.303   2.695  -5.679  0.00  0.00    -0.196 N 
ATOM      2  C2  IND d   1       1.550   4.018  -5.917  0.00  0.00     0.054 A 
ATOM      3  C3  IND d   1       0.764   4.791  -5.135  0.00  0.00    -0.031 A 
ATOM      4  C4  IND d   1      -0.928   4.098  -3.322  0.00  0.00     0.051 A 
ATOM      5  C5  IND d   1      -1.524   3.000  -2.769  0.00  0.00    -0.031 A 
ATOM      6  C6  IND d   1      -1.200   1.718  -3.164  0.00  0.00     0.015 A 
ATOM      7  C7  IND d   1      -0.255   1.485  -4.122  0.00  0.00    -0.016 A 
ATOM      8  C8  IND d   1       0.348   2.598  -4.691  0.00  0.00    -0.047 A 
ATOM      9  C9  IND d   1      -0.008   3.902  -4.325  0.00  0.00    -0.096 A 
ATOM     10  HN1 IND d   1       1.681   2.034  -6.079  0.00  0.00     0.298 HD
ENDROOT
TORSDOF 0
ENDMDL
