MODEL 1
REMARK minimizedAffinity 9.43183327
REMARK minimizedRMSD -1
REMARK  0 active torsions:
REMARK  status: ('A' for Active; 'I' for Inactive)
ROOT
ATOM      1  N1  IND d   1       0.790   2.894   0.003  0.00  0.00    -0.196 N 
ATOM      2  C2  IND d   1       0.318   3.777  -0.927  0.00  0.00     0.054 A 
ATOM      3  C3  IND d   1       1.224   3.947  -1.916  0.00  0.00    -0.031 A 
ATOM      4  C4  IND d   1       3.502   2.798  -2.263  0.00  0.00     0.051 A 
ATOM      5  C5  IND d   1       4.379   1.942  -1.659  0.00  0.00    -0.031 A 
ATOM      6  C6  IND d   1       4.098   1.345  -0.447  0.00  0.00     0.015 A 
ATOM      7  C7  IND d   1       2.919   1.575   0.204  0.00  0.00    -0.016 A 
ATOM      8  C8  IND d   1       2.029   2.449  -0.403  0.00  0.00    -0.047 A 
ATOM      9  C9  IND d   1       2.326   3.091  -1.612  0.00  0.00    -0.096 A 
ATOM     10  HN1 IND d   1       0.381   2.656   0.722  0.00  0.00     0.298 HD
ENDROOT
TORSDOF 0
ENDMDL
