MODEL 1
REMARK minimizedAffinity 9.10906601
REMARK minimizedRMSD -1
REMARK  0 active torsions:
REMARK  status: ('A' for Active; 'I' for Inactive)
ROOT
ATOM      1  N1  IND d   1       3.775  -2.234  -4.311  0.00  0.00    -0.196 N 
ATOM      2  C2  IND d   1       4.956  -1.571  -4.127  0.00  0.00     0.054 A 
ATOM      3  C3  IND d   1       5.997  -2.429  -4.223  0.00  0.00    -0.031 A 
ATOM      4  C4  IND d   1       5.999  -4.943  -4.778  0.00  0.00     0.051 A 
ATOM      5  C5  IND d   1       5.159  -5.999  -4.991  0.00  0.00    -0.031 A 
ATOM      6  C6  IND d   1       3.787  -5.852  -4.992  0.00  0.00     0.015 A 
ATOM      7  C7  IND d   1       3.202  -4.634  -4.790  0.00  0.00    -0.016 A 
ATOM      8  C8  IND d   1       4.051  -3.560  -4.565  0.00  0.00    -0.047 A 
ATOM      9  C9  IND d   1       5.443  -3.712  -4.521  0.00  0.00    -0.096 A 
ATOM     10  HN1 IND d   1       2.991  -1.883  -4.275  0.00  0.00     0.298 HD
ENDROOT
TORSDOF 0
ENDMDL
