MODEL 1
REMARK minimizedAffinity 13.7747955
REMARK minimizedRMSD -1
REMARK  0 active torsions:
REMARK  status: ('A' for Active; 'I' for Inactive)
ROOT
ATOM      1  N1  IND d   1       3.793   2.455  -0.615  0.00  0.00    -0.196 N 
ATOM      2  C2  IND d   1       2.601   2.389  -1.280  0.00  0.00     0.054 A 
ATOM      3  C3  IND d   1       1.818   1.424  -0.747  0.00  0.00    -0.031 A 
ATOM      4  C4  IND d   1       2.252  -0.099   1.283  0.00  0.00     0.051 A 
ATOM      5  C5  IND d   1       3.215  -0.433   2.193  0.00  0.00    -0.031 A 
ATOM      6  C6  IND d   1       4.445   0.194   2.215  0.00  0.00     0.015 A 
ATOM      7  C7  IND d   1       4.753   1.189   1.332  0.00  0.00    -0.016 A 
ATOM      8  C8  IND d   1       3.780   1.526   0.403  0.00  0.00    -0.047 A 
ATOM      9  C9  IND d   1       2.546   0.865   0.347  0.00  0.00    -0.096 A 
ATOM     10  HN1 IND d   1       4.443   2.987  -0.800  0.00  0.00     0.298 HD
ENDROOT
TORSDOF 0
ENDMDL
