MODEL 1
REMARK minimizedAffinity 2.30248141
REMARK minimizedRMSD -1
REMARK  0 active torsions:
REMARK  status: ('A' for Active; 'I' for Inactive)
ROOT
ATOM      1  N1  IND d   1      -0.566   0.408   0.627  0.00  0.00    -0.196 N 
ATOM      2  C2  IND d   1       0.001  -0.819   0.832  0.00  0.00     0.054 A 
ATOM      3  C3  IND d   1       1.254  -0.848   0.325  0.00  0.00    -0.031 A 
ATOM      4  C4  IND d   1       2.610   1.034  -0.793  0.00  0.00     0.051 A 
ATOM      5  C5  IND d   1       2.503   2.322  -1.235  0.00  0.00    -0.031 A 
ATOM      6  C6  IND d   1       1.344   3.054  -1.074  0.00  0.00     0.015 A 
ATOM      7  C7  IND d   1       0.249   2.526  -0.451  0.00  0.00    -0.016 A 
ATOM      8  C8  IND d   1       0.352   1.216  -0.007  0.00  0.00    -0.047 A 
ATOM      9  C9  IND d   1       1.511   0.454  -0.205  0.00  0.00    -0.096 A 
ATOM     10  HN1 IND d   1      -1.363   0.636   0.855  0.00  0.00     0.298 HD
ENDROOT
TORSDOF 0
ENDMDL
