MODEL 1
REMARK minimizedAffinity 9.8338604
REMARK minimizedRMSD -1
REMARK  0 active torsions:
REMARK  status: ('A' for Active; 'I' for Inactive)
ROOT
ATOM      1  N1  IND d   1      -1.902   1.770   0.680  0.00  0.00    -0.196 N 
ATOM      2  C2  IND d   1      -3.209   1.958   0.328  0.00  0.00     0.054 A 
ATOM      3  C3  IND d   1      -3.298   2.837  -0.696  0.00  0.00    -0.031 A 
ATOM      4  C4  IND d   1      -1.422   4.010  -2.012  0.00  0.00     0.051 A 
ATOM      5  C5  IND d   1      -0.066   4.181  -2.035  0.00  0.00    -0.031 A 
ATOM      6  C6  IND d   1       0.764   3.541  -1.137  0.00  0.00     0.015 A 
ATOM      7  C7  IND d   1       0.268   2.694  -0.187  0.00  0.00    -0.016 A 
ATOM      8  C8  IND d   1      -1.109   2.524  -0.156  0.00  0.00    -0.047 A 
ATOM      9  C9  IND d   1      -1.960   3.204  -1.037  0.00  0.00    -0.096 A 
ATOM     10  HN1 IND d   1      -1.622   1.264   1.317  0.00  0.00     0.298 HD
ENDROOT
TORSDOF 0
ENDMDL
