MODEL 1
REMARK minimizedAffinity 7.20530319
REMARK minimizedRMSD -1
REMARK  0 active torsions:
REMARK  status: ('A' for Active; 'I' for Inactive)
ROOT
ATOM      1  N1  IND d   1      -4.737  -4.236  -0.206  0.00  0.00    -0.196 N 
ATOM      2  C2  IND d   1      -5.596  -5.192   0.261  0.00  0.00     0.054 A 
ATOM      3  C3  IND d   1      -5.993  -6.000  -0.748  0.00  0.00    -0.031 A 
ATOM      4  C4  IND d   1      -5.280  -5.999  -3.221  0.00  0.00     0.051 A 
ATOM      5  C5  IND d   1      -4.542  -5.293  -4.130  0.00  0.00    -0.031 A 
ATOM      6  C6  IND d   1      -3.815  -4.178  -3.768  0.00  0.00     0.015 A 
ATOM      7  C7  IND d   1      -3.789  -3.731  -2.478  0.00  0.00    -0.016 A 
ATOM      8  C8  IND d   1      -4.543  -4.441  -1.554  0.00  0.00    -0.047 A 
ATOM      9  C9  IND d   1      -5.317  -5.549  -1.923  0.00  0.00    -0.096 A 
ATOM     10  HN1 IND d   1      -4.379  -3.611   0.264  0.00  0.00     0.298 HD
ENDROOT
TORSDOF 0
ENDMDL
