MODEL 1
REMARK minimizedAffinity 14.4731064
REMARK minimizedRMSD -1
REMARK  0 active torsions:
REMARK  status: ('A' for Active; 'I' for Inactive)
ROOT
ATOM      1  N1  IND d   1       2.978  -0.625   0.065  0.00  0.00    -0.196 N 
ATOM      2  C2  IND d   1       1.987  -0.982   0.935  0.00  0.00     0.054 A 
ATOM      3  C3  IND d   1       1.048  -0.011   1.003  0.00  0.00    -0.031 A 
ATOM      4  C4  IND d   1       0.886   2.201  -0.303  0.00  0.00     0.051 A 
ATOM      5  C5  IND d   1       1.576   2.984  -1.187  0.00  0.00    -0.031 A 
ATOM      6  C6  IND d   1       2.791   2.594  -1.711  0.00  0.00     0.015 A 
ATOM      7  C7  IND d   1       3.360   1.397  -1.379  0.00  0.00    -0.016 A 
ATOM      8  C8  IND d   1       2.666   0.603  -0.476  0.00  0.00    -0.047 A 
ATOM      9  C9  IND d   1       1.453   1.012   0.092  0.00  0.00    -0.096 A 
ATOM     10  HN1 IND d   1       3.680  -1.089  -0.115  0.00  0.00     0.298 HD
ENDROOT
TORSDOF 0
ENDMDL
