MODEL 1
REMARK minimizedAffinity -2.10904551
REMARK minimizedRMSD -1
REMARK  0 active torsions:
REMARK  status: ('A' for Active; 'I' for Inactive)
ROOT
ATOM      1  C   UNL d   1      -1.648  -0.000  -1.130  0.00  0.00     0.077 C 
ATOM      2  C1  UNL d   1      -0.487  -0.229  -0.209  0.00  0.00    -0.074 A 
ATOM      3  C2  UNL d   1      -0.521  -1.244   0.752  0.00  0.00    -0.005 A 
ATOM      4  C3  UNL d   1       0.571  -1.451   1.596  0.00  0.00     0.006 A 
ATOM      5  C4  UNL d   1       1.705  -0.646   1.487  0.00  0.00    -0.005 A 
ATOM      6  C5  UNL d   1       1.758   0.373   0.531  0.00  0.00    -0.074 A 
ATOM      7  C6  UNL d   1       2.973   1.241   0.394  0.00  0.00     0.077 C 
ATOM      8  C7  UNL d   1       0.660   0.570  -0.318  0.00  0.00    -0.001 A 
ENDROOT
TORSDOF 0
ENDMDL
