MODEL 1
REMARK minimizedAffinity -3.21685648
REMARK minimizedRMSD -1
REMARK  0 active torsions:
REMARK  status: ('A' for Active; 'I' for Inactive)
ROOT
ATOM      1  C   UNL d   1      -1.139   1.606  -2.868  0.00  0.00     0.077 C 
ATOM      2  C1  UNL d   1      -1.156   0.603  -1.753  0.00  0.00    -0.074 A 
ATOM      3  C2  UNL d   1      -2.328  -0.087  -1.425  0.00  0.00    -0.005 A 
ATOM      4  C3  UNL d   1      -2.327  -1.024  -0.392  0.00  0.00     0.006 A 
ATOM      5  C4  UNL d   1      -1.157  -1.281   0.323  0.00  0.00    -0.005 A 
ATOM      6  C5  UNL d   1       0.025  -0.601   0.009  0.00  0.00    -0.074 A 
ATOM      7  C6  UNL d   1       1.294  -0.873   0.760  0.00  0.00     0.077 C 
ATOM      8  C7  UNL d   1       0.018   0.334  -1.035  0.00  0.00    -0.001 A 
ENDROOT
TORSDOF 0
ENDMDL
