MODEL 1
REMARK minimizedAffinity -0.424441069
REMARK minimizedRMSD -1
REMARK  0 active torsions:
REMARK  status: ('A' for Active; 'I' for Inactive)
ROOT
ATOM      1  C   UNL d   1      -3.328  -1.828  -0.203  0.00  0.00     0.077 C 
ATOM      2  C1  UNL d   1      -2.118  -1.065  -0.654  0.00  0.00    -0.074 A 
ATOM      3  C2  UNL d   1      -2.103  -0.405  -1.887  0.00  0.00    -0.005 A 
ATOM      4  C3  UNL d   1      -0.973   0.308  -2.289  0.00  0.00     0.006 A 
ATOM      5  C4  UNL d   1       0.151   0.368  -1.464  0.00  0.00    -0.005 A 
ATOM      6  C5  UNL d   1       0.154  -0.285  -0.227  0.00  0.00    -0.074 A 
ATOM      7  C6  UNL d   1       1.350  -0.223   0.676  0.00  0.00     0.077 C 
ATOM      8  C7  UNL d   1      -0.987  -0.994   0.173  0.00  0.00    -0.001 A 
ENDROOT
TORSDOF 0
ENDMDL
