MODEL 1
REMARK minimizedAffinity -2.77498913
REMARK minimizedRMSD -1
REMARK  0 active torsions:
REMARK  status: ('A' for Active; 'I' for Inactive)
ROOT
ATOM      1  C   UNL d   1      -0.527  -0.452   0.395  0.00  0.00     0.077 C 
ATOM      2  C1  UNL d   1       0.681   0.437   0.378  0.00  0.00    -0.074 A 
ATOM      3  C2  UNL d   1       1.669   0.288  -0.600  0.00  0.00    -0.005 A 
ATOM      4  C3  UNL d   1       2.783   1.128  -0.609  0.00  0.00     0.006 A 
ATOM      5  C4  UNL d   1       2.919   2.124   0.359  0.00  0.00    -0.005 A 
ATOM      6  C5  UNL d   1       1.940   2.289   1.344  0.00  0.00    -0.074 A 
ATOM      7  C6  UNL d   1       2.066   3.361   2.385  0.00  0.00     0.077 C 
ATOM      8  C7  UNL d   1       0.821   1.445   1.342  0.00  0.00    -0.001 A 
ENDROOT
TORSDOF 0
ENDMDL
