MODEL 1
REMARK minimizedAffinity -2.30710196
REMARK minimizedRMSD -1
REMARK  0 active torsions:
REMARK  status: ('A' for Active; 'I' for Inactive)
ROOT
ATOM      1  C   UNL d   1      -3.158  -1.640  -0.009  0.00  0.00     0.077 C 
ATOM      2  C1  UNL d   1      -1.826  -0.983  -0.222  0.00  0.00    -0.074 A 
ATOM      3  C2  UNL d   1      -0.807  -1.099   0.729  0.00  0.00    -0.005 A 
ATOM      4  C3  UNL d   1       0.429  -0.491   0.512  0.00  0.00     0.006 A 
ATOM      5  C4  UNL d   1       0.659   0.237  -0.655  0.00  0.00    -0.005 A 
ATOM      6  C5  UNL d   1      -0.347   0.363  -1.618  0.00  0.00    -0.074 A 
ATOM      7  C6  UNL d   1      -0.114   1.135  -2.883  0.00  0.00     0.077 C 
ATOM      8  C7  UNL d   1      -1.585  -0.256  -1.396  0.00  0.00    -0.001 A 
ENDROOT
TORSDOF 0
ENDMDL
