MODEL 1
REMARK minimizedAffinity -1.89468479
REMARK minimizedRMSD -1
REMARK  0 active torsions:
REMARK  status: ('A' for Active; 'I' for Inactive)
ROOT
ATOM      1  C   UNL d   1      -0.376  -2.567   1.657  0.00  0.00     0.077 C 
ATOM      2  C1  UNL d   1      -0.236  -1.372   0.762  0.00  0.00    -0.074 A 
ATOM      3  C2  UNL d   1      -1.193  -1.091  -0.218  0.00  0.00    -0.005 A 
ATOM      4  C3  UNL d   1      -1.054   0.030  -1.037  0.00  0.00     0.006 A 
ATOM      5  C4  UNL d   1       0.042   0.880  -0.884  0.00  0.00    -0.005 A 
ATOM      6  C5  UNL d   1       1.009   0.616   0.091  0.00  0.00    -0.074 A 
ATOM      7  C6  UNL d   1       2.188   1.525   0.275  0.00  0.00     0.077 C 
ATOM      8  C7  UNL d   1       0.858  -0.508   0.914  0.00  0.00    -0.001 A 
ENDROOT
TORSDOF 0
ENDMDL
