MODEL 1
REMARK minimizedAffinity -1.91521943
REMARK minimizedRMSD -1
REMARK  0 active torsions:
REMARK  status: ('A' for Active; 'I' for Inactive)
ROOT
ATOM      1  C   UNL d   1      -1.621  -0.766  -0.163  0.00  0.00     0.077 C 
ATOM      2  C1  UNL d   1      -0.223  -0.657   0.369  0.00  0.00    -0.074 A 
ATOM      3  C2  UNL d   1       0.295  -1.627   1.234  0.00  0.00    -0.005 A 
ATOM      4  C3  UNL d   1       1.600  -1.518   1.713  0.00  0.00     0.006 A 
ATOM      5  C4  UNL d   1       2.400  -0.439   1.333  0.00  0.00    -0.005 A 
ATOM      6  C5  UNL d   1       1.900   0.540   0.469  0.00  0.00    -0.074 A 
ATOM      7  C6  UNL d   1       2.749   1.700   0.043  0.00  0.00     0.077 C 
ATOM      8  C7  UNL d   1       0.590   0.419  -0.014  0.00  0.00    -0.001 A 
ENDROOT
TORSDOF 0
ENDMDL
