MODEL 1
REMARK minimizedAffinity -2.20593953
REMARK minimizedRMSD -1
REMARK  0 active torsions:
REMARK  status: ('A' for Active; 'I' for Inactive)
ROOT
ATOM      1  C   UNL d   1      -0.582  -0.028   0.455  0.00  0.00     0.077 C 
ATOM      2  C1  UNL d   1       0.765   0.630   0.478  0.00  0.00    -0.074 A 
ATOM      3  C2  UNL d   1       1.884  -0.002  -0.074  0.00  0.00    -0.005 A 
ATOM      4  C3  UNL d   1       3.129   0.627  -0.053  0.00  0.00     0.006 A 
ATOM      5  C4  UNL d   1       3.267   1.893   0.518  0.00  0.00    -0.005 A 
ATOM      6  C5  UNL d   1       2.159   2.541   1.073  0.00  0.00    -0.074 A 
ATOM      7  C6  UNL d   1       2.289   3.906   1.682  0.00  0.00     0.077 C 
ATOM      8  C7  UNL d   1       0.911   1.905   1.043  0.00  0.00    -0.001 A 
ENDROOT
TORSDOF 0
ENDMDL
