MODEL 1
REMARK minimizedAffinity 10.5796738
REMARK minimizedRMSD -1
REMARK  0 active torsions:
REMARK  status: ('A' for Active; 'I' for Inactive)
ROOT
ATOM      1  C   UNL d   1      -1.893  -0.219  -2.287  0.00  0.00     0.077 C 
ATOM      2  C1  UNL d   1      -1.509  -0.852  -0.982  0.00  0.00    -0.074 A 
ATOM      3  C2  UNL d   1      -2.372  -1.738  -0.331  0.00  0.00    -0.005 A 
ATOM      4  C3  UNL d   1      -1.997  -2.326   0.877  0.00  0.00     0.006 A 
ATOM      5  C4  UNL d   1      -0.756  -2.034   1.445  0.00  0.00    -0.005 A 
ATOM      6  C5  UNL d   1       0.121  -1.151   0.808  0.00  0.00    -0.074 A 
ATOM      7  C6  UNL d   1       1.462  -0.834   1.399  0.00  0.00     0.077 C 
ATOM      8  C7  UNL d   1      -0.260  -0.570  -0.409  0.00  0.00    -0.001 A 
ENDROOT
TORSDOF 0
ENDMDL
