MODEL 1
REMARK minimizedAffinity -2.24615622
REMARK minimizedRMSD -1
REMARK  0 active torsions:
REMARK  status: ('A' for Active; 'I' for Inactive)
ROOT
ATOM      1  C   UNL d   1      -0.648  -2.539   1.482  0.00  0.00     0.077 C 
ATOM      2  C1  UNL d   1      -0.514  -1.383   0.535  0.00  0.00    -0.074 A 
ATOM      3  C2  UNL d   1      -1.451  -1.175  -0.482  0.00  0.00    -0.005 A 
ATOM      4  C3  UNL d   1      -1.318  -0.090  -1.349  0.00  0.00     0.006 A 
ATOM      5  C4  UNL d   1      -0.250   0.797  -1.206  0.00  0.00    -0.005 A 
ATOM      6  C5  UNL d   1       0.695   0.606  -0.194  0.00  0.00    -0.074 A 
ATOM      7  C6  UNL d   1       1.844   1.555  -0.021  0.00  0.00     0.077 C 
ATOM      8  C7  UNL d   1       0.551  -0.483   0.677  0.00  0.00    -0.001 A 
ENDROOT
TORSDOF 0
ENDMDL
