MODEL 1
REMARK minimizedAffinity -3.98514676
REMARK minimizedRMSD -1
REMARK  0 active torsions:
REMARK  status: ('A' for Active; 'I' for Inactive)
ROOT
ATOM      1  C   UNL d   1       3.743   3.696  -1.128  0.00  0.00     0.077 C 
ATOM      2  C1  UNL d   1       2.835   3.076  -0.108  0.00  0.00    -0.074 A 
ATOM      3  C2  UNL d   1       2.242   3.851   0.893  0.00  0.00    -0.005 A 
ATOM      4  C3  UNL d   1       1.392   3.262   1.829  0.00  0.00     0.006 A 
ATOM      5  C4  UNL d   1       1.126   1.893   1.772  0.00  0.00    -0.005 A 
ATOM      6  C5  UNL d   1       1.709   1.102   0.777  0.00  0.00    -0.074 A 
ATOM      7  C6  UNL d   1       1.427  -0.369   0.697  0.00  0.00     0.077 C 
ATOM      8  C7  UNL d   1       2.557   1.703  -0.163  0.00  0.00    -0.001 A 
ENDROOT
TORSDOF 0
ENDMDL
