MODEL 1
REMARK minimizedAffinity -0.305229366
REMARK minimizedRMSD -1
REMARK  0 active torsions:
REMARK  status: ('A' for Active; 'I' for Inactive)
ROOT
ATOM      1  C   UNL d   1       1.596   1.265  -0.396  0.00  0.00     0.077 C 
ATOM      2  C1  UNL d   1       0.666   0.187   0.076  0.00  0.00    -0.074 A 
ATOM      3  C2  UNL d   1       1.012  -0.644   1.147  0.00  0.00    -0.005 A 
ATOM      4  C3  UNL d   1       0.132  -1.636   1.580  0.00  0.00     0.006 A 
ATOM      5  C4  UNL d   1      -1.100  -1.807   0.949  0.00  0.00    -0.005 A 
ATOM      6  C5  UNL d   1      -1.464  -0.986  -0.123  0.00  0.00    -0.074 A 
ATOM      7  C6  UNL d   1      -2.789  -1.151  -0.807  0.00  0.00     0.077 C 
ATOM      8  C7  UNL d   1      -0.578   0.013  -0.549  0.00  0.00    -0.001 A 
ENDROOT
TORSDOF 0
ENDMDL
