MODEL 1
REMARK minimizedAffinity -3.12005854
REMARK minimizedRMSD -1
REMARK  0 active torsions:
REMARK  status: ('A' for Active; 'I' for Inactive)
ROOT
ATOM      1  C   UNL d   1       4.168   2.640  -1.777  0.00  0.00     0.077 C 
ATOM      2  C1  UNL d   1       3.204   2.241  -0.700  0.00  0.00    -0.074 A 
ATOM      3  C2  UNL d   1       3.113   2.972   0.490  0.00  0.00    -0.005 A 
ATOM      4  C3  UNL d   1       2.205   2.595   1.479  0.00  0.00     0.006 A 
ATOM      5  C4  UNL d   1       1.380   1.486   1.290  0.00  0.00    -0.005 A 
ATOM      6  C5  UNL d   1       1.456   0.744   0.107  0.00  0.00    -0.074 A 
ATOM      7  C6  UNL d   1       0.569  -0.445  -0.117  0.00  0.00     0.077 C 
ATOM      8  C7  UNL d   1       2.366   1.133  -0.886  0.00  0.00    -0.001 A 
ENDROOT
TORSDOF 0
ENDMDL
