MODEL 1
REMARK minimizedAffinity -3.40032363
REMARK minimizedRMSD -1
REMARK  0 active torsions:
REMARK  status: ('A' for Active; 'I' for Inactive)
ROOT
ATOM      1  C   UNL d   1      -3.012  -2.200  -0.352  0.00  0.00     0.077 C 
ATOM      2  C1  UNL d   1      -2.081  -1.068  -0.669  0.00  0.00    -0.074 A 
ATOM      3  C2  UNL d   1      -2.445  -0.073  -1.583  0.00  0.00    -0.005 A 
ATOM      4  C3  UNL d   1      -1.573   0.980  -1.861  0.00  0.00     0.006 A 
ATOM      5  C4  UNL d   1      -0.331   1.048  -1.229  0.00  0.00    -0.005 A 
ATOM      6  C5  UNL d   1       0.050   0.063  -0.313  0.00  0.00    -0.074 A 
ATOM      7  C6  UNL d   1       1.378   0.127   0.382  0.00  0.00     0.077 C 
ATOM      8  C7  UNL d   1      -0.834  -0.987  -0.033  0.00  0.00    -0.001 A 
ENDROOT
TORSDOF 0
ENDMDL
