MODEL 1
REMARK minimizedAffinity -2.86928916
REMARK minimizedRMSD -1
REMARK  0 active torsions:
REMARK  status: ('A' for Active; 'I' for Inactive)
ROOT
ATOM      1  C   UNL d   1      -1.998  -0.017  -1.078  0.00  0.00     0.077 C 
ATOM      2  C1  UNL d   1      -0.628   0.294  -0.554  0.00  0.00    -0.074 A 
ATOM      3  C2  UNL d   1       0.452  -0.555  -0.817  0.00  0.00    -0.005 A 
ATOM      4  C3  UNL d   1       1.723  -0.249  -0.331  0.00  0.00     0.006 A 
ATOM      5  C4  UNL d   1       1.926   0.908   0.423  0.00  0.00    -0.005 A 
ATOM      6  C5  UNL d   1       0.859   1.770   0.695  0.00  0.00    -0.074 A 
ATOM      7  C6  UNL d   1       1.062   3.022   1.495  0.00  0.00     0.077 C 
ATOM      8  C7  UNL d   1      -0.414   1.458   0.197  0.00  0.00    -0.001 A 
ENDROOT
TORSDOF 0
ENDMDL
