MODEL 1
REMARK minimizedAffinity 0.0982737392
REMARK minimizedRMSD -1
REMARK  0 active torsions:
REMARK  status: ('A' for Active; 'I' for Inactive)
ROOT
ATOM      1  C   UNL d   1       4.234   2.820  -0.947  0.00  0.00     0.077 C 
ATOM      2  C1  UNL d   1       3.113   2.503  -0.002  0.00  0.00    -0.074 A 
ATOM      3  C2  UNL d   1       3.008   3.154   1.231  0.00  0.00    -0.005 A 
ATOM      4  C3  UNL d   1       1.954   2.857   2.096  0.00  0.00     0.006 A 
ATOM      5  C4  UNL d   1       0.998   1.906   1.736  0.00  0.00    -0.005 A 
ATOM      6  C5  UNL d   1       1.087   1.246   0.507  0.00  0.00    -0.074 A 
ATOM      7  C6  UNL d   1       0.061   0.229   0.101  0.00  0.00     0.077 C 
ATOM      8  C7  UNL d   1       2.144   1.556  -0.359  0.00  0.00    -0.001 A 
ENDROOT
TORSDOF 0
ENDMDL
