MODEL 1
REMARK minimizedAffinity 6.21509981
REMARK minimizedRMSD -1
REMARK  0 active torsions:
REMARK  status: ('A' for Active; 'I' for Inactive)
ROOT
ATOM      1  C4' PXY d   1      -3.440  -1.982  -3.076  0.00  0.00     0.077 C 
ATOM      2  C1' PXY d   1      -1.829   2.694  -0.083  0.00  0.00     0.077 C 
ATOM      3  C1  PXY d   1      -2.262   1.474  -0.872  0.00  0.00    -0.082 A 
ATOM      4  C2  PXY d   1      -1.847   0.274  -0.501  0.00  0.00     0.003 A 
ATOM      5  C3  PXY d   1      -2.203  -0.837  -1.223  0.00  0.00     0.003 A 
ATOM      6  C4  PXY d   1      -3.036  -0.724  -2.303  0.00  0.00    -0.082 A 
ATOM      7  C5  PXY d   1      -3.472   0.496  -2.682  0.00  0.00     0.003 A 
ATOM      8  C6  PXY d   1      -3.066   1.616  -1.961  0.00  0.00     0.003 A 
ENDROOT
TORSDOF 0
ENDMDL
