MODEL 1
REMARK minimizedAffinity 5.72258759
REMARK minimizedRMSD -1
REMARK  0 active torsions:
REMARK  status: ('A' for Active; 'I' for Inactive)
ROOT
ATOM      1  C4' PXY d   1       5.984  -5.999  -5.484  0.00  0.00     0.077 C 
ATOM      2  C1' PXY d   1       2.159  -5.900  -1.151  0.00  0.00     0.077 C 
ATOM      3  C1  PXY d   1       3.171  -5.921  -2.280  0.00  0.00    -0.082 A 
ATOM      4  C2  PXY d   1       2.752  -5.944  -3.534  0.00  0.00     0.003 A 
ATOM      5  C3  PXY d   1       3.653  -5.996  -4.566  0.00  0.00     0.003 A 
ATOM      6  C4  PXY d   1       4.998  -5.968  -4.313  0.00  0.00    -0.082 A 
ATOM      7  C5  PXY d   1       5.434  -5.933  -3.036  0.00  0.00     0.003 A 
ATOM      8  C6  PXY d   1       4.503  -5.923  -2.001  0.00  0.00     0.003 A 
ENDROOT
TORSDOF 0
ENDMDL
