MODEL 1
REMARK minimizedAffinity 2.87658882
REMARK minimizedRMSD -1
REMARK  0 active torsions:
REMARK  status: ('A' for Active; 'I' for Inactive)
ROOT
ATOM      1  C4' PXY d   1       2.803  -5.506   5.219  0.00  0.00     0.077 C 
ATOM      2  C1' PXY d   1       2.241  -0.705   2.050  0.00  0.00     0.077 C 
ATOM      3  C1  PXY d   1       2.401  -1.963   2.880  0.00  0.00    -0.082 A 
ATOM      4  C2  PXY d   1       1.414  -2.843   2.932  0.00  0.00     0.003 A 
ATOM      5  C3  PXY d   1       1.530  -3.971   3.703  0.00  0.00     0.003 A 
ATOM      6  C4  PXY d   1       2.689  -4.227   4.386  0.00  0.00    -0.082 A 
ATOM      7  C5  PXY d   1       3.704  -3.339   4.330  0.00  0.00     0.003 A 
ATOM      8  C6  PXY d   1       3.551  -2.180   3.574  0.00  0.00     0.003 A 
ENDROOT
TORSDOF 0
ENDMDL
