MODEL 1
REMARK minimizedAffinity 5.36684322
REMARK minimizedRMSD -1
REMARK  0 active torsions:
REMARK  status: ('A' for Active; 'I' for Inactive)
ROOT
ATOM      1  C4' PXY d   1      -3.785  -2.229  -5.921  0.00  0.00     0.077 C 
ATOM      2  C1' PXY d   1      -3.229   2.418  -2.529  0.00  0.00     0.077 C 
ATOM      3  C1  PXY d   1      -3.367   1.193  -3.411  0.00  0.00    -0.082 A 
ATOM      4  C2  PXY d   1      -3.763   1.332  -4.666  0.00  0.00     0.003 A 
ATOM      5  C3  PXY d   1      -3.923   0.231  -5.468  0.00  0.00     0.003 A 
ATOM      6  C4  PXY d   1      -3.623  -1.019  -4.997  0.00  0.00    -0.082 A 
ATOM      7  C5  PXY d   1      -3.209  -1.168  -3.721  0.00  0.00     0.003 A 
ATOM      8  C6  PXY d   1      -3.092  -0.042  -2.911  0.00  0.00     0.003 A 
ENDROOT
TORSDOF 0
ENDMDL
