MODEL 1
REMARK minimizedAffinity 6.79812813
REMARK minimizedRMSD -1
REMARK  0 active torsions:
REMARK  status: ('A' for Active; 'I' for Inactive)
ROOT
ATOM      1  C4' PXY d   1       0.552  -4.887   4.972  0.00  0.00     0.077 C 
ATOM      2  C1' PXY d   1       2.689  -1.117   1.147  0.00  0.00     0.077 C 
ATOM      3  C1  PXY d   1       2.129  -2.115   2.141  0.00  0.00    -0.082 A 
ATOM      4  C2  PXY d   1       1.418  -1.685   3.170  0.00  0.00     0.003 A 
ATOM      5  C3  PXY d   1       0.931  -2.571   4.096  0.00  0.00     0.003 A 
ATOM      6  C4  PXY d   1       1.129  -3.916   3.938  0.00  0.00    -0.082 A 
ATOM      7  C5  PXY d   1       1.844  -4.365   2.885  0.00  0.00     0.003 A 
ATOM      8  C6  PXY d   1       2.364  -3.445   1.978  0.00  0.00     0.003 A 
ENDROOT
TORSDOF 0
ENDMDL
