MODEL 1
REMARK minimizedAffinity 1.44326162
REMARK minimizedRMSD -1
REMARK  0 active torsions:
REMARK  status: ('A' for Active; 'I' for Inactive)
ROOT
ATOM      1  C4' PXY d   1       2.474  -0.004   1.876  0.00  0.00     0.077 C 
ATOM      2  C1' PXY d   1       1.875  -4.841   4.983  0.00  0.00     0.077 C 
ATOM      3  C1  PXY d   1       2.025  -3.566   4.177  0.00  0.00    -0.082 A 
ATOM      4  C2  PXY d   1       2.272  -3.638   2.879  0.00  0.00     0.003 A 
ATOM      5  C3  PXY d   1       2.442  -2.495   2.141  0.00  0.00     0.003 A 
ATOM      6  C4  PXY d   1       2.306  -1.265   2.728  0.00  0.00    -0.082 A 
ATOM      7  C5  PXY d   1       2.044  -1.184   4.049  0.00  0.00     0.003 A 
ATOM      8  C6  PXY d   1       1.915  -2.356   4.789  0.00  0.00     0.003 A 
ENDROOT
TORSDOF 0
ENDMDL
