MODEL 1
REMARK minimizedAffinity 2.93730044
REMARK minimizedRMSD -1
REMARK  0 active torsions:
REMARK  status: ('A' for Active; 'I' for Inactive)
ROOT
ATOM      1  C4' PXY d   1       2.404  -5.521   6.000  0.00  0.00     0.077 C 
ATOM      2  C1' PXY d   1       2.124  -1.121   2.261  0.00  0.00     0.077 C 
ATOM      3  C1  PXY d   1       2.185  -2.279   3.238  0.00  0.00    -0.082 A 
ATOM      4  C2  PXY d   1       3.019  -2.225   4.264  0.00  0.00     0.003 A 
ATOM      5  C3  PXY d   1       3.110  -3.277   5.139  0.00  0.00     0.003 A 
ATOM      6  C4  PXY d   1       2.302  -4.372   4.993  0.00  0.00    -0.082 A 
ATOM      7  C5  PXY d   1       1.441  -4.429   3.955  0.00  0.00     0.003 A 
ATOM      8  C6  PXY d   1       1.393  -3.369   3.055  0.00  0.00     0.003 A 
ENDROOT
TORSDOF 0
ENDMDL
