MODEL 1
REMARK minimizedAffinity 9.72245502
REMARK minimizedRMSD -1
REMARK  0 active torsions:
REMARK  status: ('A' for Active; 'I' for Inactive)
ROOT
ATOM      1  C   UNL d   1      -5.727   2.163  -0.539  0.00  0.00     0.023 A 
ATOM      2  C1  UNL d   1      -5.829   1.969  -1.917  0.00  0.00     0.003 A 
ATOM      3  C2  UNL d   1      -5.908   3.069  -2.774  0.00  0.00     0.048 A 
ATOM      4  C3  UNL d   1      -5.883   4.360  -2.246  0.00  0.00     0.023 A 
ATOM      5  C4  UNL d   1      -5.779   4.558  -0.869  0.00  0.00     0.048 A 
ATOM      6  C5  UNL d   1      -5.702   3.455  -0.016  0.00  0.00     0.003 A 
ATOM      7  I   UNL d   1      -5.999   5.998  -3.520  0.00  0.00    -0.146 I 
ENDROOT
TORSDOF 0
ENDMDL
