MODEL 1
REMARK minimizedAffinity 6.41210318
REMARK minimizedRMSD -1
REMARK  0 active torsions:
REMARK  status: ('A' for Active; 'I' for Inactive)
ROOT
ATOM      1  C   UNL d   1       0.648  -1.931   2.280  0.00  0.00     0.023 A 
ATOM      2  C1  UNL d   1       1.489  -0.827   2.145  0.00  0.00     0.003 A 
ATOM      3  C2  UNL d   1       0.991   0.373   1.633  0.00  0.00     0.048 A 
ATOM      4  C3  UNL d   1      -0.349   0.462   1.259  0.00  0.00     0.023 A 
ATOM      5  C4  UNL d   1      -1.195  -0.640   1.393  0.00  0.00     0.048 A 
ATOM      6  C5  UNL d   1      -0.692  -1.838   1.904  0.00  0.00     0.003 A 
ATOM      7  I   UNL d   1      -1.092   2.248   0.497  0.00  0.00    -0.146 I 
ENDROOT
TORSDOF 0
ENDMDL
