MODEL 1
REMARK minimizedAffinity 1.14298391
REMARK minimizedRMSD -1
REMARK  0 active torsions:
REMARK  status: ('A' for Active; 'I' for Inactive)
ROOT
ATOM      1  C   UNL d   1       0.857  -0.944   1.929  0.00  0.00     0.023 A 
ATOM      2  C1  UNL d   1       1.051  -2.245   1.466  0.00  0.00     0.003 A 
ATOM      3  C2  UNL d   1      -0.012  -2.954   0.903  0.00  0.00     0.048 A 
ATOM      4  C3  UNL d   1      -1.268  -2.355   0.806  0.00  0.00     0.023 A 
ATOM      5  C4  UNL d   1      -1.467  -1.053   1.268  0.00  0.00     0.048 A 
ATOM      6  C5  UNL d   1      -0.401  -0.348   1.830  0.00  0.00     0.003 A 
ATOM      7  I   UNL d   1      -2.852  -3.408  -0.031  0.00  0.00    -0.146 I 
ENDROOT
TORSDOF 0
ENDMDL
