MODEL 1
REMARK minimizedAffinity 9.77616692
REMARK minimizedRMSD -1
REMARK  0 active torsions:
REMARK  status: ('A' for Active; 'I' for Inactive)
ROOT
ATOM      1  C   UNL d   1      -1.859  -3.850  -1.322  0.00  0.00     0.023 A 
ATOM      2  C1  UNL d   1      -2.226  -2.753  -0.542  0.00  0.00     0.003 A 
ATOM      3  C2  UNL d   1      -2.725  -1.598  -1.149  0.00  0.00     0.048 A 
ATOM      4  C3  UNL d   1      -2.855  -1.548  -2.536  0.00  0.00     0.023 A 
ATOM      5  C4  UNL d   1      -2.490  -2.643  -3.321  0.00  0.00     0.048 A 
ATOM      6  C5  UNL d   1      -1.991  -3.795  -2.710  0.00  0.00     0.003 A 
ATOM      7  I   UNL d   1      -3.597   0.170  -3.442  0.00  0.00    -0.146 I 
ENDROOT
TORSDOF 0
ENDMDL
