MODEL 1
REMARK minimizedAffinity 11.6760159
REMARK minimizedRMSD -1
REMARK  0 active torsions:
REMARK  status: ('A' for Active; 'I' for Inactive)
ROOT
ATOM      1  C   UNL d   1       1.867  -0.742   1.905  0.00  0.00     0.023 A 
ATOM      2  C1  UNL d   1       1.476  -0.144   3.103  0.00  0.00     0.003 A 
ATOM      3  C2  UNL d   1       1.435  -0.895   4.279  0.00  0.00     0.048 A 
ATOM      4  C3  UNL d   1       1.787  -2.244   4.250  0.00  0.00     0.023 A 
ATOM      5  C4  UNL d   1       2.180  -2.847   3.053  0.00  0.00     0.048 A 
ATOM      6  C5  UNL d   1       2.219  -2.091   1.880  0.00  0.00     0.003 A 
ATOM      7  I   UNL d   1       1.727  -3.365   5.999  0.00  0.00    -0.146 I 
ENDROOT
TORSDOF 0
ENDMDL
