MODEL 1
REMARK minimizedAffinity 4.47251558
REMARK minimizedRMSD -1
REMARK  0 active torsions:
REMARK  status: ('A' for Active; 'I' for Inactive)
ROOT
ATOM      1  C   UNL d   1      -0.000  -2.524   0.975  0.00  0.00     0.023 A 
ATOM      2  C1  UNL d   1       1.014  -1.575   1.108  0.00  0.00     0.003 A 
ATOM      3  C2  UNL d   1       0.728  -0.218   0.950  0.00  0.00     0.048 A 
ATOM      4  C3  UNL d   1      -0.575   0.185   0.660  0.00  0.00     0.023 A 
ATOM      5  C4  UNL d   1      -1.594  -0.761   0.527  0.00  0.00     0.048 A 
ATOM      6  C5  UNL d   1      -1.303  -2.117   0.685  0.00  0.00     0.003 A 
ATOM      7  I   UNL d   1      -1.004   2.205   0.424  0.00  0.00    -0.146 I 
ENDROOT
TORSDOF 0
ENDMDL
