MODEL 1
REMARK minimizedAffinity -0.477169275
REMARK minimizedRMSD -1
REMARK  0 active torsions:
REMARK  status: ('A' for Active; 'I' for Inactive)
ROOT
ATOM      1  C   UNL d   1       4.300   2.687  -3.433  0.00  0.00     0.023 A 
ATOM      2  C1  UNL d   1       5.511   3.332  -3.687  0.00  0.00     0.003 A 
ATOM      3  C2  UNL d   1       6.000   4.280  -2.786  0.00  0.00     0.048 A 
ATOM      4  C3  UNL d   1       5.274   4.578  -1.633  0.00  0.00     0.023 A 
ATOM      5  C4  UNL d   1       4.062   3.934  -1.375  0.00  0.00     0.048 A 
ATOM      6  C5  UNL d   1       3.577   2.988  -2.279  0.00  0.00     0.003 A 
ATOM      7  I   UNL d   1       6.000   5.989  -0.291  0.00  0.00    -0.146 I 
ENDROOT
TORSDOF 0
ENDMDL
