MODEL 1
REMARK minimizedAffinity 4.28192568
REMARK minimizedRMSD -1
REMARK  0 active torsions:
REMARK  status: ('A' for Active; 'I' for Inactive)
ROOT
ATOM      1  C   UNL d   1       1.636  -1.983   2.975  0.00  0.00     0.023 A 
ATOM      2  C1  UNL d   1       1.812  -1.522   4.280  0.00  0.00     0.003 A 
ATOM      3  C2  UNL d   1       2.140  -0.185   4.511  0.00  0.00     0.048 A 
ATOM      4  C3  UNL d   1       2.288   0.687   3.432  0.00  0.00     0.023 A 
ATOM      5  C4  UNL d   1       2.112   0.230   2.125  0.00  0.00     0.048 A 
ATOM      6  C5  UNL d   1       1.786  -1.108   1.899  0.00  0.00     0.003 A 
ATOM      7  I   UNL d   1       2.775   2.678   3.774  0.00  0.00    -0.146 I 
ENDROOT
TORSDOF 0
ENDMDL
