MODEL 1
REMARK minimizedAffinity 20.1674557
REMARK minimizedRMSD -1
REMARK  2 active torsions:
REMARK  status: ('A' for Active; 'I' for Inactive)
REMARK    1  A    between atoms: C1_2  and  C2_3 
REMARK    2  A    between atoms: C2_3  and  C3_4 
ROOT
ATOM      1  C3  UNL d   1      -0.138   1.771   3.801  0.00  0.00    -0.075 A 
ATOM      2  C4  UNL d   1       0.968   1.032   4.245  0.00  0.00     0.002 A 
ATOM      3  C5  UNL d   1       1.482  -0.008   3.471  0.00  0.00     0.002 A 
ATOM      4  C6  UNL d   1       0.893  -0.329   2.250  0.00  0.00    -0.004 A 
ATOM      5  C7  UNL d   1      -0.216   0.387   1.806  0.00  0.00     0.002 A 
ATOM      6  C8  UNL d   1      -0.731   1.432   2.577  0.00  0.00     0.002 A 
ENDROOT
BRANCH   1   7
ATOM      7  C2  UNL d   1      -0.682   2.917   4.620  0.00  0.00     0.056 C 
BRANCH   7   8
ATOM      8  C1  UNL d   1      -0.027   3.064   5.998  0.00  0.00     0.007 C 
ATOM      9  C   UNL d   1       1.159   4.019   6.000  0.00  0.00     0.009 C 
ENDBRANCH   7   8
ENDBRANCH   1   7
TORSDOF 2
ENDMDL
