MODEL 1
REMARK minimizedAffinity 18.6217842
REMARK minimizedRMSD -1
REMARK  2 active torsions:
REMARK  status: ('A' for Active; 'I' for Inactive)
REMARK    1  A    between atoms: C1_2  and  C2_3 
REMARK    2  A    between atoms: C2_3  and  C3_4 
ROOT
ATOM      1  C3  UNL d   1       0.656  -2.159  -4.525  0.00  0.00    -0.075 A 
ATOM      2  C4  UNL d   1      -0.090  -2.994  -5.369  0.00  0.00     0.002 A 
ATOM      3  C5  UNL d   1       0.513  -4.084  -5.999  0.00  0.00     0.002 A 
ATOM      4  C6  UNL d   1       1.867  -4.345  -5.802  0.00  0.00    -0.004 A 
ATOM      5  C7  UNL d   1       2.621  -3.512  -4.978  0.00  0.00     0.002 A 
ATOM      6  C8  UNL d   1       2.019  -2.424  -4.343  0.00  0.00     0.002 A 
ENDROOT
BRANCH   1   7
ATOM      7  C2  UNL d   1       0.003  -0.996  -3.817  0.00  0.00     0.056 C 
BRANCH   7   8
ATOM      8  C1  UNL d   1      -1.222  -1.382  -2.982  0.00  0.00     0.007 C 
ATOM      9  C   UNL d   1      -0.878  -2.242  -1.773  0.00  0.00     0.009 C 
ENDBRANCH   7   8
ENDBRANCH   1   7
TORSDOF 2
ENDMDL
