MODEL 1
REMARK minimizedAffinity 7.86021805
REMARK minimizedRMSD -1
REMARK  2 active torsions:
REMARK  status: ('A' for Active; 'I' for Inactive)
REMARK    1  A    between atoms: C1_2  and  C2_3 
REMARK    2  A    between atoms: C2_3  and  C3_4 
ROOT
ATOM      1  C3  UNL d   1       4.775   3.256   1.421  0.00  0.00    -0.075 A 
ATOM      2  C4  UNL d   1       4.496   4.199   0.422  0.00  0.00     0.002 A 
ATOM      3  C5  UNL d   1       4.371   5.552   0.739  0.00  0.00     0.002 A 
ATOM      4  C6  UNL d   1       4.512   5.977   2.059  0.00  0.00    -0.004 A 
ATOM      5  C7  UNL d   1       4.772   5.046   3.062  0.00  0.00     0.002 A 
ATOM      6  C8  UNL d   1       4.903   3.693   2.747  0.00  0.00     0.002 A 
ENDROOT
BRANCH   1   7
ATOM      7  C2  UNL d   1       4.941   1.794   1.080  0.00  0.00     0.056 C 
BRANCH   7   8
ATOM      8  C1  UNL d   1       6.000   1.521   0.006  0.00  0.00     0.007 C 
ATOM      9  C   UNL d   1       5.984   0.085  -0.501  0.00  0.00     0.009 C 
ENDBRANCH   7   8
ENDBRANCH   1   7
TORSDOF 2
ENDMDL
