MODEL 1
REMARK minimizedAffinity 8.06408787
REMARK minimizedRMSD -1
REMARK  2 active torsions:
REMARK  status: ('A' for Active; 'I' for Inactive)
REMARK    1  A    between atoms: C1_2  and  C2_3 
REMARK    2  A    between atoms: C2_3  and  C3_4 
ROOT
ATOM      1  C3  UNL d   1       2.263  -0.173  -4.525  0.00  0.00    -0.075 A 
ATOM      2  C4  UNL d   1       1.721  -0.779  -5.667  0.00  0.00     0.002 A 
ATOM      3  C5  UNL d   1       0.416  -1.273  -5.655  0.00  0.00     0.002 A 
ATOM      4  C6  UNL d   1      -0.358  -1.175  -4.501  0.00  0.00    -0.004 A 
ATOM      5  C7  UNL d   1       0.176  -0.590  -3.356  0.00  0.00     0.002 A 
ATOM      6  C8  UNL d   1       1.479  -0.091  -3.366  0.00  0.00     0.002 A 
ENDROOT
BRANCH   1   7
ATOM      7  C2  UNL d   1       3.664   0.390  -4.540  0.00  0.00     0.056 C 
BRANCH   7   8
ATOM      8  C1  UNL d   1       4.163   0.784  -5.934  0.00  0.00     0.007 C 
ATOM      9  C   UNL d   1       5.648   1.119  -5.968  0.00  0.00     0.009 C 
ENDBRANCH   7   8
ENDBRANCH   1   7
TORSDOF 2
ENDMDL
