MODEL 1
REMARK minimizedAffinity 5.1610508
REMARK minimizedRMSD -1
REMARK  2 active torsions:
REMARK  status: ('A' for Active; 'I' for Inactive)
REMARK    1  A    between atoms: C1_2  and  C2_3 
REMARK    2  A    between atoms: C2_3  and  C3_4 
ROOT
ATOM      1  C3  UNL d   1       0.772   0.002   4.560  0.00  0.00    -0.075 A 
ATOM      2  C4  UNL d   1       1.115  -1.337   4.327  0.00  0.00     0.002 A 
ATOM      3  C5  UNL d   1       1.096  -1.858   3.033  0.00  0.00     0.002 A 
ATOM      4  C6  UNL d   1       0.725  -1.052   1.960  0.00  0.00    -0.004 A 
ATOM      5  C7  UNL d   1       0.367   0.276   2.182  0.00  0.00     0.002 A 
ATOM      6  C8  UNL d   1       0.389   0.801   3.475  0.00  0.00     0.002 A 
ENDROOT
BRANCH   1   7
ATOM      7  C2  UNL d   1       0.819   0.581   5.955  0.00  0.00     0.056 C 
BRANCH   7   8
ATOM      8  C1  UNL d   1       0.735   2.110   5.999  0.00  0.00     0.007 C 
ATOM      9  C   UNL d   1      -0.695   2.633   5.999  0.00  0.00     0.009 C 
ENDBRANCH   7   8
ENDBRANCH   1   7
TORSDOF 2
ENDMDL
