MODEL 1
REMARK minimizedAffinity 10.2612181
REMARK minimizedRMSD -1
REMARK  2 active torsions:
REMARK  status: ('A' for Active; 'I' for Inactive)
REMARK    1  A    between atoms: C1_2  and  C2_3 
REMARK    2  A    between atoms: C2_3  and  C3_4 
ROOT
ATOM      1  C3  UNL d   1       0.770  -1.704   4.069  0.00  0.00    -0.075 A 
ATOM      2  C4  UNL d   1       1.094  -0.509   4.727  0.00  0.00     0.002 A 
ATOM      3  C5  UNL d   1       0.858   0.723   4.116  0.00  0.00     0.002 A 
ATOM      4  C6  UNL d   1       0.305   0.775   2.838  0.00  0.00    -0.004 A 
ATOM      5  C7  UNL d   1      -0.005  -0.406   2.168  0.00  0.00     0.002 A 
ATOM      6  C8  UNL d   1       0.226  -1.640   2.779  0.00  0.00     0.002 A 
ENDROOT
BRANCH   1   7
ATOM      7  C2  UNL d   1       0.996  -3.040   4.737  0.00  0.00     0.056 C 
BRANCH   7   8
ATOM      8  C1  UNL d   1       1.865  -2.968   5.996  0.00  0.00     0.007 C 
ATOM      9  C   UNL d   1       3.002  -3.982   5.999  0.00  0.00     0.009 C 
ENDBRANCH   7   8
ENDBRANCH   1   7
TORSDOF 2
ENDMDL
