MODEL 1
REMARK minimizedAffinity 3.57983923
REMARK minimizedRMSD -1
REMARK  2 active torsions:
REMARK  status: ('A' for Active; 'I' for Inactive)
REMARK    1  A    between atoms: C1_2  and  C2_3 
REMARK    2  A    between atoms: C2_3  and  C3_4 
ROOT
ATOM      1  C3  UNL d   1       3.994   1.458  -5.234  0.00  0.00    -0.075 A 
ATOM      2  C4  UNL d   1       3.995   2.635  -5.997  0.00  0.00     0.002 A 
ATOM      3  C5  UNL d   1       4.996   3.591  -5.823  0.00  0.00     0.002 A 
ATOM      4  C6  UNL d   1       6.000   3.388  -4.879  0.00  0.00    -0.004 A 
ATOM      5  C7  UNL d   1       5.999   2.231  -4.104  0.00  0.00     0.002 A 
ATOM      6  C8  UNL d   1       5.002   1.270  -4.279  0.00  0.00     0.002 A 
ENDROOT
BRANCH   1   7
ATOM      7  C2  UNL d   1       2.930   0.405  -5.439  0.00  0.00     0.056 C 
BRANCH   7   8
ATOM      8  C1  UNL d   1       1.714   0.561  -4.520  0.00  0.00     0.007 C 
ATOM      9  C   UNL d   1       0.823  -0.674  -4.489  0.00  0.00     0.009 C 
ENDBRANCH   7   8
ENDBRANCH   1   7
TORSDOF 2
ENDMDL
