MODEL 1
REMARK minimizedAffinity 15.4084682
REMARK minimizedRMSD -1
REMARK  2 active torsions:
REMARK  status: ('A' for Active; 'I' for Inactive)
REMARK    1  A    between atoms: C1_2  and  C2_3 
REMARK    2  A    between atoms: C2_3  and  C3_4 
ROOT
ATOM      1  C3  UNL d   1      -3.911  -0.465  -0.465  0.00  0.00    -0.075 A 
ATOM      2  C4  UNL d   1      -3.672   0.507   0.518  0.00  0.00     0.002 A 
ATOM      3  C5  UNL d   1      -4.276   1.762   0.434  0.00  0.00     0.002 A 
ATOM      4  C6  UNL d   1      -5.116   2.064  -0.635  0.00  0.00    -0.004 A 
ATOM      5  C7  UNL d   1      -5.347   1.112  -1.626  0.00  0.00     0.002 A 
ATOM      6  C8  UNL d   1      -4.748  -0.146  -1.542  0.00  0.00     0.002 A 
ENDROOT
BRANCH   1   7
ATOM      7  C2  UNL d   1      -3.283  -1.835  -0.365  0.00  0.00     0.056 C 
BRANCH   7   8
ATOM      8  C1  UNL d   1      -2.308  -2.158  -1.501  0.00  0.00     0.007 C 
ATOM      9  C   UNL d   1      -2.071  -3.652  -1.682  0.00  0.00     0.009 C 
ENDBRANCH   7   8
ENDBRANCH   1   7
TORSDOF 2
ENDMDL
