MODEL 1
REMARK minimizedAffinity 1.63751662
REMARK minimizedRMSD -1
REMARK  2 active torsions:
REMARK  status: ('A' for Active; 'I' for Inactive)
REMARK    1  A    between atoms: C1_2  and  C2_3 
REMARK    2  A    between atoms: C2_3  and  C3_4 
ROOT
ATOM      1  C3  UNL d   1       1.851  -0.206   4.113  0.00  0.00    -0.075 A 
ATOM      2  C4  UNL d   1       2.993   0.278   4.768  0.00  0.00     0.002 A 
ATOM      3  C5  UNL d   1       3.663  -0.514   5.701  0.00  0.00     0.002 A 
ATOM      4  C6  UNL d   1       3.196  -1.792   5.998  0.00  0.00    -0.004 A 
ATOM      5  C7  UNL d   1       2.053  -2.277   5.366  0.00  0.00     0.002 A 
ATOM      6  C8  UNL d   1       1.383  -1.488   4.428  0.00  0.00     0.002 A 
ENDROOT
BRANCH   1   7
ATOM      7  C2  UNL d   1       1.138   0.635   3.081  0.00  0.00     0.056 C 
BRANCH   7   8
ATOM      8  C1  UNL d   1       0.193  -0.160   2.174  0.00  0.00     0.007 C 
ATOM      9  C   UNL d   1      -1.279   0.097   2.468  0.00  0.00     0.009 C 
ENDBRANCH   7   8
ENDBRANCH   1   7
TORSDOF 2
ENDMDL
