MODEL 1
REMARK minimizedAffinity -2.92276335
REMARK minimizedRMSD -1
REMARK  2 active torsions:
REMARK  status: ('A' for Active; 'I' for Inactive)
REMARK    1  A    between atoms: C1_2  and  C2_3 
REMARK    2  A    between atoms: C2_3  and  C3_4 
ROOT
ATOM      1  C3  UNL d   1       4.865   4.339  -4.421  0.00  0.00    -0.075 A 
ATOM      2  C4  UNL d   1       3.848   4.197  -3.466  0.00  0.00     0.002 A 
ATOM      3  C5  UNL d   1       3.901   4.903  -2.264  0.00  0.00     0.002 A 
ATOM      4  C6  UNL d   1       4.975   5.750  -1.998  0.00  0.00    -0.004 A 
ATOM      5  C7  UNL d   1       5.999   5.886  -2.932  0.00  0.00     0.002 A 
ATOM      6  C8  UNL d   1       5.946   5.184  -4.138  0.00  0.00     0.002 A 
ENDROOT
BRANCH   1   7
ATOM      7  C2  UNL d   1       4.798   3.600  -5.736  0.00  0.00     0.056 C 
BRANCH   7   8
ATOM      8  C1  UNL d   1       5.999   2.686  -6.000  0.00  0.00     0.007 C 
ATOM      9  C   UNL d   1       5.644   1.205  -5.977  0.00  0.00     0.009 C 
ENDBRANCH   7   8
ENDBRANCH   1   7
TORSDOF 2
ENDMDL
