MODEL 1
REMARK minimizedAffinity 0.500103772
REMARK minimizedRMSD -1
REMARK  2 active torsions:
REMARK  status: ('A' for Active; 'I' for Inactive)
REMARK    1  A    between atoms: C1_2  and  C2_3 
REMARK    2  A    between atoms: C2_3  and  C3_4 
ROOT
ATOM      1  C3  UNL d   1       3.657   4.488  -2.210  0.00  0.00    -0.075 A 
ATOM      2  C4  UNL d   1       4.826   4.744  -1.478  0.00  0.00     0.002 A 
ATOM      3  C5  UNL d   1       5.988   5.167  -2.124  0.00  0.00     0.002 A 
ATOM      4  C6  UNL d   1       6.000   5.328  -3.507  0.00  0.00    -0.004 A 
ATOM      5  C7  UNL d   1       4.850   5.061  -4.246  0.00  0.00     0.002 A 
ATOM      6  C8  UNL d   1       3.684   4.643  -3.602  0.00  0.00     0.002 A 
ENDROOT
BRANCH   1   7
ATOM      7  C2  UNL d   1       2.388   4.059  -1.513  0.00  0.00     0.056 C 
BRANCH   7   8
ATOM      8  C1  UNL d   1       2.503   4.002   0.013  0.00  0.00     0.007 C 
ATOM      9  C   UNL d   1       1.153   3.946   0.716  0.00  0.00     0.009 C 
ENDBRANCH   7   8
ENDBRANCH   1   7
TORSDOF 2
ENDMDL
