MODEL 1
REMARK minimizedAffinity -2.11069036
REMARK minimizedRMSD -1
REMARK  2 active torsions:
REMARK  status: ('A' for Active; 'I' for Inactive)
REMARK    1  A    between atoms: C1_2  and  C2_3 
REMARK    2  A    between atoms: C2_3  and  C3_4 
ROOT
ATOM      1  C3  UNL d   1       5.387   4.127  -4.964  0.00  0.00    -0.075 A 
ATOM      2  C4  UNL d   1       5.927   4.341  -3.687  0.00  0.00     0.002 A 
ATOM      3  C5  UNL d   1       5.348   5.268  -2.819  0.00  0.00     0.002 A 
ATOM      4  C6  UNL d   1       4.231   5.998  -3.219  0.00  0.00    -0.004 A 
ATOM      5  C7  UNL d   1       3.696   5.806  -4.491  0.00  0.00     0.002 A 
ATOM      6  C8  UNL d   1       4.270   4.876  -5.360  0.00  0.00     0.002 A 
ENDROOT
BRANCH   1   7
ATOM      7  C2  UNL d   1       5.990   3.105  -5.897  0.00  0.00     0.056 C 
BRANCH   7   8
ATOM      8  C1  UNL d   1       5.272   1.752  -5.889  0.00  0.00     0.007 C 
ATOM      9  C   UNL d   1       5.988   0.697  -5.057  0.00  0.00     0.009 C 
ENDBRANCH   7   8
ENDBRANCH   1   7
TORSDOF 2
ENDMDL
