MODEL 1
REMARK minimizedAffinity -4.23392296
REMARK minimizedRMSD -1
REMARK  2 active torsions:
REMARK  status: ('A' for Active; 'I' for Inactive)
REMARK    1  A    between atoms: C1_2  and  C2_3 
REMARK    2  A    between atoms: C2_3  and  C3_4 
ROOT
ATOM      1  C3  UNL d   1       4.790   3.692  -4.698  0.00  0.00    -0.075 A 
ATOM      2  C4  UNL d   1       5.997   4.131  -4.135  0.00  0.00     0.002 A 
ATOM      3  C5  UNL d   1       5.997   4.919  -2.983  0.00  0.00     0.002 A 
ATOM      4  C6  UNL d   1       4.792   5.286  -2.388  0.00  0.00    -0.004 A 
ATOM      5  C7  UNL d   1       3.587   4.870  -2.948  0.00  0.00     0.002 A 
ATOM      6  C8  UNL d   1       3.584   4.078  -4.097  0.00  0.00     0.002 A 
ENDROOT
BRANCH   1   7
ATOM      7  C2  UNL d   1       4.785   2.815  -5.927  0.00  0.00     0.056 C 
BRANCH   7   8
ATOM      8  C1  UNL d   1       5.935   1.804  -5.977  0.00  0.00     0.007 C 
ATOM      9  C   UNL d   1       5.617   0.497  -5.262  0.00  0.00     0.009 C 
ENDBRANCH   7   8
ENDBRANCH   1   7
TORSDOF 2
ENDMDL
