MODEL 1
REMARK minimizedAffinity -0.443648905
REMARK minimizedRMSD -1
REMARK  2 active torsions:
REMARK  status: ('A' for Active; 'I' for Inactive)
REMARK    1  A    between atoms: C1_2  and  C2_3 
REMARK    2  A    between atoms: C2_3  and  C3_4 
ROOT
ATOM      1  C3  UNL d   1      -0.370  -3.569  -3.436  0.00  0.00    -0.075 A 
ATOM      2  C4  UNL d   1       0.149  -4.792  -2.987  0.00  0.00     0.002 A 
ATOM      3  C5  UNL d   1      -0.318  -5.996  -3.515  0.00  0.00     0.002 A 
ATOM      4  C6  UNL d   1      -1.315  -5.994  -4.488  0.00  0.00    -0.004 A 
ATOM      5  C7  UNL d   1      -1.849  -4.785  -4.929  0.00  0.00     0.002 A 
ATOM      6  C8  UNL d   1      -1.381  -3.579  -4.406  0.00  0.00     0.002 A 
ENDROOT
BRANCH   1   7
ATOM      7  C2  UNL d   1       0.152  -2.261  -2.890  0.00  0.00     0.056 C 
BRANCH   7   8
ATOM      8  C1  UNL d   1       1.634  -2.294  -2.504  0.00  0.00     0.007 C 
ATOM      9  C   UNL d   1       2.567  -2.042  -3.681  0.00  0.00     0.009 C 
ENDBRANCH   7   8
ENDBRANCH   1   7
TORSDOF 2
ENDMDL
