MODEL 1
REMARK minimizedAffinity -5.31451368
REMARK minimizedRMSD -1
REMARK  2 active torsions:
REMARK  status: ('A' for Active; 'I' for Inactive)
REMARK    1  A    between atoms: C1_2  and  C2_3 
REMARK    2  A    between atoms: C2_3  and  C3_4 
ROOT
ATOM      1  C3  UNL d   1       5.114   4.242  -4.125  0.00  0.00    -0.075 A 
ATOM      2  C4  UNL d   1       3.752   4.547  -4.262  0.00  0.00     0.002 A 
ATOM      3  C5  UNL d   1       3.052   5.147  -3.215  0.00  0.00     0.002 A 
ATOM      4  C6  UNL d   1       3.699   5.440  -2.017  0.00  0.00    -0.004 A 
ATOM      5  C7  UNL d   1       5.048   5.126  -1.863  0.00  0.00     0.002 A 
ATOM      6  C8  UNL d   1       5.752   4.530  -2.911  0.00  0.00     0.002 A 
ENDROOT
BRANCH   1   7
ATOM      7  C2  UNL d   1       5.885   3.620  -5.264  0.00  0.00     0.056 C 
BRANCH   7   8
ATOM      8  C1  UNL d   1       5.196   2.404  -5.893  0.00  0.00     0.007 C 
ATOM      9  C   UNL d   1       5.603   1.084  -5.251  0.00  0.00     0.009 C 
ENDBRANCH   7   8
ENDBRANCH   1   7
TORSDOF 2
ENDMDL
