MODEL 1
REMARK minimizedAffinity -0.0351834819
REMARK minimizedRMSD -1
REMARK  2 active torsions:
REMARK  status: ('A' for Active; 'I' for Inactive)
REMARK    1  A    between atoms: C1_2  and  C2_3 
REMARK    2  A    between atoms: C2_3  and  C3_4 
ROOT
ATOM      1  C3  UNL d   1       5.040   4.504  -3.685  0.00  0.00    -0.075 A 
ATOM      2  C4  UNL d   1       5.967   3.457  -3.802  0.00  0.00     0.002 A 
ATOM      3  C5  UNL d   1       5.994   2.660  -4.946  0.00  0.00     0.002 A 
ATOM      4  C6  UNL d   1       5.092   2.891  -5.982  0.00  0.00    -0.004 A 
ATOM      5  C7  UNL d   1       4.156   3.917  -5.870  0.00  0.00     0.002 A 
ATOM      6  C8  UNL d   1       4.129   4.720  -4.728  0.00  0.00     0.002 A 
ENDROOT
BRANCH   1   7
ATOM      7  C2  UNL d   1       5.024   5.389  -2.462  0.00  0.00     0.056 C 
BRANCH   7   8
ATOM      8  C1  UNL d   1       3.713   5.337  -1.671  0.00  0.00     0.007 C 
ATOM      9  C   UNL d   1       2.475   5.367  -2.558  0.00  0.00     0.009 C 
ENDBRANCH   7   8
ENDBRANCH   1   7
TORSDOF 2
ENDMDL
