MODEL 1
REMARK minimizedAffinity -3.45261168
REMARK minimizedRMSD -1
REMARK  2 active torsions:
REMARK  status: ('A' for Active; 'I' for Inactive)
REMARK    1  A    between atoms: C1_2  and  C2_3 
REMARK    2  A    between atoms: C2_3  and  C3_4 
ROOT
ATOM      1  C3  UNL d   1       4.876   4.172  -4.415  0.00  0.00    -0.075 A 
ATOM      2  C4  UNL d   1       3.760   4.060  -3.573  0.00  0.00     0.002 A 
ATOM      3  C5  UNL d   1       3.761   4.656  -2.312  0.00  0.00     0.002 A 
ATOM      4  C6  UNL d   1       4.879   5.361  -1.872  0.00  0.00    -0.004 A 
ATOM      5  C7  UNL d   1       6.000   5.465  -2.693  0.00  0.00     0.002 A 
ATOM      6  C8  UNL d   1       6.000   4.873  -3.958  0.00  0.00     0.002 A 
ENDROOT
BRANCH   1   7
ATOM      7  C2  UNL d   1       4.870   3.554  -5.793  0.00  0.00     0.056 C 
BRANCH   7   8
ATOM      8  C1  UNL d   1       5.931   2.467  -5.993  0.00  0.00     0.007 C 
ATOM      9  C   UNL d   1       5.603   1.167  -5.271  0.00  0.00     0.009 C 
ENDBRANCH   7   8
ENDBRANCH   1   7
TORSDOF 2
ENDMDL
