MODEL 1
REMARK minimizedAffinity 5.77588367
REMARK minimizedRMSD -1
REMARK  2 active torsions:
REMARK  status: ('A' for Active; 'I' for Inactive)
REMARK    1  A    between atoms: C1_2  and  C2_3 
REMARK    2  A    between atoms: C2_3  and  C3_4 
ROOT
ATOM      1  C3  UNL d   1       5.247   5.050  -3.915  0.00  0.00    -0.075 A 
ATOM      2  C4  UNL d   1       4.521   4.065  -3.230  0.00  0.00     0.002 A 
ATOM      3  C5  UNL d   1       4.522   4.026  -1.835  0.00  0.00     0.002 A 
ATOM      4  C6  UNL d   1       5.257   4.961  -1.110  0.00  0.00    -0.004 A 
ATOM      5  C7  UNL d   1       5.996   5.933  -1.780  0.00  0.00     0.002 A 
ATOM      6  C8  UNL d   1       5.992   5.978  -3.175  0.00  0.00     0.002 A 
ENDROOT
BRANCH   1   7
ATOM      7  C2  UNL d   1       5.226   5.117  -5.423  0.00  0.00     0.056 C 
BRANCH   7   8
ATOM      8  C1  UNL d   1       3.984   5.805  -6.000  0.00  0.00     0.007 C 
ATOM      9  C   UNL d   1       2.874   5.998  -4.975  0.00  0.00     0.009 C 
ENDBRANCH   7   8
ENDBRANCH   1   7
TORSDOF 2
ENDMDL
