MODEL 1
REMARK minimizedAffinity 5.34096241
REMARK minimizedRMSD -1
REMARK  2 active torsions:
REMARK  status: ('A' for Active; 'I' for Inactive)
REMARK    1  A    between atoms: C1_2  and  C2_3 
REMARK    2  A    between atoms: C2_3  and  C3_4 
ROOT
ATOM      1  C3  UNL d   1       4.628   4.911  -3.630  0.00  0.00    -0.075 A 
ATOM      2  C4  UNL d   1       5.319   3.739  -3.290  0.00  0.00     0.002 A 
ATOM      3  C5  UNL d   1       5.995   3.643  -2.074  0.00  0.00     0.002 A 
ATOM      4  C6  UNL d   1       5.999   4.718  -1.188  0.00  0.00    -0.004 A 
ATOM      5  C7  UNL d   1       5.330   5.894  -1.523  0.00  0.00     0.002 A 
ATOM      6  C8  UNL d   1       4.649   5.991  -2.737  0.00  0.00     0.002 A 
ENDROOT
BRANCH   1   7
ATOM      7  C2  UNL d   1       3.869   5.011  -4.932  0.00  0.00     0.056 C 
BRANCH   7   8
ATOM      8  C1  UNL d   1       2.696   5.996  -4.896  0.00  0.00     0.007 C 
ATOM      9  C   UNL d   1       1.861   5.889  -3.627  0.00  0.00     0.009 C 
ENDBRANCH   7   8
ENDBRANCH   1   7
TORSDOF 2
ENDMDL
