MODEL 1
REMARK minimizedAffinity 1.56957483
REMARK minimizedRMSD -1
REMARK  2 active torsions:
REMARK  status: ('A' for Active; 'I' for Inactive)
REMARK    1  A    between atoms: C1_2  and  C2_3 
REMARK    2  A    between atoms: C2_3  and  C3_4 
ROOT
ATOM      1  C3  UNL d   1       4.620  -2.974  -2.571  0.00  0.00    -0.075 A 
ATOM      2  C4  UNL d   1       5.205  -2.843  -3.839  0.00  0.00     0.002 A 
ATOM      3  C5  UNL d   1       4.426  -2.943  -4.992  0.00  0.00     0.002 A 
ATOM      4  C6  UNL d   1       3.058  -3.184  -4.893  0.00  0.00    -0.004 A 
ATOM      5  C7  UNL d   1       2.469  -3.332  -3.640  0.00  0.00     0.002 A 
ATOM      6  C8  UNL d   1       3.245  -3.228  -2.484  0.00  0.00     0.002 A 
ENDROOT
BRANCH   1   7
ATOM      7  C2  UNL d   1       5.453  -2.837  -1.319  0.00  0.00     0.056 C 
BRANCH   7   8
ATOM      8  C1  UNL d   1       5.985  -4.168  -0.775  0.00  0.00     0.007 C 
ATOM      9  C   UNL d   1       5.856  -5.316  -1.768  0.00  0.00     0.009 C 
ENDBRANCH   7   8
ENDBRANCH   1   7
TORSDOF 2
ENDMDL
