MODEL 1
REMARK minimizedAffinity 2.26224661
REMARK minimizedRMSD -1
REMARK  2 active torsions:
REMARK  status: ('A' for Active; 'I' for Inactive)
REMARK    1  A    between atoms: C1_2  and  C2_3 
REMARK    2  A    between atoms: C2_3  and  C3_4 
ROOT
ATOM      1  C3  UNL d   1       4.372   5.219  -3.848  0.00  0.00    -0.075 A 
ATOM      2  C4  UNL d   1       4.079   3.893  -4.199  0.00  0.00     0.002 A 
ATOM      3  C5  UNL d   1       4.739   3.280  -5.265  0.00  0.00     0.002 A 
ATOM      4  C6  UNL d   1       5.690   3.986  -5.998  0.00  0.00    -0.004 A 
ATOM      5  C7  UNL d   1       5.978   5.309  -5.668  0.00  0.00     0.002 A 
ATOM      6  C8  UNL d   1       5.322   5.923  -4.599  0.00  0.00     0.002 A 
ENDROOT
BRANCH   1   7
ATOM      7  C2  UNL d   1       3.683   5.878  -2.677  0.00  0.00     0.056 C 
BRANCH   7   8
ATOM      8  C1  UNL d   1       4.501   5.859  -1.381  0.00  0.00     0.007 C 
ATOM      9  C   UNL d   1       5.999   5.996  -1.614  0.00  0.00     0.009 C 
ENDBRANCH   7   8
ENDBRANCH   1   7
TORSDOF 2
ENDMDL
