MODEL 1
REMARK minimizedAffinity 12.372448
REMARK minimizedRMSD -1
REMARK  1 active torsions:
REMARK  status: ('A' for Active; 'I' for Inactive)
REMARK    1  A    between atoms: C1_2  and  C2_3 
ROOT
ATOM      1  C2  UNL d   1      -0.373   1.551   3.663  0.00  0.00    -0.073 A 
ATOM      2  C3  UNL d   1       0.584   0.732   4.272  0.00  0.00    -0.002 A 
ATOM      3  C4  UNL d   1       1.240   1.153   5.430  0.00  0.00     0.004 A 
ATOM      4  C5  UNL d   1       0.941   2.394   5.993  0.00  0.00    -0.004 A 
ATOM      5  C6  UNL d   1      -0.020   3.222   5.406  0.00  0.00    -0.075 A 
ATOM      6  C7  UNL d   1      -0.352   4.560   5.999  0.00  0.00     0.076 C 
ATOM      7  C8  UNL d   1      -0.673   2.793   4.243  0.00  0.00     0.001 A 
ENDROOT
BRANCH   1   8
ATOM      8  C1  UNL d   1      -1.088   1.098   2.417  0.00  0.00     0.053 C 
ATOM      9  C   UNL d   1      -2.596   1.055   2.609  0.00  0.00     0.018 C 
ENDBRANCH   1   8
TORSDOF 1
ENDMDL
