MODEL 1
REMARK minimizedAffinity 11.298172
REMARK minimizedRMSD -1
REMARK  1 active torsions:
REMARK  status: ('A' for Active; 'I' for Inactive)
REMARK    1  A    between atoms: C1_2  and  C2_3 
ROOT
ATOM      1  C2  UNL d   1      -3.159  -4.468  -4.177  0.00  0.00    -0.073 A 
ATOM      2  C3  UNL d   1      -3.550  -5.621  -4.869  0.00  0.00    -0.002 A 
ATOM      3  C4  UNL d   1      -4.614  -5.574  -5.771  0.00  0.00     0.004 A 
ATOM      4  C5  UNL d   1      -5.292  -4.376  -5.996  0.00  0.00    -0.004 A 
ATOM      5  C6  UNL d   1      -4.908  -3.212  -5.323  0.00  0.00    -0.075 A 
ATOM      6  C7  UNL d   1      -5.629  -1.915  -5.552  0.00  0.00     0.076 C 
ATOM      7  C8  UNL d   1      -3.841  -3.267  -4.417  0.00  0.00     0.001 A 
ENDROOT
BRANCH   1   8
ATOM      8  C1  UNL d   1      -2.007  -4.512  -3.207  0.00  0.00     0.053 C 
ATOM      9  C   UNL d   1      -2.248  -5.503  -2.080  0.00  0.00     0.018 C 
ENDBRANCH   1   8
TORSDOF 1
ENDMDL
