MODEL 1
REMARK minimizedAffinity 12.0508671
REMARK minimizedRMSD -1
REMARK  1 active torsions:
REMARK  status: ('A' for Active; 'I' for Inactive)
REMARK    1  A    between atoms: C1_2  and  C2_3 
ROOT
ATOM      1  C2  UNL d   1      -1.388  -1.971  -3.165  0.00  0.00    -0.073 A 
ATOM      2  C3  UNL d   1      -2.716  -2.285  -3.478  0.00  0.00    -0.002 A 
ATOM      3  C4  UNL d   1      -3.147  -3.612  -3.473  0.00  0.00     0.004 A 
ATOM      4  C5  UNL d   1      -2.258  -4.637  -3.148  0.00  0.00    -0.004 A 
ATOM      5  C6  UNL d   1      -0.931  -4.343  -2.821  0.00  0.00    -0.075 A 
ATOM      6  C7  UNL d   1       0.038  -5.434  -2.471  0.00  0.00     0.076 C 
ATOM      7  C8  UNL d   1      -0.505  -3.008  -2.831  0.00  0.00     0.001 A 
ENDROOT
BRANCH   1   8
ATOM      8  C1  UNL d   1      -0.920  -0.539  -3.164  0.00  0.00     0.053 C 
ATOM      9  C   UNL d   1      -2.083   0.441  -3.168  0.00  0.00     0.018 C 
ENDBRANCH   1   8
TORSDOF 1
ENDMDL
