MODEL 1
REMARK minimizedAffinity 16.2298927
REMARK minimizedRMSD -1
REMARK  1 active torsions:
REMARK  status: ('A' for Active; 'I' for Inactive)
REMARK    1  A    between atoms: C1_2  and  C2_3 
ROOT
ATOM      1  C2  UNL d   1       2.546   0.307  -2.786  0.00  0.00    -0.073 A 
ATOM      2  C3  UNL d   1       1.969  -0.705  -2.011  0.00  0.00    -0.002 A 
ATOM      3  C4  UNL d   1       2.445  -0.967  -0.726  0.00  0.00     0.004 A 
ATOM      4  C5  UNL d   1       3.498  -0.217  -0.201  0.00  0.00    -0.004 A 
ATOM      5  C6  UNL d   1       4.080   0.806  -0.956  0.00  0.00    -0.075 A 
ATOM      6  C7  UNL d   1       5.214   1.621  -0.406  0.00  0.00     0.076 C 
ATOM      7  C8  UNL d   1       3.597   1.062  -2.246  0.00  0.00     0.001 A 
ENDROOT
BRANCH   1   8
ATOM      8  C1  UNL d   1       2.030   0.599  -4.172  0.00  0.00     0.053 C 
ATOM      9  C   UNL d   1       2.143  -0.610  -5.088  0.00  0.00     0.018 C 
ENDBRANCH   1   8
TORSDOF 1
ENDMDL
