MODEL 1
REMARK minimizedAffinity 14.3659096
REMARK minimizedRMSD -1
REMARK  1 active torsions:
REMARK  status: ('A' for Active; 'I' for Inactive)
REMARK    1  A    between atoms: C1_2  and  C2_3 
ROOT
ATOM      1  C2  UNL d   1      -3.017   1.294   3.051  0.00  0.00    -0.073 A 
ATOM      2  C3  UNL d   1      -4.087   0.485   2.653  0.00  0.00    -0.002 A 
ATOM      3  C4  UNL d   1      -5.302   0.536   3.337  0.00  0.00     0.004 A 
ATOM      4  C5  UNL d   1      -5.462   1.400   4.421  0.00  0.00    -0.004 A 
ATOM      5  C6  UNL d   1      -4.408   2.224   4.827  0.00  0.00    -0.075 A 
ATOM      6  C7  UNL d   1      -4.563   3.157   5.992  0.00  0.00     0.076 C 
ATOM      7  C8  UNL d   1      -3.190   2.166   4.136  0.00  0.00     0.001 A 
ENDROOT
BRANCH   1   8
ATOM      8  C1  UNL d   1      -1.705   1.247   2.311  0.00  0.00     0.053 C 
ATOM      9  C   UNL d   1      -0.563   0.788   3.204  0.00  0.00     0.018 C 
ENDBRANCH   1   8
TORSDOF 1
ENDMDL
