MODEL 1
REMARK minimizedAffinity 13.2571478
REMARK minimizedRMSD -1
REMARK  1 active torsions:
REMARK  status: ('A' for Active; 'I' for Inactive)
REMARK    1  A    between atoms: C1_2  and  C2_3 
ROOT
ATOM      1  C2  UNL d   1      -1.869   3.662  -4.993  0.00  0.00    -0.073 A 
ATOM      2  C3  UNL d   1      -1.223   4.876  -5.250  0.00  0.00    -0.002 A 
ATOM      3  C4  UNL d   1      -1.940   5.963  -5.752  0.00  0.00     0.004 A 
ATOM      4  C5  UNL d   1      -3.308   5.849  -5.997  0.00  0.00    -0.004 A 
ATOM      5  C6  UNL d   1      -3.974   4.647  -5.736  0.00  0.00    -0.075 A 
ATOM      6  C7  UNL d   1      -5.445   4.508  -5.996  0.00  0.00     0.076 C 
ATOM      7  C8  UNL d   1      -3.247   3.560  -5.234  0.00  0.00     0.001 A 
ENDROOT
BRANCH   1   8
ATOM      8  C1  UNL d   1      -1.101   2.487  -4.444  0.00  0.00     0.053 C 
ATOM      9  C   UNL d   1       0.354   2.834  -4.172  0.00  0.00     0.018 C 
ENDBRANCH   1   8
TORSDOF 1
ENDMDL
