MODEL 1
REMARK minimizedAffinity 18.8754826
REMARK minimizedRMSD -1
REMARK  1 active torsions:
REMARK  status: ('A' for Active; 'I' for Inactive)
REMARK    1  A    between atoms: C1_2  and  C2_3 
ROOT
ATOM      1  C2  UNL d   1      -0.871  -2.556  -3.017  0.00  0.00    -0.073 A 
ATOM      2  C3  UNL d   1      -2.042  -2.110  -3.640  0.00  0.00    -0.002 A 
ATOM      3  C4  UNL d   1      -3.211  -2.870  -3.567  0.00  0.00     0.004 A 
ATOM      4  C5  UNL d   1      -3.222  -4.076  -2.867  0.00  0.00    -0.004 A 
ATOM      5  C6  UNL d   1      -2.065  -4.532  -2.229  0.00  0.00    -0.075 A 
ATOM      6  C7  UNL d   1      -2.060  -5.828  -1.473  0.00  0.00     0.076 C 
ATOM      7  C8  UNL d   1      -0.894  -3.765  -2.308  0.00  0.00     0.001 A 
ENDROOT
BRANCH   1   8
ATOM      8  C1  UNL d   1       0.392  -1.736  -3.087  0.00  0.00     0.053 C 
ATOM      9  C   UNL d   1       0.921  -1.625  -4.508  0.00  0.00     0.018 C 
ENDBRANCH   1   8
TORSDOF 1
ENDMDL
