MODEL 1
REMARK minimizedAffinity 20.4366169
REMARK minimizedRMSD -1
REMARK  1 active torsions:
REMARK  status: ('A' for Active; 'I' for Inactive)
REMARK    1  A    between atoms: C1_2  and  C2_3 
ROOT
ATOM      1  C2  UNL d   1      -2.049  -4.021  -3.361  0.00  0.00    -0.073 A 
ATOM      2  C3  UNL d   1      -2.789  -4.499  -2.273  0.00  0.00    -0.002 A 
ATOM      3  C4  UNL d   1      -2.248  -5.464  -1.422  0.00  0.00     0.004 A 
ATOM      4  C5  UNL d   1      -0.962  -5.955  -1.645  0.00  0.00    -0.004 A 
ATOM      5  C6  UNL d   1      -0.202  -5.481  -2.719  0.00  0.00    -0.075 A 
ATOM      6  C7  UNL d   1       1.183  -6.000  -2.973  0.00  0.00     0.076 C 
ATOM      7  C8  UNL d   1      -0.753  -4.514  -3.571  0.00  0.00     0.001 A 
ENDROOT
BRANCH   1   8
ATOM      8  C1  UNL d   1      -2.626  -2.975  -4.279  0.00  0.00     0.053 C 
ATOM      9  C   UNL d   1      -3.991  -3.377  -4.815  0.00  0.00     0.018 C 
ENDBRANCH   1   8
TORSDOF 1
ENDMDL
