MODEL 1
REMARK minimizedAffinity 21.4179535
REMARK minimizedRMSD -1
REMARK  1 active torsions:
REMARK  status: ('A' for Active; 'I' for Inactive)
REMARK    1  A    between atoms: C1_2  and  C2_3 
ROOT
ATOM      1  C2  UNL d   1       1.763  -0.011  -2.673  0.00  0.00    -0.073 A 
ATOM      2  C3  UNL d   1       0.947  -0.946  -2.026  0.00  0.00    -0.002 A 
ATOM      3  C4  UNL d   1       1.160  -1.256  -0.682  0.00  0.00     0.004 A 
ATOM      4  C5  UNL d   1       2.183  -0.631   0.029  0.00  0.00    -0.004 A 
ATOM      5  C6  UNL d   1       3.002   0.315  -0.596  0.00  0.00    -0.075 A 
ATOM      6  C7  UNL d   1       4.108   0.995   0.155  0.00  0.00     0.076 C 
ATOM      7  C8  UNL d   1       2.784   0.619  -1.947  0.00  0.00     0.001 A 
ENDROOT
BRANCH   1   8
ATOM      8  C1  UNL d   1       1.534   0.333  -4.122  0.00  0.00     0.053 C 
ATOM      9  C   UNL d   1       2.193  -0.670  -5.057  0.00  0.00     0.018 C 
ENDBRANCH   1   8
TORSDOF 1
ENDMDL
