MODEL 1
REMARK minimizedAffinity 18.9019699
REMARK minimizedRMSD -1
REMARK  1 active torsions:
REMARK  status: ('A' for Active; 'I' for Inactive)
REMARK    1  A    between atoms: C1_2  and  C2_3 
ROOT
ATOM      1  C2  UNL d   1      -3.477   1.356   3.775  0.00  0.00    -0.073 A 
ATOM      2  C3  UNL d   1      -2.173   1.711   3.413  0.00  0.00    -0.002 A 
ATOM      3  C4  UNL d   1      -1.416   0.873   2.593  0.00  0.00     0.004 A 
ATOM      4  C5  UNL d   1      -1.956  -0.323   2.122  0.00  0.00    -0.004 A 
ATOM      5  C6  UNL d   1      -3.261  -0.691   2.464  0.00  0.00    -0.075 A 
ATOM      6  C7  UNL d   1      -3.856  -1.976   1.968  0.00  0.00     0.076 C 
ATOM      7  C8  UNL d   1      -4.014   0.155   3.290  0.00  0.00     0.001 A 
ENDROOT
BRANCH   1   8
ATOM      8  C1  UNL d   1      -4.300   2.260   4.655  0.00  0.00     0.053 C 
ATOM      9  C   UNL d   1      -3.633   2.512   5.997  0.00  0.00     0.018 C 
ENDBRANCH   1   8
TORSDOF 1
ENDMDL
