MODEL 1
REMARK minimizedAffinity 13.9366903
REMARK minimizedRMSD -1
REMARK  1 active torsions:
REMARK  status: ('A' for Active; 'I' for Inactive)
REMARK    1  A    between atoms: C1_2  and  C2_3 
ROOT
ATOM      1  C2  UNL d   1      -1.604   0.201   2.479  0.00  0.00    -0.073 A 
ATOM      2  C3  UNL d   1      -2.134   1.292   3.177  0.00  0.00    -0.002 A 
ATOM      3  C4  UNL d   1      -3.513   1.412   3.356  0.00  0.00     0.004 A 
ATOM      4  C5  UNL d   1      -4.374   0.440   2.847  0.00  0.00    -0.004 A 
ATOM      5  C6  UNL d   1      -3.863  -0.663   2.157  0.00  0.00    -0.075 A 
ATOM      6  C7  UNL d   1      -4.776  -1.716   1.600  0.00  0.00     0.076 C 
ATOM      7  C8  UNL d   1      -2.477  -0.775   1.978  0.00  0.00     0.001 A 
ENDROOT
BRANCH   1   8
ATOM      8  C1  UNL d   1      -0.116   0.064   2.289  0.00  0.00     0.053 C 
ATOM      9  C   UNL d   1       0.664   1.013   3.186  0.00  0.00     0.018 C 
ENDBRANCH   1   8
TORSDOF 1
ENDMDL
