MODEL 1
REMARK minimizedAffinity -3.83068871
REMARK minimizedRMSD -1
REMARK  0 active torsions:
REMARK  status: ('A' for Active; 'I' for Inactive)
ROOT
ATOM      1  C4' PXY d   1       0.752   0.378  -1.505  0.00  0.00     0.077 C 
ATOM      2  C1' PXY d   1      -1.018  -0.888   3.850  0.00  0.00     0.077 C 
ATOM      3  C1  PXY d   1      -0.549  -0.544   2.450  0.00  0.00    -0.082 A 
ATOM      4  C2  PXY d   1      -1.111  -1.136   1.409  0.00  0.00     0.003 A 
ATOM      5  C3  PXY d   1      -0.678  -0.861   0.137  0.00  0.00     0.003 A 
ATOM      6  C4  PXY d   1       0.305   0.069  -0.074  0.00  0.00    -0.082 A 
ATOM      7  C5  PXY d   1       0.876   0.685   0.983  0.00  0.00     0.003 A 
ATOM      8  C6  PXY d   1       0.450   0.361   2.268  0.00  0.00     0.003 A 
ENDROOT
TORSDOF 0
ENDMDL
