MODEL 1
REMARK minimizedAffinity -4.46541786
REMARK minimizedRMSD -1
REMARK  0 active torsions:
REMARK  status: ('A' for Active; 'I' for Inactive)
ROOT
ATOM      1  C4' PXY d   1       0.347   0.360  -2.272  0.00  0.00     0.077 C 
ATOM      2  C1' PXY d   1      -0.778  -0.263   3.364  0.00  0.00     0.077 C 
ATOM      3  C1  PXY d   1      -0.473  -0.092   1.888  0.00  0.00    -0.082 A 
ATOM      4  C2  PXY d   1      -1.431  -0.279   0.996  0.00  0.00     0.003 A 
ATOM      5  C3  PXY d   1      -1.165  -0.160  -0.344  0.00  0.00     0.003 A 
ATOM      6  C4  PXY d   1       0.082   0.208  -0.772  0.00  0.00    -0.082 A 
ATOM      7  C5  PXY d   1       1.063   0.411   0.133  0.00  0.00     0.003 A 
ATOM      8  C6  PXY d   1       0.783   0.245   1.486  0.00  0.00     0.003 A 
ENDROOT
TORSDOF 0
ENDMDL
