MODEL 1
REMARK minimizedAffinity -3.73253274
REMARK minimizedRMSD -1
REMARK  0 active torsions:
REMARK  status: ('A' for Active; 'I' for Inactive)
ROOT
ATOM      1  C4' PXY d   1      -1.292  -0.275   3.460  0.00  0.00     0.077 C 
ATOM      2  C1' PXY d   1       1.183  -0.064  -1.759  0.00  0.00     0.077 C 
ATOM      3  C1  PXY d   1       0.545  -0.122  -0.385  0.00  0.00    -0.082 A 
ATOM      4  C2  PXY d   1      -0.743  -0.401  -0.273  0.00  0.00     0.003 A 
ATOM      5  C3  PXY d   1      -1.342  -0.426   0.960  0.00  0.00     0.003 A 
ATOM      6  C4  PXY d   1      -0.604  -0.215   2.094  0.00  0.00    -0.082 A 
ATOM      7  C5  PXY d   1       0.713   0.060   1.988  0.00  0.00     0.003 A 
ATOM      8  C6  PXY d   1       1.294   0.121   0.725  0.00  0.00     0.003 A 
ENDROOT
TORSDOF 0
ENDMDL
