MODEL 1
REMARK minimizedAffinity -4.07569027
REMARK minimizedRMSD -1
REMARK  0 active torsions:
REMARK  status: ('A' for Active; 'I' for Inactive)
ROOT
ATOM      1  C4' PXY d   1       2.918   2.261   1.345  0.00  0.00     0.077 C 
ATOM      2  C1' PXY d   1      -1.817  -1.041   1.650  0.00  0.00     0.077 C 
ATOM      3  C1  PXY d   1      -0.579  -0.169   1.581  0.00  0.00    -0.082 A 
ATOM      4  C2  PXY d   1       0.021   0.024   0.418  0.00  0.00     0.003 A 
ATOM      5  C3  PXY d   1       1.160   0.783   0.342  0.00  0.00     0.003 A 
ATOM      6  C4  PXY d   1       1.660   1.396   1.461  0.00  0.00    -0.082 A 
ATOM      7  C5  PXY d   1       1.047   1.213   2.649  0.00  0.00     0.003 A 
ATOM      8  C6  PXY d   1      -0.085   0.404   2.711  0.00  0.00     0.003 A 
ENDROOT
TORSDOF 0
ENDMDL
