MODEL 1
REMARK minimizedAffinity -4.97048473
REMARK minimizedRMSD -1
REMARK  0 active torsions:
REMARK  status: ('A' for Active; 'I' for Inactive)
ROOT
ATOM      1  C4' PXY d   1      -1.178  -1.008   3.644  0.00  0.00     0.077 C 
ATOM      2  C1' PXY d   1       1.064   0.403  -1.494  0.00  0.00     0.077 C 
ATOM      3  C1  PXY d   1       0.488   0.031  -0.142  0.00  0.00    -0.082 A 
ATOM      4  C2  PXY d   1      -0.750  -0.431  -0.063  0.00  0.00     0.003 A 
ATOM      5  C3  PXY d   1      -1.297  -0.742   1.155  0.00  0.00     0.003 A 
ATOM      6  C4  PXY d   1      -0.552  -0.629   2.299  0.00  0.00    -0.082 A 
ATOM      7  C5  PXY d   1       0.715  -0.169   2.225  0.00  0.00     0.003 A 
ATOM      8  C6  PXY d   1       1.238   0.180   0.983  0.00  0.00     0.003 A 
ENDROOT
TORSDOF 0
ENDMDL
