MODEL 1
REMARK minimizedAffinity -5.68998528
REMARK minimizedRMSD -1
REMARK  0 active torsions:
REMARK  status: ('A' for Active; 'I' for Inactive)
ROOT
ATOM      1  C4' PXY d   1       0.343   0.717  -1.772  0.00  0.00     0.077 C 
ATOM      2  C1' PXY d   1      -0.376  -0.525   3.827  0.00  0.00     0.077 C 
ATOM      3  C1  PXY d   1      -0.179  -0.190   2.362  0.00  0.00    -0.082 A 
ATOM      4  C2  PXY d   1      -1.156  -0.421   1.501  0.00  0.00     0.003 A 
ATOM      5  C3  PXY d   1      -0.983  -0.154   0.167  0.00  0.00     0.003 A 
ATOM      6  C4  PXY d   1       0.184   0.404  -0.282  0.00  0.00    -0.082 A 
ATOM      7  C5  PXY d   1       1.182   0.653   0.592  0.00  0.00     0.003 A 
ATOM      8  C6  PXY d   1       1.001   0.336   1.936  0.00  0.00     0.003 A 
ENDROOT
TORSDOF 0
ENDMDL
