MODEL 1
REMARK minimizedAffinity -5.44312048
REMARK minimizedRMSD -1
REMARK  0 active torsions:
REMARK  status: ('A' for Active; 'I' for Inactive)
ROOT
ATOM      1  C4' PXY d   1       0.696   0.012  -2.508  0.00  0.00     0.077 C 
ATOM      2  C1' PXY d   1      -0.493  -0.111   3.148  0.00  0.00     0.077 C 
ATOM      3  C1  PXY d   1      -0.171  -0.071   1.667  0.00  0.00    -0.082 A 
ATOM      4  C2  PXY d   1      -1.119  -0.339   0.784  0.00  0.00     0.003 A 
ATOM      5  C3  PXY d   1      -0.838  -0.338  -0.558  0.00  0.00     0.003 A 
ATOM      6  C4  PXY d   1       0.414  -0.008  -1.003  0.00  0.00    -0.082 A 
ATOM      7  C5  PXY d   1       1.384   0.277  -0.109  0.00  0.00     0.003 A 
ATOM      8  C6  PXY d   1       1.089   0.231   1.251  0.00  0.00     0.003 A 
ENDROOT
TORSDOF 0
ENDMDL
