MODEL 1
REMARK minimizedAffinity -4.47483444
REMARK minimizedRMSD -1
REMARK  0 active torsions:
REMARK  status: ('A' for Active; 'I' for Inactive)
ROOT
ATOM      1  C4' PXY d   1       4.366   1.010  -4.136  0.00  0.00     0.077 C 
ATOM      2  C1' PXY d   1      -0.287  -2.235  -3.027  0.00  0.00     0.077 C 
ATOM      3  C1  PXY d   1       0.941  -1.394  -3.317  0.00  0.00    -0.082 A 
ATOM      4  C2  PXY d   1       0.907  -0.090  -3.098  0.00  0.00     0.003 A 
ATOM      5  C3  PXY d   1       1.998   0.690  -3.385  0.00  0.00     0.003 A 
ATOM      6  C4  PXY d   1       3.153   0.121  -3.850  0.00  0.00    -0.082 A 
ATOM      7  C5  PXY d   1       3.199  -1.211  -4.065  0.00  0.00     0.003 A 
ATOM      8  C6  PXY d   1       2.067  -1.979  -3.807  0.00  0.00     0.003 A 
ENDROOT
TORSDOF 0
ENDMDL
