MODEL 1
REMARK minimizedAffinity -4.09351492
REMARK minimizedRMSD -1
REMARK  0 active torsions:
REMARK  status: ('A' for Active; 'I' for Inactive)
ROOT
ATOM      1  C4' PXY d   1       0.610   0.323  -2.326  0.00  0.00     0.077 C 
ATOM      2  C1' PXY d   1      -0.533  -0.468   3.284  0.00  0.00     0.077 C 
ATOM      3  C1  PXY d   1      -0.224  -0.252   1.816  0.00  0.00    -0.082 A 
ATOM      4  C2  PXY d   1      -1.132  -0.560   0.904  0.00  0.00     0.003 A 
ATOM      5  C3  PXY d   1      -0.858  -0.400  -0.430  0.00  0.00     0.003 A 
ATOM      6  C4  PXY d   1       0.339   0.130  -0.832  0.00  0.00    -0.082 A 
ATOM      7  C5  PXY d   1       1.266   0.456   0.093  0.00  0.00     0.003 A 
ATOM      8  C6  PXY d   1       0.984   0.248   1.440  0.00  0.00     0.003 A 
ENDROOT
TORSDOF 0
ENDMDL
