MODEL 1
REMARK minimizedAffinity -5.79323435
REMARK minimizedRMSD -1
REMARK  0 active torsions:
REMARK  status: ('A' for Active; 'I' for Inactive)
ROOT
ATOM      1  C4' PXY d   1       0.017   0.832  -2.307  0.00  0.00     0.077 C 
ATOM      2  C1' PXY d   1      -0.468  -0.811   3.214  0.00  0.00     0.077 C 
ATOM      3  C1  PXY d   1      -0.330  -0.374   1.769  0.00  0.00    -0.082 A 
ATOM      4  C2  PXY d   1      -1.400  -0.339   0.991  0.00  0.00     0.003 A 
ATOM      5  C3  PXY d   1      -1.287   0.024  -0.327  0.00  0.00     0.003 A 
ATOM      6  C4  PXY d   1      -0.077   0.406  -0.839  0.00  0.00    -0.082 A 
ATOM      7  C5  PXY d   1       1.018   0.383  -0.049  0.00  0.00     0.003 A 
ATOM      8  C6  PXY d   1       0.890  -0.028   1.275  0.00  0.00     0.003 A 
ENDROOT
TORSDOF 0
ENDMDL
