MODEL 1
REMARK minimizedAffinity -4.2930088
REMARK minimizedRMSD -1
REMARK  0 active torsions:
REMARK  status: ('A' for Active; 'I' for Inactive)
ROOT
ATOM      1  C4' PXY d   1      -0.077  -0.061   2.511  0.00  0.00     0.077 C 
ATOM      2  C1' PXY d   1       1.117  -1.172  -3.035  0.00  0.00     0.077 C 
ATOM      3  C1  PXY d   1       0.799  -0.869  -1.584  0.00  0.00    -0.082 A 
ATOM      4  C2  PXY d   1       1.492  -1.462  -0.625  0.00  0.00     0.003 A 
ATOM      5  C3  PXY d   1       1.196  -1.224   0.693  0.00  0.00     0.003 A 
ATOM      6  C4  PXY d   1       0.216  -0.330   1.032  0.00  0.00    -0.082 A 
ATOM      7  C5  PXY d   1      -0.488   0.287   0.060  0.00  0.00     0.003 A 
ATOM      8  C6  PXY d   1      -0.200   0.001  -1.272  0.00  0.00     0.003 A 
ENDROOT
TORSDOF 0
ENDMDL
