MODEL 1
REMARK minimizedAffinity -4.38853121
REMARK minimizedRMSD -1
REMARK  0 active torsions:
REMARK  status: ('A' for Active; 'I' for Inactive)
ROOT
ATOM      1  C4' PXY d   1      -0.434  -0.003   3.355  0.00  0.00     0.077 C 
ATOM      2  C1' PXY d   1       0.725   0.006  -2.308  0.00  0.00     0.077 C 
ATOM      3  C1  PXY d   1       0.434   0.001  -0.820  0.00  0.00    -0.082 A 
ATOM      4  C2  PXY d   1      -0.788  -0.273  -0.394  0.00  0.00     0.003 A 
ATOM      5  C3  PXY d   1      -1.077  -0.250   0.946  0.00  0.00     0.003 A 
ATOM      6  C4  PXY d   1      -0.092   0.004   1.863  0.00  0.00    -0.082 A 
ATOM      7  C5  PXY d   1       1.160   0.274   1.436  0.00  0.00     0.003 A 
ATOM      8  C6  PXY d   1       1.423   0.287   0.070  0.00  0.00     0.003 A 
ENDROOT
TORSDOF 0
ENDMDL
