MODEL 1
REMARK minimizedAffinity -3.74449253
REMARK minimizedRMSD -1
REMARK  0 active torsions:
REMARK  status: ('A' for Active; 'I' for Inactive)
ROOT
ATOM      1  C4' PXY d   1       0.579   0.074  -1.843  0.00  0.00     0.077 C 
ATOM      2  C1' PXY d   1      -1.183  -0.272   3.652  0.00  0.00     0.077 C 
ATOM      3  C1  PXY d   1      -0.731  -0.189   2.207  0.00  0.00    -0.082 A 
ATOM      4  C2  PXY d   1       0.538   0.067   1.933  0.00  0.00     0.003 A 
ATOM      5  C3  PXY d   1       0.957   0.178   0.632  0.00  0.00     0.003 A 
ATOM      6  C4  PXY d   1       0.080  -0.029  -0.399  0.00  0.00    -0.082 A 
ATOM      7  C5  PXY d   1      -1.214  -0.301  -0.127  0.00  0.00     0.003 A 
ATOM      8  C6  PXY d   1      -1.628  -0.368   1.200  0.00  0.00     0.003 A 
ENDROOT
TORSDOF 0
ENDMDL
