MODEL 1
REMARK minimizedAffinity -3.27359128
REMARK minimizedRMSD -1
REMARK  0 active torsions:
REMARK  status: ('A' for Active; 'I' for Inactive)
ROOT
ATOM      1  C4' PXY d   1      -1.094  -0.623   3.750  0.00  0.00     0.077 C 
ATOM      2  C1' PXY d   1       0.747  -0.084  -1.703  0.00  0.00     0.077 C 
ATOM      3  C1  PXY d   1       0.254  -0.217  -0.276  0.00  0.00    -0.082 A 
ATOM      4  C2  PXY d   1       1.098  -0.582   0.676  0.00  0.00     0.003 A 
ATOM      5  C3  PXY d   1       0.662  -0.738   1.967  0.00  0.00     0.003 A 
ATOM      6  C4  PXY d   1      -0.639  -0.467   2.296  0.00  0.00    -0.082 A 
ATOM      7  C5  PXY d   1      -1.503  -0.083   1.333  0.00  0.00     0.003 A 
ATOM      8  C6  PXY d   1      -1.051   0.029   0.021  0.00  0.00     0.003 A 
ENDROOT
TORSDOF 0
ENDMDL
