MODEL 1
REMARK minimizedAffinity -3.57038236
REMARK minimizedRMSD -1
REMARK  0 active torsions:
REMARK  status: ('A' for Active; 'I' for Inactive)
ROOT
ATOM      1  C4' PXY d   1      -0.942  -0.231   3.812  0.00  0.00     0.077 C 
ATOM      2  C1' PXY d   1       0.725   0.436  -1.682  0.00  0.00     0.077 C 
ATOM      3  C1  PXY d   1       0.300   0.258  -0.238  0.00  0.00    -0.082 A 
ATOM      4  C2  PXY d   1      -0.965  -0.006   0.044  0.00  0.00     0.003 A 
ATOM      5  C3  PXY d   1      -1.373  -0.139   1.346  0.00  0.00     0.003 A 
ATOM      6  C4  PXY d   1      -0.466  -0.053   2.368  0.00  0.00    -0.082 A 
ATOM      7  C5  PXY d   1       0.829   0.205   2.088  0.00  0.00     0.003 A 
ATOM      8  C6  PXY d   1       1.215   0.377   0.762  0.00  0.00     0.003 A 
ENDROOT
TORSDOF 0
ENDMDL
