MODEL 1
REMARK minimizedAffinity -4.06036043
REMARK minimizedRMSD -1
REMARK  0 active torsions:
REMARK  status: ('A' for Active; 'I' for Inactive)
ROOT
ATOM      1  C4' PXY d   1      -2.416  -0.071   0.759  0.00  0.00     0.077 C 
ATOM      2  C1' PXY d   1       3.129   0.049   2.389  0.00  0.00     0.077 C 
ATOM      3  C1  PXY d   1       1.678   0.025   1.951  0.00  0.00    -0.082 A 
ATOM      4  C2  PXY d   1       0.728  -0.189   2.847  0.00  0.00     0.003 A 
ATOM      5  C3  PXY d   1      -0.587  -0.246   2.463  0.00  0.00     0.003 A 
ATOM      6  C4  PXY d   1      -0.938  -0.029   1.157  0.00  0.00    -0.082 A 
ATOM      7  C5  PXY d   1       0.025   0.201   0.239  0.00  0.00     0.003 A 
ATOM      8  C6  PXY d   1       1.357   0.214   0.642  0.00  0.00     0.003 A 
ENDROOT
TORSDOF 0
ENDMDL
