MODEL 1
REMARK minimizedAffinity -5.57757282
REMARK minimizedRMSD -1
REMARK  0 active torsions:
REMARK  status: ('A' for Active; 'I' for Inactive)
ROOT
ATOM      1  C4' PXY d   1      -0.637  -0.456   3.416  0.00  0.00     0.077 C 
ATOM      2  C1' PXY d   1       0.880   0.745  -2.031  0.00  0.00     0.077 C 
ATOM      3  C1  PXY d   1       0.494   0.425  -0.600  0.00  0.00    -0.082 A 
ATOM      4  C2  PXY d   1      -0.781   0.259  -0.288  0.00  0.00     0.003 A 
ATOM      5  C3  PXY d   1      -1.150   0.001   1.007  0.00  0.00     0.003 A 
ATOM      6  C4  PXY d   1      -0.200  -0.141   1.983  0.00  0.00    -0.082 A 
ATOM      7  C5  PXY d   1       1.104   0.017   1.670  0.00  0.00     0.003 A 
ATOM      8  C6  PXY d   1       1.455   0.319   0.358  0.00  0.00     0.003 A 
ENDROOT
TORSDOF 0
ENDMDL
