MODEL 1
REMARK minimizedAffinity -1.61398602
REMARK minimizedRMSD -1
REMARK  0 active torsions:
REMARK  status: ('A' for Active; 'I' for Inactive)
ROOT
ATOM      1  C4' PXY d   1       0.667  -0.079  -1.598  0.00  0.00     0.077 C 
ATOM      2  C1' PXY d   1      -1.357   0.232   3.808  0.00  0.00     0.077 C 
ATOM      3  C1  PXY d   1      -0.837   0.145   2.386  0.00  0.00    -0.082 A 
ATOM      4  C2  PXY d   1       0.467   0.155   2.165  0.00  0.00     0.003 A 
ATOM      5  C3  PXY d   1       0.954   0.109   0.884  0.00  0.00     0.003 A 
ATOM      6  C4  PXY d   1       0.097  -0.002  -0.179  0.00  0.00    -0.082 A 
ATOM      7  C5  PXY d   1      -1.235  -0.025   0.039  0.00  0.00     0.003 A 
ATOM      8  C6  PXY d   1      -1.709   0.065   1.345  0.00  0.00     0.003 A 
ENDROOT
TORSDOF 0
ENDMDL
