MODEL 1
REMARK minimizedAffinity -4.34484148
REMARK minimizedRMSD -1
REMARK  0 active torsions:
REMARK  status: ('A' for Active; 'I' for Inactive)
ROOT
ATOM      1  C4' PXY d   1       1.139   0.043  -2.068  0.00  0.00     0.077 C 
ATOM      2  C1' PXY d   1      -0.711  -0.869   3.333  0.00  0.00     0.077 C 
ATOM      3  C1  PXY d   1      -0.235  -0.637   1.912  0.00  0.00    -0.082 A 
ATOM      4  C2  PXY d   1       1.012  -0.253   1.694  0.00  0.00     0.003 A 
ATOM      5  C3  PXY d   1       1.449  -0.008   0.418  0.00  0.00     0.003 A 
ATOM      6  C4  PXY d   1       0.618  -0.211  -0.650  0.00  0.00    -0.082 A 
ATOM      7  C5  PXY d   1      -0.653  -0.614  -0.437  0.00  0.00     0.003 A 
ATOM      8  C6  PXY d   1      -1.090  -0.817   0.869  0.00  0.00     0.003 A 
ENDROOT
TORSDOF 0
ENDMDL
