MODEL 1
REMARK minimizedAffinity -2.98526907
REMARK minimizedRMSD -1
REMARK  2 active torsions:
REMARK  status: ('A' for Active; 'I' for Inactive)
REMARK    1  A    between atoms: C2'_3  and  C1'_4 
REMARK    2  A    between atoms: C1'_4  and  C1_5 
ROOT
ATOM      1  C1  I4B d   1      -0.455  -0.764   0.620  0.00  0.00    -0.075 A 
ATOM      2  C2  I4B d   1       0.507  -0.419  -0.297  0.00  0.00     0.003 A 
ATOM      3  C3  I4B d   1       0.685  -1.194  -1.469  0.00  0.00     0.002 A 
ATOM      4  C4  I4B d   1      -0.080  -2.327  -1.657  0.00  0.00    -0.004 A 
ATOM      5  C5  I4B d   1      -1.070  -2.663  -0.738  0.00  0.00     0.002 A 
ATOM      6  C6  I4B d   1      -1.267  -1.870   0.402  0.00  0.00     0.003 A 
ENDROOT
BRANCH   1   7
ATOM      7  C1' I4B d   1      -0.594   0.057   1.862  0.00  0.00     0.060 C 
BRANCH   7   8
ATOM      8  C2' I4B d   1      -0.636   1.516   1.454  0.00  0.00    -0.013 C 
ATOM      9  C4' I4B d   1      -2.052   2.027   1.400  0.00  0.00     0.013 C 
ATOM     10  C3' I4B d   1       0.184   2.296   2.439  0.00  0.00     0.013 C 
ENDBRANCH   7   8
ENDBRANCH   1   7
TORSDOF 2
ENDMDL
