MODEL 1
REMARK minimizedAffinity -3.43732572
REMARK minimizedRMSD -1
REMARK  2 active torsions:
REMARK  status: ('A' for Active; 'I' for Inactive)
REMARK    1  A    between atoms: C2'_3  and  C1'_4 
REMARK    2  A    between atoms: C1'_4  and  C1_5 
ROOT
ATOM      1  C1  I4B d   1       0.909   0.067   1.715  0.00  0.00    -0.075 A 
ATOM      2  C2  I4B d   1       0.093  -0.372   0.703  0.00  0.00     0.003 A 
ATOM      3  C3  I4B d   1      -0.937   0.463   0.204  0.00  0.00     0.002 A 
ATOM      4  C4  I4B d   1      -1.146   1.700   0.778  0.00  0.00    -0.004 A 
ATOM      5  C5  I4B d   1      -0.303   2.152   1.789  0.00  0.00     0.002 A 
ATOM      6  C6  I4B d   1       0.739   1.336   2.253  0.00  0.00     0.003 A 
ENDROOT
BRANCH   1   7
ATOM      7  C1' I4B d   1       1.965  -0.853   2.240  0.00  0.00     0.060 C 
BRANCH   7   8
ATOM      8  C2' I4B d   1       3.246  -0.575   1.480  0.00  0.00    -0.013 C 
ATOM      9  C4' I4B d   1       4.451  -1.037   2.255  0.00  0.00     0.013 C 
ATOM     10  C3' I4B d   1       3.157  -1.269   0.153  0.00  0.00     0.013 C 
ENDBRANCH   7   8
ENDBRANCH   1   7
TORSDOF 2
ENDMDL
