MODEL 1
REMARK minimizedAffinity -1.44258642
REMARK minimizedRMSD -1
REMARK  2 active torsions:
REMARK  status: ('A' for Active; 'I' for Inactive)
REMARK    1  A    between atoms: C2'_3  and  C1'_4 
REMARK    2  A    between atoms: C1'_4  and  C1_5 
ROOT
ATOM      1  C1  I4B d   1       0.738   0.317   0.803  0.00  0.00    -0.075 A 
ATOM      2  C2  I4B d   1      -0.111   1.208   1.409  0.00  0.00     0.003 A 
ATOM      3  C3  I4B d   1      -1.103   1.877   0.651  0.00  0.00     0.002 A 
ATOM      4  C4  I4B d   1      -1.175   1.664  -0.711  0.00  0.00    -0.004 A 
ATOM      5  C5  I4B d   1      -0.328   0.742  -1.319  0.00  0.00     0.002 A 
ATOM      6  C6  I4B d   1       0.627   0.055  -0.556  0.00  0.00     0.003 A 
ENDROOT
BRANCH   1   7
ATOM      7  C1' I4B d   1       1.795  -0.347   1.628  0.00  0.00     0.060 C 
BRANCH   7   8
ATOM      8  C2' I4B d   1       3.126  -0.144   0.934  0.00  0.00    -0.013 C 
ATOM      9  C4' I4B d   1       4.272  -0.284   1.900  0.00  0.00     0.013 C 
ATOM     10  C3' I4B d   1       3.227  -1.149  -0.175  0.00  0.00     0.013 C 
ENDBRANCH   7   8
ENDBRANCH   1   7
TORSDOF 2
ENDMDL
