MODEL 1
REMARK minimizedAffinity -3.64279175
REMARK minimizedRMSD -1
REMARK  2 active torsions:
REMARK  status: ('A' for Active; 'I' for Inactive)
REMARK    1  A    between atoms: C2'_3  and  C1'_4 
REMARK    2  A    between atoms: C1'_4  and  C1_5 
ROOT
ATOM      1  C1  I4B d   1       0.174  -0.688  -0.330  0.00  0.00    -0.075 A 
ATOM      2  C2  I4B d   1      -0.823   0.256  -0.330  0.00  0.00     0.003 A 
ATOM      3  C3  I4B d   1      -0.857   1.257   0.670  0.00  0.00     0.002 A 
ATOM      4  C4  I4B d   1       0.089   1.248   1.674  0.00  0.00    -0.004 A 
ATOM      5  C5  I4B d   1       1.112   0.304   1.660  0.00  0.00     0.002 A 
ATOM      6  C6  I4B d   1       1.162  -0.663   0.645  0.00  0.00     0.003 A 
ENDROOT
BRANCH   1   7
ATOM      7  C1' I4B d   1       0.161  -1.751  -1.382  0.00  0.00     0.060 C 
BRANCH   7   8
ATOM      8  C2' I4B d   1      -0.154  -3.071  -0.708  0.00  0.00    -0.013 C 
ATOM      9  C4' I4B d   1      -1.395  -3.696  -1.288  0.00  0.00     0.013 C 
ATOM     10  C3' I4B d   1       1.034  -3.970  -0.875  0.00  0.00     0.013 C 
ENDBRANCH   7   8
ENDBRANCH   1   7
TORSDOF 2
ENDMDL
