MODEL 1
REMARK minimizedAffinity -1.9994272
REMARK minimizedRMSD -1
REMARK  2 active torsions:
REMARK  status: ('A' for Active; 'I' for Inactive)
REMARK    1  A    between atoms: C2'_3  and  C1'_4 
REMARK    2  A    between atoms: C1'_4  and  C1_5 
ROOT
ATOM      1  C1  I4B d   1       0.133  -0.482  -1.035  0.00  0.00    -0.075 A 
ATOM      2  C2  I4B d   1       0.350   0.216  -2.197  0.00  0.00     0.003 A 
ATOM      3  C3  I4B d   1      -0.028   1.577  -2.293  0.00  0.00     0.002 A 
ATOM      4  C4  I4B d   1      -0.661   2.183  -1.227  0.00  0.00    -0.004 A 
ATOM      5  C5  I4B d   1      -0.859   1.481  -0.042  0.00  0.00     0.002 A 
ATOM      6  C6  I4B d   1      -0.449   0.144   0.060  0.00  0.00     0.003 A 
ENDROOT
BRANCH   1   7
ATOM      7  C1' I4B d   1       0.515  -1.927  -0.980  0.00  0.00     0.060 C 
BRANCH   7   8
ATOM      8  C2' I4B d   1      -0.591  -2.727  -1.639  0.00  0.00    -0.013 C 
ATOM      9  C4' I4B d   1      -0.217  -3.117  -3.045  0.00  0.00     0.013 C 
ATOM     10  C3' I4B d   1      -0.854  -3.937  -0.793  0.00  0.00     0.013 C 
ENDBRANCH   7   8
ENDBRANCH   1   7
TORSDOF 2
ENDMDL
