MODEL 1
REMARK minimizedAffinity -2.07813573
REMARK minimizedRMSD -1
REMARK  2 active torsions:
REMARK  status: ('A' for Active; 'I' for Inactive)
REMARK    1  A    between atoms: C2'_3  and  C1'_4 
REMARK    2  A    between atoms: C1'_4  and  C1_5 
ROOT
ATOM      1  C1  I4B d   1      -0.022  -0.186  -0.560  0.00  0.00    -0.075 A 
ATOM      2  C2  I4B d   1      -0.878   0.677  -1.197  0.00  0.00     0.003 A 
ATOM      3  C3  I4B d   1      -1.385   1.810  -0.516  0.00  0.00     0.002 A 
ATOM      4  C4  I4B d   1      -1.053   2.012   0.808  0.00  0.00    -0.004 A 
ATOM      5  C5  I4B d   1      -0.167   1.149   1.446  0.00  0.00     0.002 A 
ATOM      6  C6  I4B d   1       0.362   0.049   0.754  0.00  0.00     0.003 A 
ENDROOT
BRANCH   1   7
ATOM      7  C1' I4B d   1       0.469  -1.391  -1.298  0.00  0.00     0.060 C 
BRANCH   7   8
ATOM      8  C2' I4B d   1      -0.484  -2.533  -1.014  0.00  0.00    -0.013 C 
ATOM      9  C4' I4B d   1      -1.077  -3.078  -2.286  0.00  0.00     0.013 C 
ATOM     10  C3' I4B d   1       0.273  -3.595  -0.272  0.00  0.00     0.013 C 
ENDBRANCH   7   8
ENDBRANCH   1   7
TORSDOF 2
ENDMDL
