MODEL 1
REMARK minimizedAffinity -4.48398209
REMARK minimizedRMSD -1
REMARK  2 active torsions:
REMARK  status: ('A' for Active; 'I' for Inactive)
REMARK    1  A    between atoms: C2'_3  and  C1'_4 
REMARK    2  A    between atoms: C1'_4  and  C1_5 
ROOT
ATOM      1  C1  I4B d   1       0.043  -0.528  -0.837  0.00  0.00    -0.075 A 
ATOM      2  C2  I4B d   1      -1.033   0.314  -0.970  0.00  0.00     0.003 A 
ATOM      3  C3  I4B d   1      -1.321   1.267   0.036  0.00  0.00     0.002 A 
ATOM      4  C4  I4B d   1      -0.542   1.311   1.174  0.00  0.00    -0.004 A 
ATOM      5  C5  I4B d   1       0.562   0.472   1.297  0.00  0.00     0.002 A 
ATOM      6  C6  I4B d   1       0.865  -0.445   0.280  0.00  0.00     0.003 A 
ENDROOT
BRANCH   1   7
ATOM      7  C1' I4B d   1       0.299  -1.546  -1.903  0.00  0.00     0.060 C 
BRANCH   7   8
ATOM      8  C2' I4B d   1      -0.185  -2.888  -1.393  0.00  0.00    -0.013 C 
ATOM      9  C4' I4B d   1      -1.289  -3.435  -2.260  0.00  0.00     0.013 C 
ATOM     10  C3' I4B d   1       0.988  -3.820  -1.357  0.00  0.00     0.013 C 
ENDBRANCH   7   8
ENDBRANCH   1   7
TORSDOF 2
ENDMDL
