MODEL 1
REMARK minimizedAffinity -1.51781547
REMARK minimizedRMSD -1
REMARK  2 active torsions:
REMARK  status: ('A' for Active; 'I' for Inactive)
REMARK    1  A    between atoms: C2'_3  and  C1'_4 
REMARK    2  A    between atoms: C1'_4  and  C1_5 
ROOT
ATOM      1  C1  I4B d   1      -0.065   2.987   1.006  0.00  0.00    -0.075 A 
ATOM      2  C2  I4B d   1      -1.170   2.980   0.192  0.00  0.00     0.003 A 
ATOM      3  C3  I4B d   1      -1.379   1.915  -0.717  0.00  0.00     0.002 A 
ATOM      4  C4  I4B d   1      -0.439   0.910  -0.814  0.00  0.00    -0.004 A 
ATOM      5  C5  I4B d   1       0.669   0.906   0.029  0.00  0.00     0.002 A 
ATOM      6  C6  I4B d   1       0.851   1.945   0.953  0.00  0.00     0.003 A 
ENDROOT
BRANCH   1   7
ATOM      7  C1' I4B d   1       0.141   4.144   1.931  0.00  0.00     0.060 C 
BRANCH   7   8
ATOM      8  C2' I4B d   1       1.600   4.546   1.857  0.00  0.00    -0.013 C 
ATOM      9  C4' I4B d   1       1.770   5.848   1.120  0.00  0.00     0.013 C 
ATOM     10  C3' I4B d   1       2.125   4.644   3.259  0.00  0.00     0.013 C 
ENDBRANCH   7   8
ENDBRANCH   1   7
TORSDOF 2
ENDMDL
