MODEL 1
REMARK minimizedAffinity 0.423217386
REMARK minimizedRMSD -1
REMARK  2 active torsions:
REMARK  status: ('A' for Active; 'I' for Inactive)
REMARK    1  A    between atoms: C2'_3  and  C1'_4 
REMARK    2  A    between atoms: C1'_4  and  C1_5 
ROOT
ATOM      1  C1  I4B d   1      -0.741  -0.637  -0.913  0.00  0.00    -0.075 A 
ATOM      2  C2  I4B d   1      -0.169   0.318  -1.717  0.00  0.00     0.003 A 
ATOM      3  C3  I4B d   1      -0.470   1.687  -1.521  0.00  0.00     0.002 A 
ATOM      4  C4  I4B d   1      -1.381   2.051  -0.551  0.00  0.00    -0.004 A 
ATOM      5  C5  I4B d   1      -1.943   1.084   0.278  0.00  0.00     0.002 A 
ATOM      6  C6  I4B d   1      -1.611  -0.268   0.104  0.00  0.00     0.003 A 
ENDROOT
BRANCH   1   7
ATOM      7  C1' I4B d   1      -0.425  -2.077  -1.169  0.00  0.00     0.060 C 
BRANCH   7   8
ATOM      8  C2' I4B d   1      -1.641  -2.714  -1.810  0.00  0.00    -0.013 C 
ATOM      9  C4' I4B d   1      -1.389  -3.032  -3.260  0.00  0.00     0.013 C 
ATOM     10  C3' I4B d   1      -1.978  -3.953  -1.035  0.00  0.00     0.013 C 
ENDBRANCH   7   8
ENDBRANCH   1   7
TORSDOF 2
ENDMDL
