MODEL 1
REMARK minimizedAffinity -5.38309002
REMARK minimizedRMSD -1
REMARK  2 active torsions:
REMARK  status: ('A' for Active; 'I' for Inactive)
REMARK    1  A    between atoms: C2'_3  and  C1'_4 
REMARK    2  A    between atoms: C1'_4  and  C1_5 
ROOT
ATOM      1  C1  I4B d   1       1.198  -2.134  -1.178  0.00  0.00    -0.075 A 
ATOM      2  C2  I4B d   1       0.170  -1.598  -1.912  0.00  0.00     0.003 A 
ATOM      3  C3  I4B d   1      -0.854  -2.433  -2.422  0.00  0.00     0.002 A 
ATOM      4  C4  I4B d   1      -0.784  -3.796  -2.217  0.00  0.00    -0.004 A 
ATOM      5  C5  I4B d   1       0.247  -4.335  -1.454  0.00  0.00     0.002 A 
ATOM      6  C6  I4B d   1       1.238  -3.498  -0.920  0.00  0.00     0.003 A 
ENDROOT
BRANCH   1   7
ATOM      7  C1' I4B d   1       2.280  -1.228  -0.684  0.00  0.00     0.060 C 
BRANCH   7   8
ATOM      8  C2' I4B d   1       3.534  -2.057  -0.494  0.00  0.00    -0.013 C 
ATOM      9  C4' I4B d   1       4.392  -2.039  -1.731  0.00  0.00     0.013 C 
ATOM     10  C3' I4B d   1       4.276  -1.510   0.688  0.00  0.00     0.013 C 
ENDBRANCH   7   8
ENDBRANCH   1   7
TORSDOF 2
ENDMDL
