MODEL 1
REMARK minimizedAffinity -2.28703547
REMARK minimizedRMSD -1
REMARK  2 active torsions:
REMARK  status: ('A' for Active; 'I' for Inactive)
REMARK    1  A    between atoms: C2'_3  and  C1'_4 
REMARK    2  A    between atoms: C1'_4  and  C1_5 
ROOT
ATOM      1  C1  I4B d   1      -0.934  -1.550  -0.111  0.00  0.00    -0.075 A 
ATOM      2  C2  I4B d   1      -1.923  -0.711   0.339  0.00  0.00     0.003 A 
ATOM      3  C3  I4B d   1      -1.649   0.661   0.559  0.00  0.00     0.002 A 
ATOM      4  C4  I4B d   1      -0.368   1.137   0.366  0.00  0.00    -0.004 A 
ATOM      5  C5  I4B d   1       0.627   0.290  -0.112  0.00  0.00     0.002 A 
ATOM      6  C6  I4B d   1       0.340  -1.059  -0.364  0.00  0.00     0.003 A 
ENDROOT
BRANCH   1   7
ATOM      7  C1' I4B d   1      -1.250  -3.000  -0.301  0.00  0.00     0.060 C 
BRANCH   7   8
ATOM      8  C2' I4B d   1      -0.431  -3.506  -1.471  0.00  0.00    -0.013 C 
ATOM      9  C4' I4B d   1       0.571  -4.540  -1.028  0.00  0.00     0.013 C 
ATOM     10  C3' I4B d   1      -1.377  -4.071  -2.488  0.00  0.00     0.013 C 
ENDBRANCH   7   8
ENDBRANCH   1   7
TORSDOF 2
ENDMDL
