MODEL 1
REMARK minimizedAffinity -0.199055642
REMARK minimizedRMSD -1
REMARK  2 active torsions:
REMARK  status: ('A' for Active; 'I' for Inactive)
REMARK    1  A    between atoms: C2'_3  and  C1'_4 
REMARK    2  A    between atoms: C1'_4  and  C1_5 
ROOT
ATOM      1  C1  I4B d   1      -0.364  -0.232  -0.239  0.00  0.00    -0.075 A 
ATOM      2  C2  I4B d   1      -0.626   1.095  -0.474  0.00  0.00     0.003 A 
ATOM      3  C3  I4B d   1      -0.656   2.016   0.601  0.00  0.00     0.002 A 
ATOM      4  C4  I4B d   1      -0.470   1.563   1.891  0.00  0.00    -0.004 A 
ATOM      5  C5  I4B d   1      -0.182   0.221   2.125  0.00  0.00     0.002 A 
ATOM      6  C6  I4B d   1      -0.116  -0.680   1.052  0.00  0.00     0.003 A 
ENDROOT
BRANCH   1   7
ATOM      7  C1' I4B d   1      -0.373  -1.184  -1.393  0.00  0.00     0.060 C 
BRANCH   7   8
ATOM      8  C2' I4B d   1      -1.567  -2.102  -1.232  0.00  0.00    -0.013 C 
ATOM      9  C4' I4B d   1      -2.393  -2.148  -2.491  0.00  0.00     0.013 C 
ATOM     10  C3' I4B d   1      -1.058  -3.464  -0.868  0.00  0.00     0.013 C 
ENDBRANCH   7   8
ENDBRANCH   1   7
TORSDOF 2
ENDMDL
