MODEL 1
REMARK minimizedAffinity 6.80211639
REMARK minimizedRMSD -1
REMARK  0 active torsions:
REMARK  status: ('A' for Active; 'I' for Inactive)
ROOT
ATOM      1  C4' PXY d   1       1.185   0.337   1.187  0.00  0.00     0.077 C 
ATOM      2  C1' PXY d   1      -3.845  -1.152   3.615  0.00  0.00     0.077 C 
ATOM      3  C1  PXY d   1      -2.532  -0.761   2.966  0.00  0.00    -0.082 A 
ATOM      4  C2  PXY d   1      -1.391  -1.122   3.530  0.00  0.00     0.003 A 
ATOM      5  C3  PXY d   1      -0.194  -0.749   2.975  0.00  0.00     0.003 A 
ATOM      6  C4  PXY d   1      -0.164  -0.044   1.801  0.00  0.00    -0.082 A 
ATOM      7  C5  PXY d   1      -1.324   0.318   1.214  0.00  0.00     0.003 A 
ATOM      8  C6  PXY d   1      -2.529  -0.035   1.816  0.00  0.00     0.003 A 
ENDROOT
TORSDOF 0
ENDMDL
