MODEL 1
REMARK minimizedAffinity 7.13142443
REMARK minimizedRMSD -1
REMARK  0 active torsions:
REMARK  status: ('A' for Active; 'I' for Inactive)
ROOT
ATOM      1  C4' PXY d   1      -2.257   0.914  -0.527  0.00  0.00     0.077 C 
ATOM      2  C1' PXY d   1      -0.171  -1.117   4.467  0.00  0.00     0.077 C 
ATOM      3  C1  PXY d   1      -0.706  -0.580   3.154  0.00  0.00    -0.082 A 
ATOM      4  C2  PXY d   1      -1.996  -0.312   3.034  0.00  0.00     0.003 A 
ATOM      5  C3  PXY d   1      -2.502   0.144   1.845  0.00  0.00     0.003 A 
ATOM      6  C4  PXY d   1      -1.671   0.379   0.782  0.00  0.00    -0.082 A 
ATOM      7  C5  PXY d   1      -0.352   0.118   0.900  0.00  0.00     0.003 A 
ATOM      8  C6  PXY d   1       0.136  -0.383   2.103  0.00  0.00     0.003 A 
ENDROOT
TORSDOF 0
ENDMDL
