MODEL 1
REMARK minimizedAffinity 7.88306952
REMARK minimizedRMSD -1
REMARK  0 active torsions:
REMARK  status: ('A' for Active; 'I' for Inactive)
ROOT
ATOM      1  C4' PXY d   1      -1.196  -0.555  -5.548  0.00  0.00     0.077 C 
ATOM      2  C1' PXY d   1       0.938  -0.321  -0.181  0.00  0.00     0.077 C 
ATOM      3  C1  PXY d   1       0.383  -0.371  -1.590  0.00  0.00    -0.082 A 
ATOM      4  C2  PXY d   1      -0.629  -1.177  -1.867  0.00  0.00     0.003 A 
ATOM      5  C3  PXY d   1      -1.123  -1.257  -3.144  0.00  0.00     0.003 A 
ATOM      6  C4  PXY d   1      -0.610  -0.465  -4.136  0.00  0.00    -0.082 A 
ATOM      7  C5  PXY d   1       0.416   0.368  -3.859  0.00  0.00     0.003 A 
ATOM      8  C6  PXY d   1       0.930   0.404  -2.566  0.00  0.00     0.003 A 
ENDROOT
TORSDOF 0
ENDMDL
