MODEL 1
REMARK minimizedAffinity -0.927592695
REMARK minimizedRMSD -1
REMARK  0 active torsions:
REMARK  status: ('A' for Active; 'I' for Inactive)
ROOT
ATOM      1  C4' PXY d   1       0.474  -0.094  -4.735  0.00  0.00     0.077 C 
ATOM      2  C1' PXY d   1       1.703  -0.686   0.882  0.00  0.00     0.077 C 
ATOM      3  C1  PXY d   1       1.387  -0.520  -0.592  0.00  0.00    -0.082 A 
ATOM      4  C2  PXY d   1       0.311  -1.099  -1.100  0.00  0.00     0.003 A 
ATOM      5  C3  PXY d   1       0.028  -0.985  -2.436  0.00  0.00     0.003 A 
ATOM      6  C4  PXY d   1       0.826  -0.227  -3.251  0.00  0.00    -0.082 A 
ATOM      7  C5  PXY d   1       1.920   0.375  -2.739  0.00  0.00     0.003 A 
ATOM      8  C6  PXY d   1       2.212   0.213  -1.388  0.00  0.00     0.003 A 
ENDROOT
TORSDOF 0
ENDMDL
