MODEL 1
REMARK minimizedAffinity 1.46534467
REMARK minimizedRMSD -1
REMARK  0 active torsions:
REMARK  status: ('A' for Active; 'I' for Inactive)
ROOT
ATOM      1  C4' PXY d   1       2.412   2.334   1.219  0.00  0.00     0.077 C 
ATOM      2  C1' PXY d   1      -2.527  -0.439   0.064  0.00  0.00     0.077 C 
ATOM      3  C1  PXY d   1      -1.226   0.277   0.367  0.00  0.00    -0.082 A 
ATOM      4  C2  PXY d   1      -1.254   1.484   0.907  0.00  0.00     0.003 A 
ATOM      5  C3  PXY d   1      -0.087   2.159   1.159  0.00  0.00     0.003 A 
ATOM      6  C4  PXY d   1       1.122   1.570   0.904  0.00  0.00    -0.082 A 
ATOM      7  C5  PXY d   1       1.160   0.334   0.363  0.00  0.00     0.003 A 
ATOM      8  C6  PXY d   1      -0.037  -0.317   0.077  0.00  0.00     0.003 A 
ENDROOT
TORSDOF 0
ENDMDL
