MODEL 1
REMARK minimizedAffinity 1.10874879
REMARK minimizedRMSD -1
REMARK  0 active torsions:
REMARK  status: ('A' for Active; 'I' for Inactive)
ROOT
ATOM      1  C4' PXY d   1      -0.994   0.427  -0.134  0.00  0.00     0.077 C 
ATOM      2  C1' PXY d   1      -0.252  -1.495   5.267  0.00  0.00     0.077 C 
ATOM      3  C1  PXY d   1      -0.434  -0.989   3.850  0.00  0.00    -0.082 A 
ATOM      4  C2  PXY d   1      -1.601  -0.491   3.478  0.00  0.00     0.003 A 
ATOM      5  C3  PXY d   1      -1.793  -0.058   2.191  0.00  0.00     0.003 A 
ATOM      6  C4  PXY d   1      -0.762  -0.087   1.290  0.00  0.00    -0.082 A 
ATOM      7  C5  PXY d   1       0.436  -0.585   1.665  0.00  0.00     0.003 A 
ATOM      8  C6  PXY d   1       0.597  -1.057   2.964  0.00  0.00     0.003 A 
ENDROOT
TORSDOF 0
ENDMDL
