MODEL 1
REMARK minimizedAffinity -1.51538575
REMARK minimizedRMSD -1
REMARK  0 active torsions:
REMARK  status: ('A' for Active; 'I' for Inactive)
ROOT
ATOM      1  C4' PXY d   1      -4.159  -2.206  -1.274  0.00  0.00     0.077 C 
ATOM      2  C1' PXY d   1       0.544   0.585   0.598  0.00  0.00     0.077 C 
ATOM      3  C1  PXY d   1      -0.696  -0.143   0.118  0.00  0.00    -0.082 A 
ATOM      4  C2  PXY d   1      -0.572  -1.179  -0.695  0.00  0.00     0.003 A 
ATOM      5  C3  PXY d   1      -1.684  -1.829  -1.165  0.00  0.00     0.003 A 
ATOM      6  C4  PXY d   1      -2.934  -1.447  -0.756  0.00  0.00    -0.082 A 
ATOM      7  C5  PXY d   1      -3.068  -0.397   0.082  0.00  0.00     0.003 A 
ATOM      8  C6  PXY d   1      -1.929   0.275   0.515  0.00  0.00     0.003 A 
ENDROOT
TORSDOF 0
ENDMDL
