MODEL 1
REMARK minimizedAffinity -1.35694277
REMARK minimizedRMSD -1
REMARK  0 active torsions:
REMARK  status: ('A' for Active; 'I' for Inactive)
ROOT
ATOM      1  C4' PXY d   1       0.247  -1.007   4.702  0.00  0.00     0.077 C 
ATOM      2  C1' PXY d   1      -1.793   0.365  -0.529  0.00  0.00     0.077 C 
ATOM      3  C1  PXY d   1      -1.267   0.014   0.848  0.00  0.00    -0.082 A 
ATOM      4  C2  PXY d   1      -0.035  -0.450   0.979  0.00  0.00     0.003 A 
ATOM      5  C3  PXY d   1       0.446  -0.803   2.213  0.00  0.00     0.003 A 
ATOM      6  C4  PXY d   1      -0.323  -0.630   3.332  0.00  0.00    -0.082 A 
ATOM      7  C5  PXY d   1      -1.578  -0.147   3.209  0.00  0.00     0.003 A 
ATOM      8  C6  PXY d   1      -2.062   0.167   1.942  0.00  0.00     0.003 A 
ENDROOT
TORSDOF 0
ENDMDL
