MODEL 1
REMARK minimizedAffinity 4.57816267
REMARK minimizedRMSD -1
REMARK  0 active torsions:
REMARK  status: ('A' for Active; 'I' for Inactive)
ROOT
ATOM      1  C4' PXY d   1      -0.385  -1.639   5.078  0.00  0.00     0.077 C 
ATOM      2  C1' PXY d   1      -1.996   0.964   0.174  0.00  0.00     0.077 C 
ATOM      3  C1  PXY d   1      -1.582   0.289   1.467  0.00  0.00    -0.082 A 
ATOM      4  C2  PXY d   1      -0.402  -0.304   1.546  0.00  0.00     0.003 A 
ATOM      5  C3  PXY d   1      -0.025  -0.947   2.697  0.00  0.00     0.003 A 
ATOM      6  C4  PXY d   1      -0.841  -0.937   3.796  0.00  0.00    -0.082 A 
ATOM      7  C5  PXY d   1      -2.042  -0.324   3.727  0.00  0.00     0.003 A 
ATOM      8  C6  PXY d   1      -2.424   0.287   2.536  0.00  0.00     0.003 A 
ENDROOT
TORSDOF 0
ENDMDL
