MODEL 1
REMARK minimizedAffinity 2.38207507
REMARK minimizedRMSD -1
REMARK  0 active torsions:
REMARK  status: ('A' for Active; 'I' for Inactive)
ROOT
ATOM      1  C4' PXY d   1       0.183  -1.780   4.416  0.00  0.00     0.077 C 
ATOM      2  C1' PXY d   1      -1.701   0.232  -0.665  0.00  0.00     0.077 C 
ATOM      3  C1  PXY d   1      -1.217  -0.289   0.674  0.00  0.00    -0.082 A 
ATOM      4  C2  PXY d   1       0.036  -0.696   0.803  0.00  0.00     0.003 A 
ATOM      5  C3  PXY d   1       0.482  -1.199   1.997  0.00  0.00     0.003 A 
ATOM      6  C4  PXY d   1      -0.348  -1.238   3.086  0.00  0.00    -0.082 A 
ATOM      7  C5  PXY d   1      -1.624  -0.815   2.965  0.00  0.00     0.003 A 
ATOM      8  C6  PXY d   1      -2.069  -0.346   1.733  0.00  0.00     0.003 A 
ENDROOT
TORSDOF 0
ENDMDL
