MODEL 1
REMARK minimizedAffinity -1.38899684
REMARK minimizedRMSD -1
REMARK  0 active torsions:
REMARK  status: ('A' for Active; 'I' for Inactive)
ROOT
ATOM      1  C4' PXY d   1       0.000  -0.958   4.951  0.00  0.00     0.077 C 
ATOM      2  C1' PXY d   1      -2.072   0.452  -0.258  0.00  0.00     0.077 C 
ATOM      3  C1  PXY d   1      -1.536   0.092   1.113  0.00  0.00    -0.082 A 
ATOM      4  C2  PXY d   1      -0.350  -0.486   1.221  0.00  0.00     0.003 A 
ATOM      5  C3  PXY d   1       0.135  -0.848   2.451  0.00  0.00     0.003 A 
ATOM      6  C4  PXY d   1      -0.576  -0.568   3.587  0.00  0.00    -0.082 A 
ATOM      7  C5  PXY d   1      -1.782   0.031   3.486  0.00  0.00     0.003 A 
ATOM      8  C6  PXY d   1      -2.276   0.353   2.225  0.00  0.00     0.003 A 
ENDROOT
TORSDOF 0
ENDMDL
