MODEL 1
REMARK minimizedAffinity 3.99671936
REMARK minimizedRMSD -1
REMARK  0 active torsions:
REMARK  status: ('A' for Active; 'I' for Inactive)
ROOT
ATOM      1  C1  BNZ d   1       2.212   1.408   0.267  0.00  0.00     0.000 A 
ATOM      2  C2  BNZ d   1       2.065   2.213   1.365  0.00  0.00     0.000 A 
ATOM      3  C3  BNZ d   1       2.961   3.212   1.625  0.00  0.00     0.000 A 
ATOM      4  C4  BNZ d   1       4.023   3.378   0.811  0.00  0.00     0.000 A 
ATOM      5  C5  BNZ d   1       4.191   2.568  -0.294  0.00  0.00     0.000 A 
ATOM      6  C6  BNZ d   1       3.265   1.589  -0.575  0.00  0.00     0.000 A 
ENDROOT
TORSDOF 0
ENDMDL
