MODEL 1
REMARK minimizedAffinity 9.98069191
REMARK minimizedRMSD -1
REMARK  0 active torsions:
REMARK  status: ('A' for Active; 'I' for Inactive)
ROOT
ATOM      1  C1  BNZ d   1       2.073   1.317   0.652  0.00  0.00     0.000 A 
ATOM      2  C2  BNZ d   1       2.664   2.515   0.953  0.00  0.00     0.000 A 
ATOM      3  C3  BNZ d   1       3.415   3.179   0.023  0.00  0.00     0.000 A 
ATOM      4  C4  BNZ d   1       3.606   2.625  -1.192  0.00  0.00     0.000 A 
ATOM      5  C5  BNZ d   1       3.025   1.413  -1.507  0.00  0.00     0.000 A 
ATOM      6  C6  BNZ d   1       2.238   0.767  -0.582  0.00  0.00     0.000 A 
ENDROOT
TORSDOF 0
ENDMDL
