MODEL 1
REMARK minimizedAffinity -0.110527217
REMARK minimizedRMSD -1
REMARK  0 active torsions:
REMARK  status: ('A' for Active; 'I' for Inactive)
ROOT
ATOM      1  C1  BNZ d   1       0.045  -0.672   2.879  0.00  0.00     0.000 A 
ATOM      2  C2  BNZ d   1       0.110   0.161   1.794  0.00  0.00     0.000 A 
ATOM      3  C3  BNZ d   1      -1.017   0.754   1.299  0.00  0.00     0.000 A 
ATOM      4  C4  BNZ d   1      -2.212   0.482   1.862  0.00  0.00     0.000 A 
ATOM      5  C5  BNZ d   1      -2.295  -0.363   2.951  0.00  0.00     0.000 A 
ATOM      6  C6  BNZ d   1      -1.153  -0.928   3.471  0.00  0.00     0.000 A 
ENDROOT
TORSDOF 0
ENDMDL
