MODEL 1
REMARK minimizedAffinity 3.31399226
REMARK minimizedRMSD -1
REMARK  0 active torsions:
REMARK  status: ('A' for Active; 'I' for Inactive)
ROOT
ATOM      1  C1  BNZ d   1      -3.251  -1.625   3.471  0.00  0.00     0.000 A 
ATOM      2  C2  BNZ d   1      -3.351  -0.586   2.585  0.00  0.00     0.000 A 
ATOM      3  C3  BNZ d   1      -2.280   0.225   2.332  0.00  0.00     0.000 A 
ATOM      4  C4  BNZ d   1      -1.124   0.021   2.995  0.00  0.00     0.000 A 
ATOM      5  C5  BNZ d   1      -1.009  -1.017   3.899  0.00  0.00     0.000 A 
ATOM      6  C6  BNZ d   1      -2.078  -1.855   4.121  0.00  0.00     0.000 A 
ENDROOT
TORSDOF 0
ENDMDL
