MODEL 1
REMARK minimizedAffinity 7.15462112
REMARK minimizedRMSD -1
REMARK  0 active torsions:
REMARK  status: ('A' for Active; 'I' for Inactive)
ROOT
ATOM      1  C1  BNZ d   1      -0.702   0.044  -0.589  0.00  0.00     0.000 A 
ATOM      2  C2  BNZ d   1      -0.009   0.346   0.552  0.00  0.00     0.000 A 
ATOM      3  C3  BNZ d   1      -0.666   0.686   1.701  0.00  0.00     0.000 A 
ATOM      4  C4  BNZ d   1      -2.013   0.761   1.697  0.00  0.00     0.000 A 
ATOM      5  C5  BNZ d   1      -2.726   0.468   0.552  0.00  0.00     0.000 A 
ATOM      6  C6  BNZ d   1      -2.062   0.089  -0.593  0.00  0.00     0.000 A 
ENDROOT
TORSDOF 0
ENDMDL
