MODEL 1
REMARK minimizedAffinity 0.427498251
REMARK minimizedRMSD -1
REMARK  0 active torsions:
REMARK  status: ('A' for Active; 'I' for Inactive)
ROOT
ATOM      1  C1  BNZ d   1       2.037   0.906  -1.239  0.00  0.00     0.000 A 
ATOM      2  C2  BNZ d   1       1.647   0.569   0.030  0.00  0.00     0.000 A 
ATOM      3  C3  BNZ d   1       0.335   0.311   0.314  0.00  0.00     0.000 A 
ATOM      4  C4  BNZ d   1      -0.589   0.428  -0.660  0.00  0.00     0.000 A 
ATOM      5  C5  BNZ d   1      -0.214   0.776  -1.942  0.00  0.00     0.000 A 
ATOM      6  C6  BNZ d   1       1.113   0.997  -2.233  0.00  0.00     0.000 A 
ENDROOT
TORSDOF 0
ENDMDL
