MODEL 1
REMARK minimizedAffinity 1.2022804
REMARK minimizedRMSD -1
REMARK  0 active torsions:
REMARK  status: ('A' for Active; 'I' for Inactive)
ROOT
ATOM      1  C1  BNZ d   1      -3.228   0.418   0.365  0.00  0.00     0.000 A 
ATOM      2  C2  BNZ d   1      -3.549  -0.295  -0.759  0.00  0.00     0.000 A 
ATOM      3  C3  BNZ d   1      -2.627  -1.104  -1.361  0.00  0.00     0.000 A 
ATOM      4  C4  BNZ d   1      -1.376  -1.169  -0.863  0.00  0.00     0.000 A 
ATOM      5  C5  BNZ d   1      -1.034  -0.449   0.264  0.00  0.00     0.000 A 
ATOM      6  C6  BNZ d   1      -1.976   0.335   0.891  0.00  0.00     0.000 A 
ENDROOT
TORSDOF 0
ENDMDL
