MODEL 1
REMARK minimizedAffinity 0.88886857
REMARK minimizedRMSD -1
REMARK  0 active torsions:
REMARK  status: ('A' for Active; 'I' for Inactive)
ROOT
ATOM      1  C1  BNZ d   1      -1.204   0.087   2.872  0.00  0.00     0.000 A 
ATOM      2  C2  BNZ d   1      -1.067  -0.852   3.860  0.00  0.00     0.000 A 
ATOM      3  C3  BNZ d   1      -2.113  -1.660   4.206  0.00  0.00     0.000 A 
ATOM      4  C4  BNZ d   1      -3.304  -1.502   3.594  0.00  0.00     0.000 A 
ATOM      5  C5  BNZ d   1      -3.461  -0.554   2.603  0.00  0.00     0.000 A 
ATOM      6  C6  BNZ d   1      -2.395   0.232   2.230  0.00  0.00     0.000 A 
ENDROOT
TORSDOF 0
ENDMDL
