MODEL 1
REMARK minimizedAffinity -0.625183165
REMARK minimizedRMSD -1
REMARK  0 active torsions:
REMARK  status: ('A' for Active; 'I' for Inactive)
ROOT
ATOM      1  C1  BNZ d   1       1.967  -1.865   5.959  0.00  0.00     0.000 A 
ATOM      2  C2  BNZ d   1       0.651  -1.488   6.000  0.00  0.00     0.000 A 
ATOM      3  C3  BNZ d   1      -0.060  -1.302   4.847  0.00  0.00     0.000 A 
ATOM      4  C4  BNZ d   1       0.556  -1.454   3.657  0.00  0.00     0.000 A 
ATOM      5  C5  BNZ d   1       1.884  -1.825   3.599  0.00  0.00     0.000 A 
ATOM      6  C6  BNZ d   1       2.586  -2.050   4.761  0.00  0.00     0.000 A 
ENDROOT
TORSDOF 0
ENDMDL
