MODEL 1
REMARK minimizedAffinity 0.201333731
REMARK minimizedRMSD -1
REMARK  1 active torsions:
REMARK  status: ('A' for Active; 'I' for Inactive)
REMARK    1  A    between atoms: C1_2  and  C2_3 
ROOT
ATOM      1  C2  UNL d   1       0.519   0.290   2.078  0.00  0.00    -0.076 A 
ATOM      2  C3  UNL d   1       0.870   0.801   0.816  0.00  0.00     0.004 A 
ATOM      3  C4  UNL d   1      -0.054   0.836  -0.226  0.00  0.00    -0.003 A 
ATOM      4  C5  UNL d   1      -1.346   0.362  -0.024  0.00  0.00     0.000 A 
ATOM      5  C6  UNL d   1      -1.717  -0.131   1.226  0.00  0.00     0.000 A 
ATOM      6  C7  UNL d   1      -0.802  -0.159   2.293  0.00  0.00    -0.073 A 
ATOM      7  C8  UNL d   1      -1.254  -0.708   3.618  0.00  0.00     0.078 C 
ENDROOT
BRANCH   1   8
ATOM      8  C1  UNL d   1       1.571   0.252   3.162  0.00  0.00     0.053 C 
ATOM      9  C   UNL d   1       2.891  -0.326   2.674  0.00  0.00     0.018 C 
ENDBRANCH   1   8
TORSDOF 1
ENDMDL
