MODEL 1
REMARK minimizedAffinity -3.63370299
REMARK minimizedRMSD -1
REMARK  1 active torsions:
REMARK  status: ('A' for Active; 'I' for Inactive)
REMARK    1  A    between atoms: C1_2  and  C2_3 
ROOT
ATOM      1  C2  UNL d   1       5.870  -3.808   3.572  0.00  0.00    -0.076 A 
ATOM      2  C3  UNL d   1       5.894  -2.751   2.646  0.00  0.00     0.004 A 
ATOM      3  C4  UNL d   1       5.958  -1.425   3.072  0.00  0.00    -0.003 A 
ATOM      4  C5  UNL d   1       5.999  -1.136   4.431  0.00  0.00     0.000 A 
ATOM      5  C6  UNL d   1       5.994  -2.173   5.364  0.00  0.00     0.000 A 
ATOM      6  C7  UNL d   1       5.946  -3.515   4.951  0.00  0.00    -0.073 A 
ATOM      7  C8  UNL d   1       5.937  -4.593   5.999  0.00  0.00     0.078 C 
ENDROOT
BRANCH   1   8
ATOM      8  C1  UNL d   1       5.772  -5.225   3.052  0.00  0.00     0.053 C 
ATOM      9  C   UNL d   1       4.342  -5.630   2.729  0.00  0.00     0.018 C 
ENDBRANCH   1   8
TORSDOF 1
ENDMDL
