MODEL 1
REMARK minimizedAffinity 9.54086399
REMARK minimizedRMSD -1
REMARK  1 active torsions:
REMARK  status: ('A' for Active; 'I' for Inactive)
REMARK    1  A    between atoms: C1_2  and  C2_3 
ROOT
ATOM      1  C2  UNL d   1      -1.148   0.259   1.668  0.00  0.00    -0.076 A 
ATOM      2  C3  UNL d   1      -0.262   1.267   1.250  0.00  0.00     0.004 A 
ATOM      3  C4  UNL d   1       0.867   1.587   2.002  0.00  0.00    -0.003 A 
ATOM      4  C5  UNL d   1       1.130   0.903   3.184  0.00  0.00     0.000 A 
ATOM      5  C6  UNL d   1       0.271  -0.113   3.604  0.00  0.00     0.000 A 
ATOM      6  C7  UNL d   1      -0.863  -0.458   2.849  0.00  0.00    -0.073 A 
ATOM      7  C8  UNL d   1      -1.757  -1.558   3.353  0.00  0.00     0.078 C 
ENDROOT
BRANCH   1   8
ATOM      8  C1  UNL d   1      -2.371  -0.026   0.826  0.00  0.00     0.053 C 
ATOM      9  C   UNL d   1      -2.207   0.436  -0.614  0.00  0.00     0.018 C 
ENDBRANCH   1   8
TORSDOF 1
ENDMDL
