MODEL 1
REMARK minimizedAffinity 2.12838769
REMARK minimizedRMSD -1
REMARK  1 active torsions:
REMARK  status: ('A' for Active; 'I' for Inactive)
REMARK    1  A    between atoms: C1_2  and  C2_3 
ROOT
ATOM      1  C2  UNL d   1      -0.956   0.320   1.145  0.00  0.00    -0.076 A 
ATOM      2  C3  UNL d   1      -1.888  -0.688   1.447  0.00  0.00     0.004 A 
ATOM      3  C4  UNL d   1      -2.000  -1.198   2.740  0.00  0.00    -0.003 A 
ATOM      4  C5  UNL d   1      -1.181  -0.707   3.751  0.00  0.00     0.000 A 
ATOM      5  C6  UNL d   1      -0.263   0.305   3.473  0.00  0.00     0.000 A 
ATOM      6  C7  UNL d   1      -0.149   0.841   2.179  0.00  0.00    -0.073 A 
ATOM      7  C8  UNL d   1       0.862   1.927   1.934  0.00  0.00     0.078 C 
ENDROOT
BRANCH   1   8
ATOM      8  C1  UNL d   1      -0.862   0.815  -0.281  0.00  0.00     0.053 C 
ATOM      9  C   UNL d   1      -2.166   0.646  -1.044  0.00  0.00     0.018 C 
ENDBRANCH   1   8
TORSDOF 1
ENDMDL
