MODEL 1
REMARK minimizedAffinity 8.70213699
REMARK minimizedRMSD -1
REMARK  1 active torsions:
REMARK  status: ('A' for Active; 'I' for Inactive)
REMARK    1  A    between atoms: C1_2  and  C2_3 
ROOT
ATOM      1  C2  UNL d   1      -1.035   0.226   1.453  0.00  0.00    -0.076 A 
ATOM      2  C3  UNL d   1      -0.074   1.210   1.159  0.00  0.00     0.004 A 
ATOM      3  C4  UNL d   1       1.015   1.424   2.003  0.00  0.00    -0.003 A 
ATOM      4  C5  UNL d   1       1.161   0.656   3.153  0.00  0.00     0.000 A 
ATOM      5  C6  UNL d   1       0.228  -0.336   3.451  0.00  0.00     0.000 A 
ATOM      6  C7  UNL d   1      -0.867  -0.575   2.603  0.00  0.00    -0.073 A 
ATOM      7  C8  UNL d   1      -1.847  -1.654   2.975  0.00  0.00     0.078 C 
ENDROOT
BRANCH   1   8
ATOM      8  C1  UNL d   1      -2.209   0.058   0.516  0.00  0.00     0.053 C 
ATOM      9  C   UNL d   1      -1.913   0.567  -0.887  0.00  0.00     0.018 C 
ENDBRANCH   1   8
TORSDOF 1
ENDMDL
