MODEL 1
REMARK minimizedAffinity 9.13899517
REMARK minimizedRMSD -1
REMARK  1 active torsions:
REMARK  status: ('A' for Active; 'I' for Inactive)
REMARK    1  A    between atoms: C1_2  and  C2_3 
ROOT
ATOM      1  C2  UNL d   1      -1.368   0.572   1.714  0.00  0.00    -0.076 A 
ATOM      2  C3  UNL d   1      -0.889   0.195   0.447  0.00  0.00     0.004 A 
ATOM      3  C4  UNL d   1      -1.768  -0.083  -0.598  0.00  0.00    -0.003 A 
ATOM      4  C5  UNL d   1      -3.140   0.012  -0.394  0.00  0.00     0.000 A 
ATOM      5  C6  UNL d   1      -3.632   0.401   0.851  0.00  0.00     0.000 A 
ATOM      6  C7  UNL d   1      -2.760   0.701   1.911  0.00  0.00    -0.073 A 
ATOM      7  C8  UNL d   1      -3.345   1.110   3.235  0.00  0.00     0.078 C 
ENDROOT
BRANCH   1   8
ATOM      8  C1  UNL d   1      -0.368   0.835   2.818  0.00  0.00     0.053 C 
ATOM      9  C   UNL d   1       0.284  -0.441   3.329  0.00  0.00     0.018 C 
ENDBRANCH   1   8
TORSDOF 1
ENDMDL
