MODEL 1
REMARK minimizedAffinity 0.941152215
REMARK minimizedRMSD -1
REMARK  1 active torsions:
REMARK  status: ('A' for Active; 'I' for Inactive)
REMARK    1  A    between atoms: C1_2  and  C2_3 
ROOT
ATOM      1  C2  UNL d   1       2.719   3.524  -2.350  0.00  0.00    -0.076 A 
ATOM      2  C3  UNL d   1       2.348   4.610  -3.162  0.00  0.00     0.004 A 
ATOM      3  C4  UNL d   1       3.159   5.029  -4.215  0.00  0.00    -0.003 A 
ATOM      4  C5  UNL d   1       4.356   4.369  -4.473  0.00  0.00     0.000 A 
ATOM      5  C6  UNL d   1       4.731   3.279  -3.689  0.00  0.00     0.000 A 
ATOM      6  C7  UNL d   1       3.916   2.833  -2.634  0.00  0.00    -0.073 A 
ATOM      7  C8  UNL d   1       4.373   1.656  -1.817  0.00  0.00     0.078 C 
ENDROOT
BRANCH   1   8
ATOM      8  C1  UNL d   1       1.811   3.131  -1.207  0.00  0.00     0.053 C 
ATOM      9  C   UNL d   1       2.405   3.473   0.152  0.00  0.00     0.018 C 
ENDBRANCH   1   8
TORSDOF 1
ENDMDL
