MODEL 1
REMARK minimizedAffinity 4.19526339
REMARK minimizedRMSD -1
REMARK  1 active torsions:
REMARK  status: ('A' for Active; 'I' for Inactive)
REMARK    1  A    between atoms: C1_2  and  C2_3 
ROOT
ATOM      1  C2  UNL d   1      -1.611   0.145   2.769  0.00  0.00    -0.076 A 
ATOM      2  C3  UNL d   1      -1.944   1.509   2.691  0.00  0.00     0.004 A 
ATOM      3  C4  UNL d   1      -1.449   2.422   3.620  0.00  0.00    -0.003 A 
ATOM      4  C5  UNL d   1      -0.611   1.987   4.641  0.00  0.00     0.000 A 
ATOM      5  C6  UNL d   1      -0.256   0.641   4.723  0.00  0.00     0.000 A 
ATOM      6  C7  UNL d   1      -0.733  -0.290   3.785  0.00  0.00    -0.073 A 
ATOM      7  C8  UNL d   1      -0.323  -1.730   3.924  0.00  0.00     0.078 C 
ENDROOT
BRANCH   1   8
ATOM      8  C1  UNL d   1      -2.200  -0.803   1.749  0.00  0.00     0.053 C 
ATOM      9  C   UNL d   1      -2.188  -0.227   0.342  0.00  0.00     0.018 C 
ENDBRANCH   1   8
TORSDOF 1
ENDMDL
