MODEL 1
REMARK minimizedAffinity 17.8200035
REMARK minimizedRMSD -1
REMARK  1 active torsions:
REMARK  status: ('A' for Active; 'I' for Inactive)
REMARK    1  A    between atoms: C1_2  and  C2_3 
ROOT
ATOM      1  C2  UNL d   1       2.691   3.121  -5.356  0.00  0.00    -0.076 A 
ATOM      2  C3  UNL d   1       1.326   3.444  -5.449  0.00  0.00     0.004 A 
ATOM      3  C4  UNL d   1       0.821   4.599  -4.853  0.00  0.00    -0.003 A 
ATOM      4  C5  UNL d   1       1.672   5.448  -4.155  0.00  0.00     0.000 A 
ATOM      5  C6  UNL d   1       3.032   5.152  -4.068  0.00  0.00     0.000 A 
ATOM      6  C7  UNL d   1       3.561   4.000  -4.677  0.00  0.00    -0.073 A 
ATOM      7  C8  UNL d   1       5.034   3.726  -4.546  0.00  0.00     0.078 C 
ENDROOT
BRANCH   1   8
ATOM      8  C1  UNL d   1       3.177   1.841  -5.999  0.00  0.00     0.053 C 
ATOM      9  C   UNL d   1       2.118   0.750  -6.000  0.00  0.00     0.018 C 
ENDBRANCH   1   8
TORSDOF 1
ENDMDL
