MODEL 1
REMARK minimizedAffinity 5.53122044
REMARK minimizedRMSD -1
REMARK  1 active torsions:
REMARK  status: ('A' for Active; 'I' for Inactive)
REMARK    1  A    between atoms: C1_2  and  C2_3 
ROOT
ATOM      1  C2  UNL d   1      -1.918  -0.572   1.141  0.00  0.00    -0.076 A 
ATOM      2  C3  UNL d   1      -0.808  -1.177   0.527  0.00  0.00     0.004 A 
ATOM      3  C4  UNL d   1      -0.804  -1.449  -0.840  0.00  0.00    -0.003 A 
ATOM      4  C5  UNL d   1      -1.911  -1.120  -1.615  0.00  0.00     0.000 A 
ATOM      5  C6  UNL d   1      -3.014  -0.504  -1.026  0.00  0.00     0.000 A 
ATOM      6  C7  UNL d   1      -3.028  -0.208   0.348  0.00  0.00    -0.073 A 
ATOM      7  C8  UNL d   1      -4.246   0.452   0.933  0.00  0.00     0.078 C 
ENDROOT
BRANCH   1   8
ATOM      8  C1  UNL d   1      -1.876  -0.326   2.633  0.00  0.00     0.053 C 
ATOM      9  C   UNL d   1      -0.457  -0.292   3.178  0.00  0.00     0.018 C 
ENDBRANCH   1   8
TORSDOF 1
ENDMDL
