MODEL 1
REMARK minimizedAffinity 3.48276329
REMARK minimizedRMSD -1
REMARK  1 active torsions:
REMARK  status: ('A' for Active; 'I' for Inactive)
REMARK    1  A    between atoms: C1_2  and  C2_3 
ROOT
ATOM      1  C2  UNL d   1      -1.094  -0.859   1.482  0.00  0.00    -0.076 A 
ATOM      2  C3  UNL d   1       0.065  -1.161   2.218  0.00  0.00     0.004 A 
ATOM      3  C4  UNL d   1       0.059  -1.131   3.612  0.00  0.00    -0.003 A 
ATOM      4  C5  UNL d   1      -1.108  -0.799   4.292  0.00  0.00     0.000 A 
ATOM      5  C6  UNL d   1      -2.271  -0.514   3.579  0.00  0.00     0.000 A 
ATOM      6  C7  UNL d   1      -2.286  -0.556   2.174  0.00  0.00    -0.073 A 
ATOM      7  C8  UNL d   1      -3.567  -0.233   1.455  0.00  0.00     0.078 C 
ENDROOT
BRANCH   1   8
ATOM      8  C1  UNL d   1      -1.019  -0.881  -0.028  0.00  0.00     0.053 C 
ATOM      9  C   UNL d   1      -0.739   0.492  -0.617  0.00  0.00     0.018 C 
ENDBRANCH   1   8
TORSDOF 1
ENDMDL
