MODEL 1
REMARK minimizedAffinity 9.60574341
REMARK minimizedRMSD -1
REMARK  1 active torsions:
REMARK  status: ('A' for Active; 'I' for Inactive)
REMARK    1  A    between atoms: C1_2  and  C2_3 
ROOT
ATOM      1  C2  UNL d   1      -0.598  -1.472   2.945  0.00  0.00    -0.076 A 
ATOM      2  C3  UNL d   1      -1.856  -1.614   2.335  0.00  0.00     0.004 A 
ATOM      3  C4  UNL d   1      -2.542  -0.507   1.839  0.00  0.00    -0.003 A 
ATOM      4  C5  UNL d   1      -1.979   0.761   1.943  0.00  0.00     0.000 A 
ATOM      5  C6  UNL d   1      -0.724   0.918   2.528  0.00  0.00     0.000 A 
ATOM      6  C7  UNL d   1      -0.012  -0.190   3.020  0.00  0.00    -0.073 A 
ATOM      7  C8  UNL d   1       1.336   0.038   3.647  0.00  0.00     0.078 C 
ENDROOT
BRANCH   1   8
ATOM      8  C1  UNL d   1       0.086  -2.706   3.490  0.00  0.00     0.053 C 
ATOM      9  C   UNL d   1       0.357  -3.745   2.413  0.00  0.00     0.018 C 
ENDBRANCH   1   8
TORSDOF 1
ENDMDL
