MODEL 1
REMARK minimizedAffinity 7.74433327
REMARK minimizedRMSD -1
REMARK  1 active torsions:
REMARK  status: ('A' for Active; 'I' for Inactive)
REMARK    1  A    between atoms: C1_2  and  C2_3 
ROOT
ATOM      1  C2  UNL d   1       0.337   0.224   0.950  0.00  0.00    -0.076 A 
ATOM      2  C3  UNL d   1      -0.654   0.359  -0.038  0.00  0.00     0.004 A 
ATOM      3  C4  UNL d   1      -1.934   0.805   0.286  0.00  0.00    -0.003 A 
ATOM      4  C5  UNL d   1      -2.244   1.124   1.603  0.00  0.00     0.000 A 
ATOM      5  C6  UNL d   1      -1.268   1.013   2.594  0.00  0.00     0.000 A 
ATOM      6  C7  UNL d   1       0.032   0.580   2.281  0.00  0.00    -0.073 A 
ATOM      7  C8  UNL d   1       1.043   0.473   3.389  0.00  0.00     0.078 C 
ENDROOT
BRANCH   1   8
ATOM      8  C1  UNL d   1       1.699  -0.291   0.543  0.00  0.00     0.053 C 
ATOM      9  C   UNL d   1       1.636  -1.674  -0.086  0.00  0.00     0.018 C 
ENDBRANCH   1   8
TORSDOF 1
ENDMDL
