MODEL 1
REMARK minimizedAffinity 10.777832
REMARK minimizedRMSD -1
REMARK  1 active torsions:
REMARK  status: ('A' for Active; 'I' for Inactive)
REMARK    1  A    between atoms: C1_2  and  C2_3 
ROOT
ATOM      1  C2  UNL d   1       0.419   1.971   1.895  0.00  0.00    -0.076 A 
ATOM      2  C3  UNL d   1       0.721   2.108   0.529  0.00  0.00     0.004 A 
ATOM      3  C4  UNL d   1       2.017   2.396   0.106  0.00  0.00    -0.003 A 
ATOM      4  C5  UNL d   1       3.033   2.550   1.043  0.00  0.00     0.000 A 
ATOM      5  C6  UNL d   1       2.755   2.400   2.401  0.00  0.00     0.000 A 
ATOM      6  C7  UNL d   1       1.457   2.094   2.843  0.00  0.00    -0.073 A 
ATOM      7  C8  UNL d   1       1.212   1.949   4.320  0.00  0.00     0.078 C 
ENDROOT
BRANCH   1   8
ATOM      8  C1  UNL d   1      -1.011   1.686   2.295  0.00  0.00     0.053 C 
ATOM      9  C   UNL d   1      -1.426   0.254   1.994  0.00  0.00     0.018 C 
ENDBRANCH   1   8
TORSDOF 1
ENDMDL
