MODEL 1
REMARK minimizedAffinity -1.80154705
REMARK minimizedRMSD -1
REMARK  1 active torsions:
REMARK  status: ('A' for Active; 'I' for Inactive)
REMARK    1  A    between atoms: C1_2  and  C2_3 
ROOT
ATOM      1  C2  UNL d   1       0.004   2.175   0.038  0.00  0.00    -0.073 A 
ATOM      2  C3  UNL d   1       0.891   2.846   0.887  0.00  0.00    -0.002 A 
ATOM      3  C4  UNL d   1       1.157   2.348   2.164  0.00  0.00     0.004 A 
ATOM      4  C5  UNL d   1       0.545   1.173   2.601  0.00  0.00    -0.004 A 
ATOM      5  C6  UNL d   1      -0.336   0.483   1.762  0.00  0.00    -0.075 A 
ATOM      6  C7  UNL d   1      -1.004  -0.781   2.218  0.00  0.00     0.076 C 
ATOM      7  C8  UNL d   1      -0.600   0.990   0.483  0.00  0.00     0.001 A 
ENDROOT
BRANCH   1   8
ATOM      8  C1  UNL d   1      -0.281   2.705  -1.344  0.00  0.00     0.053 C 
ATOM      9  C   UNL d   1      -0.964   4.063  -1.304  0.00  0.00     0.018 C 
ENDBRANCH   1   8
TORSDOF 1
ENDMDL
