MODEL 1
REMARK minimizedAffinity -4.3431201
REMARK minimizedRMSD -1
REMARK  1 active torsions:
REMARK  status: ('A' for Active; 'I' for Inactive)
REMARK    1  A    between atoms: C1_2  and  C2_3 
ROOT
ATOM      1  C2  UNL d   1       0.190   0.171  -0.307  0.00  0.00    -0.073 A 
ATOM      2  C3  UNL d   1       0.915  -0.997  -0.043  0.00  0.00    -0.002 A 
ATOM      3  C4  UNL d   1       0.486  -2.224  -0.551  0.00  0.00     0.004 A 
ATOM      4  C5  UNL d   1      -0.667  -2.294  -1.334  0.00  0.00    -0.004 A 
ATOM      5  C6  UNL d   1      -1.398  -1.137  -1.618  0.00  0.00    -0.075 A 
ATOM      6  C7  UNL d   1      -2.641  -1.196  -2.456  0.00  0.00     0.076 C 
ATOM      7  C8  UNL d   1      -0.962   0.091  -1.102  0.00  0.00     0.001 A 
ENDROOT
BRANCH   1   8
ATOM      8  C1  UNL d   1       0.654   1.498   0.235  0.00  0.00     0.053 C 
ATOM      9  C   UNL d   1       0.837   1.466   1.744  0.00  0.00     0.018 C 
ENDBRANCH   1   8
TORSDOF 1
ENDMDL
