MODEL 1
REMARK minimizedAffinity -5.15564632
REMARK minimizedRMSD -1
REMARK  1 active torsions:
REMARK  status: ('A' for Active; 'I' for Inactive)
REMARK    1  A    between atoms: C1_2  and  C2_3 
ROOT
ATOM      1  C2  UNL d   1      -0.138  -0.676  -0.073  0.00  0.00    -0.073 A 
ATOM      2  C3  UNL d   1      -1.304  -0.696   0.702  0.00  0.00    -0.002 A 
ATOM      3  C4  UNL d   1      -1.582   0.350   1.583  0.00  0.00     0.004 A 
ATOM      4  C5  UNL d   1      -0.703   1.427   1.694  0.00  0.00    -0.004 A 
ATOM      5  C6  UNL d   1       0.461   1.470   0.920  0.00  0.00    -0.075 A 
ATOM      6  C7  UNL d   1       1.418   2.621   1.029  0.00  0.00     0.076 C 
ATOM      7  C8  UNL d   1       0.735   0.415   0.039  0.00  0.00     0.001 A 
ENDROOT
BRANCH   1   8
ATOM      8  C1  UNL d   1       0.163  -1.800  -1.030  0.00  0.00     0.053 C 
ATOM      9  C   UNL d   1      -1.099  -2.362  -1.665  0.00  0.00     0.018 C 
ENDBRANCH   1   8
TORSDOF 1
ENDMDL
