MODEL 1
REMARK minimizedAffinity -3.00106001
REMARK minimizedRMSD -1
REMARK  1 active torsions:
REMARK  status: ('A' for Active; 'I' for Inactive)
REMARK    1  A    between atoms: C1_2  and  C2_3 
ROOT
ATOM      1  C2  UNL d   1       1.296   1.127  -0.133  0.00  0.00    -0.073 A 
ATOM      2  C3  UNL d   1       2.343   0.210   0.012  0.00  0.00    -0.002 A 
ATOM      3  C4  UNL d   1       2.100  -1.160  -0.101  0.00  0.00     0.004 A 
ATOM      4  C5  UNL d   1       0.813  -1.625  -0.368  0.00  0.00    -0.004 A 
ATOM      5  C6  UNL d   1      -0.244  -0.723  -0.528  0.00  0.00    -0.075 A 
ATOM      6  C7  UNL d   1      -1.635  -1.208  -0.813  0.00  0.00     0.076 C 
ATOM      7  C8  UNL d   1       0.007   0.650  -0.410  0.00  0.00     0.001 A 
ENDROOT
BRANCH   1   8
ATOM      8  C1  UNL d   1       1.554   2.607  -0.018  0.00  0.00     0.053 C 
ATOM      9  C   UNL d   1       1.942   3.010   1.396  0.00  0.00     0.018 C 
ENDBRANCH   1   8
TORSDOF 1
ENDMDL
