MODEL 1
REMARK minimizedAffinity -3.88534975
REMARK minimizedRMSD -1
REMARK  1 active torsions:
REMARK  status: ('A' for Active; 'I' for Inactive)
REMARK    1  A    between atoms: C1_2  and  C2_3 
ROOT
ATOM      1  C2  UNL d   1       1.956   1.670   0.834  0.00  0.00    -0.073 A 
ATOM      2  C3  UNL d   1       0.823   2.171   1.484  0.00  0.00    -0.002 A 
ATOM      3  C4  UNL d   1       0.690   2.045   2.867  0.00  0.00     0.004 A 
ATOM      4  C5  UNL d   1       1.691   1.425   3.615  0.00  0.00    -0.004 A 
ATOM      5  C6  UNL d   1       2.837   0.928   2.985  0.00  0.00    -0.075 A 
ATOM      6  C7  UNL d   1       3.921   0.256   3.774  0.00  0.00     0.076 C 
ATOM      7  C8  UNL d   1       2.961   1.056   1.595  0.00  0.00     0.001 A 
ENDROOT
BRANCH   1   8
ATOM      8  C1  UNL d   1       2.107   1.810  -0.659  0.00  0.00     0.053 C 
ATOM      9  C   UNL d   1       1.894   0.488  -1.380  0.00  0.00     0.018 C 
ENDBRANCH   1   8
TORSDOF 1
ENDMDL
