MODEL 1
REMARK minimizedAffinity -4.98704052
REMARK minimizedRMSD -1
REMARK  1 active torsions:
REMARK  status: ('A' for Active; 'I' for Inactive)
REMARK    1  A    between atoms: C1_2  and  C2_3 
ROOT
ATOM      1  C2  UNL d   1      -0.223  -0.244  -0.521  0.00  0.00    -0.073 A 
ATOM      2  C3  UNL d   1       0.926   0.028  -1.272  0.00  0.00    -0.002 A 
ATOM      3  C4  UNL d   1       1.821   1.015  -0.858  0.00  0.00     0.004 A 
ATOM      4  C5  UNL d   1       1.580   1.735   0.312  0.00  0.00    -0.004 A 
ATOM      5  C6  UNL d   1       0.443   1.470   1.082  0.00  0.00    -0.075 A 
ATOM      6  C7  UNL d   1       0.169   2.238   2.342  0.00  0.00     0.076 C 
ATOM      7  C8  UNL d   1      -0.452   0.479   0.658  0.00  0.00     0.001 A 
ENDROOT
BRANCH   1   8
ATOM      8  C1  UNL d   1      -1.189  -1.314  -0.960  0.00  0.00     0.053 C 
ATOM      9  C   UNL d   1      -1.891  -0.949  -2.259  0.00  0.00     0.018 C 
ENDBRANCH   1   8
TORSDOF 1
ENDMDL
