MODEL 1
REMARK minimizedAffinity -0.161838725
REMARK minimizedRMSD -1
REMARK  1 active torsions:
REMARK  status: ('A' for Active; 'I' for Inactive)
REMARK    1  A    between atoms: C1_2  and  C2_3 
ROOT
ATOM      1  C2  UNL d   1      -0.016   1.157   1.386  0.00  0.00    -0.073 A 
ATOM      2  C3  UNL d   1       0.564   2.420   1.218  0.00  0.00    -0.002 A 
ATOM      3  C4  UNL d   1       1.648   2.588   0.354  0.00  0.00     0.004 A 
ATOM      4  C5  UNL d   1       2.156   1.499  -0.354  0.00  0.00    -0.004 A 
ATOM      5  C6  UNL d   1       1.582   0.232  -0.208  0.00  0.00    -0.075 A 
ATOM      6  C7  UNL d   1       2.119  -0.949  -0.961  0.00  0.00     0.076 C 
ATOM      7  C8  UNL d   1       0.496   0.071   0.663  0.00  0.00     0.001 A 
ENDROOT
BRANCH   1   8
ATOM      8  C1  UNL d   1      -1.190   0.972   2.313  0.00  0.00     0.053 C 
ATOM      9  C   UNL d   1      -1.472  -0.496   2.590  0.00  0.00     0.018 C 
ENDBRANCH   1   8
TORSDOF 1
ENDMDL
