MODEL 1
REMARK minimizedAffinity -0.213786572
REMARK minimizedRMSD -1
REMARK  1 active torsions:
REMARK  status: ('A' for Active; 'I' for Inactive)
REMARK    1  A    between atoms: C1_2  and  C2_3 
ROOT
ATOM      1  C2  UNL d   1      -0.236  -0.712  -0.512  0.00  0.00    -0.073 A 
ATOM      2  C3  UNL d   1       0.906  -1.509  -0.653  0.00  0.00    -0.002 A 
ATOM      3  C4  UNL d   1       2.176  -0.932  -0.627  0.00  0.00     0.004 A 
ATOM      4  C5  UNL d   1       2.318   0.445  -0.453  0.00  0.00    -0.004 A 
ATOM      5  C6  UNL d   1       1.189   1.256  -0.298  0.00  0.00    -0.075 A 
ATOM      6  C7  UNL d   1       1.325   2.739  -0.112  0.00  0.00     0.076 C 
ATOM      7  C8  UNL d   1      -0.083   0.669  -0.328  0.00  0.00     0.001 A 
ENDROOT
BRANCH   1   8
ATOM      8  C1  UNL d   1      -1.609  -1.332  -0.533  0.00  0.00     0.053 C 
ATOM      9  C   UNL d   1      -2.234  -1.288  -1.918  0.00  0.00     0.018 C 
ENDBRANCH   1   8
TORSDOF 1
ENDMDL
