MODEL 1
REMARK minimizedAffinity -2.95494509
REMARK minimizedRMSD -1
REMARK  1 active torsions:
REMARK  status: ('A' for Active; 'I' for Inactive)
REMARK    1  A    between atoms: C1_2  and  C2_3 
ROOT
ATOM      1  C2  UNL d   1      -0.576   0.595   0.067  0.00  0.00    -0.073 A 
ATOM      2  C3  UNL d   1      -0.155  -0.616   0.630  0.00  0.00    -0.002 A 
ATOM      3  C4  UNL d   1      -0.339  -1.815  -0.059  0.00  0.00     0.004 A 
ATOM      4  C5  UNL d   1      -0.938  -1.817  -1.319  0.00  0.00    -0.004 A 
ATOM      5  C6  UNL d   1      -1.354  -0.616  -1.903  0.00  0.00    -0.075 A 
ATOM      6  C7  UNL d   1      -2.002  -0.601  -3.256  0.00  0.00     0.076 C 
ATOM      7  C8  UNL d   1      -1.169   0.584  -1.204  0.00  0.00     0.001 A 
ENDROOT
BRANCH   1   8
ATOM      8  C1  UNL d   1      -0.374   1.893   0.805  0.00  0.00     0.053 C 
ATOM      9  C   UNL d   1       0.677   1.771   1.896  0.00  0.00     0.018 C 
ENDBRANCH   1   8
TORSDOF 1
ENDMDL
