MODEL 1
REMARK minimizedAffinity -5.15157604
REMARK minimizedRMSD -1
REMARK  1 active torsions:
REMARK  status: ('A' for Active; 'I' for Inactive)
REMARK    1  A    between atoms: C1_2  and  C2_3 
ROOT
ATOM      1  C2  UNL d   1       0.647   0.542   0.199  0.00  0.00    -0.073 A 
ATOM      2  C3  UNL d   1       0.876  -0.551  -0.644  0.00  0.00    -0.002 A 
ATOM      3  C4  UNL d   1       0.134  -1.723  -0.497  0.00  0.00     0.004 A 
ATOM      4  C5  UNL d   1      -0.848  -1.813   0.489  0.00  0.00    -0.004 A 
ATOM      5  C6  UNL d   1      -1.100  -0.727   1.335  0.00  0.00    -0.075 A 
ATOM      6  C7  UNL d   1      -2.152  -0.808   2.402  0.00  0.00     0.076 C 
ATOM      7  C8  UNL d   1      -0.349   0.446   1.182  0.00  0.00     0.001 A 
ENDROOT
BRANCH   1   8
ATOM      8  C1  UNL d   1       1.442   1.812   0.040  0.00  0.00     0.053 C 
ATOM      9  C   UNL d   1       1.141   2.815   1.142  0.00  0.00     0.018 C 
ENDBRANCH   1   8
TORSDOF 1
ENDMDL
