MODEL 1
REMARK minimizedAffinity -3.49097538
REMARK minimizedRMSD -1
REMARK  1 active torsions:
REMARK  status: ('A' for Active; 'I' for Inactive)
REMARK    1  A    between atoms: C1_2  and  C2_3 
ROOT
ATOM      1  C2  UNL d   1       0.605  -0.425   0.324  0.00  0.00    -0.073 A 
ATOM      2  C3  UNL d   1       1.713  -0.766  -0.460  0.00  0.00    -0.002 A 
ATOM      3  C4  UNL d   1       2.632   0.212  -0.844  0.00  0.00     0.004 A 
ATOM      4  C5  UNL d   1       2.456   1.537  -0.443  0.00  0.00    -0.004 A 
ATOM      5  C6  UNL d   1       1.361   1.894   0.350  0.00  0.00    -0.075 A 
ATOM      6  C7  UNL d   1       1.156   3.315   0.787  0.00  0.00     0.076 C 
ATOM      7  C8  UNL d   1       0.441   0.907   0.729  0.00  0.00     0.001 A 
ENDROOT
BRANCH   1   8
ATOM      8  C1  UNL d   1      -0.387  -1.479   0.746  0.00  0.00     0.053 C 
ATOM      9  C   UNL d   1      -0.720  -1.386   2.227  0.00  0.00     0.018 C 
ENDBRANCH   1   8
TORSDOF 1
ENDMDL
