MODEL 1
REMARK minimizedAffinity -5.10852623
REMARK minimizedRMSD -1
REMARK  1 active torsions:
REMARK  status: ('A' for Active; 'I' for Inactive)
REMARK    1  A    between atoms: C1_2  and  C2_3 
ROOT
ATOM      1  C2  UNL d   1       0.403   1.320   0.418  0.00  0.00    -0.073 A 
ATOM      2  C3  UNL d   1      -0.806   1.190   1.111  0.00  0.00    -0.002 A 
ATOM      3  C4  UNL d   1      -1.428  -0.054   1.215  0.00  0.00     0.004 A 
ATOM      4  C5  UNL d   1      -0.845  -1.181   0.635  0.00  0.00    -0.004 A 
ATOM      5  C6  UNL d   1       0.369  -1.074  -0.050  0.00  0.00    -0.075 A 
ATOM      6  C7  UNL d   1       1.007  -2.276  -0.681  0.00  0.00     0.076 C 
ATOM      7  C8  UNL d   1       0.986   0.180  -0.153  0.00  0.00     0.001 A 
ENDROOT
BRANCH   1   8
ATOM      8  C1  UNL d   1       1.082   2.661   0.308  0.00  0.00     0.053 C 
ATOM      9  C   UNL d   1       1.215   3.345   1.659  0.00  0.00     0.018 C 
ENDBRANCH   1   8
TORSDOF 1
ENDMDL
