MODEL 1
REMARK minimizedAffinity -3.33817792
REMARK minimizedRMSD -1
REMARK  1 active torsions:
REMARK  status: ('A' for Active; 'I' for Inactive)
REMARK    1  A    between atoms: C1_2  and  C2_3 
ROOT
ATOM      1  C2  UNL d   1       0.103   1.187   1.351  0.00  0.00    -0.073 A 
ATOM      2  C3  UNL d   1       0.452   2.476   0.933  0.00  0.00    -0.002 A 
ATOM      3  C4  UNL d   1       1.544   2.670   0.086  0.00  0.00     0.004 A 
ATOM      4  C5  UNL d   1       2.292   1.579  -0.356  0.00  0.00    -0.004 A 
ATOM      5  C6  UNL d   1       1.951   0.282   0.041  0.00  0.00    -0.075 A 
ATOM      6  C7  UNL d   1       2.747  -0.902  -0.424  0.00  0.00     0.076 C 
ATOM      7  C8  UNL d   1       0.855   0.096   0.894  0.00  0.00     0.001 A 
ENDROOT
BRANCH   1   8
ATOM      8  C1  UNL d   1      -1.080   0.972   2.261  0.00  0.00     0.053 C 
ATOM      9  C   UNL d   1      -1.554  -0.472   2.247  0.00  0.00     0.018 C 
ENDBRANCH   1   8
TORSDOF 1
ENDMDL
