MODEL 1
REMARK minimizedAffinity -5.55430794
REMARK minimizedRMSD -1
REMARK  0 active torsions:
REMARK  status: ('A' for Active; 'I' for Inactive)
ROOT
ATOM      1  C   UNL d   1      -0.817  -1.131  -0.968  0.00  0.00     0.077 C 
ATOM      2  C1  UNL d   1      -0.104  -0.185  -0.047  0.00  0.00    -0.074 A 
ATOM      3  C2  UNL d   1      -0.818   0.655   0.813  0.00  0.00    -0.005 A 
ATOM      4  C3  UNL d   1      -0.141   1.522   1.671  0.00  0.00     0.006 A 
ATOM      5  C4  UNL d   1       1.254   1.558   1.677  0.00  0.00    -0.005 A 
ATOM      6  C5  UNL d   1       1.985   0.724   0.824  0.00  0.00    -0.074 A 
ATOM      7  C6  UNL d   1       3.484   0.743   0.825  0.00  0.00     0.077 C 
ATOM      8  C7  UNL d   1       1.297  -0.149  -0.029  0.00  0.00    -0.001 A 
ENDROOT
TORSDOF 0
ENDMDL
