MODEL 1
REMARK minimizedAffinity -3.28112006
REMARK minimizedRMSD -1
REMARK  0 active torsions:
REMARK  status: ('A' for Active; 'I' for Inactive)
ROOT
ATOM      1  C   UNL d   1       3.685   0.928   0.686  0.00  0.00     0.077 C 
ATOM      2  C1  UNL d   1       2.189   0.903   0.782  0.00  0.00    -0.074 A 
ATOM      3  C2  UNL d   1       1.506   1.808   1.601  0.00  0.00    -0.005 A 
ATOM      4  C3  UNL d   1       0.113   1.778   1.674  0.00  0.00     0.006 A 
ATOM      5  C4  UNL d   1      -0.609   0.845   0.929  0.00  0.00    -0.005 A 
ATOM      6  C5  UNL d   1       0.056  -0.067   0.104  0.00  0.00    -0.074 A 
ATOM      7  C6  UNL d   1      -0.706  -1.070  -0.711  0.00  0.00     0.077 C 
ATOM      8  C7  UNL d   1       1.455  -0.026   0.031  0.00  0.00    -0.001 A 
ENDROOT
TORSDOF 0
ENDMDL
