MODEL 1
REMARK minimizedAffinity -3.35053921
REMARK minimizedRMSD -1
REMARK  0 active torsions:
REMARK  status: ('A' for Active; 'I' for Inactive)
ROOT
ATOM      1  C   UNL d   1       3.087   0.383  -0.007  0.00  0.00     0.077 C 
ATOM      2  C1  UNL d   1       1.620   0.320   0.297  0.00  0.00    -0.074 A 
ATOM      3  C2  UNL d   1       1.053   1.141   1.276  0.00  0.00    -0.005 A 
ATOM      4  C3  UNL d   1      -0.315   1.078   1.541  0.00  0.00     0.006 A 
ATOM      5  C4  UNL d   1      -1.129   0.195   0.830  0.00  0.00    -0.005 A 
ATOM      6  C5  UNL d   1      -0.580  -0.633  -0.154  0.00  0.00    -0.074 A 
ATOM      7  C6  UNL d   1      -1.442  -1.581  -0.934  0.00  0.00     0.077 C 
ATOM      8  C7  UNL d   1       0.795  -0.559  -0.419  0.00  0.00    -0.001 A 
ENDROOT
TORSDOF 0
ENDMDL
