MODEL 1
REMARK minimizedAffinity -2.86859488
REMARK minimizedRMSD -1
REMARK  0 active torsions:
REMARK  status: ('A' for Active; 'I' for Inactive)
ROOT
ATOM      1  C   UNL d   1      -3.251  -2.857  -0.463  0.00  0.00     0.077 C 
ATOM      2  C1  UNL d   1      -2.147  -2.058  -1.090  0.00  0.00    -0.074 A 
ATOM      3  C2  UNL d   1      -2.089  -1.878  -2.476  0.00  0.00    -0.005 A 
ATOM      4  C3  UNL d   1      -1.062  -1.124  -3.044  0.00  0.00     0.006 A 
ATOM      5  C4  UNL d   1      -0.084  -0.544  -2.234  0.00  0.00    -0.005 A 
ATOM      6  C5  UNL d   1      -0.127  -0.713  -0.846  0.00  0.00    -0.074 A 
ATOM      7  C6  UNL d   1       0.909  -0.089   0.040  0.00  0.00     0.077 C 
ATOM      8  C7  UNL d   1      -1.166  -1.466  -0.282  0.00  0.00    -0.001 A 
ENDROOT
TORSDOF 0
ENDMDL
