MODEL 1
REMARK minimizedAffinity 0.572421074
REMARK minimizedRMSD -1
REMARK  0 active torsions:
REMARK  status: ('A' for Active; 'I' for Inactive)
ROOT
ATOM      1  C   UNL d   1      -0.890   0.042  -3.206  0.00  0.00     0.077 C 
ATOM      2  C1  UNL d   1      -0.159   0.098  -1.897  0.00  0.00    -0.074 A 
ATOM      3  C2  UNL d   1       1.196  -0.241  -1.816  0.00  0.00    -0.005 A 
ATOM      4  C3  UNL d   1       1.865  -0.174  -0.594  0.00  0.00     0.006 A 
ATOM      5  C4  UNL d   1       1.188   0.232   0.557  0.00  0.00    -0.005 A 
ATOM      6  C5  UNL d   1      -0.166   0.576   0.494  0.00  0.00    -0.074 A 
ATOM      7  C6  UNL d   1      -0.906   1.023   1.720  0.00  0.00     0.077 C 
ATOM      8  C7  UNL d   1      -0.830   0.513  -0.738  0.00  0.00    -0.001 A 
ENDROOT
TORSDOF 0
ENDMDL
