MODEL 1
REMARK minimizedAffinity -3.67005324
REMARK minimizedRMSD -1
REMARK  0 active torsions:
REMARK  status: ('A' for Active; 'I' for Inactive)
ROOT
ATOM      1  C   UNL d   1       0.950  -1.821  -0.789  0.00  0.00     0.077 C 
ATOM      2  C1  UNL d   1      -0.236  -1.789  -1.706  0.00  0.00    -0.074 A 
ATOM      3  C2  UNL d   1      -0.095  -1.437  -3.053  0.00  0.00    -0.005 A 
ATOM      4  C3  UNL d   1      -1.206  -1.421  -3.896  0.00  0.00     0.006 A 
ATOM      5  C4  UNL d   1      -2.467  -1.757  -3.402  0.00  0.00    -0.005 A 
ATOM      6  C5  UNL d   1      -2.628  -2.113  -2.059  0.00  0.00    -0.074 A 
ATOM      7  C6  UNL d   1      -3.974  -2.486  -1.515  0.00  0.00     0.077 C 
ATOM      8  C7  UNL d   1      -1.505  -2.133  -1.220  0.00  0.00    -0.001 A 
ENDROOT
TORSDOF 0
ENDMDL
