MODEL 1
REMARK minimizedAffinity -0.783816695
REMARK minimizedRMSD -1
REMARK  0 active torsions:
REMARK  status: ('A' for Active; 'I' for Inactive)
ROOT
ATOM      1  C   UNL d   1      -1.252   1.331   0.762  0.00  0.00     0.077 C 
ATOM      2  C1  UNL d   1      -0.957   0.081  -0.012  0.00  0.00    -0.074 A 
ATOM      3  C2  UNL d   1       0.129  -0.733   0.324  0.00  0.00    -0.005 A 
ATOM      4  C3  UNL d   1       0.386  -1.898  -0.400  0.00  0.00     0.006 A 
ATOM      5  C4  UNL d   1      -0.440  -2.260  -1.465  0.00  0.00    -0.005 A 
ATOM      6  C5  UNL d   1      -1.532  -1.458  -1.815  0.00  0.00    -0.074 A 
ATOM      7  C6  UNL d   1      -2.435  -1.838  -2.950  0.00  0.00     0.077 C 
ATOM      8  C7  UNL d   1      -1.787  -0.293  -1.078  0.00  0.00    -0.001 A 
ENDROOT
TORSDOF 0
ENDMDL
