MODEL 1
REMARK minimizedAffinity -2.64869547
REMARK minimizedRMSD -1
REMARK  0 active torsions:
REMARK  status: ('A' for Active; 'I' for Inactive)
ROOT
ATOM      1  C   UNL d   1      -1.088  -0.408  -0.816  0.00  0.00     0.077 C 
ATOM      2  C1  UNL d   1      -0.394   0.434   0.213  0.00  0.00    -0.074 A 
ATOM      3  C2  UNL d   1      -1.125   1.196   1.130  0.00  0.00    -0.005 A 
ATOM      4  C3  UNL d   1      -0.467   1.966   2.088  0.00  0.00     0.006 A 
ATOM      5  C4  UNL d   1       0.928   1.982   2.139  0.00  0.00    -0.005 A 
ATOM      6  C5  UNL d   1       1.676   1.226   1.231  0.00  0.00    -0.074 A 
ATOM      7  C6  UNL d   1       3.175   1.224   1.279  0.00  0.00     0.077 C 
ATOM      8  C7  UNL d   1       1.006   0.449   0.276  0.00  0.00    -0.001 A 
ENDROOT
TORSDOF 0
ENDMDL
