MODEL 1
REMARK minimizedAffinity -2.47035432
REMARK minimizedRMSD -1
REMARK  0 active torsions:
REMARK  status: ('A' for Active; 'I' for Inactive)
ROOT
ATOM      1  C   UNL d   1      -2.319  -2.142  -1.489  0.00  0.00     0.077 C 
ATOM      2  C1  UNL d   1      -1.224  -1.348  -0.840  0.00  0.00    -0.074 A 
ATOM      3  C2  UNL d   1       0.115  -1.559  -1.182  0.00  0.00    -0.005 A 
ATOM      4  C3  UNL d   1       1.123  -0.807  -0.577  0.00  0.00     0.006 A 
ATOM      5  C4  UNL d   1       0.801   0.161   0.374  0.00  0.00    -0.005 A 
ATOM      6  C5  UNL d   1      -0.533   0.387   0.728  0.00  0.00    -0.074 A 
ATOM      7  C6  UNL d   1      -0.897   1.431   1.742  0.00  0.00     0.077 C 
ATOM      8  C7  UNL d   1      -1.540  -0.368   0.111  0.00  0.00    -0.001 A 
ENDROOT
TORSDOF 0
ENDMDL
