MODEL 1
REMARK minimizedAffinity -1.10428488
REMARK minimizedRMSD -1
REMARK  0 active torsions:
REMARK  status: ('A' for Active; 'I' for Inactive)
ROOT
ATOM      1  C   UNL d   1      -3.818  -2.811  -1.241  0.00  0.00     0.077 C 
ATOM      2  C1  UNL d   1      -2.685  -1.897  -1.601  0.00  0.00    -0.074 A 
ATOM      3  C2  UNL d   1      -2.520  -1.437  -2.912  0.00  0.00    -0.005 A 
ATOM      4  C3  UNL d   1      -1.467  -0.580  -3.229  0.00  0.00     0.006 A 
ATOM      5  C4  UNL d   1      -0.568  -0.175  -2.241  0.00  0.00    -0.005 A 
ATOM      6  C5  UNL d   1      -0.717  -0.624  -0.925  0.00  0.00    -0.074 A 
ATOM      7  C6  UNL d   1       0.234  -0.191   0.150  0.00  0.00     0.077 C 
ATOM      8  C7  UNL d   1      -1.782  -1.480  -0.613  0.00  0.00    -0.001 A 
ENDROOT
TORSDOF 0
ENDMDL
