MODEL 1
REMARK minimizedAffinity -1.48510015
REMARK minimizedRMSD -1
REMARK  0 active torsions:
REMARK  status: ('A' for Active; 'I' for Inactive)
ROOT
ATOM      1  C   UNL d   1       3.800   1.055   1.160  0.00  0.00     0.077 C 
ATOM      2  C1  UNL d   1       2.301   1.081   1.195  0.00  0.00    -0.074 A 
ATOM      3  C2  UNL d   1       1.616   1.971   2.029  0.00  0.00    -0.005 A 
ATOM      4  C3  UNL d   1       0.222   1.990   2.043  0.00  0.00     0.006 A 
ATOM      5  C4  UNL d   1      -0.501   1.121   1.226  0.00  0.00    -0.005 A 
ATOM      6  C5  UNL d   1       0.165   0.224   0.385  0.00  0.00    -0.074 A 
ATOM      7  C6  UNL d   1      -0.597  -0.710  -0.506  0.00  0.00     0.077 C 
ATOM      8  C7  UNL d   1       1.567   0.216   0.371  0.00  0.00    -0.001 A 
ENDROOT
TORSDOF 0
ENDMDL
