MODEL 1
REMARK minimizedAffinity -4.35923147
REMARK minimizedRMSD -1
REMARK  0 active torsions:
REMARK  status: ('A' for Active; 'I' for Inactive)
ROOT
ATOM      1  C   UNL d   1      -0.069  -0.594   0.057  0.00  0.00     0.077 C 
ATOM      2  C1  UNL d   1      -1.048  -1.145  -0.937  0.00  0.00    -0.074 A 
ATOM      3  C2  UNL d   1      -0.702  -1.284  -2.285  0.00  0.00    -0.005 A 
ATOM      4  C3  UNL d   1      -1.619  -1.807  -3.196  0.00  0.00     0.006 A 
ATOM      5  C4  UNL d   1      -2.889  -2.196  -2.770  0.00  0.00    -0.005 A 
ATOM      6  C5  UNL d   1      -3.253  -2.065  -1.425  0.00  0.00    -0.074 A 
ATOM      7  C6  UNL d   1      -4.611  -2.487  -0.949  0.00  0.00     0.077 C 
ATOM      8  C7  UNL d   1      -2.323  -1.545  -0.515  0.00  0.00    -0.001 A 
ENDROOT
TORSDOF 0
ENDMDL
