MODEL 1
REMARK minimizedAffinity -0.984490633
REMARK minimizedRMSD -1
REMARK  0 active torsions:
REMARK  status: ('A' for Active; 'I' for Inactive)
ROOT
ATOM      1  C   UNL d   1       5.346   2.180  -3.800  0.00  0.00     0.077 C 
ATOM      2  C1  UNL d   1       4.434   1.167  -4.426  0.00  0.00    -0.074 A 
ATOM      3  C2  UNL d   1       4.939   0.161  -5.255  0.00  0.00    -0.005 A 
ATOM      4  C3  UNL d   1       4.080  -0.780  -5.823  0.00  0.00     0.006 A 
ATOM      5  C4  UNL d   1       2.709  -0.724  -5.567  0.00  0.00    -0.005 A 
ATOM      6  C5  UNL d   1       2.186   0.275  -4.740  0.00  0.00    -0.074 A 
ATOM      7  C6  UNL d   1       0.716   0.343  -4.447  0.00  0.00     0.077 C 
ATOM      8  C7  UNL d   1       3.057   1.212  -4.167  0.00  0.00    -0.001 A 
ENDROOT
TORSDOF 0
ENDMDL
