MODEL 1
REMARK minimizedAffinity -4.33721924
REMARK minimizedRMSD -1
REMARK  0 active torsions:
REMARK  status: ('A' for Active; 'I' for Inactive)
ROOT
ATOM      1  C   UNL d   1       3.688   0.733   0.734  0.00  0.00     0.077 C 
ATOM      2  C1  UNL d   1       2.194   0.635   0.833  0.00  0.00    -0.074 A 
ATOM      3  C2  UNL d   1       1.479   1.443   1.722  0.00  0.00    -0.005 A 
ATOM      4  C3  UNL d   1       0.089   1.348   1.796  0.00  0.00     0.006 A 
ATOM      5  C4  UNL d   1      -0.598   0.446   0.982  0.00  0.00    -0.005 A 
ATOM      6  C5  UNL d   1       0.101  -0.370   0.087  0.00  0.00    -0.074 A 
ATOM      7  C6  UNL d   1      -0.622  -1.338  -0.802  0.00  0.00     0.077 C 
ATOM      8  C7  UNL d   1       1.497  -0.263   0.013  0.00  0.00    -0.001 A 
ENDROOT
TORSDOF 0
ENDMDL
