MODEL 1
REMARK minimizedAffinity -0.652797163
REMARK minimizedRMSD -1
REMARK  0 active torsions:
REMARK  status: ('A' for Active; 'I' for Inactive)
ROOT
ATOM      1  C   UNL d   1      -0.697  -0.762   1.241  0.00  0.00     0.077 C 
ATOM      2  C1  UNL d   1      -0.793  -1.246  -0.176  0.00  0.00    -0.074 A 
ATOM      3  C2  UNL d   1       0.308  -1.826  -0.813  0.00  0.00    -0.005 A 
ATOM      4  C3  UNL d   1       0.201  -2.280  -2.128  0.00  0.00     0.006 A 
ATOM      5  C4  UNL d   1      -1.006  -2.158  -2.817  0.00  0.00    -0.005 A 
ATOM      6  C5  UNL d   1      -2.118  -1.580  -2.196  0.00  0.00    -0.074 A 
ATOM      7  C6  UNL d   1      -3.426  -1.450  -2.919  0.00  0.00     0.077 C 
ATOM      8  C7  UNL d   1      -2.005  -1.133  -0.872  0.00  0.00    -0.001 A 
ENDROOT
TORSDOF 0
ENDMDL
