MODEL 1
REMARK minimizedAffinity 1.28217685
REMARK minimizedRMSD -1
REMARK  0 active torsions:
REMARK  status: ('A' for Active; 'I' for Inactive)
ROOT
ATOM      1  C   UNL d   1      -3.696  -2.150  -0.510  0.00  0.00     0.077 C 
ATOM      2  C1  UNL d   1      -2.459  -1.945  -1.332  0.00  0.00    -0.074 A 
ATOM      3  C2  UNL d   1      -2.502  -2.026  -2.728  0.00  0.00    -0.005 A 
ATOM      4  C3  UNL d   1      -1.345  -1.823  -3.480  0.00  0.00     0.006 A 
ATOM      5  C4  UNL d   1      -0.135  -1.539  -2.846  0.00  0.00    -0.005 A 
ATOM      6  C5  UNL d   1      -0.073  -1.454  -1.451  0.00  0.00    -0.074 A 
ATOM      7  C6  UNL d   1       1.217  -1.139  -0.754  0.00  0.00     0.077 C 
ATOM      8  C7  UNL d   1      -1.241  -1.651  -0.703  0.00  0.00    -0.001 A 
ENDROOT
TORSDOF 0
ENDMDL
