MODEL 1
REMARK minimizedAffinity -0.0877077952
REMARK minimizedRMSD -1
REMARK  0 active torsions:
REMARK  status: ('A' for Active; 'I' for Inactive)
ROOT
ATOM      1  C   UNL d   1      -1.739  -0.689   0.380  0.00  0.00     0.020 A 
ATOM      2  C1  UNL d   1      -1.278  -0.509  -0.924  0.00  0.00     0.020 A 
ATOM      3  C2  UNL d   1       0.092  -0.545  -1.191  0.00  0.00     0.034 A 
ATOM      4  C3  UNL d   1       1.006  -0.763  -0.153  0.00  0.00     0.017 A 
ATOM      5  C4  UNL d   1       0.542  -0.944   1.155  0.00  0.00     0.017 A 
ATOM      6  C5  UNL d   1      -0.831  -0.907   1.417  0.00  0.00     0.034 A 
ATOM      7 Cl   UNL d   1       1.608  -1.218   2.487  0.00  0.00    -0.070 Cl
ATOM      8 Cl1  UNL d   1       2.686  -0.797  -0.555  0.00  0.00    -0.070 Cl
ENDROOT
TORSDOF 0
ENDMDL
