MODEL 1
REMARK minimizedAffinity 2.21327043
REMARK minimizedRMSD -1
REMARK  0 active torsions:
REMARK  status: ('A' for Active; 'I' for Inactive)
ROOT
ATOM      1  C   UNL d   1       0.863  -3.351   2.139  0.00  0.00     0.020 A 
ATOM      2  C1  UNL d   1      -0.186  -2.954   2.966  0.00  0.00     0.020 A 
ATOM      3  C2  UNL d   1      -0.839  -1.741   2.733  0.00  0.00     0.034 A 
ATOM      4  C3  UNL d   1      -0.442  -0.921   1.671  0.00  0.00     0.017 A 
ATOM      5  C4  UNL d   1       0.613  -1.321   0.841  0.00  0.00     0.017 A 
ATOM      6  C5  UNL d   1       1.262  -2.536   1.079  0.00  0.00     0.034 A 
ATOM      7 Cl   UNL d   1       1.159  -0.363  -0.490  0.00  0.00    -0.070 Cl
ATOM      8 Cl1  UNL d   1      -1.293   0.564   1.441  0.00  0.00    -0.070 Cl
ENDROOT
TORSDOF 0
ENDMDL
