MODEL 1
REMARK minimizedAffinity 4.4384203
REMARK minimizedRMSD -1
REMARK  0 active torsions:
REMARK  status: ('A' for Active; 'I' for Inactive)
ROOT
ATOM      1  C   UNL d   1      -1.353  -0.393   2.262  0.00  0.00     0.020 A 
ATOM      2  C1  UNL d   1      -0.976  -1.481   3.047  0.00  0.00     0.020 A 
ATOM      3  C2  UNL d   1       0.033  -2.342   2.609  0.00  0.00     0.034 A 
ATOM      4  C3  UNL d   1       0.667  -2.116   1.382  0.00  0.00     0.017 A 
ATOM      5  C4  UNL d   1       0.288  -1.023   0.595  0.00  0.00     0.017 A 
ATOM      6  C5  UNL d   1      -0.723  -0.164   1.038  0.00  0.00     0.034 A 
ATOM      7 Cl   UNL d   1       1.024  -0.679  -0.931  0.00  0.00    -0.070 Cl
ATOM      8 Cl1  UNL d   1       1.906  -3.221   0.902  0.00  0.00    -0.070 Cl
ENDROOT
TORSDOF 0
ENDMDL
