MODEL 1
REMARK minimizedAffinity -0.786910713
REMARK minimizedRMSD -1
REMARK  0 active torsions:
REMARK  status: ('A' for Active; 'I' for Inactive)
ROOT
ATOM      1  C   UNL d   1       5.464   5.480   2.419  0.00  0.00     0.020 A 
ATOM      2  C1  UNL d   1       5.592   4.106   2.224  0.00  0.00     0.020 A 
ATOM      3  C2  UNL d   1       4.548   3.250   2.582  0.00  0.00     0.034 A 
ATOM      4  C3  UNL d   1       3.372   3.767   3.137  0.00  0.00     0.017 A 
ATOM      5  C4  UNL d   1       3.245   5.147   3.332  0.00  0.00     0.017 A 
ATOM      6  C5  UNL d   1       4.293   6.000   2.972  0.00  0.00     0.034 A 
ATOM      7 Cl   UNL d   1       1.825   5.860   4.012  0.00  0.00    -0.070 Cl
ATOM      8 Cl1  UNL d   1       2.122   2.650   3.556  0.00  0.00    -0.070 Cl
ENDROOT
TORSDOF 0
ENDMDL
