MODEL 1
REMARK minimizedAffinity 0.0244090129
REMARK minimizedRMSD -1
REMARK  0 active torsions:
REMARK  status: ('A' for Active; 'I' for Inactive)
ROOT
ATOM      1  C   UNL d   1      -1.761  -0.392   1.019  0.00  0.00     0.020 A 
ATOM      2  C1  UNL d   1      -1.753  -1.125   2.205  0.00  0.00     0.020 A 
ATOM      3  C2  UNL d   1      -0.591  -1.784   2.611  0.00  0.00     0.034 A 
ATOM      4  C3  UNL d   1       0.568  -1.713   1.830  0.00  0.00     0.017 A 
ATOM      5  C4  UNL d   1       0.560  -0.977   0.639  0.00  0.00     0.017 A 
ATOM      6  C5  UNL d   1      -0.607  -0.318   0.238  0.00  0.00     0.034 A 
ATOM      7 Cl   UNL d   1       1.951  -0.842  -0.377  0.00  0.00    -0.070 Cl
ATOM      8 Cl1  UNL d   1       1.969  -2.553   2.392  0.00  0.00    -0.070 Cl
ENDROOT
TORSDOF 0
ENDMDL
