MODEL 1
REMARK minimizedAffinity -0.766541779
REMARK minimizedRMSD -1
REMARK  0 active torsions:
REMARK  status: ('A' for Active; 'I' for Inactive)
ROOT
ATOM      1  C   UNL d   1       0.446  -2.448   2.922  0.00  0.00     0.020 A 
ATOM      2  C1  UNL d   1       1.317  -2.838   1.905  0.00  0.00     0.020 A 
ATOM      3  C2  UNL d   1       1.138  -2.352   0.608  0.00  0.00     0.034 A 
ATOM      4  C3  UNL d   1       0.087  -1.473   0.325  0.00  0.00     0.017 A 
ATOM      5  C4  UNL d   1      -0.787  -1.081   1.346  0.00  0.00     0.017 A 
ATOM      6  C5  UNL d   1      -0.603  -1.572   2.643  0.00  0.00     0.034 A 
ATOM      7 Cl   UNL d   1      -2.107   0.000   1.073  0.00  0.00    -0.070 Cl
ATOM      8 Cl1  UNL d   1      -0.074  -0.910  -1.301  0.00  0.00    -0.070 Cl
ENDROOT
TORSDOF 0
ENDMDL
