MODEL 1
REMARK minimizedAffinity 1.74935472
REMARK minimizedRMSD -1
REMARK  0 active torsions:
REMARK  status: ('A' for Active; 'I' for Inactive)
ROOT
ATOM      1  C   UNL d   1       0.761  -3.010   2.755  0.00  0.00     0.020 A 
ATOM      2  C1  UNL d   1      -0.086  -2.423   3.694  0.00  0.00     0.020 A 
ATOM      3  C2  UNL d   1      -0.918  -1.366   3.320  0.00  0.00     0.034 A 
ATOM      4  C3  UNL d   1      -0.906  -0.894   2.002  0.00  0.00     0.017 A 
ATOM      5  C4  UNL d   1      -0.056  -1.484   1.060  0.00  0.00     0.017 A 
ATOM      6  C5  UNL d   1       0.775  -2.541   1.440  0.00  0.00     0.034 A 
ATOM      7 Cl   UNL d   1       0.014  -0.955  -0.584  0.00  0.00    -0.070 Cl
ATOM      8 Cl1  UNL d   1      -1.963   0.416   1.609  0.00  0.00    -0.070 Cl
ENDROOT
TORSDOF 0
ENDMDL
