MODEL 1
REMARK minimizedAffinity -1.21006036
REMARK minimizedRMSD -1
REMARK  0 active torsions:
REMARK  status: ('A' for Active; 'I' for Inactive)
ROOT
ATOM      1  C   UNL d   1      -1.197  -0.848   2.949  0.00  0.00     0.020 A 
ATOM      2  C1  UNL d   1      -1.710  -0.277   1.785  0.00  0.00     0.020 A 
ATOM      3  C2  UNL d   1      -1.162  -0.609   0.544  0.00  0.00     0.034 A 
ATOM      4  C3  UNL d   1      -0.098  -1.514   0.464  0.00  0.00     0.017 A 
ATOM      5  C4  UNL d   1       0.416  -2.088   1.633  0.00  0.00     0.017 A 
ATOM      6  C5  UNL d   1      -0.137  -1.752   2.873  0.00  0.00     0.034 A 
ATOM      7 Cl   UNL d   1       1.727  -3.213   1.615  0.00  0.00    -0.070 Cl
ATOM      8 Cl1  UNL d   1       0.530  -1.879  -1.103  0.00  0.00    -0.070 Cl
ENDROOT
TORSDOF 0
ENDMDL
