MODEL 1
REMARK minimizedAffinity 2.9455204
REMARK minimizedRMSD -1
REMARK  0 active torsions:
REMARK  status: ('A' for Active; 'I' for Inactive)
ROOT
ATOM      1  C   UNL d   1      -1.043  -1.134   2.668  0.00  0.00     0.020 A 
ATOM      2  C1  UNL d   1      -2.138  -0.844   1.854  0.00  0.00     0.020 A 
ATOM      3  C2  UNL d   1      -1.956  -0.126   0.670  0.00  0.00     0.034 A 
ATOM      4  C3  UNL d   1      -0.678   0.302   0.296  0.00  0.00     0.017 A 
ATOM      5  C4  UNL d   1       0.420   0.010   1.113  0.00  0.00     0.017 A 
ATOM      6  C5  UNL d   1       0.233  -0.708   2.298  0.00  0.00     0.034 A 
ATOM      7 Cl   UNL d   1       2.028   0.505   0.717  0.00  0.00    -0.070 Cl
ATOM      8 Cl1  UNL d   1      -0.527   1.184  -1.183  0.00  0.00    -0.070 Cl
ENDROOT
TORSDOF 0
ENDMDL
