MODEL 1
REMARK minimizedAffinity -3.77749491
REMARK minimizedRMSD -1
REMARK  0 active torsions:
REMARK  status: ('A' for Active; 'I' for Inactive)
ROOT
ATOM      1  C1  DEN d   1       1.297   1.820   0.541  0.00  0.00     0.130 A 
ATOM      2  C2  DEN d   1       1.118   2.449   1.846  0.00  0.00    -0.031 A 
ATOM      3  C3  DEN d   1       0.161   1.633   2.620  0.00  0.00     0.027 A 
ATOM      4  C4  DEN d   1      -1.052  -0.535   1.929  0.00  0.00     0.027 A 
ATOM      5  C5  DEN d   1      -1.229  -1.447   0.912  0.00  0.00    -0.003 A 
ATOM      6  C6  DEN d   1      -0.608  -1.316  -0.302  0.00  0.00     0.001 A 
ATOM      7  C7  DEN d   1       0.255  -0.274  -0.514  0.00  0.00     0.017 A 
ATOM      8  C8  DEN d   1       0.433   0.653   0.504  0.00  0.00    -0.094 A 
ATOM      9  C9  DEN d   1      -0.194   0.497   1.728  0.00  0.00    -0.072 A 
ENDROOT
TORSDOF 0
ENDMDL
