MODEL 1
REMARK minimizedAffinity -4.05001163
REMARK minimizedRMSD -1
REMARK  0 active torsions:
REMARK  status: ('A' for Active; 'I' for Inactive)
ROOT
ATOM      1  C1  DEN d   1       1.208   2.834   0.678  0.00  0.00     0.130 A 
ATOM      2  C2  DEN d   1       1.411   3.024   2.112  0.00  0.00    -0.031 A 
ATOM      3  C3  DEN d   1       0.878   1.837   2.810  0.00  0.00     0.027 A 
ATOM      4  C4  DEN d   1      -0.231  -0.268   1.815  0.00  0.00     0.027 A 
ATOM      5  C5  DEN d   1      -0.635  -0.880   0.648  0.00  0.00    -0.003 A 
ATOM      6  C6  DEN d   1      -0.484  -0.286  -0.577  0.00  0.00     0.001 A 
ATOM      7  C7  DEN d   1       0.125   0.937  -0.668  0.00  0.00     0.017 A 
ATOM      8  C8  DEN d   1       0.528   1.563   0.504  0.00  0.00    -0.094 A 
ATOM      9  C9  DEN d   1       0.378   0.941   1.732  0.00  0.00    -0.072 A 
ENDROOT
TORSDOF 0
ENDMDL
