MODEL 1
REMARK minimizedAffinity -4.38732958
REMARK minimizedRMSD -1
REMARK  0 active torsions:
REMARK  status: ('A' for Active; 'I' for Inactive)
ROOT
ATOM      1  C1  DEN d   1      -0.595  -1.343  -0.000  0.00  0.00     0.130 A 
ATOM      2  C2  DEN d   1      -0.296  -1.266  -1.427  0.00  0.00    -0.031 A 
ATOM      3  C3  DEN d   1       0.423  -0.000  -1.676  0.00  0.00     0.027 A 
ATOM      4  C4  DEN d   1       1.104   1.835   0.004  0.00  0.00     0.027 A 
ATOM      5  C5  DEN d   1       1.058   2.221   1.325  0.00  0.00    -0.003 A 
ATOM      6  C6  DEN d   1       0.434   1.468   2.284  0.00  0.00     0.001 A 
ATOM      7  C7  DEN d   1      -0.132   0.267   1.943  0.00  0.00     0.017 A 
ATOM      8  C8  DEN d   1      -0.096  -0.124   0.611  0.00  0.00    -0.094 A 
ATOM      9  C9  DEN d   1       0.551   0.645  -0.341  0.00  0.00    -0.072 A 
ENDROOT
TORSDOF 0
ENDMDL
