MODEL 1
REMARK minimizedAffinity -3.91128683
REMARK minimizedRMSD -1
REMARK  0 active torsions:
REMARK  status: ('A' for Active; 'I' for Inactive)
ROOT
ATOM      1  C1  DEN d   1       0.701  -0.169  -1.016  0.00  0.00     0.130 A 
ATOM      2  C2  DEN d   1      -0.253  -1.274  -1.069  0.00  0.00    -0.031 A 
ATOM      3  C3  DEN d   1      -0.989  -1.303   0.211  0.00  0.00     0.027 A 
ATOM      4  C4  DEN d   1      -0.748   0.250   2.257  0.00  0.00     0.027 A 
ATOM      5  C5  DEN d   1      -0.062   1.326   2.775  0.00  0.00    -0.003 A 
ATOM      6  C6  DEN d   1       0.942   1.953   2.085  0.00  0.00     0.001 A 
ATOM      7  C7  DEN d   1       1.257   1.536   0.818  0.00  0.00     0.017 A 
ATOM      8  C8  DEN d   1       0.575   0.447   0.292  0.00  0.00    -0.094 A 
ATOM      9  C9  DEN d   1      -0.445  -0.165   1.001  0.00  0.00    -0.072 A 
ENDROOT
TORSDOF 0
ENDMDL
