MODEL 1
REMARK minimizedAffinity -1.3619225
REMARK minimizedRMSD -1
REMARK  0 active torsions:
REMARK  status: ('A' for Active; 'I' for Inactive)
ROOT
ATOM      1  C1  DEN d   1       0.810  -0.960  -1.188  0.00  0.00     0.130 A 
ATOM      2  C2  DEN d   1      -0.454  -1.691  -1.178  0.00  0.00    -0.031 A 
ATOM      3  C3  DEN d   1      -1.305  -1.117  -0.115  0.00  0.00     0.027 A 
ATOM      4  C4  DEN d   1      -0.791   0.824   1.503  0.00  0.00     0.027 A 
ATOM      5  C5  DEN d   1       0.159   1.746   1.884  0.00  0.00    -0.003 A 
ATOM      6  C6  DEN d   1       1.394   1.809   1.296  0.00  0.00     0.001 A 
ATOM      7  C7  DEN d   1       1.697   0.962   0.262  0.00  0.00     0.017 A 
ATOM      8  C8  DEN d   1       0.748   0.024  -0.122  0.00  0.00    -0.094 A 
ATOM      9  C9  DEN d   1      -0.500  -0.015   0.477  0.00  0.00    -0.072 A 
ENDROOT
TORSDOF 0
ENDMDL
