MODEL 1
REMARK minimizedAffinity -2.14461613
REMARK minimizedRMSD -1
REMARK  0 active torsions:
REMARK  status: ('A' for Active; 'I' for Inactive)
ROOT
ATOM      1  C1  DEN d   1      -0.506  -1.127  -0.071  0.00  0.00     0.130 A 
ATOM      2  C2  DEN d   1       0.510  -0.304  -0.723  0.00  0.00    -0.031 A 
ATOM      3  C3  DEN d   1       0.247  -0.321  -2.176  0.00  0.00     0.027 A 
ATOM      4  C4  DEN d   1      -1.626  -1.530  -3.472  0.00  0.00     0.027 A 
ATOM      5  C5  DEN d   1      -2.719  -2.359  -3.353  0.00  0.00    -0.003 A 
ATOM      6  C6  DEN d   1      -3.128  -2.859  -2.144  0.00  0.00     0.001 A 
ATOM      7  C7  DEN d   1      -2.465  -2.497  -1.001  0.00  0.00     0.017 A 
ATOM      8  C8  DEN d   1      -1.357  -1.668  -1.115  0.00  0.00    -0.094 A 
ATOM      9  C9  DEN d   1      -0.967  -1.163  -2.344  0.00  0.00    -0.072 A 
ENDROOT
TORSDOF 0
ENDMDL
