MODEL 1
REMARK minimizedAffinity 1.55928457
REMARK minimizedRMSD -1
REMARK  0 active torsions:
REMARK  status: ('A' for Active; 'I' for Inactive)
ROOT
ATOM      1  C1  DEN d   1      -1.180  -1.454  -3.705  0.00  0.00     0.130 A 
ATOM      2  C2  DEN d   1      -2.497  -2.068  -3.559  0.00  0.00    -0.031 A 
ATOM      3  C3  DEN d   1      -2.805  -2.149  -2.117  0.00  0.00     0.027 A 
ATOM      4  C4  DEN d   1      -1.380  -1.385  -0.107  0.00  0.00     0.027 A 
ATOM      5  C5  DEN d   1      -0.183  -0.817   0.268  0.00  0.00    -0.003 A 
ATOM      6  C6  DEN d   1       0.772  -0.456  -0.645  0.00  0.00     0.001 A 
ATOM      7  C7  DEN d   1       0.528  -0.617  -1.983  0.00  0.00     0.017 A 
ATOM      8  C8  DEN d   1      -0.674  -1.196  -2.369  0.00  0.00    -0.094 A 
ATOM      9  C9  DEN d   1      -1.632  -1.543  -1.431  0.00  0.00    -0.072 A 
ENDROOT
TORSDOF 0
ENDMDL
