MODEL 1
REMARK minimizedAffinity -3.5948832
REMARK minimizedRMSD -1
REMARK  0 active torsions:
REMARK  status: ('A' for Active; 'I' for Inactive)
ROOT
ATOM      1  C1  DEN d   1       1.078   1.459   0.035  0.00  0.00     0.130 A 
ATOM      2  C2  DEN d   1       1.066   2.082   1.355  0.00  0.00    -0.031 A 
ATOM      3  C3  DEN d   1       0.291   1.212   2.263  0.00  0.00     0.027 A 
ATOM      4  C4  DEN d   1      -0.880  -1.029   1.755  0.00  0.00     0.027 A 
ATOM      5  C5  DEN d   1      -1.156  -1.954   0.773  0.00  0.00    -0.003 A 
ATOM      6  C6  DEN d   1      -0.740  -1.790  -0.522  0.00  0.00     0.001 A 
ATOM      7  C7  DEN d   1       0.015  -0.698  -0.859  0.00  0.00     0.017 A 
ATOM      8  C8  DEN d   1       0.292   0.242   0.125  0.00  0.00    -0.094 A 
ATOM      9  C9  DEN d   1      -0.128   0.053   1.430  0.00  0.00    -0.072 A 
ENDROOT
TORSDOF 0
ENDMDL
