MODEL 1
REMARK minimizedAffinity -3.52151036
REMARK minimizedRMSD -1
REMARK  0 active torsions:
REMARK  status: ('A' for Active; 'I' for Inactive)
ROOT
ATOM      1  C1  DEN d   1      -0.460  -0.159   2.512  0.00  0.00     0.130 A 
ATOM      2  C2  DEN d   1       0.227   0.872   3.285  0.00  0.00    -0.031 A 
ATOM      3  C3  DEN d   1       0.995   1.713   2.345  0.00  0.00     0.027 A 
ATOM      4  C4  DEN d   1       1.183   1.522  -0.220  0.00  0.00     0.027 A 
ATOM      5  C5  DEN d   1       0.788   0.799  -1.324  0.00  0.00    -0.003 A 
ATOM      6  C6  DEN d   1      -0.015  -0.306  -1.224  0.00  0.00     0.001 A 
ATOM      7  C7  DEN d   1      -0.488  -0.692   0.002  0.00  0.00     0.017 A 
ATOM      8  C8  DEN d   1      -0.089   0.028   1.120  0.00  0.00    -0.094 A 
ATOM      9  C9  DEN d   1       0.714   1.149   0.997  0.00  0.00    -0.072 A 
ENDROOT
TORSDOF 0
ENDMDL
