MODEL 1
REMARK minimizedAffinity -5.42113209
REMARK minimizedRMSD -1
REMARK  0 active torsions:
REMARK  status: ('A' for Active; 'I' for Inactive)
ROOT
ATOM      1  C1  DEN d   1      -0.608  -0.025  -0.006  0.00  0.00     0.130 A 
ATOM      2  C2  DEN d   1       0.021  -1.122  -0.736  0.00  0.00    -0.031 A 
ATOM      3  C3  DEN d   1       1.479  -0.886  -0.748  0.00  0.00     0.027 A 
ATOM      4  C4  DEN d   1       2.816   1.059   0.292  0.00  0.00     0.027 A 
ATOM      5  C5  DEN d   1       2.718   2.236   1.002  0.00  0.00    -0.003 A 
ATOM      6  C6  DEN d   1       1.513   2.755   1.392  0.00  0.00     0.001 A 
ATOM      7  C7  DEN d   1       0.358   2.072   1.114  0.00  0.00     0.017 A 
ATOM      8  C8  DEN d   1       0.448   0.889   0.393  0.00  0.00    -0.094 A 
ATOM      9  C9  DEN d   1       1.677   0.374   0.018  0.00  0.00    -0.072 A 
ENDROOT
TORSDOF 0
ENDMDL
