MODEL 1
REMARK minimizedAffinity 1.04274571
REMARK minimizedRMSD -1
REMARK  0 active torsions:
REMARK  status: ('A' for Active; 'I' for Inactive)
ROOT
ATOM      1  C1  DEN d   1       0.229  -1.136  -2.163  0.00  0.00     0.130 A 
ATOM      2  C2  DEN d   1       0.261  -1.496  -0.748  0.00  0.00    -0.031 A 
ATOM      3  C3  DEN d   1      -1.098  -1.920  -0.354  0.00  0.00     0.027 A 
ATOM      4  C4  DEN d   1      -3.236  -2.057  -1.791  0.00  0.00     0.027 A 
ATOM      5  C5  DEN d   1      -3.760  -1.842  -3.047  0.00  0.00    -0.003 A 
ATOM      6  C6  DEN d   1      -3.005  -1.350  -4.079  0.00  0.00     0.001 A 
ATOM      7  C7  DEN d   1      -1.673  -1.097  -3.885  0.00  0.00     0.017 A 
ATOM      8  C8  DEN d   1      -1.139  -1.303  -2.620  0.00  0.00    -0.094 A 
ATOM      9  C9  DEN d   1      -1.915  -1.814  -1.593  0.00  0.00    -0.072 A 
ENDROOT
TORSDOF 0
ENDMDL
