MODEL 1
REMARK minimizedAffinity -5.50148344
REMARK minimizedRMSD -1
REMARK  0 active torsions:
REMARK  status: ('A' for Active; 'I' for Inactive)
ROOT
ATOM      1  C1  DEN d   1      -0.740  -0.280   0.183  0.00  0.00     0.130 A 
ATOM      2  C2  DEN d   1      -0.111  -1.423  -0.473  0.00  0.00    -0.031 A 
ATOM      3  C3  DEN d   1       1.342  -1.170  -0.537  0.00  0.00     0.027 A 
ATOM      4  C4  DEN d   1       2.673   0.868   0.316  0.00  0.00     0.027 A 
ATOM      5  C5  DEN d   1       2.573   2.096   0.932  0.00  0.00    -0.003 A 
ATOM      6  C6  DEN d   1       1.369   2.628   1.308  0.00  0.00     0.001 A 
ATOM      7  C7  DEN d   1       0.219   1.911   1.112  0.00  0.00     0.017 A 
ATOM      8  C8  DEN d   1       0.310   0.675   0.484  0.00  0.00    -0.094 A 
ATOM      9  C9  DEN d   1       1.539   0.149   0.123  0.00  0.00    -0.072 A 
ENDROOT
TORSDOF 0
ENDMDL
