MODEL 1
REMARK minimizedAffinity -3.93739438
REMARK minimizedRMSD -1
REMARK  0 active torsions:
REMARK  status: ('A' for Active; 'I' for Inactive)
ROOT
ATOM      1  C1  DEN d   1      -1.051  -0.340   1.039  0.00  0.00     0.130 A 
ATOM      2  C2  DEN d   1      -0.895  -1.203  -0.129  0.00  0.00    -0.031 A 
ATOM      3  C3  DEN d   1       0.163  -0.628  -0.983  0.00  0.00     0.027 A 
ATOM      4  C4  DEN d   1       1.572   1.501  -0.610  0.00  0.00     0.027 A 
ATOM      5  C5  DEN d   1       1.791   2.568   0.233  0.00  0.00    -0.003 A 
ATOM      6  C6  DEN d   1       1.062   2.758   1.376  0.00  0.00     0.001 A 
ATOM      7  C7  DEN d   1       0.108   1.841   1.732  0.00  0.00     0.017 A 
ATOM      8  C8  DEN d   1      -0.125   0.767   0.884  0.00  0.00    -0.094 A 
ATOM      9  C9  DEN d   1       0.632   0.586  -0.261  0.00  0.00    -0.072 A 
ENDROOT
TORSDOF 0
ENDMDL
