MODEL 1
REMARK minimizedAffinity -3.88169312
REMARK minimizedRMSD -1
REMARK  0 active torsions:
REMARK  status: ('A' for Active; 'I' for Inactive)
ROOT
ATOM      1  C1  DEN d   1       0.395   0.136  -1.062  0.00  0.00     0.130 A 
ATOM      2  C2  DEN d   1      -0.331  -1.102  -0.792  0.00  0.00    -0.031 A 
ATOM      3  C3  DEN d   1      -0.837  -1.041   0.594  0.00  0.00     0.027 A 
ATOM      4  C4  DEN d   1      -0.574   0.843   2.336  0.00  0.00     0.027 A 
ATOM      5  C5  DEN d   1      -0.030   2.086   2.572  0.00  0.00    -0.003 A 
ATOM      6  C6  DEN d   1       0.717   2.746   1.632  0.00  0.00     0.001 A 
ATOM      7  C7  DEN d   1       0.902   2.185   0.396  0.00  0.00     0.017 A 
ATOM      8  C8  DEN d   1       0.362   0.929   0.154  0.00  0.00    -0.094 A 
ATOM      9  C9  DEN d   1      -0.400   0.283   1.112  0.00  0.00    -0.072 A 
ENDROOT
TORSDOF 0
ENDMDL
