MODEL 1
REMARK minimizedAffinity -4.19393253
REMARK minimizedRMSD -1
REMARK  0 active torsions:
REMARK  status: ('A' for Active; 'I' for Inactive)
ROOT
ATOM      1  C1  DEN d   1      -1.395   1.112   2.199  0.00  0.00     0.130 A 
ATOM      2  C2  DEN d   1      -2.006  -0.095   1.649  0.00  0.00    -0.031 A 
ATOM      3  C3  DEN d   1      -1.204  -0.523   0.485  0.00  0.00     0.027 A 
ATOM      4  C4  DEN d   1       0.916   0.558  -0.510  0.00  0.00     0.027 A 
ATOM      5  C5  DEN d   1       1.804   1.605  -0.392  0.00  0.00    -0.003 A 
ATOM      6  C6  DEN d   1       1.669   2.571   0.569  0.00  0.00     0.001 A 
ATOM      7  C7  DEN d   1       0.649   2.486   1.479  0.00  0.00     0.017 A 
ATOM      8  C8  DEN d   1      -0.255   1.438   1.362  0.00  0.00    -0.094 A 
ATOM      9  C9  DEN d   1      -0.094   0.464   0.391  0.00  0.00    -0.072 A 
ENDROOT
TORSDOF 0
ENDMDL
