MODEL 1
REMARK minimizedAffinity -4.53052616
REMARK minimizedRMSD -1
REMARK  0 active torsions:
REMARK  status: ('A' for Active; 'I' for Inactive)
ROOT
ATOM      1  C1  DEN d   1      -1.039  -0.243   0.816  0.00  0.00     0.130 A 
ATOM      2  C2  DEN d   1      -0.725  -1.195  -0.246  0.00  0.00    -0.031 A 
ATOM      3  C3  DEN d   1       0.568  -0.803  -0.842  0.00  0.00     0.027 A 
ATOM      4  C4  DEN d   1       2.108   1.171  -0.224  0.00  0.00     0.027 A 
ATOM      5  C5  DEN d   1       2.259   2.260   0.605  0.00  0.00    -0.003 A 
ATOM      6  C6  DEN d   1       1.312   2.609   1.532  0.00  0.00     0.001 A 
ATOM      7  C7  DEN d   1       0.193   1.834   1.683  0.00  0.00     0.017 A 
ATOM      8  C8  DEN d   1       0.031   0.738   0.846  0.00  0.00    -0.094 A 
ATOM      9  C9  DEN d   1       1.005   0.395  -0.076  0.00  0.00    -0.072 A 
ENDROOT
TORSDOF 0
ENDMDL
