MODEL 1
REMARK minimizedAffinity -3.34262276
REMARK minimizedRMSD -1
REMARK  1 active torsions:
REMARK  status: ('A' for Active; 'I' for Inactive)
REMARK    1  A    between atoms: C1_2  and  C2_3 
ROOT
ATOM      1  C2  UNL d   1       0.205  -0.397  -0.341  0.00  0.00    -0.081 A 
ATOM      2  C3  UNL d   1      -1.146  -0.113  -0.108  0.00  0.00     0.006 A 
ATOM      3  C4  UNL d   1      -1.541   0.539   1.063  0.00  0.00     0.002 A 
ATOM      4  C5  UNL d   1      -0.592   0.925   2.015  0.00  0.00    -0.080 A 
ATOM      5  C6  UNL d   1      -0.999   1.652   3.262  0.00  0.00     0.076 C 
ATOM      6  C7  UNL d   1       0.756   0.626   1.790  0.00  0.00     0.002 A 
ATOM      7  C8  UNL d   1       1.152  -0.027   0.620  0.00  0.00     0.006 A 
ENDROOT
BRANCH   1   8
ATOM      8  C1  UNL d   1       0.641  -1.042  -1.632  0.00  0.00     0.054 C 
ATOM      9  C   UNL d   1       1.061   0.001  -2.657  0.00  0.00     0.018 C 
ENDBRANCH   1   8
TORSDOF 1
ENDMDL
