MODEL 1
REMARK minimizedAffinity 10.8685904
REMARK minimizedRMSD -1
REMARK  1 active torsions:
REMARK  status: ('A' for Active; 'I' for Inactive)
REMARK    1  A    between atoms: C1_2  and  C2_3 
ROOT
ATOM      1  C2  UNL d   1       2.993  -1.012  -4.414  0.00  0.00    -0.081 A 
ATOM      2  C3  UNL d   1       3.885  -0.308  -3.596  0.00  0.00     0.006 A 
ATOM      3  C4  UNL d   1       3.429   0.732  -2.782  0.00  0.00     0.002 A 
ATOM      4  C5  UNL d   1       2.073   1.079  -2.767  0.00  0.00    -0.080 A 
ATOM      5  C6  UNL d   1       1.566   2.173  -1.875  0.00  0.00     0.076 C 
ATOM      6  C7  UNL d   1       1.185   0.387  -3.597  0.00  0.00     0.002 A 
ATOM      7  C8  UNL d   1       1.641  -0.652  -4.412  0.00  0.00     0.006 A 
ENDROOT
BRANCH   1   8
ATOM      8  C1  UNL d   1       3.471  -2.176  -5.244  0.00  0.00     0.054 C 
ATOM      9  C   UNL d   1       2.388  -3.237  -5.385  0.00  0.00     0.018 C 
ENDBRANCH   1   8
TORSDOF 1
ENDMDL
