MODEL 1
REMARK minimizedAffinity 2.9804461
REMARK minimizedRMSD -1
REMARK  1 active torsions:
REMARK  status: ('A' for Active; 'I' for Inactive)
REMARK    1  A    between atoms: C1_2  and  C2_3 
ROOT
ATOM      1  C2  UNL d   1       1.822   0.969  -1.932  0.00  0.00    -0.081 A 
ATOM      2  C3  UNL d   1       2.129   1.998  -1.034  0.00  0.00     0.006 A 
ATOM      3  C4  UNL d   1       2.166   1.751   0.341  0.00  0.00     0.002 A 
ATOM      4  C5  UNL d   1       1.905   0.470   0.838  0.00  0.00    -0.080 A 
ATOM      5  C6  UNL d   1       1.971   0.184   2.309  0.00  0.00     0.076 C 
ATOM      6  C7  UNL d   1       1.581  -0.554  -0.058  0.00  0.00     0.002 A 
ATOM      7  C8  UNL d   1       1.543  -0.307  -1.432  0.00  0.00     0.006 A 
ENDROOT
BRANCH   1   8
ATOM      8  C1  UNL d   1       1.845   1.218  -3.419  0.00  0.00     0.054 C 
ATOM      9  C   UNL d   1       0.752   0.431  -4.128  0.00  0.00     0.018 C 
ENDBRANCH   1   8
TORSDOF 1
ENDMDL
