MODEL 1
REMARK minimizedAffinity 2.27852941
REMARK minimizedRMSD -1
REMARK  1 active torsions:
REMARK  status: ('A' for Active; 'I' for Inactive)
REMARK    1  A    between atoms: C1_2  and  C2_3 
ROOT
ATOM      1  C2  UNL d   1       2.649  -0.048  -3.855  0.00  0.00    -0.081 A 
ATOM      2  C3  UNL d   1       2.720  -1.325  -4.425  0.00  0.00     0.006 A 
ATOM      3  C4  UNL d   1       3.806  -2.161  -4.154  0.00  0.00     0.002 A 
ATOM      4  C5  UNL d   1       4.833  -1.739  -3.304  0.00  0.00    -0.080 A 
ATOM      5  C6  UNL d   1       5.989  -2.638  -2.982  0.00  0.00     0.076 C 
ATOM      6  C7  UNL d   1       4.771  -0.456  -2.749  0.00  0.00     0.002 A 
ATOM      7  C8  UNL d   1       3.686   0.381  -3.019  0.00  0.00     0.006 A 
ENDROOT
BRANCH   1   8
ATOM      8  C1  UNL d   1       1.448   0.832  -4.093  0.00  0.00     0.054 C 
ATOM      9  C   UNL d   1       0.152   0.045  -3.963  0.00  0.00     0.018 C 
ENDBRANCH   1   8
TORSDOF 1
ENDMDL
