MODEL 1
REMARK minimizedAffinity 8.12668514
REMARK minimizedRMSD -1
REMARK  1 active torsions:
REMARK  status: ('A' for Active; 'I' for Inactive)
REMARK    1  A    between atoms: C1_2  and  C2_3 
ROOT
ATOM      1  C2  UNL d   1       1.671   0.931  -3.348  0.00  0.00    -0.081 A 
ATOM      2  C3  UNL d   1       0.756   0.007  -2.829  0.00  0.00     0.006 A 
ATOM      3  C4  UNL d   1      -0.078  -0.720  -3.683  0.00  0.00     0.002 A 
ATOM      4  C5  UNL d   1      -0.006  -0.540  -5.068  0.00  0.00    -0.080 A 
ATOM      5  C6  UNL d   1      -0.874  -1.335  -5.997  0.00  0.00     0.076 C 
ATOM      6  C7  UNL d   1       0.896   0.397  -5.585  0.00  0.00     0.002 A 
ATOM      7  C8  UNL d   1       1.730   1.124  -4.732  0.00  0.00     0.006 A 
ENDROOT
BRANCH   1   8
ATOM      8  C1  UNL d   1       2.616   1.669  -2.434  0.00  0.00     0.054 C 
ATOM      9  C   UNL d   1       1.869   2.641  -1.533  0.00  0.00     0.018 C 
ENDBRANCH   1   8
TORSDOF 1
ENDMDL
