MODEL 1
REMARK minimizedAffinity 6.59139252
REMARK minimizedRMSD -1
REMARK  1 active torsions:
REMARK  status: ('A' for Active; 'I' for Inactive)
REMARK    1  A    between atoms: C1_2  and  C2_3 
ROOT
ATOM      1  C2  UNL d   1       2.458   1.682  -3.199  0.00  0.00    -0.081 A 
ATOM      2  C3  UNL d   1       1.787   0.494  -3.516  0.00  0.00     0.006 A 
ATOM      3  C4  UNL d   1       2.505  -0.656  -3.854  0.00  0.00     0.002 A 
ATOM      4  C5  UNL d   1       3.904  -0.640  -3.873  0.00  0.00    -0.080 A 
ATOM      5  C6  UNL d   1       4.686  -1.876  -4.204  0.00  0.00     0.076 C 
ATOM      6  C7  UNL d   1       4.573   0.551  -3.573  0.00  0.00     0.002 A 
ATOM      7  C8  UNL d   1       3.857   1.701  -3.236  0.00  0.00     0.006 A 
ENDROOT
BRANCH   1   8
ATOM      8  C1  UNL d   1       1.689   2.906  -2.771  0.00  0.00     0.054 C 
ATOM      9  C   UNL d   1       1.993   3.273  -1.326  0.00  0.00     0.018 C 
ENDBRANCH   1   8
TORSDOF 1
ENDMDL
