MODEL 1
REMARK minimizedAffinity 3.09330368
REMARK minimizedRMSD -1
REMARK  1 active torsions:
REMARK  status: ('A' for Active; 'I' for Inactive)
REMARK    1  A    between atoms: N_2  and  C1_3 
ROOT
ATOM      1  C1  UNL d   1       0.467   1.122   0.860  0.00  0.00     0.143 A 
ATOM      2  C2  UNL d   1       0.757   0.565   2.110  0.00  0.00    -0.057 A 
ATOM      3  C3  UNL d   1       0.147   1.042   3.276  0.00  0.00     0.033 A 
ATOM      4  C4  UNL d   1      -0.745   2.108   3.216  0.00  0.00    -0.042 A 
ATOM      5  C5  UNL d   1      -1.029   2.693   1.987  0.00  0.00     0.033 A 
ATOM      6  C6  UNL d   1      -0.421   2.208   0.825  0.00  0.00    -0.057 A 
ENDROOT
BRANCH   1   7
ATOM      7  N   UNL d   1       1.115   0.757  -0.323  0.00  0.00    -0.732 N 
ATOM      8  C   UNL d   1       2.438   0.173  -0.289  0.00  0.00     0.284 C 
ATOM      9  H3  UNL d   1       0.485   0.320  -0.992  0.00  0.00     0.395 HD
ENDBRANCH   1   7
TORSDOF 1
ENDMDL
