MODEL 1
REMARK minimizedAffinity 8.6266613
REMARK minimizedRMSD -1
REMARK  1 active torsions:
REMARK  status: ('A' for Active; 'I' for Inactive)
REMARK    1  A    between atoms: N_2  and  C1_3 
ROOT
ATOM      1  C1  UNL d   1       3.753   0.196  -0.475  0.00  0.00     0.143 A 
ATOM      2  C2  UNL d   1       3.703   1.441  -1.111  0.00  0.00    -0.057 A 
ATOM      3  C3  UNL d   1       4.787   2.325  -1.063  0.00  0.00     0.033 A 
ATOM      4  C4  UNL d   1       5.934   1.991  -0.352  0.00  0.00    -0.042 A 
ATOM      5  C5  UNL d   1       5.998   0.769   0.309  0.00  0.00     0.033 A 
ATOM      6  C6  UNL d   1       4.914  -0.113   0.252  0.00  0.00    -0.057 A 
ENDROOT
BRANCH   1   7
ATOM      7  N   UNL d   1       2.672  -0.686  -0.404  0.00  0.00    -0.732 N 
ATOM      8  C   UNL d   1       2.692  -1.937  -1.130  0.00  0.00     0.284 C 
ATOM      9  H3  UNL d   1       2.291  -0.757   0.537  0.00  0.00     0.395 HD
ENDBRANCH   1   7
TORSDOF 1
ENDMDL
