MODEL 1
REMARK minimizedAffinity 6.91789579
REMARK minimizedRMSD -1
REMARK  1 active torsions:
REMARK  status: ('A' for Active; 'I' for Inactive)
REMARK    1  A    between atoms: N_2  and  C1_3 
ROOT
ATOM      1  C1  UNL d   1      -5.912   2.826  -2.775  0.00  0.00     0.143 A 
ATOM      2  C2  UNL d   1      -5.938   3.077  -1.399  0.00  0.00    -0.057 A 
ATOM      3  C3  UNL d   1      -5.967   2.029  -0.470  0.00  0.00     0.033 A 
ATOM      4  C4  UNL d   1      -6.000   0.708  -0.904  0.00  0.00    -0.042 A 
ATOM      5  C5  UNL d   1      -6.000   0.435  -2.267  0.00  0.00     0.033 A 
ATOM      6  C6  UNL d   1      -5.964   1.485  -3.189  0.00  0.00    -0.057 A 
ENDROOT
BRANCH   1   7
ATOM      7  N   UNL d   1      -5.982   3.824  -3.749  0.00  0.00    -0.732 N 
ATOM      8  C   UNL d   1      -4.994   4.881  -3.794  0.00  0.00     0.284 C 
ATOM      9  H3  UNL d   1      -6.241   3.458  -4.662  0.00  0.00     0.395 HD
ENDBRANCH   1   7
TORSDOF 1
ENDMDL
