MODEL 1
REMARK minimizedAffinity 4.64033699
REMARK minimizedRMSD -1
REMARK  1 active torsions:
REMARK  status: ('A' for Active; 'I' for Inactive)
REMARK    1  A    between atoms: N_2  and  C1_3 
ROOT
ATOM      1  C1  UNL d   1       2.058  -2.102  -0.727  0.00  0.00     0.143 A 
ATOM      2  C2  UNL d   1       2.834  -2.202  -1.887  0.00  0.00    -0.057 A 
ATOM      3  C3  UNL d   1       3.667  -1.153  -2.297  0.00  0.00     0.033 A 
ATOM      4  C4  UNL d   1       3.717   0.029  -1.566  0.00  0.00    -0.042 A 
ATOM      5  C5  UNL d   1       2.936   0.160  -0.423  0.00  0.00     0.033 A 
ATOM      6  C6  UNL d   1       2.111  -0.893  -0.016  0.00  0.00    -0.057 A 
ENDROOT
BRANCH   1   7
ATOM      7  N   UNL d   1       1.137  -3.070  -0.322  0.00  0.00    -0.732 N 
ATOM      8  C   UNL d   1      -0.034  -3.355  -1.123  0.00  0.00     0.284 C 
ATOM      9  H3  UNL d   1       1.587  -3.897   0.065  0.00  0.00     0.395 HD
ENDBRANCH   1   7
TORSDOF 1
ENDMDL
