MODEL 1
REMARK minimizedAffinity 12.9315491
REMARK minimizedRMSD -1
REMARK  0 active torsions:
REMARK  status: ('A' for Active; 'I' for Inactive)
ROOT
ATOM      1  O1  BZF d   1       1.301  -1.028   3.291  0.00  0.00    -0.204 OA
ATOM      2  C2  BZF d   1       0.016  -0.951   2.791  0.00  0.00     0.174 A 
ATOM      3  C3  BZF d   1      -0.249  -2.002   1.988  0.00  0.00    -0.012 A 
ATOM      4  C3A BZF d   1       0.914  -2.832   2.059  0.00  0.00    -0.107 A 
ATOM      5  C4  BZF d   1       1.250  -4.028   1.492  0.00  0.00     0.055 A 
ATOM      6  C5  BZF d   1       2.493  -4.535   1.707  0.00  0.00    -0.016 A 
ATOM      7  C6  BZF d   1       3.424  -3.871   2.478  0.00  0.00     0.022 A 
ATOM      8  C7  BZF d   1       3.136  -2.685   3.065  0.00  0.00     0.029 A 
ATOM      9  C7A BZF d   1       1.870  -2.186   2.877  0.00  0.00     0.058 A 
ENDROOT
TORSDOF 0
ENDMDL
