MODEL 1
REMARK minimizedAffinity 6.38260603
REMARK minimizedRMSD -1
REMARK  0 active torsions:
REMARK  status: ('A' for Active; 'I' for Inactive)
ROOT
ATOM      1  O1  BZF d   1      -2.733   2.693  -2.564  0.00  0.00    -0.204 OA
ATOM      2  C2  BZF d   1      -1.657   3.380  -3.092  0.00  0.00     0.174 A 
ATOM      3  C3  BZF d   1      -0.529   2.647  -2.996  0.00  0.00    -0.012 A 
ATOM      4  C3A BZF d   1      -0.941   1.389  -2.453  0.00  0.00    -0.107 A 
ATOM      5  C4  BZF d   1      -0.277   0.238  -2.141  0.00  0.00     0.055 A 
ATOM      6  C5  BZF d   1      -0.960  -0.782  -1.558  0.00  0.00    -0.016 A 
ATOM      7  C6  BZF d   1      -2.306  -0.683  -1.270  0.00  0.00     0.022 A 
ATOM      8  C7  BZF d   1      -3.009   0.437  -1.567  0.00  0.00     0.029 A 
ATOM      9  C7A BZF d   1      -2.328   1.457  -2.185  0.00  0.00     0.058 A 
ENDROOT
TORSDOF 0
ENDMDL
