MODEL 1
REMARK minimizedAffinity 15.0466681
REMARK minimizedRMSD -1
REMARK  0 active torsions:
REMARK  status: ('A' for Active; 'I' for Inactive)
ROOT
ATOM      1  O1  BZF d   1       3.055  -4.141   0.300  0.00  0.00    -0.204 OA
ATOM      2  C2  BZF d   1       2.979  -5.183   1.204  0.00  0.00     0.174 A 
ATOM      3  C3  BZF d   1       2.211  -4.846   2.260  0.00  0.00    -0.012 A 
ATOM      4  C3A BZF d   1       1.705  -3.543   1.956  0.00  0.00    -0.107 A 
ATOM      5  C4  BZF d   1       0.871  -2.683   2.612  0.00  0.00     0.055 A 
ATOM      6  C5  BZF d   1       0.634  -1.456   2.078  0.00  0.00    -0.016 A 
ATOM      7  C6  BZF d   1       1.218  -1.055   0.894  0.00  0.00     0.022 A 
ATOM      8  C7  BZF d   1       2.047  -1.875   0.205  0.00  0.00     0.029 A 
ATOM      9  C7A BZF d   1       2.263  -3.127   0.725  0.00  0.00     0.058 A 
ENDROOT
TORSDOF 0
ENDMDL
