MODEL 1
REMARK minimizedAffinity 10.6540937
REMARK minimizedRMSD -1
REMARK  0 active torsions:
REMARK  status: ('A' for Active; 'I' for Inactive)
ROOT
ATOM      1  O1  BZF d   1       5.955   0.774  -1.400  0.00  0.00    -0.204 OA
ATOM      2  C2  BZF d   1       5.946  -0.604  -1.316  0.00  0.00     0.174 A 
ATOM      3  C3  BZF d   1       6.000  -1.006  -0.030  0.00  0.00    -0.012 A 
ATOM      4  C3A BZF d   1       5.953   0.198   0.742  0.00  0.00    -0.107 A 
ATOM      5  C4  BZF d   1       5.958   0.454   2.084  0.00  0.00     0.055 A 
ATOM      6  C5  BZF d   1       5.977   1.745   2.510  0.00  0.00    -0.016 A 
ATOM      7  C6  BZF d   1       5.998   2.802   1.623  0.00  0.00     0.022 A 
ATOM      8  C7  BZF d   1       5.989   2.598   0.284  0.00  0.00     0.029 A 
ATOM      9  C7A BZF d   1       5.936   1.295  -0.150  0.00  0.00     0.058 A 
ENDROOT
TORSDOF 0
ENDMDL
