MODEL 1
REMARK minimizedAffinity 14.0411415
REMARK minimizedRMSD -1
REMARK  0 active torsions:
REMARK  status: ('A' for Active; 'I' for Inactive)
ROOT
ATOM      1  O1  BZF d   1      -1.578   3.649  -2.677  0.00  0.00    -0.204 OA
ATOM      2  C2  BZF d   1      -0.695   2.589  -2.752  0.00  0.00     0.174 A 
ATOM      3  C3  BZF d   1      -1.167   1.631  -3.577  0.00  0.00    -0.012 A 
ATOM      4  C3A BZF d   1      -2.379   2.165  -4.118  0.00  0.00    -0.107 A 
ATOM      5  C4  BZF d   1      -3.297   1.690  -5.011  0.00  0.00     0.055 A 
ATOM      6  C5  BZF d   1      -4.408   2.429  -5.271  0.00  0.00    -0.016 A 
ATOM      7  C6  BZF d   1      -4.635   3.641  -4.654  0.00  0.00     0.022 A 
ATOM      8  C7  BZF d   1      -3.751   4.155  -3.765  0.00  0.00     0.029 A 
ATOM      9  C7A BZF d   1      -2.611   3.427  -3.525  0.00  0.00     0.058 A 
ENDROOT
TORSDOF 0
ENDMDL
