MODEL 1
REMARK minimizedAffinity 7.12685394
REMARK minimizedRMSD -1
REMARK  0 active torsions:
REMARK  status: ('A' for Active; 'I' for Inactive)
ROOT
ATOM      1  O1  BZF d   1       2.540  -2.918   3.057  0.00  0.00    -0.204 OA
ATOM      2  C2  BZF d   1       2.289  -3.657   1.917  0.00  0.00     0.174 A 
ATOM      3  C3  BZF d   1       2.752  -4.916   2.051  0.00  0.00    -0.012 A 
ATOM      4  C3A BZF d   1       3.246  -4.995   3.392  0.00  0.00    -0.107 A 
ATOM      5  C4  BZF d   1       3.816  -5.995   4.126  0.00  0.00     0.055 A 
ATOM      6  C5  BZF d   1       4.254  -5.725   5.383  0.00  0.00    -0.016 A 
ATOM      7  C6  BZF d   1       4.143  -4.466   5.936  0.00  0.00     0.022 A 
ATOM      8  C7  BZF d   1       3.580  -3.443   5.249  0.00  0.00     0.029 A 
ATOM      9  C7A BZF d   1       3.106  -3.721   3.990  0.00  0.00     0.058 A 
ENDROOT
TORSDOF 0
ENDMDL
