MODEL 1
REMARK minimizedAffinity 2.54920101
REMARK minimizedRMSD -1
REMARK  0 active torsions:
REMARK  status: ('A' for Active; 'I' for Inactive)
ROOT
ATOM      1  O1  BZF d   1       4.801   2.035   0.425  0.00  0.00    -0.204 OA
ATOM      2  C2  BZF d   1       5.999   1.979   1.109  0.00  0.00     0.174 A 
ATOM      3  C3  BZF d   1       5.818   2.259   2.416  0.00  0.00    -0.012 A 
ATOM      4  C3A BZF d   1       4.405   2.415   2.575  0.00  0.00    -0.107 A 
ATOM      5  C4  BZF d   1       3.605   2.688   3.648  0.00  0.00     0.055 A 
ATOM      6  C5  BZF d   1       2.269   2.847   3.452  0.00  0.00    -0.016 A 
ATOM      7  C6  BZF d   1       1.702   2.746   2.199  0.00  0.00     0.022 A 
ATOM      8  C7  BZF d   1       2.454   2.473   1.105  0.00  0.00     0.029 A 
ATOM      9  C7A BZF d   1       3.799   2.278   1.304  0.00  0.00     0.058 A 
ENDROOT
TORSDOF 0
ENDMDL
