MODEL 1
REMARK minimizedAffinity 4.41204166
REMARK minimizedRMSD -1
REMARK  0 active torsions:
REMARK  status: ('A' for Active; 'I' for Inactive)
ROOT
ATOM      1  O1  BZF d   1      -0.030  -2.937   2.742  0.00  0.00    -0.204 OA
ATOM      2  C2  BZF d   1       0.102  -1.596   3.050  0.00  0.00     0.174 A 
ATOM      3  C3  BZF d   1       1.272  -1.111   2.586  0.00  0.00    -0.012 A 
ATOM      4  C3A BZF d   1       1.870  -2.195   1.868  0.00  0.00    -0.107 A 
ATOM      5  C4  BZF d   1       3.034  -2.327   1.167  0.00  0.00     0.055 A 
ATOM      6  C5  BZF d   1       3.358  -3.540   0.647  0.00  0.00    -0.016 A 
ATOM      7  C6  BZF d   1       2.545  -4.642   0.813  0.00  0.00     0.022 A 
ATOM      8  C7  BZF d   1       1.377  -4.558   1.497  0.00  0.00     0.029 A 
ATOM      9  C7A BZF d   1       1.031  -3.326   1.995  0.00  0.00     0.058 A 
ENDROOT
TORSDOF 0
ENDMDL
