MODEL 1
REMARK minimizedAffinity 3.0589292
REMARK minimizedRMSD -1
REMARK  0 active torsions:
REMARK  status: ('A' for Active; 'I' for Inactive)
ROOT
ATOM      1  O1  BZF d   1       5.977  -0.415  -0.623  0.00  0.00    -0.204 OA
ATOM      2  C2  BZF d   1       5.965   0.606   0.308  0.00  0.00     0.174 A 
ATOM      3  C3  BZF d   1       5.995   1.809  -0.301  0.00  0.00    -0.012 A 
ATOM      4  C3A BZF d   1       5.936   1.523  -1.702  0.00  0.00    -0.107 A 
ATOM      5  C4  BZF d   1       5.917   2.307  -2.820  0.00  0.00     0.055 A 
ATOM      6  C5  BZF d   1       5.931   1.715  -4.043  0.00  0.00    -0.016 A 
ATOM      7  C6  BZF d   1       5.968   0.343  -4.184  0.00  0.00     0.022 A 
ATOM      8  C7  BZF d   1       5.983  -0.476  -3.105  0.00  0.00     0.029 A 
ATOM      9  C7A BZF d   1       5.936   0.119  -1.868  0.00  0.00     0.058 A 
ENDROOT
TORSDOF 0
ENDMDL
