MODEL 1
REMARK minimizedAffinity 0.45979917
REMARK minimizedRMSD -1
REMARK  0 active torsions:
REMARK  status: ('A' for Active; 'I' for Inactive)
ROOT
ATOM      1  O1  BZF d   1       5.971   2.116  -3.007  0.00  0.00    -0.204 OA
ATOM      2  C2  BZF d   1       5.956   0.861  -3.585  0.00  0.00     0.174 A 
ATOM      3  C3  BZF d   1       6.000  -0.101  -2.641  0.00  0.00    -0.012 A 
ATOM      4  C3A BZF d   1       5.951   0.595  -1.392  0.00  0.00    -0.107 A 
ATOM      5  C4  BZF d   1       5.948   0.186  -0.089  0.00  0.00     0.055 A 
ATOM      6  C5  BZF d   1       5.968   1.121   0.897  0.00  0.00    -0.016 A 
ATOM      7  C6  BZF d   1       5.999   2.471   0.617  0.00  0.00     0.022 A 
ATOM      8  C7  BZF d   1       5.998   2.925  -0.660  0.00  0.00     0.029 A 
ATOM      9  C7A BZF d   1       5.944   1.983  -1.659  0.00  0.00     0.058 A 
ENDROOT
TORSDOF 0
ENDMDL
