MODEL 1
REMARK minimizedAffinity -4.3811512
REMARK minimizedRMSD -1
REMARK  1 active torsions:
REMARK  status: ('A' for Active; 'I' for Inactive)
REMARK    1  A    between atoms: C1_2  and  C2_3 
ROOT
ATOM      1  C2  UNL d   1      -0.136   1.253   0.721  0.00  0.00    -0.081 A 
ATOM      2  C3  UNL d   1       0.975   0.473   0.377  0.00  0.00     0.006 A 
ATOM      3  C4  UNL d   1       0.804  -0.811  -0.146  0.00  0.00     0.002 A 
ATOM      4  C5  UNL d   1      -0.479  -1.333  -0.342  0.00  0.00    -0.080 A 
ATOM      5  C6  UNL d   1      -0.677  -2.698  -0.931  0.00  0.00     0.076 C 
ATOM      6  C7  UNL d   1      -1.589  -0.561   0.018  0.00  0.00     0.002 A 
ATOM      7  C8  UNL d   1      -1.419   0.723   0.542  0.00  0.00     0.006 A 
ENDROOT
BRANCH   1   8
ATOM      8  C1  UNL d   1       0.043   2.663   1.224  0.00  0.00     0.054 C 
ATOM      9  C   UNL d   1       1.471   3.146   1.019  0.00  0.00     0.018 C 
ENDBRANCH   1   8
TORSDOF 1
ENDMDL
