MODEL 1
REMARK minimizedAffinity -3.84815121
REMARK minimizedRMSD -1
REMARK  1 active torsions:
REMARK  status: ('A' for Active; 'I' for Inactive)
REMARK    1  A    between atoms: C1_2  and  C2_3 
ROOT
ATOM      1  C2  UNL d   1      -0.083  -1.745  -0.781  0.00  0.00    -0.081 A 
ATOM      2  C3  UNL d   1      -0.321  -1.483   0.574  0.00  0.00     0.006 A 
ATOM      3  C4  UNL d   1      -0.467  -0.169   1.027  0.00  0.00     0.002 A 
ATOM      4  C5  UNL d   1      -0.385   0.903   0.132  0.00  0.00    -0.080 A 
ATOM      5  C6  UNL d   1      -0.570   2.316   0.600  0.00  0.00     0.076 C 
ATOM      6  C7  UNL d   1      -0.130   0.642  -1.219  0.00  0.00     0.002 A 
ATOM      7  C8  UNL d   1       0.016  -0.671  -1.672  0.00  0.00     0.006 A 
ENDROOT
BRANCH   1   8
ATOM      8  C1  UNL d   1       0.010  -3.163  -1.282  0.00  0.00     0.054 C 
ATOM      9  C   UNL d   1      -1.145  -3.497  -2.215  0.00  0.00     0.018 C 
ENDBRANCH   1   8
TORSDOF 1
ENDMDL
