MODEL 1
REMARK minimizedAffinity -3.75916505
REMARK minimizedRMSD -1
REMARK  1 active torsions:
REMARK  status: ('A' for Active; 'I' for Inactive)
REMARK    1  A    between atoms: C1_2  and  C2_3 
ROOT
ATOM      1  C2  UNL d   1      -0.241  -1.700  -1.126  0.00  0.00    -0.081 A 
ATOM      2  C3  UNL d   1       0.341  -1.403   0.112  0.00  0.00     0.006 A 
ATOM      3  C4  UNL d   1       0.176  -0.141   0.688  0.00  0.00     0.002 A 
ATOM      4  C5  UNL d   1      -0.580   0.841   0.040  0.00  0.00    -0.080 A 
ATOM      5  C6  UNL d   1      -0.791   2.190   0.661  0.00  0.00     0.076 C 
ATOM      6  C7  UNL d   1      -1.148   0.550  -1.205  0.00  0.00     0.002 A 
ATOM      7  C8  UNL d   1      -0.982  -0.711  -1.782  0.00  0.00     0.006 A 
ENDROOT
BRANCH   1   8
ATOM      8  C1  UNL d   1      -0.119  -3.081  -1.719  0.00  0.00     0.054 C 
ATOM      9  C   UNL d   1      -1.320  -3.417  -2.591  0.00  0.00     0.018 C 
ENDBRANCH   1   8
TORSDOF 1
ENDMDL
