MODEL 1
REMARK minimizedAffinity -3.05867434
REMARK minimizedRMSD -1
REMARK  1 active torsions:
REMARK  status: ('A' for Active; 'I' for Inactive)
REMARK    1  A    between atoms: C1_2  and  C2_3 
ROOT
ATOM      1  C2  UNL d   1      -0.443  -1.511  -0.962  0.00  0.00    -0.081 A 
ATOM      2  C3  UNL d   1       0.274  -1.265   0.215  0.00  0.00     0.006 A 
ATOM      3  C4  UNL d   1       0.262   0.003   0.801  0.00  0.00     0.002 A 
ATOM      4  C5  UNL d   1      -0.474   1.044   0.224  0.00  0.00    -0.080 A 
ATOM      5  C6  UNL d   1      -0.521   2.402   0.858  0.00  0.00     0.076 C 
ATOM      6  C7  UNL d   1      -1.177   0.803  -0.962  0.00  0.00     0.002 A 
ATOM      7  C8  UNL d   1      -1.164  -0.465  -1.548  0.00  0.00     0.006 A 
ENDROOT
BRANCH   1   8
ATOM      8  C1  UNL d   1      -0.483  -2.894  -1.560  0.00  0.00     0.054 C 
ATOM      9  C   UNL d   1      -1.142  -2.884  -2.932  0.00  0.00     0.018 C 
ENDBRANCH   1   8
TORSDOF 1
ENDMDL
