MODEL 1
REMARK minimizedAffinity -3.76068974
REMARK minimizedRMSD -1
REMARK  1 active torsions:
REMARK  status: ('A' for Active; 'I' for Inactive)
REMARK    1  A    between atoms: C1_2  and  C2_3 
ROOT
ATOM      1  C2  UNL d   1      -0.644  -1.877  -0.790  0.00  0.00    -0.081 A 
ATOM      2  C3  UNL d   1       0.240  -1.440   0.204  0.00  0.00     0.006 A 
ATOM      3  C4  UNL d   1       0.151  -0.141   0.710  0.00  0.00     0.002 A 
ATOM      4  C5  UNL d   1      -0.827   0.739   0.237  0.00  0.00    -0.080 A 
ATOM      5  C6  UNL d   1      -0.953   2.126   0.793  0.00  0.00     0.076 C 
ATOM      6  C7  UNL d   1      -1.699   0.309  -0.769  0.00  0.00     0.002 A 
ATOM      7  C8  UNL d   1      -1.611  -0.990  -1.275  0.00  0.00     0.006 A 
ENDROOT
BRANCH   1   8
ATOM      8  C1  UNL d   1      -0.592  -3.298  -1.291  0.00  0.00     0.054 C 
ATOM      9  C   UNL d   1       0.626  -3.529  -2.173  0.00  0.00     0.018 C 
ENDBRANCH   1   8
TORSDOF 1
ENDMDL
