MODEL 1
REMARK minimizedAffinity -4.81565046
REMARK minimizedRMSD -1
REMARK  1 active torsions:
REMARK  status: ('A' for Active; 'I' for Inactive)
REMARK    1  A    between atoms: C1_2  and  C2_3 
ROOT
ATOM      1  C2  UNL d   1      -1.087   0.965  -0.434  0.00  0.00    -0.081 A 
ATOM      2  C3  UNL d   1      -0.302  -0.016   0.184  0.00  0.00     0.006 A 
ATOM      3  C4  UNL d   1       0.018  -1.196  -0.491  0.00  0.00     0.002 A 
ATOM      4  C5  UNL d   1      -0.434  -1.411  -1.798  0.00  0.00    -0.080 A 
ATOM      5  C6  UNL d   1      -0.072  -2.660  -2.545  0.00  0.00     0.076 C 
ATOM      6  C7  UNL d   1      -1.233  -0.439  -2.409  0.00  0.00     0.002 A 
ATOM      7  C8  UNL d   1      -1.554   0.741  -1.734  0.00  0.00     0.006 A 
ENDROOT
BRANCH   1   8
ATOM      8  C1  UNL d   1      -1.380   2.267   0.267  0.00  0.00     0.054 C 
ATOM      9  C   UNL d   1      -0.103   2.921   0.776  0.00  0.00     0.018 C 
ENDBRANCH   1   8
TORSDOF 1
ENDMDL
