MODEL 1
REMARK minimizedAffinity -2.97655964
REMARK minimizedRMSD -1
REMARK  1 active torsions:
REMARK  status: ('A' for Active; 'I' for Inactive)
REMARK    1  A    between atoms: C1_2  and  C2_3 
ROOT
ATOM      1  C2  UNL d   1      -0.608  -1.550  -0.346  0.00  0.00    -0.081 A 
ATOM      2  C3  UNL d   1       0.664  -1.042  -0.055  0.00  0.00     0.006 A 
ATOM      3  C4  UNL d   1       0.828   0.301   0.292  0.00  0.00     0.002 A 
ATOM      4  C5  UNL d   1      -0.277   1.156   0.361  0.00  0.00    -0.080 A 
ATOM      5  C6  UNL d   1      -0.119   2.593   0.762  0.00  0.00     0.076 C 
ATOM      6  C7  UNL d   1      -1.546   0.653   0.054  0.00  0.00     0.002 A 
ATOM      7  C8  UNL d   1      -1.710  -0.690  -0.294  0.00  0.00     0.006 A 
ENDROOT
BRANCH   1   8
ATOM      8  C1  UNL d   1      -0.796  -3.013  -0.657  0.00  0.00     0.054 C 
ATOM      9  C   UNL d   1      -0.590  -3.294  -2.139  0.00  0.00     0.018 C 
ENDBRANCH   1   8
TORSDOF 1
ENDMDL
