MODEL 1
REMARK minimizedAffinity -2.96917415
REMARK minimizedRMSD -1
REMARK  1 active torsions:
REMARK  status: ('A' for Active; 'I' for Inactive)
REMARK    1  A    between atoms: C1_2  and  C2_3 
ROOT
ATOM      1  C2  UNL d   1      -0.526  -1.840  -0.649  0.00  0.00    -0.081 A 
ATOM      2  C3  UNL d   1      -0.054  -1.456   0.612  0.00  0.00     0.006 A 
ATOM      3  C4  UNL d   1      -0.166  -0.130   1.037  0.00  0.00     0.002 A 
ATOM      4  C5  UNL d   1      -0.758   0.832   0.212  0.00  0.00    -0.080 A 
ATOM      5  C6  UNL d   1      -0.912   2.252   0.669  0.00  0.00     0.076 C 
ATOM      6  C7  UNL d   1      -1.214   0.453  -1.055  0.00  0.00     0.002 A 
ATOM      7  C8  UNL d   1      -1.102  -0.873  -1.480  0.00  0.00     0.006 A 
ENDROOT
BRANCH   1   8
ATOM      8  C1  UNL d   1      -0.465  -3.282  -1.084  0.00  0.00     0.054 C 
ATOM      9  C   UNL d   1      -0.850  -3.434  -2.549  0.00  0.00     0.018 C 
ENDBRANCH   1   8
TORSDOF 1
ENDMDL
