MODEL 1
REMARK minimizedAffinity -4.2586298
REMARK minimizedRMSD -1
REMARK  1 active torsions:
REMARK  status: ('A' for Active; 'I' for Inactive)
REMARK    1  A    between atoms: C1_2  and  C2_3 
ROOT
ATOM      1  C2  UNL d   1      -0.631  -1.761  -0.516  0.00  0.00    -0.081 A 
ATOM      2  C3  UNL d   1      -0.021  -1.436   0.701  0.00  0.00     0.006 A 
ATOM      3  C4  UNL d   1       0.033  -0.109   1.134  0.00  0.00     0.002 A 
ATOM      4  C5  UNL d   1      -0.527   0.913   0.362  0.00  0.00    -0.080 A 
ATOM      5  C6  UNL d   1      -0.502   2.338   0.829  0.00  0.00     0.076 C 
ATOM      6  C7  UNL d   1      -1.122   0.591  -0.863  0.00  0.00     0.002 A 
ATOM      7  C8  UNL d   1      -1.176  -0.735  -1.297  0.00  0.00     0.006 A 
ENDROOT
BRANCH   1   8
ATOM      8  C1  UNL d   1      -0.749  -3.198  -0.955  0.00  0.00     0.054 C 
ATOM      9  C   UNL d   1      -0.089  -3.419  -2.309  0.00  0.00     0.018 C 
ENDBRANCH   1   8
TORSDOF 1
ENDMDL
