MODEL 1
REMARK minimizedAffinity -4.46631193
REMARK minimizedRMSD -1
REMARK  1 active torsions:
REMARK  status: ('A' for Active; 'I' for Inactive)
REMARK    1  A    between atoms: C1_2  and  C2_3 
ROOT
ATOM      1  C2  UNL d   1      -0.245  -1.639  -1.098  0.00  0.00    -0.081 A 
ATOM      2  C3  UNL d   1      -0.803  -0.582  -1.826  0.00  0.00     0.006 A 
ATOM      3  C4  UNL d   1      -1.082   0.637  -1.204  0.00  0.00     0.002 A 
ATOM      4  C5  UNL d   1      -0.799   0.823   0.153  0.00  0.00    -0.080 A 
ATOM      5  C6  UNL d   1      -1.065   2.137   0.826  0.00  0.00     0.076 C 
ATOM      6  C7  UNL d   1      -0.257  -0.239   0.885  0.00  0.00     0.002 A 
ATOM      7  C8  UNL d   1       0.020  -1.459   0.264  0.00  0.00     0.006 A 
ENDROOT
BRANCH   1   8
ATOM      8  C1  UNL d   1       0.116  -2.934  -1.780  0.00  0.00     0.054 C 
ATOM      9  C   UNL d   1      -0.914  -4.017  -1.493  0.00  0.00     0.018 C 
ENDBRANCH   1   8
TORSDOF 1
ENDMDL
