MODEL 1
REMARK minimizedAffinity -4.48817635
REMARK minimizedRMSD -1
REMARK  1 active torsions:
REMARK  status: ('A' for Active; 'I' for Inactive)
REMARK    1  A    between atoms: C1_2  and  C2_3 
ROOT
ATOM      1  C2  UNL d   1      -0.360  -1.868  -0.775  0.00  0.00    -0.081 A 
ATOM      2  C3  UNL d   1      -0.092  -1.552   0.562  0.00  0.00     0.006 A 
ATOM      3  C4  UNL d   1      -0.346  -0.269   1.051  0.00  0.00     0.002 A 
ATOM      4  C5  UNL d   1      -0.879   0.717   0.213  0.00  0.00    -0.080 A 
ATOM      5  C6  UNL d   1      -1.184   2.091   0.733  0.00  0.00     0.076 C 
ATOM      6  C7  UNL d   1      -1.129   0.407  -1.127  0.00  0.00     0.002 A 
ATOM      7  C8  UNL d   1      -0.875  -0.876  -1.617  0.00  0.00     0.006 A 
ENDROOT
BRANCH   1   8
ATOM      8  C1  UNL d   1      -0.148  -3.270  -1.289  0.00  0.00     0.054 C 
ATOM      9  C   UNL d   1      -0.678  -3.425  -2.707  0.00  0.00     0.018 C 
ENDBRANCH   1   8
TORSDOF 1
ENDMDL
