MODEL 1
REMARK minimizedAffinity -4.08084393
REMARK minimizedRMSD -1
REMARK  1 active torsions:
REMARK  status: ('A' for Active; 'I' for Inactive)
REMARK    1  A    between atoms: C1_2  and  C2_3 
ROOT
ATOM      1  C2  UNL d   1      -0.368  -1.636  -0.632  0.00  0.00    -0.081 A 
ATOM      2  C3  UNL d   1      -0.234  -0.530  -1.479  0.00  0.00     0.006 A 
ATOM      3  C4  UNL d   1      -0.261   0.767  -0.960  0.00  0.00     0.002 A 
ATOM      4  C5  UNL d   1      -0.415   0.979   0.414  0.00  0.00    -0.080 A 
ATOM      5  C6  UNL d   1      -0.415   2.365   0.988  0.00  0.00     0.076 C 
ATOM      6  C7  UNL d   1      -0.566  -0.126   1.259  0.00  0.00     0.002 A 
ATOM      7  C8  UNL d   1      -0.540  -1.423   0.741  0.00  0.00     0.006 A 
ENDROOT
BRANCH   1   8
ATOM      8  C1  UNL d   1      -0.274  -3.037  -1.180  0.00  0.00     0.054 C 
ATOM      9  C   UNL d   1      -1.399  -3.322  -2.165  0.00  0.00     0.018 C 
ENDBRANCH   1   8
TORSDOF 1
ENDMDL
