MODEL 1
REMARK minimizedAffinity -2.99718666
REMARK minimizedRMSD -1
REMARK  1 active torsions:
REMARK  status: ('A' for Active; 'I' for Inactive)
REMARK    1  A    between atoms: C1_2  and  C2_3 
ROOT
ATOM      1  C2  UNL d   1      -0.380  -1.555  -1.101  0.00  0.00    -0.081 A 
ATOM      2  C3  UNL d   1       0.269  -1.357   0.124  0.00  0.00     0.006 A 
ATOM      3  C4  UNL d   1       0.203  -0.120   0.768  0.00  0.00     0.002 A 
ATOM      4  C5  UNL d   1      -0.518   0.938   0.203  0.00  0.00    -0.080 A 
ATOM      5  C6  UNL d   1      -0.621   2.262   0.900  0.00  0.00     0.076 C 
ATOM      6  C7  UNL d   1      -1.152   0.746  -1.029  0.00  0.00     0.002 A 
ATOM      7  C8  UNL d   1      -1.086  -0.491  -1.674  0.00  0.00     0.006 A 
ENDROOT
BRANCH   1   8
ATOM      8  C1  UNL d   1      -0.365  -2.907  -1.767  0.00  0.00     0.054 C 
ATOM      9  C   UNL d   1      -1.746  -3.283  -2.286  0.00  0.00     0.018 C 
ENDBRANCH   1   8
TORSDOF 1
ENDMDL
