MODEL 1
REMARK minimizedAffinity -3.12220716
REMARK minimizedRMSD -1
REMARK  0 active torsions:
REMARK  status: ('A' for Active; 'I' for Inactive)
ROOT
ATOM      1  O1  BZF d   1      -0.416  -0.748  -1.282  0.00  0.00    -0.204 OA
ATOM      2  C2  BZF d   1      -0.326  -1.270  -0.006  0.00  0.00     0.174 A 
ATOM      3  C3  BZF d   1      -0.072  -0.297   0.892  0.00  0.00    -0.012 A 
ATOM      4  C3A BZF d   1      -0.090   0.921   0.143  0.00  0.00    -0.107 A 
ATOM      5  C4  BZF d   1       0.080   2.234   0.480  0.00  0.00     0.055 A 
ATOM      6  C5  BZF d   1       0.075   3.173  -0.502  0.00  0.00    -0.016 A 
ATOM      7  C6  BZF d   1      -0.092   2.836  -1.829  0.00  0.00     0.022 A 
ATOM      8  C7  BZF d   1      -0.270   1.548  -2.211  0.00  0.00     0.029 A 
ATOM      9  C7A BZF d   1      -0.299   0.600  -1.219  0.00  0.00     0.058 A 
ENDROOT
TORSDOF 0
ENDMDL
