MODEL 1
REMARK minimizedAffinity -5.37445259
REMARK minimizedRMSD -1
REMARK  0 active torsions:
REMARK  status: ('A' for Active; 'I' for Inactive)
ROOT
ATOM      1  O1  BZF d   1       0.750  -0.615  -0.056  0.00  0.00    -0.204 OA
ATOM      2  C2  BZF d   1      -0.614  -0.832  -0.089  0.00  0.00     0.174 A 
ATOM      3  C3  BZF d   1      -1.286   0.324   0.086  0.00  0.00    -0.012 A 
ATOM      4  C3A BZF d   1      -0.280   1.339   0.145  0.00  0.00    -0.107 A 
ATOM      5  C4  BZF d   1      -0.324   2.696   0.291  0.00  0.00     0.055 A 
ATOM      6  C5  BZF d   1       0.842   3.388   0.384  0.00  0.00    -0.016 A 
ATOM      7  C6  BZF d   1       2.067   2.756   0.340  0.00  0.00     0.022 A 
ATOM      8  C7  BZF d   1       2.161   1.412   0.191  0.00  0.00     0.029 A 
ATOM      9  C7A BZF d   1       0.985   0.714   0.064  0.00  0.00     0.058 A 
ENDROOT
TORSDOF 0
ENDMDL
