MODEL 1
REMARK minimizedAffinity -3.55342531
REMARK minimizedRMSD -1
REMARK  0 active torsions:
REMARK  status: ('A' for Active; 'I' for Inactive)
ROOT
ATOM      1  O1  BZF d   1      -1.119   3.232   0.778  0.00  0.00    -0.204 OA
ATOM      2  C2  BZF d   1      -0.314   3.950  -0.085  0.00  0.00     0.174 A 
ATOM      3  C3  BZF d   1       0.445   3.122  -0.831  0.00  0.00    -0.012 A 
ATOM      4  C3A BZF d   1       0.025   1.802  -0.474  0.00  0.00    -0.107 A 
ATOM      5  C4  BZF d   1       0.397   0.555  -0.887  0.00  0.00     0.055 A 
ATOM      6  C5  BZF d   1      -0.156  -0.532  -0.287  0.00  0.00    -0.016 A 
ATOM      7  C6  BZF d   1      -1.078  -0.408   0.732  0.00  0.00     0.022 A 
ATOM      8  C7  BZF d   1      -1.482   0.809   1.172  0.00  0.00     0.029 A 
ATOM      9  C7A BZF d   1      -0.950   1.909   0.545  0.00  0.00     0.058 A 
ENDROOT
TORSDOF 0
ENDMDL
