MODEL 1
REMARK minimizedAffinity -5.7393918
REMARK minimizedRMSD -1
REMARK  0 active torsions:
REMARK  status: ('A' for Active; 'I' for Inactive)
ROOT
ATOM      1  O1  BZF d   1      -0.751   3.008   0.190  0.00  0.00    -0.204 OA
ATOM      2  C2  BZF d   1       0.474   3.267  -0.393  0.00  0.00     0.174 A 
ATOM      3  C3  BZF d   1       1.246   2.162  -0.396  0.00  0.00    -0.012 A 
ATOM      4  C3A BZF d   1       0.420   1.124   0.141  0.00  0.00    -0.107 A 
ATOM      5  C4  BZF d   1       0.617  -0.207   0.375  0.00  0.00     0.055 A 
ATOM      6  C5  BZF d   1      -0.368  -0.925   0.976  0.00  0.00    -0.016 A 
ATOM      7  C6  BZF d   1      -1.559  -0.344   1.359  0.00  0.00     0.022 A 
ATOM      8  C7  BZF d   1      -1.803   0.971   1.143  0.00  0.00     0.029 A 
ATOM      9  C7A BZF d   1      -0.822   1.692   0.506  0.00  0.00     0.058 A 
ENDROOT
TORSDOF 0
ENDMDL
