MODEL 1
REMARK minimizedAffinity -1.51253033
REMARK minimizedRMSD -1
REMARK  0 active torsions:
REMARK  status: ('A' for Active; 'I' for Inactive)
ROOT
ATOM      1  O1  BZF d   1      -0.344  -0.466   0.783  0.00  0.00    -0.204 OA
ATOM      2  C2  BZF d   1      -1.600   0.052   1.032  0.00  0.00     0.174 A 
ATOM      3  C3  BZF d   1      -1.631   1.376   0.776  0.00  0.00    -0.012 A 
ATOM      4  C3A BZF d   1      -0.337   1.688   0.251  0.00  0.00    -0.107 A 
ATOM      5  C4  BZF d   1       0.239   2.840  -0.203  0.00  0.00     0.055 A 
ATOM      6  C5  BZF d   1       1.545   2.822  -0.579  0.00  0.00    -0.016 A 
ATOM      7  C6  BZF d   1       2.304   1.672  -0.509  0.00  0.00     0.022 A 
ATOM      8  C7  BZF d   1       1.775   0.504  -0.070  0.00  0.00     0.029 A 
ATOM      9  C7A BZF d   1       0.447   0.512   0.279  0.00  0.00     0.058 A 
ENDROOT
TORSDOF 0
ENDMDL
