MODEL 1
REMARK minimizedAffinity -1.33816469
REMARK minimizedRMSD -1
REMARK  0 active torsions:
REMARK  status: ('A' for Active; 'I' for Inactive)
ROOT
ATOM      1  O1  BZF d   1       1.064  -0.702   0.774  0.00  0.00    -0.204 OA
ATOM      2  C2  BZF d   1       2.316  -0.118   0.756  0.00  0.00     0.174 A 
ATOM      3  C3  BZF d   1       2.218   1.219   0.610  0.00  0.00    -0.012 A 
ATOM      4  C3A BZF d   1       0.814   1.497   0.625  0.00  0.00    -0.107 A 
ATOM      5  C4  BZF d   1       0.085   2.648   0.536  0.00  0.00     0.055 A 
ATOM      6  C5  BZF d   1      -1.272   2.569   0.509  0.00  0.00    -0.016 A 
ATOM      7  C6  BZF d   1      -1.930   1.358   0.564  0.00  0.00     0.022 A 
ATOM      8  C7  BZF d   1      -1.249   0.190   0.658  0.00  0.00     0.029 A 
ATOM      9  C7A BZF d   1       0.121   0.269   0.719  0.00  0.00     0.058 A 
ENDROOT
TORSDOF 0
ENDMDL
