MODEL 1
REMARK minimizedAffinity -3.96023774
REMARK minimizedRMSD -1
REMARK  0 active torsions:
REMARK  status: ('A' for Active; 'I' for Inactive)
ROOT
ATOM      1  O1  BZF d   1       1.803  -0.593   0.253  0.00  0.00    -0.204 OA
ATOM      2  C2  BZF d   1       0.906  -1.624   0.459  0.00  0.00     0.174 A 
ATOM      3  C3  BZF d   1      -0.351  -1.148   0.572  0.00  0.00    -0.012 A 
ATOM      4  C3A BZF d   1      -0.244   0.259   0.336  0.00  0.00    -0.107 A 
ATOM      5  C4  BZF d   1      -1.154   1.277   0.298  0.00  0.00     0.055 A 
ATOM      6  C5  BZF d   1      -0.714   2.549   0.115  0.00  0.00    -0.016 A 
ATOM      7  C6  BZF d   1       0.627   2.841  -0.028  0.00  0.00     0.022 A 
ATOM      8  C7  BZF d   1       1.566   1.864  -0.003  0.00  0.00     0.029 A 
ATOM      9  C7A BZF d   1       1.122   0.573   0.149  0.00  0.00     0.058 A 
ENDROOT
TORSDOF 0
ENDMDL
