MODEL 1
REMARK minimizedAffinity -4.29771614
REMARK minimizedRMSD -1
REMARK  0 active torsions:
REMARK  status: ('A' for Active; 'I' for Inactive)
ROOT
ATOM      1  O1  BZF d   1       1.173  -0.003  -1.231  0.00  0.00    -0.204 OA
ATOM      2  C2  BZF d   1       0.399  -1.139  -1.089  0.00  0.00     0.174 A 
ATOM      3  C3  BZF d   1      -0.696  -0.882  -0.346  0.00  0.00    -0.012 A 
ATOM      4  C3A BZF d   1      -0.649   0.523  -0.079  0.00  0.00    -0.107 A 
ATOM      5  C4  BZF d   1      -1.470   1.377   0.599  0.00  0.00     0.055 A 
ATOM      6  C5  BZF d   1      -1.100   2.678   0.737  0.00  0.00    -0.016 A 
ATOM      7  C6  BZF d   1       0.084   3.156   0.214  0.00  0.00     0.022 A 
ATOM      8  C7  BZF d   1       0.928   2.347  -0.471  0.00  0.00     0.029 A 
ATOM      9  C7A BZF d   1       0.541   1.040  -0.640  0.00  0.00     0.058 A 
ENDROOT
TORSDOF 0
ENDMDL
