MODEL 1
REMARK minimizedAffinity -4.91475344
REMARK minimizedRMSD -1
REMARK  0 active torsions:
REMARK  status: ('A' for Active; 'I' for Inactive)
ROOT
ATOM      1  O1  BZF d   1      -1.021  -0.241   0.905  0.00  0.00    -0.204 OA
ATOM      2  C2  BZF d   1      -0.198  -1.251   0.447  0.00  0.00     0.174 A 
ATOM      3  C3  BZF d   1       0.773  -0.753  -0.346  0.00  0.00    -0.012 A 
ATOM      4  C3A BZF d   1       0.598   0.666  -0.311  0.00  0.00    -0.107 A 
ATOM      5  C4  BZF d   1       1.265   1.709  -0.887  0.00  0.00     0.055 A 
ATOM      6  C5  BZF d   1       0.794   2.972  -0.711  0.00  0.00    -0.016 A 
ATOM      7  C6  BZF d   1      -0.342   3.227   0.028  0.00  0.00     0.022 A 
ATOM      8  C7  BZF d   1      -1.035   2.225   0.623  0.00  0.00     0.029 A 
ATOM      9  C7A BZF d   1      -0.543   0.951   0.475  0.00  0.00     0.058 A 
ENDROOT
TORSDOF 0
ENDMDL
