MODEL 1
REMARK minimizedAffinity -4.00365925
REMARK minimizedRMSD -1
REMARK  0 active torsions:
REMARK  status: ('A' for Active; 'I' for Inactive)
ROOT
ATOM      1  O1  BZF d   1      -0.320   2.554   0.594  0.00  0.00    -0.204 OA
ATOM      2  C2  BZF d   1       0.790   3.007  -0.095  0.00  0.00     0.174 A 
ATOM      3  C3  BZF d   1       1.421   1.986  -0.708  0.00  0.00    -0.012 A 
ATOM      4  C3A BZF d   1       0.608   0.836  -0.459  0.00  0.00    -0.107 A 
ATOM      5  C4  BZF d   1       0.701  -0.477  -0.823  0.00  0.00     0.055 A 
ATOM      6  C5  BZF d   1      -0.220  -1.360  -0.355  0.00  0.00    -0.016 A 
ATOM      7  C6  BZF d   1      -1.243  -0.965   0.483  0.00  0.00     0.022 A 
ATOM      8  C7  BZF d   1      -1.380   0.327   0.867  0.00  0.00     0.029 A 
ATOM      9  C7A BZF d   1      -0.470   1.227   0.368  0.00  0.00     0.058 A 
ENDROOT
TORSDOF 0
ENDMDL
