MODEL 1
REMARK minimizedAffinity -4.21423388
REMARK minimizedRMSD -1
REMARK  0 active torsions:
REMARK  status: ('A' for Active; 'I' for Inactive)
ROOT
ATOM      1  O1  BZF d   1      -0.222  -1.852   0.317  0.00  0.00    -0.204 OA
ATOM      2  C2  BZF d   1       0.180  -0.531   0.267  0.00  0.00     0.174 A 
ATOM      3  C3  BZF d   1       0.302  -0.116  -1.010  0.00  0.00    -0.012 A 
ATOM      4  C3A BZF d   1      -0.135  -1.220  -1.808  0.00  0.00    -0.107 A 
ATOM      5  C4  BZF d   1      -0.261  -1.415  -3.154  0.00  0.00     0.055 A 
ATOM      6  C5  BZF d   1      -0.647  -2.634  -3.612  0.00  0.00    -0.016 A 
ATOM      7  C6  BZF d   1      -0.910  -3.682  -2.754  0.00  0.00     0.022 A 
ATOM      8  C7  BZF d   1      -0.805  -3.536  -1.411  0.00  0.00     0.029 A 
ATOM      9  C7A BZF d   1      -0.447  -2.295  -0.943  0.00  0.00     0.058 A 
ENDROOT
TORSDOF 0
ENDMDL
