MODEL 1
REMARK minimizedAffinity -6.18872976
REMARK minimizedRMSD -1
REMARK  0 active torsions:
REMARK  status: ('A' for Active; 'I' for Inactive)
ROOT
ATOM      1  O1  BZF d   1       1.618  -0.914   0.385  0.00  0.00    -0.204 OA
ATOM      2  C2  BZF d   1       0.527  -1.760   0.330  0.00  0.00     0.174 A 
ATOM      3  C3  BZF d   1      -0.615  -1.059   0.175  0.00  0.00    -0.012 A 
ATOM      4  C3A BZF d   1      -0.203   0.304   0.037  0.00  0.00    -0.107 A 
ATOM      5  C4  BZF d   1      -0.880   1.474  -0.160  0.00  0.00     0.055 A 
ATOM      6  C5  BZF d   1      -0.188   2.643  -0.177  0.00  0.00    -0.016 A 
ATOM      7  C6  BZF d   1       1.179   2.680   0.006  0.00  0.00     0.022 A 
ATOM      8  C7  BZF d   1       1.895   1.545   0.200  0.00  0.00     0.029 A 
ATOM      9  C7A BZF d   1       1.202   0.359   0.184  0.00  0.00     0.058 A 
ENDROOT
TORSDOF 0
ENDMDL
