MODEL 1
REMARK minimizedAffinity 3.08669639
REMARK minimizedRMSD -1
REMARK  0 active torsions:
REMARK  status: ('A' for Active; 'I' for Inactive)
ROOT
ATOM      1  O1  BZF d   1       0.945  -0.804   0.001  0.00  0.00    -0.204 OA
ATOM      2  C2  BZF d   1      -0.026  -1.786  -0.036  0.00  0.00     0.174 A 
ATOM      3  C3  BZF d   1      -1.230  -1.283   0.304  0.00  0.00    -0.012 A 
ATOM      4  C3A BZF d   1      -1.014   0.121   0.480  0.00  0.00    -0.107 A 
ATOM      5  C4  BZF d   1      -1.834   1.163   0.807  0.00  0.00     0.055 A 
ATOM      6  C5  BZF d   1      -1.296   2.400   0.970  0.00  0.00    -0.016 A 
ATOM      7  C6  BZF d   1       0.055   2.630   0.818  0.00  0.00     0.022 A 
ATOM      8  C7  BZF d   1       0.908   1.629   0.489  0.00  0.00     0.029 A 
ATOM      9  C7A BZF d   1       0.362   0.384   0.292  0.00  0.00     0.058 A 
ENDROOT
TORSDOF 0
ENDMDL
