MODEL 1
REMARK minimizedAffinity -6.55975008
REMARK minimizedRMSD -1
REMARK  0 active torsions:
REMARK  status: ('A' for Active; 'I' for Inactive)
ROOT
ATOM      1  O1  BZF d   1      -0.381   0.457   0.131  0.00  0.00    -0.204 OA
ATOM      2  C2  BZF d   1       0.408  -0.673   0.219  0.00  0.00     0.174 A 
ATOM      3  C3  BZF d   1       1.714  -0.342   0.281  0.00  0.00    -0.012 A 
ATOM      4  C3A BZF d   1       1.738   1.088   0.322  0.00  0.00    -0.107 A 
ATOM      5  C4  BZF d   1       2.744   2.008   0.403  0.00  0.00     0.055 A 
ATOM      6  C5  BZF d   1       2.435   3.330   0.348  0.00  0.00    -0.016 A 
ATOM      7  C6  BZF d   1       1.134   3.767   0.207  0.00  0.00     0.022 A 
ATOM      8  C7  BZF d   1       0.102   2.892   0.128  0.00  0.00     0.029 A 
ATOM      9  C7A BZF d   1       0.408   1.556   0.216  0.00  0.00     0.058 A 
ENDROOT
TORSDOF 0
ENDMDL
