MODEL 1
REMARK minimizedAffinity -3.93063688
REMARK minimizedRMSD -1
REMARK  0 active torsions:
REMARK  status: ('A' for Active; 'I' for Inactive)
ROOT
ATOM      1  O1  BZF d   1       1.297   2.787   1.089  0.00  0.00    -0.204 OA
ATOM      2  C2  BZF d   1       2.564   2.238   1.127  0.00  0.00     0.174 A 
ATOM      3  C3  BZF d   1       2.513   0.903   0.940  0.00  0.00    -0.012 A 
ATOM      4  C3A BZF d   1       1.136   0.612   0.683  0.00  0.00    -0.107 A 
ATOM      5  C4  BZF d   1       0.456  -0.540   0.406  0.00  0.00     0.055 A 
ATOM      6  C5  BZF d   1      -0.896  -0.494   0.279  0.00  0.00    -0.016 A 
ATOM      7  C6  BZF d   1      -1.600   0.683   0.428  0.00  0.00     0.022 A 
ATOM      8  C7  BZF d   1      -0.968   1.852   0.698  0.00  0.00     0.029 A 
ATOM      9  C7A BZF d   1       0.401   1.815   0.794  0.00  0.00     0.058 A 
ENDROOT
TORSDOF 0
ENDMDL
