MODEL 1
REMARK minimizedAffinity -2.97544646
REMARK minimizedRMSD -1
REMARK  1 active torsions:
REMARK  status: ('A' for Active; 'I' for Inactive)
REMARK    1  A    between atoms: C3_4  and  O_7 
ROOT
ATOM      1  C   UNL d   1       1.382  -0.566  -0.155  0.00  0.00    -0.033 A 
ATOM      2  C1  UNL d   1       0.154   0.057  -0.388  0.00  0.00     0.039 A 
ATOM      3  C2  UNL d   1      -0.448   0.816   0.617  0.00  0.00    -0.080 A 
ATOM      4  C3  UNL d   1       0.187   0.945   1.849  0.00  0.00     0.150 A 
ATOM      5  C4  UNL d   1       1.412   0.330   2.087  0.00  0.00    -0.007 A 
ATOM      6  C5  UNL d   1       2.011  -0.428   1.083  0.00  0.00     0.039 A 
ENDROOT
BRANCH   4   7
ATOM      7  O   UNL d   1      -0.364   1.671   2.862  0.00  0.00    -0.526 OA
ATOM      8  H5  UNL d   1      -1.223   2.013   2.564  0.00  0.00     0.418 HD
ENDBRANCH   4   7
TORSDOF 1
ENDMDL
