MODEL 1
REMARK minimizedAffinity -2.27851653
REMARK minimizedRMSD -1
REMARK  1 active torsions:
REMARK  status: ('A' for Active; 'I' for Inactive)
REMARK    1  A    between atoms: C3_4  and  O_7 
ROOT
ATOM      1  C   UNL d   1      -0.984   0.020   1.033  0.00  0.00    -0.033 A 
ATOM      2  C1  UNL d   1      -1.695  -0.167  -0.154  0.00  0.00     0.039 A 
ATOM      3  C2  UNL d   1      -1.014  -0.266  -1.369  0.00  0.00    -0.080 A 
ATOM      4  C3  UNL d   1       0.375  -0.178  -1.383  0.00  0.00     0.150 A 
ATOM      5  C4  UNL d   1       1.090   0.005  -0.204  0.00  0.00    -0.007 A 
ATOM      6  C5  UNL d   1       0.408   0.104   1.008  0.00  0.00     0.039 A 
ENDROOT
BRANCH   4   7
ATOM      7  O   UNL d   1       1.082  -0.264  -2.545  0.00  0.00    -0.526 OA
ATOM      8  H5  UNL d   1       0.455  -0.361  -3.281  0.00  0.00     0.418 HD
ENDBRANCH   4   7
TORSDOF 1
ENDMDL
