MODEL 1
REMARK minimizedAffinity -3.34427309
REMARK minimizedRMSD -1
REMARK  1 active torsions:
REMARK  status: ('A' for Active; 'I' for Inactive)
REMARK    1  A    between atoms: C3_4  and  O_7 
ROOT
ATOM      1  C   UNL d   1       0.169   1.397   1.000  0.00  0.00    -0.033 A 
ATOM      2  C1  UNL d   1      -0.705   0.573   0.289  0.00  0.00     0.039 A 
ATOM      3  C2  UNL d   1      -1.763  -0.059   0.946  0.00  0.00    -0.080 A 
ATOM      4  C3  UNL d   1      -1.935   0.142   2.313  0.00  0.00     0.150 A 
ATOM      5  C4  UNL d   1      -1.071   0.965   3.027  0.00  0.00    -0.007 A 
ATOM      6  C5  UNL d   1      -0.015   1.594   2.369  0.00  0.00     0.039 A 
ENDROOT
BRANCH   4   7
ATOM      7  O   UNL d   1      -2.950  -0.458   2.998  0.00  0.00    -0.526 OA
ATOM      8  H5  UNL d   1      -3.449  -1.019   2.382  0.00  0.00     0.418 HD
ENDBRANCH   4   7
TORSDOF 1
ENDMDL
