MODEL 1
REMARK minimizedAffinity -2.60490656
REMARK minimizedRMSD -1
REMARK  1 active torsions:
REMARK  status: ('A' for Active; 'I' for Inactive)
REMARK    1  A    between atoms: C3_4  and  O_7 
ROOT
ATOM      1  C   UNL d   1       0.677  -0.658  -1.154  0.00  0.00    -0.033 A 
ATOM      2  C1  UNL d   1       1.592  -0.326  -0.154  0.00  0.00     0.039 A 
ATOM      3  C2  UNL d   1       1.171   0.384   0.972  0.00  0.00    -0.080 A 
ATOM      4  C3  UNL d   1      -0.166   0.755   1.086  0.00  0.00     0.150 A 
ATOM      5  C4  UNL d   1      -1.084   0.424   0.094  0.00  0.00    -0.007 A 
ATOM      6  C5  UNL d   1      -0.662  -0.285  -1.030  0.00  0.00     0.039 A 
ENDROOT
BRANCH   4   7
ATOM      7  O   UNL d   1      -0.623   1.453   2.164  0.00  0.00    -0.526 OA
ATOM      8  H5  UNL d   1       0.128   1.636   2.753  0.00  0.00     0.418 HD
ENDBRANCH   4   7
TORSDOF 1
ENDMDL
