MODEL 1
REMARK minimizedAffinity -4.02012491
REMARK minimizedRMSD -1
REMARK  1 active torsions:
REMARK  status: ('A' for Active; 'I' for Inactive)
REMARK    1  A    between atoms: C3_4  and  O_7 
ROOT
ATOM      1  C   UNL d   1       1.527  -0.489  -0.001  0.00  0.00    -0.033 A 
ATOM      2  C1  UNL d   1       0.293   0.079  -0.323  0.00  0.00     0.039 A 
ATOM      3  C2  UNL d   1      -0.407   0.820   0.632  0.00  0.00    -0.080 A 
ATOM      4  C3  UNL d   1       0.138   0.986   1.902  0.00  0.00     0.150 A 
ATOM      5  C4  UNL d   1       1.369   0.426   2.228  0.00  0.00    -0.007 A 
ATOM      6  C5  UNL d   1       2.066  -0.314   1.274  0.00  0.00     0.039 A 
ENDROOT
BRANCH   4   7
ATOM      7  O   UNL d   1      -0.510   1.697   2.868  0.00  0.00    -0.526 OA
ATOM      8  H5  UNL d   1      -1.360   2.000   2.509  0.00  0.00     0.418 HD
ENDBRANCH   4   7
TORSDOF 1
ENDMDL
