MODEL 1
REMARK minimizedAffinity -4.11030149
REMARK minimizedRMSD -1
REMARK  1 active torsions:
REMARK  status: ('A' for Active; 'I' for Inactive)
REMARK    1  A    between atoms: C3_4  and  O_7 
ROOT
ATOM      1  C   UNL d   1      -0.677  -0.349  -0.474  0.00  0.00    -0.033 A 
ATOM      2  C1  UNL d   1      -1.937  -0.069   0.057  0.00  0.00     0.039 A 
ATOM      3  C2  UNL d   1      -2.050   0.578   1.289  0.00  0.00    -0.080 A 
ATOM      4  C3  UNL d   1      -0.896   0.942   1.977  0.00  0.00     0.150 A 
ATOM      5  C4  UNL d   1       0.363   0.670   1.452  0.00  0.00    -0.007 A 
ATOM      6  C5  UNL d   1       0.473   0.022   0.223  0.00  0.00     0.039 A 
ENDROOT
BRANCH   4   7
ATOM      7  O   UNL d   1      -0.956   1.572   3.185  0.00  0.00    -0.526 OA
ATOM      8  H5  UNL d   1      -1.889   1.668   3.436  0.00  0.00     0.418 HD
ENDBRANCH   4   7
TORSDOF 1
ENDMDL
