MODEL 1
REMARK minimizedAffinity -4.79347229
REMARK minimizedRMSD -1
REMARK  1 active torsions:
REMARK  status: ('A' for Active; 'I' for Inactive)
REMARK    1  A    between atoms: C3_4  and  O_7 
ROOT
ATOM      1  C   UNL d   1       0.284  -0.121   0.385  0.00  0.00    -0.033 A 
ATOM      2  C1  UNL d   1      -0.875  -0.309  -0.369  0.00  0.00     0.039 A 
ATOM      3  C2  UNL d   1      -2.129  -0.136   0.220  0.00  0.00    -0.080 A 
ATOM      4  C3  UNL d   1      -2.210   0.226   1.562  0.00  0.00     0.150 A 
ATOM      5  C4  UNL d   1      -1.058   0.419   2.319  0.00  0.00    -0.007 A 
ATOM      6  C5  UNL d   1       0.193   0.245   1.729  0.00  0.00     0.039 A 
ENDROOT
BRANCH   4   7
ATOM      7  O   UNL d   1      -3.411   0.402   2.182  0.00  0.00    -0.526 OA
ATOM      8  H5  UNL d   1      -4.118   0.206   1.545  0.00  0.00     0.418 HD
ENDBRANCH   4   7
TORSDOF 1
ENDMDL
