MODEL 1
REMARK minimizedAffinity -3.06401563
REMARK minimizedRMSD -1
REMARK  1 active torsions:
REMARK  status: ('A' for Active; 'I' for Inactive)
REMARK    1  A    between atoms: C3_4  and  O_7 
ROOT
ATOM      1  C   UNL d   1      -0.028   1.049   1.211  0.00  0.00    -0.033 A 
ATOM      2  C1  UNL d   1      -0.983   0.345   0.474  0.00  0.00     0.039 A 
ATOM      3  C2  UNL d   1      -2.078  -0.234   1.119  0.00  0.00    -0.080 A 
ATOM      4  C3  UNL d   1      -2.206  -0.101   2.499  0.00  0.00     0.150 A 
ATOM      5  C4  UNL d   1      -1.261   0.602   3.239  0.00  0.00    -0.007 A 
ATOM      6  C5  UNL d   1      -0.168   1.179   2.593  0.00  0.00     0.039 A 
ENDROOT
BRANCH   4   7
ATOM      7  O   UNL d   1      -3.255  -0.652   3.173  0.00  0.00    -0.526 OA
ATOM      8  H5  UNL d   1      -3.812  -1.132   2.537  0.00  0.00     0.418 HD
ENDBRANCH   4   7
TORSDOF 1
ENDMDL
