MODEL 1
REMARK minimizedAffinity -4.08535385
REMARK minimizedRMSD -1
REMARK  1 active torsions:
REMARK  status: ('A' for Active; 'I' for Inactive)
REMARK    1  A    between atoms: C3_4  and  O_7 
ROOT
ATOM      1  C   UNL d   1      -0.905  -0.535   0.041  0.00  0.00    -0.033 A 
ATOM      2  C1  UNL d   1       0.251   0.136   0.443  0.00  0.00     0.039 A 
ATOM      3  C2  UNL d   1       0.224   0.968   1.564  0.00  0.00    -0.080 A 
ATOM      4  C3  UNL d   1      -0.964   1.120   2.274  0.00  0.00     0.150 A 
ATOM      5  C4  UNL d   1      -2.119   0.451   1.881  0.00  0.00    -0.007 A 
ATOM      6  C5  UNL d   1      -2.090  -0.378   0.761  0.00  0.00     0.039 A 
ENDROOT
BRANCH   4   7
ATOM      7  O   UNL d   1      -1.040   1.924   3.371  0.00  0.00    -0.526 OA
ATOM      8  H5  UNL d   1      -0.174   2.343   3.507  0.00  0.00     0.418 HD
ENDBRANCH   4   7
TORSDOF 1
ENDMDL
