MODEL 1
REMARK minimizedAffinity 2.71855617
REMARK minimizedRMSD -1
REMARK  0 active torsions:
REMARK  status: ('A' for Active; 'I' for Inactive)
ROOT
ATOM      1  O1  BZF d   1       1.287  -1.013   2.632  0.00  0.00    -0.204 OA
ATOM      2  C2  BZF d   1       0.818  -1.415   3.868  0.00  0.00     0.174 A 
ATOM      3  C3  BZF d   1      -0.489  -1.112   4.005  0.00  0.00    -0.012 A 
ATOM      4  C3A BZF d   1      -0.884  -0.565   2.744  0.00  0.00    -0.107 A 
ATOM      5  C4  BZF d   1      -2.068  -0.092   2.254  0.00  0.00     0.055 A 
ATOM      6  C5  BZF d   1      -2.100   0.441   1.004  0.00  0.00    -0.016 A 
ATOM      7  C6  BZF d   1      -0.968   0.522   0.220  0.00  0.00     0.022 A 
ATOM      8  C7  BZF d   1       0.229   0.061   0.661  0.00  0.00     0.029 A 
ATOM      9  C7A BZF d   1       0.257  -0.508   1.910  0.00  0.00     0.058 A 
ENDROOT
TORSDOF 0
ENDMDL
