MODEL 1
REMARK minimizedAffinity 7.30008459
REMARK minimizedRMSD -1
REMARK  0 active torsions:
REMARK  status: ('A' for Active; 'I' for Inactive)
ROOT
ATOM      1  O1  BZF d   1       2.869   2.786  -1.515  0.00  0.00    -0.204 OA
ATOM      2  C2  BZF d   1       3.315   3.076  -0.240  0.00  0.00     0.174 A 
ATOM      3  C3  BZF d   1       2.626   2.370   0.680  0.00  0.00    -0.012 A 
ATOM      4  C3A BZF d   1       1.754   1.521  -0.073  0.00  0.00    -0.107 A 
ATOM      5  C4  BZF d   1       0.833   0.576   0.276  0.00  0.00     0.055 A 
ATOM      6  C5  BZF d   1       0.097  -0.021  -0.698  0.00  0.00    -0.016 A 
ATOM      7  C6  BZF d   1       0.253   0.307  -2.029  0.00  0.00     0.022 A 
ATOM      8  C7  BZF d   1       1.158   1.235  -2.424  0.00  0.00     0.029 A 
ATOM      9  C7A BZF d   1       1.926   1.816  -1.445  0.00  0.00     0.058 A 
ENDROOT
TORSDOF 0
ENDMDL
