MODEL 1
REMARK minimizedAffinity -4.65679121
REMARK minimizedRMSD -1
REMARK  0 active torsions:
REMARK  status: ('A' for Active; 'I' for Inactive)
ROOT
ATOM      1  O1  BZF d   1      -1.818   1.884   4.546  0.00  0.00    -0.204 OA
ATOM      2  C2  BZF d   1      -1.074   1.758   5.703  0.00  0.00     0.174 A 
ATOM      3  C3  BZF d   1      -0.011   0.952   5.502  0.00  0.00    -0.012 A 
ATOM      4  C3A BZF d   1      -0.045   0.624   4.110  0.00  0.00    -0.107 A 
ATOM      5  C4  BZF d   1       0.757  -0.132   3.304  0.00  0.00     0.055 A 
ATOM      6  C5  BZF d   1       0.406  -0.311   2.003  0.00  0.00    -0.016 A 
ATOM      7  C6  BZF d   1      -0.743   0.245   1.478  0.00  0.00     0.022 A 
ATOM      8  C7  BZF d   1      -1.567   1.006   2.238  0.00  0.00     0.029 A 
ATOM      9  C7A BZF d   1      -1.197   1.217   3.544  0.00  0.00     0.058 A 
ENDROOT
TORSDOF 0
ENDMDL
