MODEL 1
REMARK minimizedAffinity 7.25399351
REMARK minimizedRMSD -1
REMARK  0 active torsions:
REMARK  status: ('A' for Active; 'I' for Inactive)
ROOT
ATOM      1  O1  BZF d   1       2.904   1.444  -0.926  0.00  0.00    -0.204 OA
ATOM      2  C2  BZF d   1       3.531   2.041   0.150  0.00  0.00     0.174 A 
ATOM      3  C3  BZF d   1       2.843   1.819   1.289  0.00  0.00    -0.012 A 
ATOM      4  C3A BZF d   1       1.765   0.956   0.915  0.00  0.00    -0.107 A 
ATOM      5  C4  BZF d   1       0.746   0.371   1.610  0.00  0.00     0.055 A 
ATOM      6  C5  BZF d   1      -0.182  -0.356   0.935  0.00  0.00    -0.016 A 
ATOM      7  C6  BZF d   1      -0.125  -0.515  -0.434  0.00  0.00     0.022 A 
ATOM      8  C7  BZF d   1       0.870   0.042  -1.166  0.00  0.00     0.029 A 
ATOM      9  C7A BZF d   1       1.828   0.750  -0.483  0.00  0.00     0.058 A 
ENDROOT
TORSDOF 0
ENDMDL
