MODEL 1
REMARK minimizedAffinity 2.77506781
REMARK minimizedRMSD -1
REMARK  0 active torsions:
REMARK  status: ('A' for Active; 'I' for Inactive)
ROOT
ATOM      1  O1  BZF d   1       1.099  -0.770   2.611  0.00  0.00    -0.204 OA
ATOM      2  C2  BZF d   1       0.819  -0.978   3.948  0.00  0.00     0.174 A 
ATOM      3  C3  BZF d   1      -0.471  -0.691   4.217  0.00  0.00    -0.012 A 
ATOM      4  C3A BZF d   1      -1.056  -0.366   2.952  0.00  0.00    -0.107 A 
ATOM      5  C4  BZF d   1      -2.316  -0.010   2.564  0.00  0.00     0.055 A 
ATOM      6  C5  BZF d   1      -2.540   0.312   1.263  0.00  0.00    -0.016 A 
ATOM      7  C6  BZF d   1      -1.528   0.294   0.326  0.00  0.00     0.022 A 
ATOM      8  C7  BZF d   1      -0.263  -0.059   0.662  0.00  0.00     0.029 A 
ATOM      9  C7A BZF d   1      -0.040  -0.416   1.969  0.00  0.00     0.058 A 
ENDROOT
TORSDOF 0
ENDMDL
