MODEL 1
REMARK minimizedAffinity 2.79706812
REMARK minimizedRMSD -1
REMARK  0 active torsions:
REMARK  status: ('A' for Active; 'I' for Inactive)
ROOT
ATOM      1  O1  BZF d   1       0.925  -1.711   3.161  0.00  0.00    -0.204 OA
ATOM      2  C2  BZF d   1       0.406  -1.639   4.439  0.00  0.00     0.174 A 
ATOM      3  C3  BZF d   1      -0.767  -0.973   4.443  0.00  0.00    -0.012 A 
ATOM      4  C3A BZF d   1      -1.041  -0.687   3.068  0.00  0.00    -0.107 A 
ATOM      5  C4  BZF d   1      -2.070  -0.058   2.427  0.00  0.00     0.055 A 
ATOM      6  C5  BZF d   1      -1.999   0.121   1.081  0.00  0.00    -0.016 A 
ATOM      7  C6  BZF d   1      -0.913  -0.310   0.348  0.00  0.00     0.022 A 
ATOM      8  C7  BZF d   1       0.130  -0.943   0.939  0.00  0.00     0.029 A 
ATOM      9  C7A BZF d   1       0.046  -1.155   2.293  0.00  0.00     0.058 A 
ENDROOT
TORSDOF 0
ENDMDL
