MODEL 1
REMARK minimizedAffinity -0.817401946
REMARK minimizedRMSD -1
REMARK  0 active torsions:
REMARK  status: ('A' for Active; 'I' for Inactive)
ROOT
ATOM      1  N1  IND d   1      -0.672  -0.664   0.726  0.00  0.00    -0.196 N 
ATOM      2  C2  IND d   1      -1.677   0.250   0.572  0.00  0.00     0.054 A 
ATOM      3  C3  IND d   1      -1.599   0.833  -0.645  0.00  0.00    -0.031 A 
ATOM      4  C4  IND d   1       0.035   0.369  -2.580  0.00  0.00     0.051 A 
ATOM      5  C5  IND d   1       1.150  -0.353  -2.898  0.00  0.00    -0.031 A 
ATOM      6  C6  IND d   1       1.726  -1.236  -2.007  0.00  0.00     0.015 A 
ATOM      7  C7  IND d   1       1.197  -1.439  -0.764  0.00  0.00    -0.016 A 
ATOM      8  C8  IND d   1       0.069  -0.702  -0.435  0.00  0.00    -0.047 A 
ATOM      9  C9  IND d   1      -0.494   0.227  -1.319  0.00  0.00    -0.096 A 
ATOM     10  HN1 IND d   1      -0.527  -1.136   1.430  0.00  0.00     0.298 HD
ENDROOT
TORSDOF 0
ENDMDL
