MODEL 1
REMARK minimizedAffinity -3.92727494
REMARK minimizedRMSD -1
REMARK  0 active torsions:
REMARK  status: ('A' for Active; 'I' for Inactive)
ROOT
ATOM      1  N1  IND d   1       0.691   1.291   2.305  0.00  0.00    -0.196 N 
ATOM      2  C2  IND d   1      -0.564   1.745   2.605  0.00  0.00     0.054 A 
ATOM      3  C3  IND d   1      -1.459   1.283   1.704  0.00  0.00    -0.031 A 
ATOM      4  C4  IND d   1      -1.103  -0.314  -0.284  0.00  0.00     0.051 A 
ATOM      5  C5  IND d   1      -0.125  -0.967  -0.980  0.00  0.00    -0.031 A 
ATOM      6  C6  IND d   1       1.202  -0.901  -0.607  0.00  0.00     0.015 A 
ATOM      7  C7  IND d   1       1.600  -0.186   0.487  0.00  0.00    -0.016 A 
ATOM      8  C8  IND d   1       0.610   0.484   1.192  0.00  0.00    -0.047 A 
ATOM      9  C9  IND d   1      -0.733   0.455   0.794  0.00  0.00    -0.096 A 
ATOM     10  HN1 IND d   1       1.409   1.479   2.739  0.00  0.00     0.298 HD
ENDROOT
TORSDOF 0
ENDMDL
