MODEL 1
REMARK minimizedAffinity -4.41014147
REMARK minimizedRMSD -1
REMARK  0 active torsions:
REMARK  status: ('A' for Active; 'I' for Inactive)
ROOT
ATOM      1  N1  IND d   1       1.253   1.226  -0.522  0.00  0.00    -0.196 N 
ATOM      2  C2  IND d   1       0.889   0.595  -1.679  0.00  0.00     0.054 A 
ATOM      3  C3  IND d   1      -0.370   0.115  -1.577  0.00  0.00    -0.031 A 
ATOM      4  C4  IND d   1      -2.054   0.338   0.357  0.00  0.00     0.051 A 
ATOM      5  C5  IND d   1      -2.168   0.798   1.639  0.00  0.00    -0.031 A 
ATOM      6  C6  IND d   1      -1.126   1.440   2.278  0.00  0.00     0.015 A 
ATOM      7  C7  IND d   1       0.069   1.656   1.652  0.00  0.00    -0.016 A 
ATOM      8  C8  IND d   1       0.189   1.184   0.353  0.00  0.00    -0.047 A 
ATOM      9  C9  IND d   1      -0.849   0.495  -0.286  0.00  0.00    -0.096 A 
ATOM     10  HN1 IND d   1       2.017   1.589  -0.367  0.00  0.00     0.298 HD
ENDROOT
TORSDOF 0
ENDMDL
