MODEL 1
REMARK minimizedAffinity -4.23517799
REMARK minimizedRMSD -1
REMARK  0 active torsions:
REMARK  status: ('A' for Active; 'I' for Inactive)
ROOT
ATOM      1  N1  IND d   1       1.498  -0.317  -0.110  0.00  0.00    -0.196 N 
ATOM      2  C2  IND d   1       0.989  -0.763  -1.298  0.00  0.00     0.054 A 
ATOM      3  C3  IND d   1      -0.351  -0.587  -1.332  0.00  0.00    -0.031 A 
ATOM      4  C4  IND d   1      -1.901   0.506   0.409  0.00  0.00     0.051 A 
ATOM      5  C5  IND d   1      -1.902   1.033   1.670  0.00  0.00    -0.031 A 
ATOM      6  C6  IND d   1      -0.747   1.141   2.417  0.00  0.00     0.015 A 
ATOM      7  C7  IND d   1       0.461   0.735   1.923  0.00  0.00    -0.016 A 
ATOM      8  C8  IND d   1       0.465   0.193   0.645  0.00  0.00    -0.047 A 
ATOM      9  C9  IND d   1      -0.711   0.042  -0.101  0.00  0.00    -0.096 A 
ATOM     10  HN1 IND d   1       2.324  -0.350   0.126  0.00  0.00     0.298 HD
ENDROOT
TORSDOF 0
ENDMDL
