MODEL 1
REMARK minimizedAffinity -3.65063787
REMARK minimizedRMSD -1
REMARK  0 active torsions:
REMARK  status: ('A' for Active; 'I' for Inactive)
ROOT
ATOM      1  N1  IND d   1       0.658  -1.101  -0.046  0.00  0.00    -0.196 N 
ATOM      2  C2  IND d   1       1.887  -1.016   0.547  0.00  0.00     0.054 A 
ATOM      3  C3  IND d   1       1.872  -0.086   1.528  0.00  0.00    -0.031 A 
ATOM      4  C4  IND d   1      -0.085   1.343   2.398  0.00  0.00     0.051 A 
ATOM      5  C5  IND d   1      -1.394   1.643   2.147  0.00  0.00    -0.031 A 
ATOM      6  C6  IND d   1      -2.102   1.030   1.133  0.00  0.00     0.015 A 
ATOM      7  C7  IND d   1      -1.526   0.081   0.336  0.00  0.00    -0.016 A 
ATOM      8  C8  IND d   1      -0.195  -0.222   0.584  0.00  0.00    -0.047 A 
ATOM      9  C9  IND d   1       0.540   0.428   1.584  0.00  0.00    -0.096 A 
ATOM     10  HN1 IND d   1       0.453  -1.616  -0.703  0.00  0.00     0.298 HD
ENDROOT
TORSDOF 0
ENDMDL
