MODEL 1
REMARK minimizedAffinity -4.28490353
REMARK minimizedRMSD -1
REMARK  0 active torsions:
REMARK  status: ('A' for Active; 'I' for Inactive)
ROOT
ATOM      1  N1  IND d   1       1.352   0.970   2.001  0.00  0.00    -0.196 N 
ATOM      2  C2  IND d   1       0.718   1.669   2.989  0.00  0.00     0.054 A 
ATOM      3  C3  IND d   1      -0.623   1.577   2.844  0.00  0.00    -0.031 A 
ATOM      4  C4  IND d   1      -1.994   0.247   1.117  0.00  0.00     0.051 A 
ATOM      5  C5  IND d   1      -1.858  -0.518  -0.007  0.00  0.00    -0.031 A 
ATOM      6  C6  IND d   1      -0.621  -0.834  -0.529  0.00  0.00     0.015 A 
ATOM      7  C7  IND d   1       0.533  -0.406   0.064  0.00  0.00    -0.016 A 
ATOM      8  C8  IND d   1       0.399   0.377   1.202  0.00  0.00    -0.047 A 
ATOM      9  C9  IND d   1      -0.855   0.737   1.712  0.00  0.00    -0.096 A 
ATOM     10  HN1 IND d   1       2.204   0.910   1.896  0.00  0.00     0.298 HD
ENDROOT
TORSDOF 0
ENDMDL
