MODEL 1
REMARK minimizedAffinity -1.22853673
REMARK minimizedRMSD -1
REMARK  0 active torsions:
REMARK  status: ('A' for Active; 'I' for Inactive)
ROOT
ATOM      1  N1  IND d   1       0.742  -1.653  -0.667  0.00  0.00    -0.196 N 
ATOM      2  C2  IND d   1      -0.391  -1.037  -1.121  0.00  0.00     0.054 A 
ATOM      3  C3  IND d   1      -0.571   0.143  -0.487  0.00  0.00    -0.031 A 
ATOM      4  C4  IND d   1       0.922   1.307   1.257  0.00  0.00     0.051 A 
ATOM      5  C5  IND d   1       2.045   1.117   2.013  0.00  0.00    -0.031 A 
ATOM      6  C6  IND d   1       2.807  -0.029   1.911  0.00  0.00     0.015 A 
ATOM      7  C7  IND d   1       2.480  -1.026   1.036  0.00  0.00    -0.016 A 
ATOM      8  C8  IND d   1       1.337  -0.839   0.272  0.00  0.00    -0.047 A 
ATOM      9  C9  IND d   1       0.536   0.303   0.402  0.00  0.00    -0.096 A 
ATOM     10  HN1 IND d   1       1.033  -2.420  -0.923  0.00  0.00     0.298 HD
ENDROOT
TORSDOF 0
ENDMDL
