MODEL 1
REMARK minimizedAffinity -2.13388824
REMARK minimizedRMSD -1
REMARK  0 active torsions:
REMARK  status: ('A' for Active; 'I' for Inactive)
ROOT
ATOM      1  N1  IND d   1      -0.579  -0.678  -1.359  0.00  0.00    -0.196 N 
ATOM      2  C2  IND d   1       0.764  -0.799  -1.583  0.00  0.00     0.054 A 
ATOM      3  C3  IND d   1       1.463  -0.245  -0.567  0.00  0.00    -0.031 A 
ATOM      4  C4  IND d   1       0.608   0.824   1.613  0.00  0.00     0.051 A 
ATOM      5  C5  IND d   1      -0.542   1.196   2.252  0.00  0.00    -0.031 A 
ATOM      6  C6  IND d   1      -1.788   0.955   1.710  0.00  0.00     0.015 A 
ATOM      7  C7  IND d   1      -1.931   0.320   0.509  0.00  0.00    -0.016 A 
ATOM      8  C8  IND d   1      -0.766  -0.053  -0.145  0.00  0.00    -0.047 A 
ATOM      9  C9  IND d   1       0.502   0.227   0.379  0.00  0.00    -0.096 A 
ATOM     10  HN1 IND d   1      -1.202  -0.947  -1.886  0.00  0.00     0.298 HD
ENDROOT
TORSDOF 0
ENDMDL
