MODEL 1
REMARK minimizedAffinity 2.2479763
REMARK minimizedRMSD -1
REMARK  1 active torsions:
REMARK  status: ('A' for Active; 'I' for Inactive)
REMARK    1  A    between atoms: C3_4  and  O_7 
ROOT
ATOM      1  C   UNL d   1       1.106   0.698   1.528  0.00  0.00    -0.033 A 
ATOM      2  C1  UNL d   1       0.018   0.232   2.269  0.00  0.00     0.039 A 
ATOM      3  C2  UNL d   1      -1.161   0.977   2.325  0.00  0.00    -0.080 A 
ATOM      4  C3  UNL d   1      -1.241   2.183   1.634  0.00  0.00     0.150 A 
ATOM      5  C4  UNL d   1      -0.163   2.651   0.890  0.00  0.00    -0.007 A 
ATOM      6  C5  UNL d   1       1.015   1.907   0.837  0.00  0.00     0.039 A 
ENDROOT
BRANCH   4   7
ATOM      7  O   UNL d   1      -2.370   2.947   1.663  0.00  0.00    -0.526 OA
ATOM      8  H5  UNL d   1      -3.021   2.514   2.239  0.00  0.00     0.418 HD
ENDBRANCH   4   7
TORSDOF 1
ENDMDL
