MODEL 1
REMARK minimizedAffinity -5.40898037
REMARK minimizedRMSD -1
REMARK  1 active torsions:
REMARK  status: ('A' for Active; 'I' for Inactive)
REMARK    1  A    between atoms: C3_4  and  O_7 
ROOT
ATOM      1  C   UNL d   1      -0.006   0.003   1.096  0.00  0.00    -0.033 A 
ATOM      2  C1  UNL d   1      -1.134  -0.682   1.552  0.00  0.00     0.039 A 
ATOM      3  C2  UNL d   1      -2.241   0.027   2.023  0.00  0.00    -0.080 A 
ATOM      4  C3  UNL d   1      -2.208   1.418   2.032  0.00  0.00     0.150 A 
ATOM      5  C4  UNL d   1      -1.089   2.108   1.575  0.00  0.00    -0.007 A 
ATOM      6  C5  UNL d   1       0.015   1.398   1.106  0.00  0.00     0.039 A 
ENDROOT
BRANCH   4   7
ATOM      7  O   UNL d   1      -3.262   2.153   2.487  0.00  0.00    -0.526 OA
ATOM      8  H5  UNL d   1      -3.952   1.543   2.797  0.00  0.00     0.418 HD
ENDBRANCH   4   7
TORSDOF 1
ENDMDL
