MODEL 1
REMARK minimizedAffinity -4.97187567
REMARK minimizedRMSD -1
REMARK  1 active torsions:
REMARK  status: ('A' for Active; 'I' for Inactive)
REMARK    1  A    between atoms: C3_4  and  O_7 
ROOT
ATOM      1  C   UNL d   1       0.101   0.512   1.416  0.00  0.00    -0.033 A 
ATOM      2  C1  UNL d   1      -0.644  -0.415   2.147  0.00  0.00     0.039 A 
ATOM      3  C2  UNL d   1      -1.837  -0.027   2.760  0.00  0.00    -0.080 A 
ATOM      4  C3  UNL d   1      -2.273   1.289   2.634  0.00  0.00     0.150 A 
ATOM      5  C4  UNL d   1      -1.538   2.217   1.904  0.00  0.00    -0.007 A 
ATOM      6  C5  UNL d   1      -0.347   1.828   1.293  0.00  0.00     0.039 A 
ENDROOT
BRANCH   4   7
ATOM      7  O   UNL d   1      -3.428   1.716   3.219  0.00  0.00    -0.526 OA
ATOM      8  H5  UNL d   1      -3.815   0.975   3.714  0.00  0.00     0.418 HD
ENDBRANCH   4   7
TORSDOF 1
ENDMDL
