MODEL 1
REMARK minimizedAffinity -0.412592024
REMARK minimizedRMSD -1
REMARK  1 active torsions:
REMARK  status: ('A' for Active; 'I' for Inactive)
REMARK    1  A    between atoms: C3_4  and  O_7 
ROOT
ATOM      1  C   UNL d   1      -2.895  -2.880  -0.817  0.00  0.00    -0.033 A 
ATOM      2  C1  UNL d   1      -3.533  -1.797  -1.425  0.00  0.00     0.039 A 
ATOM      3  C2  UNL d   1      -3.483  -1.645  -2.812  0.00  0.00    -0.080 A 
ATOM      4  C3  UNL d   1      -2.794  -2.581  -3.578  0.00  0.00     0.150 A 
ATOM      5  C4  UNL d   1      -2.159  -3.664  -2.979  0.00  0.00    -0.007 A 
ATOM      6  C5  UNL d   1      -2.210  -3.814  -1.594  0.00  0.00     0.039 A 
ENDROOT
BRANCH   4   7
ATOM      7  O   UNL d   1      -2.714  -2.472  -4.935  0.00  0.00    -0.526 OA
ATOM      8  H5  UNL d   1      -3.174  -1.660  -5.206  0.00  0.00     0.418 HD
ENDBRANCH   4   7
TORSDOF 1
ENDMDL
