MODEL 1
REMARK minimizedAffinity -0.789882421
REMARK minimizedRMSD -1
REMARK  1 active torsions:
REMARK  status: ('A' for Active; 'I' for Inactive)
REMARK    1  A    between atoms: C3_4  and  O_7 
ROOT
ATOM      1  C   UNL d   1      -0.229   2.638   1.494  0.00  0.00    -0.033 A 
ATOM      2  C1  UNL d   1       0.680   1.600   1.276  0.00  0.00     0.039 A 
ATOM      3  C2  UNL d   1       0.301   0.278   1.514  0.00  0.00    -0.080 A 
ATOM      4  C3  UNL d   1      -0.987   0.006   1.967  0.00  0.00     0.150 A 
ATOM      5  C4  UNL d   1      -1.898   1.035   2.182  0.00  0.00    -0.007 A 
ATOM      6  C5  UNL d   1      -1.518   2.355   1.945  0.00  0.00     0.039 A 
ENDROOT
BRANCH   4   7
ATOM      7  O   UNL d   1      -1.401  -1.268   2.217  0.00  0.00    -0.526 OA
ATOM      8  H5  UNL d   1      -0.657  -1.871   2.051  0.00  0.00     0.418 HD
ENDBRANCH   4   7
TORSDOF 1
ENDMDL
