MODEL 1
REMARK minimizedAffinity 2.93066239
REMARK minimizedRMSD -1
REMARK  1 active torsions:
REMARK  status: ('A' for Active; 'I' for Inactive)
REMARK    1  A    between atoms: C3_4  and  O_7 
ROOT
ATOM      1  C   UNL d   1       1.232   0.575   0.820  0.00  0.00    -0.033 A 
ATOM      2  C1  UNL d   1       0.647  -0.174   1.843  0.00  0.00     0.039 A 
ATOM      3  C2  UNL d   1      -0.389   0.369   2.604  0.00  0.00    -0.080 A 
ATOM      4  C3  UNL d   1      -0.833   1.660   2.332  0.00  0.00     0.150 A 
ATOM      5  C4  UNL d   1      -0.258   2.411   1.312  0.00  0.00    -0.007 A 
ATOM      6  C5  UNL d   1       0.778   1.867   0.553  0.00  0.00     0.039 A 
ENDROOT
BRANCH   4   7
ATOM      7  O   UNL d   1      -1.838   2.235   3.051  0.00  0.00    -0.526 OA
ATOM      8  H5  UNL d   1      -2.119   1.610   3.740  0.00  0.00     0.418 HD
ENDBRANCH   4   7
TORSDOF 1
ENDMDL
