MODEL 1
REMARK minimizedAffinity -2.11386204
REMARK minimizedRMSD -1
REMARK  1 active torsions:
REMARK  status: ('A' for Active; 'I' for Inactive)
REMARK    1  A    between atoms: C3_4  and  O_7 
ROOT
ATOM      1  C   UNL d   1       0.200   2.816   0.975  0.00  0.00    -0.033 A 
ATOM      2  C1  UNL d   1       0.515   1.739   1.807  0.00  0.00     0.039 A 
ATOM      3  C2  UNL d   1      -0.501   0.934   2.324  0.00  0.00    -0.080 A 
ATOM      4  C3  UNL d   1      -1.826   1.216   2.003  0.00  0.00     0.150 A 
ATOM      5  C4  UNL d   1      -2.147   2.284   1.172  0.00  0.00    -0.007 A 
ATOM      6  C5  UNL d   1      -1.131   3.087   0.657  0.00  0.00     0.039 A 
ENDROOT
BRANCH   4   7
ATOM      7  O   UNL d   1      -2.853   0.461   2.488  0.00  0.00    -0.526 OA
ATOM      8  H5  UNL d   1      -2.483  -0.223   3.071  0.00  0.00     0.418 HD
ENDBRANCH   4   7
TORSDOF 1
ENDMDL
