MODEL 1
REMARK minimizedAffinity 3.06844187
REMARK minimizedRMSD -1
REMARK  1 active torsions:
REMARK  status: ('A' for Active; 'I' for Inactive)
REMARK    1  A    between atoms: C3_4  and  O_7 
ROOT
ATOM      1  C   UNL d   1      -4.848   1.085   4.946  0.00  0.00    -0.033 A 
ATOM      2  C1  UNL d   1      -4.460   1.919   3.896  0.00  0.00     0.039 A 
ATOM      3  C2  UNL d   1      -4.837   3.264   3.895  0.00  0.00    -0.080 A 
ATOM      4  C3  UNL d   1      -5.600   3.761   4.948  0.00  0.00     0.150 A 
ATOM      5  C4  UNL d   1      -5.987   2.936   5.999  0.00  0.00    -0.007 A 
ATOM      6  C5  UNL d   1      -5.610   1.593   5.999  0.00  0.00     0.039 A 
ENDROOT
BRANCH   4   7
ATOM      7  O   UNL d   1      -5.995   5.065   4.989  0.00  0.00    -0.526 OA
ATOM      8  H5  UNL d   1      -5.680   5.507   4.183  0.00  0.00     0.418 HD
ENDBRANCH   4   7
TORSDOF 1
ENDMDL
