MODEL 1
REMARK minimizedAffinity -2.48329902
REMARK minimizedRMSD -1
REMARK  1 active torsions:
REMARK  status: ('A' for Active; 'I' for Inactive)
REMARK    1  A    between atoms: C3_4  and  O_7 
ROOT
ATOM      1  C   UNL d   1      -1.071  -0.054   1.275  0.00  0.00    -0.033 A 
ATOM      2  C1  UNL d   1       0.234  -0.509   1.476  0.00  0.00     0.039 A 
ATOM      3  C2  UNL d   1       1.316   0.334   1.221  0.00  0.00    -0.080 A 
ATOM      4  C3  UNL d   1       1.082   1.629   0.766  0.00  0.00     0.150 A 
ATOM      5  C4  UNL d   1      -0.215   2.090   0.567  0.00  0.00    -0.007 A 
ATOM      6  C5  UNL d   1      -1.295   1.246   0.821  0.00  0.00     0.039 A 
ENDROOT
BRANCH   4   7
ATOM      7  O   UNL d   1       2.107   2.487   0.498  0.00  0.00    -0.526 OA
ATOM      8  H5  UNL d   1       2.946   2.022   0.654  0.00  0.00     0.418 HD
ENDBRANCH   4   7
TORSDOF 1
ENDMDL
