MODEL 1
REMARK minimizedAffinity 1.8011781
REMARK minimizedRMSD -1
REMARK  1 active torsions:
REMARK  status: ('A' for Active; 'I' for Inactive)
REMARK    1  A    between atoms: C3_4  and  O_7 
ROOT
ATOM      1  C   UNL d   1      -0.616  -3.958   0.117  0.00  0.00    -0.033 A 
ATOM      2  C1  UNL d   1      -0.805  -2.638   0.532  0.00  0.00     0.039 A 
ATOM      3  C2  UNL d   1      -1.975  -1.957   0.190  0.00  0.00    -0.080 A 
ATOM      4  C3  UNL d   1      -2.948  -2.607  -0.565  0.00  0.00     0.150 A 
ATOM      5  C4  UNL d   1      -2.768  -3.923  -0.978  0.00  0.00    -0.007 A 
ATOM      6  C5  UNL d   1      -1.599  -4.601  -0.636  0.00  0.00     0.039 A 
ENDROOT
BRANCH   4   7
ATOM      7  O   UNL d   1      -4.104  -1.982  -0.927  0.00  0.00    -0.526 OA
ATOM      8  H5  UNL d   1      -4.077  -1.069  -0.596  0.00  0.00     0.418 HD
ENDBRANCH   4   7
TORSDOF 1
ENDMDL
