MODEL 1
REMARK minimizedAffinity 1.37940717
REMARK minimizedRMSD -1
REMARK  1 active torsions:
REMARK  status: ('A' for Active; 'I' for Inactive)
REMARK    1  A    between atoms: C3_4  and  O_7 
ROOT
ATOM      1  C   UNL d   1      -2.837  -4.611  -0.369  0.00  0.00    -0.033 A 
ATOM      2  C1  UNL d   1      -3.995  -3.833  -0.310  0.00  0.00     0.039 A 
ATOM      3  C2  UNL d   1      -4.103  -2.679  -1.089  0.00  0.00    -0.080 A 
ATOM      4  C3  UNL d   1      -3.048  -2.315  -1.921  0.00  0.00     0.150 A 
ATOM      5  C4  UNL d   1      -1.893  -3.087  -1.987  0.00  0.00    -0.007 A 
ATOM      6  C5  UNL d   1      -1.787  -4.239  -1.208  0.00  0.00     0.039 A 
ENDROOT
BRANCH   4   7
ATOM      7  O   UNL d   1      -3.105  -1.195  -2.696  0.00  0.00    -0.526 OA
ATOM      8  H5  UNL d   1      -3.950  -0.745  -2.525  0.00  0.00     0.418 HD
ENDBRANCH   4   7
TORSDOF 1
ENDMDL
