MODEL 1
REMARK minimizedAffinity 2.83643293
REMARK minimizedRMSD -1
REMARK  1 active torsions:
REMARK  status: ('A' for Active; 'I' for Inactive)
REMARK    1  A    between atoms: C3_4  and  O_7 
ROOT
ATOM      1  C   UNL d   1       1.469   0.796   1.127  0.00  0.00    -0.033 A 
ATOM      2  C1  UNL d   1       0.545   0.124   1.929  0.00  0.00     0.039 A 
ATOM      3  C2  UNL d   1      -0.614   0.775   2.357  0.00  0.00    -0.080 A 
ATOM      4  C3  UNL d   1      -0.836   2.095   1.977  0.00  0.00     0.150 A 
ATOM      5  C4  UNL d   1       0.079   2.770   1.175  0.00  0.00    -0.007 A 
ATOM      6  C5  UNL d   1       1.235   2.118   0.749  0.00  0.00     0.039 A 
ENDROOT
BRANCH   4   7
ATOM      7  O   UNL d   1      -1.950   2.773   2.375  0.00  0.00    -0.526 OA
ATOM      8  H5  UNL d   1      -2.477   2.191   2.947  0.00  0.00     0.418 HD
ENDBRANCH   4   7
TORSDOF 1
ENDMDL
