MODEL 1
REMARK minimizedAffinity 1.28523195
REMARK minimizedRMSD -1
REMARK  1 active torsions:
REMARK  status: ('A' for Active; 'I' for Inactive)
REMARK    1  A    between atoms: C3_4  and  O_7 
ROOT
ATOM      1  C   UNL d   1       0.313   1.835   1.230  0.00  0.00    -0.033 A 
ATOM      2  C1  UNL d   1      -0.008   0.773   2.078  0.00  0.00     0.039 A 
ATOM      3  C2  UNL d   1      -1.258   0.725   2.698  0.00  0.00    -0.080 A 
ATOM      4  C3  UNL d   1      -2.177   1.744   2.462  0.00  0.00     0.150 A 
ATOM      5  C4  UNL d   1      -1.866   2.804   1.616  0.00  0.00    -0.007 A 
ATOM      6  C5  UNL d   1      -0.617   2.850   0.999  0.00  0.00     0.039 A 
ENDROOT
BRANCH   4   7
ATOM      7  O   UNL d   1      -3.408   1.744   3.049  0.00  0.00    -0.526 OA
ATOM      8  H5  UNL d   1      -3.472   0.967   3.629  0.00  0.00     0.418 HD
ENDBRANCH   4   7
TORSDOF 1
ENDMDL
