MODEL 1
REMARK minimizedAffinity 7.81412745
REMARK minimizedRMSD -1
REMARK  1 active torsions:
REMARK  status: ('A' for Active; 'I' for Inactive)
REMARK    1  A    between atoms: C3_4  and  O_7 
ROOT
ATOM      1  C   UNL d   1      -2.617  -2.004   0.173  0.00  0.00    -0.033 A 
ATOM      2  C1  UNL d   1      -2.047  -1.864   1.440  0.00  0.00     0.039 A 
ATOM      3  C2  UNL d   1      -1.059  -2.755   1.865  0.00  0.00    -0.080 A 
ATOM      4  C3  UNL d   1      -0.650  -3.779   1.016  0.00  0.00     0.150 A 
ATOM      5  C4  UNL d   1      -1.211  -3.922  -0.249  0.00  0.00    -0.007 A 
ATOM      6  C5  UNL d   1      -2.198  -3.032  -0.673  0.00  0.00     0.039 A 
ENDROOT
BRANCH   4   7
ATOM      7  O   UNL d   1       0.307  -4.675   1.389  0.00  0.00    -0.526 OA
ATOM      8  H5  UNL d   1       0.582  -4.470   2.298  0.00  0.00     0.418 HD
ENDBRANCH   4   7
TORSDOF 1
ENDMDL
