MODEL 1
REMARK minimizedAffinity 2.84223676
REMARK minimizedRMSD -1
REMARK  1 active torsions:
REMARK  status: ('A' for Active; 'I' for Inactive)
REMARK    1  A    between atoms: C3_4  and  O_7 
ROOT
ATOM      1  C   UNL d   1      -1.459   0.062   2.403  0.00  0.00    -0.033 A 
ATOM      2  C1  UNL d   1      -0.110  -0.026   2.055  0.00  0.00     0.039 A 
ATOM      3  C2  UNL d   1       0.547   1.081   1.514  0.00  0.00    -0.080 A 
ATOM      4  C3  UNL d   1      -0.155   2.269   1.328  0.00  0.00     0.150 A 
ATOM      5  C4  UNL d   1      -1.498   2.365   1.676  0.00  0.00    -0.007 A 
ATOM      6  C5  UNL d   1      -2.153   1.258   2.215  0.00  0.00     0.039 A 
ENDROOT
BRANCH   4   7
ATOM      7  O   UNL d   1       0.443   3.374   0.799  0.00  0.00    -0.526 OA
ATOM      8  H5  UNL d   1       1.363   3.152   0.580  0.00  0.00     0.418 HD
ENDBRANCH   4   7
TORSDOF 1
ENDMDL
