MODEL 1
REMARK minimizedAffinity -0.0298801288
REMARK minimizedRMSD -1
REMARK  1 active torsions:
REMARK  status: ('A' for Active; 'I' for Inactive)
REMARK    1  A    between atoms: C3_4  and  O_7 
ROOT
ATOM      1  C   UNL d   1      -3.269  -3.765   0.082  0.00  0.00    -0.033 A 
ATOM      2  C1  UNL d   1      -2.771  -4.588  -0.930  0.00  0.00     0.039 A 
ATOM      3  C2  UNL d   1      -2.706  -4.120  -2.244  0.00  0.00    -0.080 A 
ATOM      4  C3  UNL d   1      -3.140  -2.829  -2.532  0.00  0.00     0.150 A 
ATOM      5  C4  UNL d   1      -3.633  -2.002  -1.528  0.00  0.00    -0.007 A 
ATOM      6  C5  UNL d   1      -3.698  -2.472  -0.217  0.00  0.00     0.039 A 
ENDROOT
BRANCH   4   7
ATOM      7  O   UNL d   1      -3.100  -2.330  -3.800  0.00  0.00    -0.526 OA
ATOM      8  H5  UNL d   1      -2.763  -3.023  -4.393  0.00  0.00     0.418 HD
ENDBRANCH   4   7
TORSDOF 1
ENDMDL
