MODEL 1
REMARK minimizedAffinity 6.09640217
REMARK minimizedRMSD -1
REMARK  1 active torsions:
REMARK  status: ('A' for Active; 'I' for Inactive)
REMARK    1  A    between atoms: C3_4  and  O_7 
ROOT
ATOM      1  C   UNL d   1       2.584   4.812  -3.928  0.00  0.00    -0.033 A 
ATOM      2  C1  UNL d   1       3.724   5.179  -3.211  0.00  0.00     0.039 A 
ATOM      3  C2  UNL d   1       4.877   5.583  -3.887  0.00  0.00    -0.080 A 
ATOM      4  C3  UNL d   1       4.876   5.617  -5.279  0.00  0.00     0.150 A 
ATOM      5  C4  UNL d   1       3.742   5.257  -6.000  0.00  0.00    -0.007 A 
ATOM      6  C5  UNL d   1       2.593   4.853  -5.323  0.00  0.00     0.039 A 
ENDROOT
BRANCH   4   7
ATOM      7  O   UNL d   1       5.979   5.999  -5.983  0.00  0.00    -0.526 OA
ATOM      8  H5  UNL d   1       6.694   6.192  -5.354  0.00  0.00     0.418 HD
ENDBRANCH   4   7
TORSDOF 1
ENDMDL
