MODEL 1
REMARK minimizedAffinity -1.80823565
REMARK minimizedRMSD -1
REMARK  1 active torsions:
REMARK  status: ('A' for Active; 'I' for Inactive)
REMARK    1  A    between atoms: C3_4  and  O_7 
ROOT
ATOM      1  C   UNL d   1      -0.266  -1.310   3.448  0.00  0.00    -0.033 A 
ATOM      2  C1  UNL d   1       1.064  -0.891   3.519  0.00  0.00     0.039 A 
ATOM      3  C2  UNL d   1       1.511   0.159   2.714  0.00  0.00    -0.080 A 
ATOM      4  C3  UNL d   1       0.619   0.780   1.844  0.00  0.00     0.150 A 
ATOM      5  C4  UNL d   1      -0.708   0.371   1.771  0.00  0.00    -0.007 A 
ATOM      6  C5  UNL d   1      -1.152  -0.678   2.575  0.00  0.00     0.039 A 
ENDROOT
BRANCH   4   7
ATOM      7  O   UNL d   1       1.011   1.806   1.036  0.00  0.00    -0.526 OA
ATOM      8  H5  UNL d   1       1.960   1.961   1.173  0.00  0.00     0.418 HD
ENDBRANCH   4   7
TORSDOF 1
ENDMDL
