MODEL 1
REMARK minimizedAffinity -3.53357077
REMARK minimizedRMSD -1
REMARK  1 active torsions:
REMARK  status: ('A' for Active; 'I' for Inactive)
REMARK    1  A    between atoms: C3_4  and  O_7 
ROOT
ATOM      1  C   UNL d   1      -0.376  -0.330   1.285  0.00  0.00    -0.033 A 
ATOM      2  C1  UNL d   1      -1.524   0.464   1.322  0.00  0.00     0.039 A 
ATOM      3  C2  UNL d   1      -1.413   1.856   1.308  0.00  0.00    -0.080 A 
ATOM      4  C3  UNL d   1      -0.150   2.440   1.255  0.00  0.00     0.150 A 
ATOM      5  C4  UNL d   1       0.997   1.655   1.214  0.00  0.00    -0.007 A 
ATOM      6  C5  UNL d   1       0.884   0.265   1.229  0.00  0.00     0.039 A 
ENDROOT
BRANCH   4   7
ATOM      7  O   UNL d   1       0.008   3.794   1.244  0.00  0.00    -0.526 OA
ATOM      8  H5  UNL d   1      -0.869   4.207   1.305  0.00  0.00     0.418 HD
ENDBRANCH   4   7
TORSDOF 1
ENDMDL
