MODEL 1
REMARK minimizedAffinity 7.24578619
REMARK minimizedRMSD -1
REMARK  0 active torsions:
REMARK  status: ('A' for Active; 'I' for Inactive)
ROOT
ATOM      1  C   UNL d   1       1.420   3.385  -6.000  0.00  0.00     0.023 A 
ATOM      2  C1  UNL d   1       0.557   4.481  -5.996  0.00  0.00     0.003 A 
ATOM      3  C2  UNL d   1      -0.600   4.458  -5.215  0.00  0.00     0.048 A 
ATOM      4  C3  UNL d   1      -0.887   3.335  -4.439  0.00  0.00     0.023 A 
ATOM      5  C4  UNL d   1      -0.026   2.237  -4.439  0.00  0.00     0.048 A 
ATOM      6  C5  UNL d   1       1.129   2.265  -5.222  0.00  0.00     0.003 A 
ATOM      7  I   UNL d   1      -2.609   3.298  -3.275  0.00  0.00    -0.146 I 
ENDROOT
TORSDOF 0
ENDMDL
