MODEL 1
REMARK minimizedAffinity -2.10779929
REMARK minimizedRMSD -1
REMARK  0 active torsions:
REMARK  status: ('A' for Active; 'I' for Inactive)
ROOT
ATOM      1  C   UNL d   1      -1.000   0.259   2.029  0.00  0.00     0.023 A 
ATOM      2  C1  UNL d   1      -1.500  -0.990   1.660  0.00  0.00     0.003 A 
ATOM      3  C2  UNL d   1      -0.634  -1.977   1.184  0.00  0.00     0.048 A 
ATOM      4  C3  UNL d   1       0.731  -1.709   1.082  0.00  0.00     0.023 A 
ATOM      5  C4  UNL d   1       1.235  -0.461   1.451  0.00  0.00     0.048 A 
ATOM      6  C5  UNL d   1       0.366   0.523   1.926  0.00  0.00     0.003 A 
ATOM      7  I   UNL d   1       2.021  -3.176   0.374  0.00  0.00    -0.146 I 
ENDROOT
TORSDOF 0
ENDMDL
