MODEL 1
REMARK minimizedAffinity 4.37430143
REMARK minimizedRMSD -1
REMARK  0 active torsions:
REMARK  status: ('A' for Active; 'I' for Inactive)
ROOT
ATOM      1  C   UNL d   1       0.104   3.381  -5.266  0.00  0.00     0.023 A 
ATOM      2  C1  UNL d   1      -0.843   4.405  -5.267  0.00  0.00     0.003 A 
ATOM      3  C2  UNL d   1      -1.956   4.330  -4.428  0.00  0.00     0.048 A 
ATOM      4  C3  UNL d   1      -2.116   3.227  -3.589  0.00  0.00     0.023 A 
ATOM      5  C4  UNL d   1      -1.170   2.200  -3.584  0.00  0.00     0.048 A 
ATOM      6  C5  UNL d   1      -0.060   2.280  -4.426  0.00  0.00     0.003 A 
ATOM      7  I   UNL d   1      -3.771   3.113  -2.338  0.00  0.00    -0.146 I 
ENDROOT
TORSDOF 0
ENDMDL
