MODEL 1
REMARK minimizedAffinity 5.04375935
REMARK minimizedRMSD -1
REMARK  0 active torsions:
REMARK  status: ('A' for Active; 'I' for Inactive)
ROOT
ATOM      1  C   UNL d   1       0.141   4.228  -5.993  0.00  0.00     0.023 A 
ATOM      2  C1  UNL d   1       0.122   2.904  -5.555  0.00  0.00     0.003 A 
ATOM      3  C2  UNL d   1      -0.896   2.462  -4.707  0.00  0.00     0.048 A 
ATOM      4  C3  UNL d   1      -1.893   3.350  -4.303  0.00  0.00     0.023 A 
ATOM      5  C4  UNL d   1      -1.878   4.676  -4.739  0.00  0.00     0.048 A 
ATOM      6  C5  UNL d   1      -0.857   5.113  -5.586  0.00  0.00     0.003 A 
ATOM      7  I   UNL d   1      -3.409   2.695  -3.042  0.00  0.00    -0.146 I 
ENDROOT
TORSDOF 0
ENDMDL
