MODEL 1
REMARK minimizedAffinity 4.93694735
REMARK minimizedRMSD -1
REMARK  0 active torsions:
REMARK  status: ('A' for Active; 'I' for Inactive)
ROOT
ATOM      1  C   UNL d   1      -0.029   3.734  -5.867  0.00  0.00     0.023 A 
ATOM      2  C1  UNL d   1       0.062   2.584  -5.084  0.00  0.00     0.003 A 
ATOM      3  C2  UNL d   1      -0.986   2.234  -4.229  0.00  0.00     0.048 A 
ATOM      4  C3  UNL d   1      -2.122   3.040  -4.164  0.00  0.00     0.023 A 
ATOM      5  C4  UNL d   1      -2.218   4.191  -4.947  0.00  0.00     0.048 A 
ATOM      6  C5  UNL d   1      -1.168   4.537  -5.799  0.00  0.00     0.003 A 
ATOM      7  I   UNL d   1      -3.683   2.522  -2.893  0.00  0.00    -0.146 I 
ENDROOT
TORSDOF 0
ENDMDL
