MODEL 1
REMARK minimizedAffinity 5.14316177
REMARK minimizedRMSD -1
REMARK  0 active torsions:
REMARK  status: ('A' for Active; 'I' for Inactive)
ROOT
ATOM      1  C   UNL d   1       0.944  -2.372   0.786  0.00  0.00     0.023 A 
ATOM      2  C1  UNL d   1       1.651  -2.969   1.830  0.00  0.00     0.003 A 
ATOM      3  C2  UNL d   1       2.879  -3.586   1.580  0.00  0.00     0.048 A 
ATOM      4  C3  UNL d   1       3.394  -3.603   0.285  0.00  0.00     0.023 A 
ATOM      5  C4  UNL d   1       2.691  -3.006  -0.763  0.00  0.00     0.048 A 
ATOM      6  C5  UNL d   1       1.463  -2.391  -0.509  0.00  0.00     0.003 A 
ATOM      7  I   UNL d   1       5.221  -4.521  -0.089  0.00  0.00    -0.146 I 
ENDROOT
TORSDOF 0
ENDMDL
