MODEL 1
REMARK minimizedAffinity 8.26557446
REMARK minimizedRMSD -1
REMARK  0 active torsions:
REMARK  status: ('A' for Active; 'I' for Inactive)
ROOT
ATOM      1  C   UNL d   1      -3.833   2.329  -0.729  0.00  0.00     0.023 A 
ATOM      2  C1  UNL d   1      -2.706   3.129  -0.542  0.00  0.00     0.003 A 
ATOM      3  C2  UNL d   1      -1.930   3.513  -1.638  0.00  0.00     0.048 A 
ATOM      4  C3  UNL d   1      -2.289   3.095  -2.919  0.00  0.00     0.023 A 
ATOM      5  C4  UNL d   1      -3.417   2.295  -3.111  0.00  0.00     0.048 A 
ATOM      6  C5  UNL d   1      -4.188   1.913  -2.012  0.00  0.00     0.003 A 
ATOM      7  I   UNL d   1      -1.137   3.665  -4.552  0.00  0.00    -0.146 I 
ENDROOT
TORSDOF 0
ENDMDL
