MODEL 1
REMARK minimizedAffinity -3.13864183
REMARK minimizedRMSD -1
REMARK  0 active torsions:
REMARK  status: ('A' for Active; 'I' for Inactive)
ROOT
ATOM      1  C   UNL d   1      -0.401  -0.361  -0.896  0.00  0.00     0.020 A 
ATOM      2  C1  UNL d   1      -1.532  -0.054  -0.139  0.00  0.00     0.020 A 
ATOM      3  C2  UNL d   1      -1.460  -0.056   1.255  0.00  0.00     0.034 A 
ATOM      4  C3  UNL d   1      -0.255  -0.366   1.898  0.00  0.00     0.017 A 
ATOM      5  C4  UNL d   1       0.879  -0.674   1.137  0.00  0.00     0.017 A 
ATOM      6  C5  UNL d   1       0.801  -0.670  -0.259  0.00  0.00     0.034 A 
ATOM      7 Cl   UNL d   1       2.400  -1.066   1.858  0.00  0.00    -0.070 Cl
ATOM      8 Cl1  UNL d   1      -0.239  -0.349   3.625  0.00  0.00    -0.070 Cl
ENDROOT
TORSDOF 0
ENDMDL
