MODEL 1
REMARK minimizedAffinity -0.418664515
REMARK minimizedRMSD -1
REMARK  0 active torsions:
REMARK  status: ('A' for Active; 'I' for Inactive)
ROOT
ATOM      1  C   UNL d   1      -1.049   0.158  -1.060  0.00  0.00     0.020 A 
ATOM      2  C1  UNL d   1       0.297  -0.173  -1.209  0.00  0.00     0.020 A 
ATOM      3  C2  UNL d   1       1.099  -0.360  -0.081  0.00  0.00     0.034 A 
ATOM      4  C3  UNL d   1       0.555  -0.216   1.201  0.00  0.00     0.017 A 
ATOM      5  C4  UNL d   1      -0.797   0.116   1.349  0.00  0.00     0.017 A 
ATOM      6  C5  UNL d   1      -1.595   0.302   0.216  0.00  0.00     0.034 A 
ATOM      7 Cl   UNL d   1      -1.539   0.311   2.897  0.00  0.00    -0.070 Cl
ATOM      8 Cl1  UNL d   1       1.604  -0.462   2.552  0.00  0.00    -0.070 Cl
ENDROOT
TORSDOF 0
ENDMDL
