MODEL 1
REMARK minimizedAffinity -4.00000477
REMARK minimizedRMSD -1
REMARK  0 active torsions:
REMARK  status: ('A' for Active; 'I' for Inactive)
ROOT
ATOM      1  C   UNL d   1      -1.940   0.231   0.108  0.00  0.00     0.020 A 
ATOM      2  C1  UNL d   1      -1.934   0.794   1.384  0.00  0.00     0.020 A 
ATOM      3  C2  UNL d   1      -0.895   0.503   2.270  0.00  0.00     0.034 A 
ATOM      4  C3  UNL d   1       0.143  -0.353   1.881  0.00  0.00     0.017 A 
ATOM      5  C4  UNL d   1       0.136  -0.917   0.600  0.00  0.00     0.017 A 
ATOM      6  C5  UNL d   1      -0.908  -0.622  -0.283  0.00  0.00     0.034 A 
ATOM      7 Cl   UNL d   1       1.381  -1.981   0.049  0.00  0.00    -0.070 Cl
ATOM      8 Cl1  UNL d   1       1.396  -0.668   3.028  0.00  0.00    -0.070 Cl
ENDROOT
TORSDOF 0
ENDMDL
