MODEL 1
REMARK minimizedAffinity -3.03061986
REMARK minimizedRMSD -1
REMARK  0 active torsions:
REMARK  status: ('A' for Active; 'I' for Inactive)
ROOT
ATOM      1  C   UNL d   1       0.664   0.122   3.189  0.00  0.00     0.020 A 
ATOM      2  C1  UNL d   1      -0.638   0.591   3.358  0.00  0.00     0.020 A 
ATOM      3  C2  UNL d   1      -1.521   0.607   2.276  0.00  0.00     0.034 A 
ATOM      4  C3  UNL d   1      -1.102   0.153   1.020  0.00  0.00     0.017 A 
ATOM      5  C4  UNL d   1       0.205  -0.318   0.851  0.00  0.00     0.017 A 
ATOM      6  C5  UNL d   1       1.084  -0.332   1.938  0.00  0.00     0.034 A 
ATOM      7 Cl   UNL d   1       0.793  -0.895  -0.668  0.00  0.00    -0.070 Cl
ATOM      8 Cl1  UNL d   1      -2.247   0.201  -0.274  0.00  0.00    -0.070 Cl
ENDROOT
TORSDOF 0
ENDMDL
