MODEL 1
REMARK minimizedAffinity -3.26558352
REMARK minimizedRMSD -1
REMARK  0 active torsions:
REMARK  status: ('A' for Active; 'I' for Inactive)
ROOT
ATOM      1  C   UNL d   1       0.821  -0.362   3.046  0.00  0.00     0.020 A 
ATOM      2  C1  UNL d   1      -0.443   0.117   3.388  0.00  0.00     0.020 A 
ATOM      3  C2  UNL d   1      -1.396   0.343   2.394  0.00  0.00     0.034 A 
ATOM      4  C3  UNL d   1      -1.088   0.089   1.052  0.00  0.00     0.017 A 
ATOM      5  C4  UNL d   1       0.181  -0.392   0.710  0.00  0.00     0.017 A 
ATOM      6  C5  UNL d   1       1.132  -0.616   1.710  0.00  0.00     0.034 A 
ATOM      7 Cl   UNL d   1       0.635  -0.729  -0.923  0.00  0.00    -0.070 Cl
ATOM      8 Cl1  UNL d   1      -2.316   0.390  -0.125  0.00  0.00    -0.070 Cl
ENDROOT
TORSDOF 0
ENDMDL
