MODEL 1
REMARK minimizedAffinity -3.40419817
REMARK minimizedRMSD -1
REMARK  0 active torsions:
REMARK  status: ('A' for Active; 'I' for Inactive)
ROOT
ATOM      1  C   UNL d   1      -2.205   0.456   0.522  0.00  0.00     0.020 A 
ATOM      2  C1  UNL d   1      -2.044   0.820   1.858  0.00  0.00     0.020 A 
ATOM      3  C2  UNL d   1      -0.826   0.593   2.502  0.00  0.00     0.034 A 
ATOM      4  C3  UNL d   1       0.236  -0.001   1.810  0.00  0.00     0.017 A 
ATOM      5  C4  UNL d   1       0.073  -0.367   0.469  0.00  0.00     0.017 A 
ATOM      6  C5  UNL d   1      -1.148  -0.136  -0.171  0.00  0.00     0.034 A 
ATOM      7 Cl   UNL d   1       1.338  -1.104  -0.450  0.00  0.00    -0.070 Cl
ATOM      8 Cl1  UNL d   1       1.714  -0.252   2.669  0.00  0.00    -0.070 Cl
ENDROOT
TORSDOF 0
ENDMDL
