MODEL 1
REMARK minimizedAffinity -5.24834299
REMARK minimizedRMSD -1
REMARK  1 active torsions:
REMARK  status: ('A' for Active; 'I' for Inactive)
REMARK    1  A    between atoms: C1_2  and  C2_3 
ROOT
ATOM      1  C2  UNL d   1      -1.631   0.096   0.785  0.00  0.00    -0.077 A 
ATOM      2  C3  UNL d   1      -1.963   0.500   2.086  0.00  0.00     0.002 A 
ATOM      3  C4  UNL d   1      -1.053   1.231   2.852  0.00  0.00     0.002 A 
ATOM      4  C5  UNL d   1       0.192   1.568   2.325  0.00  0.00    -0.004 A 
ATOM      5  C6  UNL d   1       0.532   1.169   1.033  0.00  0.00     0.002 A 
ATOM      6  C7  UNL d   1      -0.375   0.437   0.266  0.00  0.00     0.002 A 
ENDROOT
BRANCH   1   7
ATOM      7  C1  UNL d   1      -2.629  -0.650  -0.061  0.00  0.00     0.055 C 
ATOM      8  C   UNL d   1      -2.007  -1.890  -0.687  0.00  0.00     0.019 C 
ENDBRANCH   1   7
TORSDOF 1
ENDMDL
