MODEL 1
REMARK minimizedAffinity -1.37012875
REMARK minimizedRMSD -1
REMARK  1 active torsions:
REMARK  status: ('A' for Active; 'I' for Inactive)
REMARK    1  A    between atoms: C1_2  and  C2_3 
ROOT
ATOM      1  C2  UNL d   1      -1.028  -1.264  -0.687  0.00  0.00    -0.077 A 
ATOM      2  C3  UNL d   1      -0.726  -2.440  -1.387  0.00  0.00     0.002 A 
ATOM      3  C4  UNL d   1      -1.741  -3.330  -1.743  0.00  0.00     0.002 A 
ATOM      4  C5  UNL d   1      -3.064  -3.051  -1.408  0.00  0.00    -0.004 A 
ATOM      5  C6  UNL d   1      -3.374  -1.884  -0.710  0.00  0.00     0.002 A 
ATOM      6  C7  UNL d   1      -2.361  -0.994  -0.352  0.00  0.00     0.002 A 
ENDROOT
BRANCH   1   7
ATOM      7  C1  UNL d   1       0.060  -0.279  -0.345  0.00  0.00     0.055 C 
ATOM      8  C   UNL d   1       0.929  -0.788   0.796  0.00  0.00     0.019 C 
ENDBRANCH   1   7
TORSDOF 1
ENDMDL
