MODEL 1
REMARK minimizedAffinity -1.51876676
REMARK minimizedRMSD -1
REMARK  1 active torsions:
REMARK  status: ('A' for Active; 'I' for Inactive)
REMARK    1  A    between atoms: C1_2  and  C2_3 
ROOT
ATOM      1  C2  UNL d   1       2.038   0.781  -1.149  0.00  0.00    -0.077 A 
ATOM      2  C3  UNL d   1       0.678   0.451  -1.233  0.00  0.00     0.002 A 
ATOM      3  C4  UNL d   1      -0.004  -0.023  -0.111  0.00  0.00     0.002 A 
ATOM      4  C5  UNL d   1       0.664  -0.168   1.103  0.00  0.00    -0.004 A 
ATOM      5  C6  UNL d   1       2.017   0.155   1.196  0.00  0.00     0.002 A 
ATOM      6  C7  UNL d   1       2.701   0.628   0.075  0.00  0.00     0.002 A 
ENDROOT
BRANCH   1   7
ATOM      7  C1  UNL d   1       2.763   1.339  -2.346  0.00  0.00     0.055 C 
ATOM      8  C   UNL d   1       1.865   1.369  -3.574  0.00  0.00     0.019 C 
ENDBRANCH   1   7
TORSDOF 1
ENDMDL
