MODEL 1
REMARK minimizedAffinity -5.30299759
REMARK minimizedRMSD -1
REMARK  1 active torsions:
REMARK  status: ('A' for Active; 'I' for Inactive)
REMARK    1  A    between atoms: C1_2  and  C2_3 
ROOT
ATOM      1  C2  UNL d   1      -1.921  -1.238  -0.659  0.00  0.00    -0.077 A 
ATOM      2  C3  UNL d   1      -3.318  -1.348  -0.681  0.00  0.00     0.002 A 
ATOM      3  C4  UNL d   1      -3.928  -2.520  -1.132  0.00  0.00     0.002 A 
ATOM      4  C5  UNL d   1      -3.149  -3.593  -1.559  0.00  0.00    -0.004 A 
ATOM      5  C6  UNL d   1      -1.758  -3.493  -1.543  0.00  0.00     0.002 A 
ATOM      6  C7  UNL d   1      -1.147  -2.322  -1.094  0.00  0.00     0.002 A 
ENDROOT
BRANCH   1   7
ATOM      7  C1  UNL d   1      -1.261   0.007  -0.126  0.00  0.00     0.055 C 
ATOM      8  C   UNL d   1       0.253  -0.143  -0.088  0.00  0.00     0.019 C 
ENDBRANCH   1   7
TORSDOF 1
ENDMDL
