MODEL 1
REMARK minimizedAffinity -1.13199949
REMARK minimizedRMSD -1
REMARK  1 active torsions:
REMARK  status: ('A' for Active; 'I' for Inactive)
REMARK    1  A    between atoms: C1_2  and  C2_3 
ROOT
ATOM      1  C2  UNL d   1       0.380   0.227  -1.380  0.00  0.00    -0.077 A 
ATOM      2  C3  UNL d   1       0.020   1.427  -0.750  0.00  0.00     0.002 A 
ATOM      3  C4  UNL d   1       0.142   1.562   0.635  0.00  0.00     0.002 A 
ATOM      4  C5  UNL d   1       0.628   0.503   1.399  0.00  0.00    -0.004 A 
ATOM      5  C6  UNL d   1       0.987  -0.695   0.782  0.00  0.00     0.002 A 
ATOM      6  C7  UNL d   1       0.864  -0.832  -0.602  0.00  0.00     0.002 A 
ENDROOT
BRANCH   1   7
ATOM      7  C1  UNL d   1       0.295   0.097  -2.878  0.00  0.00     0.055 C 
ATOM      8  C   UNL d   1       1.086   1.194  -3.575  0.00  0.00     0.019 C 
ENDBRANCH   1   7
TORSDOF 1
ENDMDL
