MODEL 1
REMARK minimizedAffinity -0.420685977
REMARK minimizedRMSD -1
REMARK  2 active torsions:
REMARK  status: ('A' for Active; 'I' for Inactive)
REMARK    1  A    between atoms: C1_2  and  C2_3 
REMARK    2  A    between atoms: C2_3  and  C3_4 
ROOT
ATOM      1  C3  UNL d   1      -0.810   0.503   0.495  0.00  0.00    -0.075 A 
ATOM      2  C4  UNL d   1      -0.483   1.465   1.462  0.00  0.00     0.002 A 
ATOM      3  C5  UNL d   1      -1.445   1.915   2.366  0.00  0.00     0.002 A 
ATOM      4  C6  UNL d   1      -2.745   1.419   2.310  0.00  0.00    -0.004 A 
ATOM      5  C7  UNL d   1      -3.085   0.475   1.344  0.00  0.00     0.002 A 
ATOM      6  C8  UNL d   1      -2.124   0.019   0.440  0.00  0.00     0.002 A 
ENDROOT
BRANCH   1   7
ATOM      7  C2  UNL d   1       0.234  -0.011  -0.468  0.00  0.00     0.056 C 
BRANCH   7   8
ATOM      8  C1  UNL d   1       0.139  -1.514  -0.747  0.00  0.00     0.007 C 
ATOM      9  C   UNL d   1       1.449  -2.253  -0.508  0.00  0.00     0.009 C 
ENDBRANCH   7   8
ENDBRANCH   1   7
TORSDOF 2
ENDMDL
