MODEL 1
REMARK minimizedAffinity -0.942277908
REMARK minimizedRMSD -1
REMARK  2 active torsions:
REMARK  status: ('A' for Active; 'I' for Inactive)
REMARK    1  A    between atoms: C1_2  and  C2_3 
REMARK    2  A    between atoms: C2_3  and  C3_4 
ROOT
ATOM      1  C3  UNL d   1       2.699  -1.134  -0.917  0.00  0.00    -0.075 A 
ATOM      2  C4  UNL d   1       2.038  -2.367  -1.012  0.00  0.00     0.002 A 
ATOM      3  C5  UNL d   1       0.645  -2.428  -0.982  0.00  0.00     0.002 A 
ATOM      4  C6  UNL d   1      -0.104  -1.261  -0.846  0.00  0.00    -0.004 A 
ATOM      5  C7  UNL d   1       0.543  -0.032  -0.734  0.00  0.00     0.002 A 
ATOM      6  C8  UNL d   1       1.937   0.032  -0.769  0.00  0.00     0.002 A 
ENDROOT
BRANCH   1   7
ATOM      7  C2  UNL d   1       4.206  -1.058  -0.979  0.00  0.00     0.056 C 
BRANCH   7   8
ATOM      8  C1  UNL d   1       4.761   0.370  -0.943  0.00  0.00     0.007 C 
ATOM      9  C   UNL d   1       5.298   0.840  -2.288  0.00  0.00     0.009 C 
ENDBRANCH   7   8
ENDBRANCH   1   7
TORSDOF 2
ENDMDL
