MODEL 1
REMARK minimizedAffinity -0.18474263
REMARK minimizedRMSD -1
REMARK  2 active torsions:
REMARK  status: ('A' for Active; 'I' for Inactive)
REMARK    1  A    between atoms: C1_2  and  C2_3 
REMARK    2  A    between atoms: C2_3  and  C3_4 
ROOT
ATOM      1  C3  UNL d   1      -0.129  -2.172  -2.886  0.00  0.00    -0.075 A 
ATOM      2  C4  UNL d   1      -0.736  -1.367  -1.910  0.00  0.00     0.002 A 
ATOM      3  C5  UNL d   1      -0.068  -1.072  -0.721  0.00  0.00     0.002 A 
ATOM      4  C6  UNL d   1       1.207  -1.583  -0.488  0.00  0.00    -0.004 A 
ATOM      5  C7  UNL d   1       1.812  -2.398  -1.444  0.00  0.00     0.002 A 
ATOM      6  C8  UNL d   1       1.148  -2.692  -2.636  0.00  0.00     0.002 A 
ENDROOT
BRANCH   1   7
ATOM      7  C2  UNL d   1      -0.834  -2.472  -4.187  0.00  0.00     0.056 C 
BRANCH   7   8
ATOM      8  C1  UNL d   1      -1.589  -3.805  -4.195  0.00  0.00     0.007 C 
ATOM      9  C   UNL d   1      -2.635  -3.897  -5.298  0.00  0.00     0.009 C 
ENDBRANCH   7   8
ENDBRANCH   1   7
TORSDOF 2
ENDMDL
