MODEL 1
REMARK minimizedAffinity -2.36165261
REMARK minimizedRMSD -1
REMARK  2 active torsions:
REMARK  status: ('A' for Active; 'I' for Inactive)
REMARK    1  A    between atoms: C1_2  and  C2_3 
REMARK    2  A    between atoms: C2_3  and  C3_4 
ROOT
ATOM      1  C3  UNL d   1       3.029  -0.655  -1.160  0.00  0.00    -0.075 A 
ATOM      2  C4  UNL d   1       3.999   0.289  -1.530  0.00  0.00     0.002 A 
ATOM      3  C5  UNL d   1       4.972  -0.029  -2.478  0.00  0.00     0.002 A 
ATOM      4  C6  UNL d   1       4.995  -1.295  -3.059  0.00  0.00    -0.004 A 
ATOM      5  C7  UNL d   1       4.046  -2.246  -2.688  0.00  0.00     0.002 A 
ATOM      6  C8  UNL d   1       3.069  -1.929  -1.743  0.00  0.00     0.002 A 
ENDROOT
BRANCH   1   7
ATOM      7  C2  UNL d   1       1.956  -0.307  -0.157  0.00  0.00     0.056 C 
BRANCH   7   8
ATOM      8  C1  UNL d   1       0.689   0.290  -0.780  0.00  0.00     0.007 C 
ATOM      9  C   UNL d   1      -0.391  -0.748  -1.055  0.00  0.00     0.009 C 
ENDBRANCH   7   8
ENDBRANCH   1   7
TORSDOF 2
ENDMDL
