MODEL 1
REMARK minimizedAffinity 0.541011095
REMARK minimizedRMSD -1
REMARK  2 active torsions:
REMARK  status: ('A' for Active; 'I' for Inactive)
REMARK    1  A    between atoms: C1_2  and  C2_3 
REMARK    2  A    between atoms: C2_3  and  C3_4 
ROOT
ATOM      1  C3  UNL d   1      -2.895   2.973   2.554  0.00  0.00    -0.075 A 
ATOM      2  C4  UNL d   1      -3.291   4.080   1.789  0.00  0.00     0.002 A 
ATOM      3  C5  UNL d   1      -2.435   5.170   1.625  0.00  0.00     0.002 A 
ATOM      4  C6  UNL d   1      -1.180   5.171   2.230  0.00  0.00    -0.004 A 
ATOM      5  C7  UNL d   1      -0.783   4.083   3.005  0.00  0.00     0.002 A 
ATOM      6  C8  UNL d   1      -1.636   2.990   3.168  0.00  0.00     0.002 A 
ENDROOT
BRANCH   1   7
ATOM      7  C2  UNL d   1      -3.805   1.778   2.712  0.00  0.00     0.056 C 
BRANCH   7   8
ATOM      8  C1  UNL d   1      -4.591   1.422   1.446  0.00  0.00     0.007 C 
ATOM      9  C   UNL d   1      -3.950   0.302   0.636  0.00  0.00     0.009 C 
ENDBRANCH   7   8
ENDBRANCH   1   7
TORSDOF 2
ENDMDL
