MODEL 1
REMARK minimizedAffinity 2.167768
REMARK minimizedRMSD -1
REMARK  2 active torsions:
REMARK  status: ('A' for Active; 'I' for Inactive)
REMARK    1  A    between atoms: C1_2  and  C2_3 
REMARK    2  A    between atoms: C2_3  and  C3_4 
ROOT
ATOM      1  C3  UNL d   1       2.115  -0.112  -0.845  0.00  0.00    -0.075 A 
ATOM      2  C4  UNL d   1       2.374  -1.448  -1.184  0.00  0.00     0.002 A 
ATOM      3  C5  UNL d   1       1.335  -2.376  -1.250  0.00  0.00     0.002 A 
ATOM      4  C6  UNL d   1       0.028  -1.984  -0.968  0.00  0.00    -0.004 A 
ATOM      5  C7  UNL d   1      -0.239  -0.663  -0.614  0.00  0.00     0.002 A 
ATOM      6  C8  UNL d   1       0.799   0.269  -0.551  0.00  0.00     0.002 A 
ENDROOT
BRANCH   1   7
ATOM      7  C2  UNL d   1       3.231   0.904  -0.800  0.00  0.00     0.056 C 
BRANCH   7   8
ATOM      8  C1  UNL d   1       4.509   0.459  -1.520  0.00  0.00     0.007 C 
ATOM      9  C   UNL d   1       5.636   1.480  -1.428  0.00  0.00     0.009 C 
ENDBRANCH   7   8
ENDBRANCH   1   7
TORSDOF 2
ENDMDL
