MODEL 1
REMARK minimizedAffinity 0.998066962
REMARK minimizedRMSD -1
REMARK  0 active torsions:
REMARK  status: ('A' for Active; 'I' for Inactive)
ROOT
ATOM      1  N1  IND d   1      -0.480  -2.034   0.759  0.00  0.00    -0.196 N 
ATOM      2  C2  IND d   1      -0.600  -2.159  -0.597  0.00  0.00     0.054 A 
ATOM      3  C3  IND d   1       0.217  -3.134  -1.054  0.00  0.00    -0.031 A 
ATOM      4  C4  IND d   1       1.763  -4.721   0.257  0.00  0.00     0.051 A 
ATOM      5  C5  IND d   1       2.237  -4.967   1.515  0.00  0.00    -0.031 A 
ATOM      6  C6  IND d   1       1.819  -4.235   2.608  0.00  0.00     0.015 A 
ATOM      7  C7  IND d   1       0.899  -3.233   2.485  0.00  0.00    -0.016 A 
ATOM      8  C8  IND d   1       0.421  -2.976   1.208  0.00  0.00    -0.047 A 
ATOM      9  C9  IND d   1       0.873  -3.687   0.089  0.00  0.00    -0.096 A 
ATOM     10  HN1 IND d   1      -0.897  -1.464   1.250  0.00  0.00     0.298 HD
ENDROOT
TORSDOF 0
ENDMDL
