MODEL 1
REMARK minimizedAffinity 8.57566929
REMARK minimizedRMSD -1
REMARK  0 active torsions:
REMARK  status: ('A' for Active; 'I' for Inactive)
ROOT
ATOM      1  N1  IND d   1       0.054  -1.076   0.509  0.00  0.00    -0.196 N 
ATOM      2  C2  IND d   1      -0.570  -2.133  -0.092  0.00  0.00     0.054 A 
ATOM      3  C3  IND d   1      -0.269  -3.284   0.550  0.00  0.00    -0.031 A 
ATOM      4  C4  IND d   1       1.145  -3.653   2.670  0.00  0.00     0.051 A 
ATOM      5  C5  IND d   1       1.949  -2.993   3.556  0.00  0.00    -0.031 A 
ATOM      6  C6  IND d   1       2.165  -1.633   3.472  0.00  0.00     0.015 A 
ATOM      7  C7  IND d   1       1.573  -0.876   2.501  0.00  0.00    -0.016 A 
ATOM      8  C8  IND d   1       0.761  -1.544   1.595  0.00  0.00    -0.047 A 
ATOM      9  C9  IND d   1       0.572  -2.931   1.649  0.00  0.00    -0.096 A 
ATOM     10  HN1 IND d   1       0.012  -0.256   0.252  0.00  0.00     0.298 HD
ENDROOT
TORSDOF 0
ENDMDL
