MODEL 1
REMARK minimizedAffinity 5.02594471
REMARK minimizedRMSD -1
REMARK  0 active torsions:
REMARK  status: ('A' for Active; 'I' for Inactive)
ROOT
ATOM      1  N1  IND d   1      -0.132  -3.379   1.401  0.00  0.00    -0.196 N 
ATOM      2  C2  IND d   1      -0.337  -2.603   0.293  0.00  0.00     0.054 A 
ATOM      3  C3  IND d   1       0.248  -1.395   0.451  0.00  0.00    -0.031 A 
ATOM      4  C4  IND d   1       1.678  -0.512   2.401  0.00  0.00     0.051 A 
ATOM      5  C5  IND d   1       2.113  -0.842   3.654  0.00  0.00    -0.031 A 
ATOM      6  C6  IND d   1       1.819  -2.061   4.230  0.00  0.00     0.015 A 
ATOM      7  C7  IND d   1       1.084  -3.003   3.567  0.00  0.00    -0.016 A 
ATOM      8  C8  IND d   1       0.634  -2.668   2.298  0.00  0.00    -0.047 A 
ATOM      9  C9  IND d   1       0.894  -1.416   1.725  0.00  0.00    -0.096 A 
ATOM     10  HN1 IND d   1      -0.432  -4.176   1.517  0.00  0.00     0.298 HD
ENDROOT
TORSDOF 0
ENDMDL
