MODEL 1
REMARK minimizedAffinity 0.481669843
REMARK minimizedRMSD -1
REMARK  0 active torsions:
REMARK  status: ('A' for Active; 'I' for Inactive)
ROOT
ATOM      1  N1  IND d   1       1.173  -1.719   2.333  0.00  0.00    -0.196 N 
ATOM      2  C2  IND d   1       0.495  -1.890   1.158  0.00  0.00     0.054 A 
ATOM      3  C3  IND d   1       0.589  -0.779   0.395  0.00  0.00    -0.031 A 
ATOM      4  C4  IND d   1       1.889   1.400   0.831  0.00  0.00     0.051 A 
ATOM      5  C5  IND d   1       2.631   2.039   1.784  0.00  0.00    -0.031 A 
ATOM      6  C6  IND d   1       2.934   1.445   2.992  0.00  0.00     0.015 A 
ATOM      7  C7  IND d   1       2.513   0.180   3.289  0.00  0.00    -0.016 A 
ATOM      8  C8  IND d   1       1.753  -0.470   2.326  0.00  0.00    -0.047 A 
ATOM      9  C9  IND d   1       1.407   0.144   1.116  0.00  0.00    -0.096 A 
ATOM     10  HN1 IND d   1       1.228  -2.295   2.969  0.00  0.00     0.298 HD
ENDROOT
TORSDOF 0
ENDMDL
