MODEL 1
REMARK minimizedAffinity 0.0205225181
REMARK minimizedRMSD -1
REMARK  0 active torsions:
REMARK  status: ('A' for Active; 'I' for Inactive)
ROOT
ATOM      1  N1  IND d   1      -0.014  -1.734   1.189  0.00  0.00    -0.196 N 
ATOM      2  C2  IND d   1      -0.372  -1.039   0.067  0.00  0.00     0.054 A 
ATOM      3  C3  IND d   1       0.298   0.133   0.007  0.00  0.00    -0.031 A 
ATOM      4  C4  IND d   1       2.105   1.068   1.584  0.00  0.00     0.051 A 
ATOM      5  C5  IND d   1       2.742   0.810   2.766  0.00  0.00    -0.031 A 
ATOM      6  C6  IND d   1       2.489  -0.334   3.495  0.00  0.00     0.015 A 
ATOM      7  C7  IND d   1       1.595  -1.272   3.063  0.00  0.00    -0.016 A 
ATOM      8  C8  IND d   1       0.942  -1.010   1.867  0.00  0.00    -0.047 A 
ATOM      9  C9  IND d   1       1.163   0.169   1.143  0.00  0.00    -0.096 A 
ATOM     10  HN1 IND d   1      -0.331  -2.496   1.430  0.00  0.00     0.298 HD
ENDROOT
TORSDOF 0
ENDMDL
