MODEL 1
REMARK minimizedAffinity 17.9667511
REMARK minimizedRMSD -1
REMARK  0 active torsions:
REMARK  status: ('A' for Active; 'I' for Inactive)
ROOT
ATOM      1  C   UNL d   1      -0.246  -0.149   2.689  0.00  0.00    -0.002 A 
ATOM      2  C1  UNL d   1      -1.130  -1.216   2.613  0.00  0.00     0.010 A 
ATOM      3  C2  UNL d   1      -0.718  -2.445   2.094  0.00  0.00     0.041 A 
ATOM      4  C3  UNL d   1       0.612  -2.586   1.651  0.00  0.00    -0.075 A 
ATOM      5  S   UNL d   1       1.339  -3.998   0.980  0.00  0.00     0.015 SA
ATOM      6  C4  UNL d   1       2.842  -3.219   0.780  0.00  0.00     0.022 A 
ATOM      7  C5  UNL d   1       2.807  -1.913   1.209  0.00  0.00     0.026 A 
ATOM      8  C6  UNL d   1       1.521  -1.527   1.718  0.00  0.00    -0.082 A 
ATOM      9  C7  UNL d   1       1.073  -0.293   2.248  0.00  0.00     0.045 A 
ENDROOT
TORSDOF 0
ENDMDL
