MODEL 1
REMARK minimizedAffinity 9.41309261
REMARK minimizedRMSD -1
REMARK  0 active torsions:
REMARK  status: ('A' for Active; 'I' for Inactive)
ROOT
ATOM      1  C   UNL d   1       2.466  -2.675   0.854  0.00  0.00    -0.002 A 
ATOM      2  C1  UNL d   1       1.846  -3.914   0.934  0.00  0.00     0.010 A 
ATOM      3  C2  UNL d   1       0.664  -4.072   1.660  0.00  0.00     0.041 A 
ATOM      4  C3  UNL d   1       0.109  -2.952   2.310  0.00  0.00    -0.075 A 
ATOM      5  S   UNL d   1      -1.332  -2.906   3.256  0.00  0.00     0.015 SA
ATOM      6  C4  UNL d   1      -1.159  -1.241   3.575  0.00  0.00     0.022 A 
ATOM      7  C5  UNL d   1      -0.035  -0.716   2.983  0.00  0.00     0.026 A 
ATOM      8  C6  UNL d   1       0.714  -1.693   2.243  0.00  0.00    -0.082 A 
ATOM      9  C7  UNL d   1       1.912  -1.567   1.499  0.00  0.00     0.045 A 
ENDROOT
TORSDOF 0
ENDMDL
