MODEL 1
REMARK minimizedAffinity 12.41716
REMARK minimizedRMSD -1
REMARK  0 active torsions:
REMARK  status: ('A' for Active; 'I' for Inactive)
ROOT
ATOM      1  C   UNL d   1       2.926  -0.874   1.735  0.00  0.00    -0.002 A 
ATOM      2  C1  UNL d   1       2.584  -1.862   0.822  0.00  0.00     0.010 A 
ATOM      3  C2  UNL d   1       1.300  -2.410   0.817  0.00  0.00     0.041 A 
ATOM      4  C3  UNL d   1       0.355  -1.943   1.751  0.00  0.00    -0.075 A 
ATOM      5  S   UNL d   1      -1.278  -2.466   1.930  0.00  0.00     0.015 SA
ATOM      6  C4  UNL d   1      -1.560  -1.390   3.221  0.00  0.00     0.022 A 
ATOM      7  C5  UNL d   1      -0.447  -0.642   3.522  0.00  0.00     0.026 A 
ATOM      8  C6  UNL d   1       0.675  -0.948   2.680  0.00  0.00    -0.082 A 
ATOM      9  C7  UNL d   1       1.986  -0.413   2.661  0.00  0.00     0.045 A 
ENDROOT
TORSDOF 0
ENDMDL
