MODEL 1
REMARK minimizedAffinity 22.8145504
REMARK minimizedRMSD -1
REMARK  0 active torsions:
REMARK  status: ('A' for Active; 'I' for Inactive)
ROOT
ATOM      1  C   UNL d   1       2.137  -3.590   0.010  0.00  0.00    -0.002 A 
ATOM      2  C1  UNL d   1       2.385  -2.271   0.363  0.00  0.00     0.010 A 
ATOM      3  C2  UNL d   1       1.522  -1.593   1.226  0.00  0.00     0.041 A 
ATOM      4  C3  UNL d   1       0.396  -2.270   1.735  0.00  0.00    -0.075 A 
ATOM      5  S   UNL d   1      -0.798  -1.641   2.808  0.00  0.00     0.015 SA
ATOM      6  C4  UNL d   1      -1.665  -3.108   2.823  0.00  0.00     0.022 A 
ATOM      7  C5  UNL d   1      -1.072  -4.065   2.034  0.00  0.00     0.026 A 
ATOM      8  C6  UNL d   1       0.126  -3.598   1.394  0.00  0.00    -0.082 A 
ATOM      9  C7  UNL d   1       1.019  -4.258   0.516  0.00  0.00     0.045 A 
ENDROOT
TORSDOF 0
ENDMDL
