MODEL 1
REMARK minimizedAffinity 5.6122303
REMARK minimizedRMSD -1
REMARK  0 active torsions:
REMARK  status: ('A' for Active; 'I' for Inactive)
ROOT
ATOM      1  C   UNL d   1       3.384  -3.084   0.973  0.00  0.00    -0.002 A 
ATOM      2  C1  UNL d   1       2.578  -4.213   1.002  0.00  0.00     0.010 A 
ATOM      3  C2  UNL d   1       1.288  -4.152   1.533  0.00  0.00     0.041 A 
ATOM      4  C3  UNL d   1       0.816  -2.925   2.038  0.00  0.00    -0.075 A 
ATOM      5  S   UNL d   1      -0.729  -2.612   2.736  0.00  0.00     0.015 SA
ATOM      6  C4  UNL d   1      -0.356  -0.972   3.011  0.00  0.00     0.022 A 
ATOM      7  C5  UNL d   1       0.912  -0.654   2.588  0.00  0.00     0.026 A 
ATOM      8  C6  UNL d   1       1.609  -1.773   2.020  0.00  0.00    -0.082 A 
ATOM      9  C7  UNL d   1       2.912  -1.868   1.476  0.00  0.00     0.045 A 
ENDROOT
TORSDOF 0
ENDMDL
