MODEL 1
REMARK minimizedAffinity -1.88763773
REMARK minimizedRMSD -1
REMARK  0 active torsions:
REMARK  status: ('A' for Active; 'I' for Inactive)
ROOT
ATOM      1  C   UNL d   1       5.706  -2.030  -5.503  0.00  0.00     0.020 A 
ATOM      2  C1  UNL d   1       4.962  -1.894  -4.331  0.00  0.00     0.020 A 
ATOM      3  C2  UNL d   1       4.510  -3.030  -3.656  0.00  0.00     0.034 A 
ATOM      4  C3  UNL d   1       4.803  -4.306  -4.151  0.00  0.00     0.017 A 
ATOM      5  C4  UNL d   1       5.550  -4.441  -5.327  0.00  0.00     0.017 A 
ATOM      6  C5  UNL d   1       6.000  -3.300  -5.999  0.00  0.00     0.034 A 
ATOM      7 Cl   UNL d   1       5.950  -5.982  -5.999  0.00  0.00    -0.070 Cl
ATOM      8 Cl1  UNL d   1       4.213  -5.667  -3.264  0.00  0.00    -0.070 Cl
ENDROOT
TORSDOF 0
ENDMDL
