MODEL 1
REMARK minimizedAffinity -2.14547014
REMARK minimizedRMSD -1
REMARK  0 active torsions:
REMARK  status: ('A' for Active; 'I' for Inactive)
ROOT
ATOM      1  C   UNL d   1       5.558  -1.825  -4.691  0.00  0.00     0.020 A 
ATOM      2  C1  UNL d   1       4.532  -1.844  -5.635  0.00  0.00     0.020 A 
ATOM      3  C2  UNL d   1       3.941  -3.056  -5.998  0.00  0.00     0.034 A 
ATOM      4  C3  UNL d   1       4.376  -4.253  -5.419  0.00  0.00     0.017 A 
ATOM      5  C4  UNL d   1       5.406  -4.233  -4.472  0.00  0.00     0.017 A 
ATOM      6  C5  UNL d   1       5.994  -3.016  -4.111  0.00  0.00     0.034 A 
ATOM      7 Cl   UNL d   1       5.997  -5.669  -3.713  0.00  0.00    -0.070 Cl
ATOM      8 Cl1  UNL d   1       3.600  -5.715  -5.915  0.00  0.00    -0.070 Cl
ENDROOT
TORSDOF 0
ENDMDL
