MODEL 1
REMARK minimizedAffinity -2.01267815
REMARK minimizedRMSD -1
REMARK  0 active torsions:
REMARK  status: ('A' for Active; 'I' for Inactive)
ROOT
ATOM      1  C   UNL d   1       5.038  -5.521  -4.720  0.00  0.00     0.020 A 
ATOM      2  C1  UNL d   1       5.974  -5.061  -5.645  0.00  0.00     0.020 A 
ATOM      3  C2  UNL d   1       6.000  -3.710  -5.999  0.00  0.00     0.034 A 
ATOM      4  C3  UNL d   1       5.088  -2.815  -5.428  0.00  0.00     0.017 A 
ATOM      5  C4  UNL d   1       4.150  -3.277  -4.499  0.00  0.00     0.017 A 
ATOM      6  C5  UNL d   1       4.128  -4.631  -4.147  0.00  0.00     0.034 A 
ATOM      7 Cl   UNL d   1       2.993  -2.233  -3.751  0.00  0.00    -0.070 Cl
ATOM      8 Cl1  UNL d   1       5.178  -1.158  -5.912  0.00  0.00    -0.070 Cl
ENDROOT
TORSDOF 0
ENDMDL
