MODEL 1
REMARK minimizedAffinity -1.546224
REMARK minimizedRMSD -1
REMARK  0 active torsions:
REMARK  status: ('A' for Active; 'I' for Inactive)
ROOT
ATOM      1  C   UNL d   1       5.658  -1.877  -4.464  0.00  0.00     0.020 A 
ATOM      2  C1  UNL d   1       4.793  -1.909  -5.558  0.00  0.00     0.020 A 
ATOM      3  C2  UNL d   1       4.270  -3.125  -6.000  0.00  0.00     0.034 A 
ATOM      4  C3  UNL d   1       4.611  -4.316  -5.348  0.00  0.00     0.017 A 
ATOM      5  C4  UNL d   1       5.478  -4.284  -4.250  0.00  0.00     0.017 A 
ATOM      6  C5  UNL d   1       5.999  -3.063  -3.812  0.00  0.00     0.034 A 
ATOM      7 Cl   UNL d   1       5.945  -5.712  -3.395  0.00  0.00    -0.070 Cl
ATOM      8 Cl1  UNL d   1       3.926  -5.785  -5.948  0.00  0.00    -0.070 Cl
ENDROOT
TORSDOF 0
ENDMDL
