MODEL 1
REMARK minimizedAffinity -2.37615824
REMARK minimizedRMSD -1
REMARK  0 active torsions:
REMARK  status: ('A' for Active; 'I' for Inactive)
ROOT
ATOM      1  C   UNL d   1       4.183  -1.654  -5.453  0.00  0.00     0.020 A 
ATOM      2  C1  UNL d   1       5.458  -1.864  -5.976  0.00  0.00     0.020 A 
ATOM      3  C2  UNL d   1       6.000  -3.151  -6.000  0.00  0.00     0.034 A 
ATOM      4  C3  UNL d   1       5.266  -4.233  -5.500  0.00  0.00     0.017 A 
ATOM      5  C4  UNL d   1       3.986  -4.020  -4.975  0.00  0.00     0.017 A 
ATOM      6  C5  UNL d   1       3.448  -2.730  -4.954  0.00  0.00     0.034 A 
ATOM      7 Cl   UNL d   1       3.020  -5.305  -4.340  0.00  0.00    -0.070 Cl
ATOM      8 Cl1  UNL d   1       5.997  -5.797  -5.561  0.00  0.00    -0.070 Cl
ENDROOT
TORSDOF 0
ENDMDL
