MODEL 1
REMARK minimizedAffinity -0.271714538
REMARK minimizedRMSD -1
REMARK  0 active torsions:
REMARK  status: ('A' for Active; 'I' for Inactive)
ROOT
ATOM      1  C   UNL d   1       5.526  -5.946  -4.969  0.00  0.00     0.020 A 
ATOM      2  C1  UNL d   1       4.409  -5.865  -5.800  0.00  0.00     0.020 A 
ATOM      3  C2  UNL d   1       3.765  -4.641  -5.987  0.00  0.00     0.034 A 
ATOM      4  C3  UNL d   1       4.237  -3.491  -5.343  0.00  0.00     0.017 A 
ATOM      5  C4  UNL d   1       5.358  -3.573  -4.509  0.00  0.00     0.017 A 
ATOM      6  C5  UNL d   1       5.999  -4.802  -4.325  0.00  0.00     0.034 A 
ATOM      7 Cl   UNL d   1       5.999  -2.198  -3.681  0.00  0.00    -0.070 Cl
ATOM      8 Cl1  UNL d   1       3.392  -2.010  -5.621  0.00  0.00    -0.070 Cl
ENDROOT
TORSDOF 0
ENDMDL
