MODEL 1
REMARK minimizedAffinity -1.16340983
REMARK minimizedRMSD -1
REMARK  0 active torsions:
REMARK  status: ('A' for Active; 'I' for Inactive)
ROOT
ATOM      1  C   UNL d   1       5.497  -5.970  -4.161  0.00  0.00     0.020 A 
ATOM      2  C1  UNL d   1       4.351  -5.999  -4.954  0.00  0.00     0.020 A 
ATOM      3  C2  UNL d   1       3.695  -4.809  -5.276  0.00  0.00     0.034 A 
ATOM      4  C3  UNL d   1       4.185  -3.585  -4.805  0.00  0.00     0.017 A 
ATOM      5  C4  UNL d   1       5.336  -3.558  -4.009  0.00  0.00     0.017 A 
ATOM      6  C5  UNL d   1       5.988  -4.752  -3.689  0.00  0.00     0.034 A 
ATOM      7 Cl   UNL d   1       6.000  -2.087  -3.391  0.00  0.00    -0.070 Cl
ATOM      8 Cl1  UNL d   1       3.324  -2.153  -5.243  0.00  0.00    -0.070 Cl
ENDROOT
TORSDOF 0
ENDMDL
