MODEL 1
REMARK minimizedAffinity -2.42338037
REMARK minimizedRMSD -1
REMARK  0 active torsions:
REMARK  status: ('A' for Active; 'I' for Inactive)
ROOT
ATOM      1  C   UNL d   1       5.505  -1.474  -4.584  0.00  0.00     0.020 A 
ATOM      2  C1  UNL d   1       4.339  -1.448  -5.347  0.00  0.00     0.020 A 
ATOM      3  C2  UNL d   1       3.666  -2.637  -5.635  0.00  0.00     0.034 A 
ATOM      4  C3  UNL d   1       4.159  -3.858  -5.159  0.00  0.00     0.017 A 
ATOM      5  C4  UNL d   1       5.330  -3.882  -4.393  0.00  0.00     0.017 A 
ATOM      6  C5  UNL d   1       6.000  -2.688  -4.108  0.00  0.00     0.034 A 
ATOM      7 Cl   UNL d   1       6.000  -5.349  -3.770  0.00  0.00    -0.070 Cl
ATOM      8 Cl1  UNL d   1       3.276  -5.290  -5.552  0.00  0.00    -0.070 Cl
ENDROOT
TORSDOF 0
ENDMDL
