MODEL 1
REMARK minimizedAffinity -2.29030728
REMARK minimizedRMSD -1
REMARK  0 active torsions:
REMARK  status: ('A' for Active; 'I' for Inactive)
ROOT
ATOM      1  C   UNL d   1       5.528  -5.959  -4.360  0.00  0.00     0.020 A 
ATOM      2  C1  UNL d   1       4.721  -5.900  -5.496  0.00  0.00     0.020 A 
ATOM      3  C2  UNL d   1       4.295  -4.663  -5.985  0.00  0.00     0.034 A 
ATOM      4  C3  UNL d   1       4.676  -3.481  -5.339  0.00  0.00     0.017 A 
ATOM      5  C4  UNL d   1       5.486  -3.542  -4.200  0.00  0.00     0.017 A 
ATOM      6  C5  UNL d   1       5.910  -4.783  -3.714  0.00  0.00     0.034 A 
ATOM      7 Cl   UNL d   1       5.998  -2.127  -3.349  0.00  0.00    -0.070 Cl
ATOM      8 Cl1  UNL d   1       4.114  -1.987  -6.000  0.00  0.00    -0.070 Cl
ENDROOT
TORSDOF 0
ENDMDL
