MODEL 1
REMARK minimizedAffinity -2.28588772
REMARK minimizedRMSD -1
REMARK  0 active torsions:
REMARK  status: ('A' for Active; 'I' for Inactive)
ROOT
ATOM      1  C   UNL d   1       5.484  -5.408  -4.300  0.00  0.00     0.020 A 
ATOM      2  C1  UNL d   1       4.285  -5.597  -4.987  0.00  0.00     0.020 A 
ATOM      3  C2  UNL d   1       3.596  -4.498  -5.504  0.00  0.00     0.034 A 
ATOM      4  C3  UNL d   1       4.105  -3.205  -5.334  0.00  0.00     0.017 A 
ATOM      5  C4  UNL d   1       5.308  -3.017  -4.644  0.00  0.00     0.017 A 
ATOM      6  C5  UNL d   1       5.994  -4.121  -4.129  0.00  0.00     0.034 A 
ATOM      7 Cl   UNL d   1       5.999  -1.452  -4.395  0.00  0.00    -0.070 Cl
ATOM      8 Cl1  UNL d   1       3.201  -1.892  -6.000  0.00  0.00    -0.070 Cl
ENDROOT
TORSDOF 0
ENDMDL
