MODEL 1
REMARK minimizedAffinity -1.06760311
REMARK minimizedRMSD -1
REMARK  0 active torsions:
REMARK  status: ('A' for Active; 'I' for Inactive)
ROOT
ATOM      1  C   UNL d   1       5.507  -5.845  -5.008  0.00  0.00     0.020 A 
ATOM      2  C1  UNL d   1       4.369  -5.829  -4.202  0.00  0.00     0.020 A 
ATOM      3  C2  UNL d   1       3.716  -4.623  -3.940  0.00  0.00     0.034 A 
ATOM      4  C3  UNL d   1       4.200  -3.428  -4.484  0.00  0.00     0.017 A 
ATOM      5  C4  UNL d   1       5.342  -3.444  -5.293  0.00  0.00     0.017 A 
ATOM      6  C5  UNL d   1       5.992  -4.655  -5.552  0.00  0.00     0.034 A 
ATOM      7 Cl   UNL d   1       5.998  -2.010  -6.000  0.00  0.00    -0.070 Cl
ATOM      8 Cl1  UNL d   1       3.342  -1.973  -4.119  0.00  0.00    -0.070 Cl
ENDROOT
TORSDOF 0
ENDMDL
