MODEL 1
REMARK minimizedAffinity -3.57527852
REMARK minimizedRMSD -1
REMARK  0 active torsions:
REMARK  status: ('A' for Active; 'I' for Inactive)
ROOT
ATOM      1  C1  BNZ d   1      -0.132  -4.086  -1.372  0.00  0.00     0.000 A 
ATOM      2  C2  BNZ d   1      -0.295  -4.097  -0.013  0.00  0.00     0.000 A 
ATOM      3  C3  BNZ d   1      -0.060  -2.973   0.729  0.00  0.00     0.000 A 
ATOM      4  C4  BNZ d   1       0.375  -1.853   0.116  0.00  0.00     0.000 A 
ATOM      5  C5  BNZ d   1       0.553  -1.829  -1.253  0.00  0.00     0.000 A 
ATOM      6  C6  BNZ d   1       0.278  -2.951  -2.001  0.00  0.00     0.000 A 
ENDROOT
TORSDOF 0
ENDMDL
