MODEL 1
REMARK minimizedAffinity 5.42220497
REMARK minimizedRMSD -1
REMARK  0 active torsions:
REMARK  status: ('A' for Active; 'I' for Inactive)
ROOT
ATOM      1  C1  BNZ d   1       0.170  -3.726   0.809  0.00  0.00     0.000 A 
ATOM      2  C2  BNZ d   1       1.060  -3.341  -0.157  0.00  0.00     0.000 A 
ATOM      3  C3  BNZ d   1       0.812  -2.251  -0.944  0.00  0.00     0.000 A 
ATOM      4  C4  BNZ d   1      -0.343  -1.573  -0.791  0.00  0.00     0.000 A 
ATOM      5  C5  BNZ d   1      -1.256  -1.954   0.172  0.00  0.00     0.000 A 
ATOM      6  C6  BNZ d   1      -0.985  -3.028   0.989  0.00  0.00     0.000 A 
ENDROOT
TORSDOF 0
ENDMDL
