MODEL 1
REMARK minimizedAffinity -1.3649559
REMARK minimizedRMSD -1
REMARK  0 active torsions:
REMARK  status: ('A' for Active; 'I' for Inactive)
ROOT
ATOM      1  C1  BNZ d   1      -0.161  -3.047   1.494  0.00  0.00     0.000 A 
ATOM      2  C2  BNZ d   1       0.519  -3.205   0.316  0.00  0.00     0.000 A 
ATOM      3  C3  BNZ d   1       0.220  -2.436  -0.774  0.00  0.00     0.000 A 
ATOM      4  C4  BNZ d   1      -0.785  -1.539  -0.697  0.00  0.00     0.000 A 
ATOM      5  C5  BNZ d   1      -1.486  -1.375   0.481  0.00  0.00     0.000 A 
ATOM      6  C6  BNZ d   1      -1.156  -2.123   1.587  0.00  0.00     0.000 A 
ENDROOT
TORSDOF 0
ENDMDL
