MODEL 1
REMARK minimizedAffinity 6.73614407
REMARK minimizedRMSD -1
REMARK  0 active torsions:
REMARK  status: ('A' for Active; 'I' for Inactive)
ROOT
ATOM      1  C1  BNZ d   1       0.171  -3.977   0.824  0.00  0.00     0.000 A 
ATOM      2  C2  BNZ d   1       1.156  -3.680  -0.080  0.00  0.00     0.000 A 
ATOM      3  C3  BNZ d   1       1.038  -2.604  -0.915  0.00  0.00     0.000 A 
ATOM      4  C4  BNZ d   1      -0.081  -1.852  -0.873  0.00  0.00     0.000 A 
ATOM      5  C5  BNZ d   1      -1.087  -2.144   0.026  0.00  0.00     0.000 A 
ATOM      6  C6  BNZ d   1      -0.947  -3.204   0.892  0.00  0.00     0.000 A 
ENDROOT
TORSDOF 0
ENDMDL
