MODEL 1
REMARK minimizedAffinity 6.11022949
REMARK minimizedRMSD -1
REMARK  0 active torsions:
REMARK  status: ('A' for Active; 'I' for Inactive)
ROOT
ATOM      1  C1  BNZ d   1       1.093  -3.960  -0.049  0.00  0.00     0.000 A 
ATOM      2  C2  BNZ d   1       0.049  -4.247   0.790  0.00  0.00     0.000 A 
ATOM      3  C3  BNZ d   1      -1.014  -3.396   0.902  0.00  0.00     0.000 A 
ATOM      4  C4  BNZ d   1      -1.015  -2.240   0.206  0.00  0.00     0.000 A 
ATOM      5  C5  BNZ d   1       0.034  -1.932  -0.637  0.00  0.00     0.000 A 
ATOM      6  C6  BNZ d   1       1.085  -2.810  -0.777  0.00  0.00     0.000 A 
ENDROOT
TORSDOF 0
ENDMDL
