MODEL 1
REMARK minimizedAffinity 4.61643505
REMARK minimizedRMSD -1
REMARK  0 active torsions:
REMARK  status: ('A' for Active; 'I' for Inactive)
ROOT
ATOM      1  C1  BNZ d   1       0.534  -4.048  -0.061  0.00  0.00     0.000 A 
ATOM      2  C2  BNZ d   1       1.078  -3.788  -1.290  0.00  0.00     0.000 A 
ATOM      3  C3  BNZ d   1       0.842  -2.599  -1.922  0.00  0.00     0.000 A 
ATOM      4  C4  BNZ d   1       0.032  -1.689  -1.343  0.00  0.00     0.000 A 
ATOM      5  C5  BNZ d   1      -0.531  -1.941  -0.108  0.00  0.00     0.000 A 
ATOM      6  C6  BNZ d   1      -0.261  -3.123   0.543  0.00  0.00     0.000 A 
ENDROOT
TORSDOF 0
ENDMDL
