MODEL 1
REMARK minimizedAffinity -0.919935703
REMARK minimizedRMSD -1
REMARK  0 active torsions:
REMARK  status: ('A' for Active; 'I' for Inactive)
ROOT
ATOM      1  C1  BNZ d   1       0.247  -4.140   0.316  0.00  0.00     0.000 A 
ATOM      2  C2  BNZ d   1       0.838  -4.090  -0.919  0.00  0.00     0.000 A 
ATOM      3  C3  BNZ d   1       0.909  -2.915  -1.614  0.00  0.00     0.000 A 
ATOM      4  C4  BNZ d   1       0.356  -1.801  -1.092  0.00  0.00     0.000 A 
ATOM      5  C5  BNZ d   1      -0.252  -1.837   0.147  0.00  0.00     0.000 A 
ATOM      6  C6  BNZ d   1      -0.288  -3.013   0.861  0.00  0.00     0.000 A 
ENDROOT
TORSDOF 0
ENDMDL
