MODEL 1
REMARK minimizedAffinity 3.39147711
REMARK minimizedRMSD -1
REMARK  0 active torsions:
REMARK  status: ('A' for Active; 'I' for Inactive)
ROOT
ATOM      1  C1  BNZ d   1       4.854  -3.277   5.971  0.00  0.00     0.000 A 
ATOM      2  C2  BNZ d   1       5.990  -4.035   5.869  0.00  0.00     0.000 A 
ATOM      3  C3  BNZ d   1       5.916  -5.396   5.766  0.00  0.00     0.000 A 
ATOM      4  C4  BNZ d   1       4.711  -6.000   5.806  0.00  0.00     0.000 A 
ATOM      5  C5  BNZ d   1       3.557  -5.250   5.917  0.00  0.00     0.000 A 
ATOM      6  C6  BNZ d   1       3.633  -3.878   5.981  0.00  0.00     0.000 A 
ENDROOT
TORSDOF 0
ENDMDL
