MODEL 1
REMARK minimizedAffinity 2.47431898
REMARK minimizedRMSD -1
REMARK  0 active torsions:
REMARK  status: ('A' for Active; 'I' for Inactive)
ROOT
ATOM      1  C1  BNZ d   1      -0.443  -3.360  -0.692  0.00  0.00     0.000 A 
ATOM      2  C2  BNZ d   1       0.791  -3.754  -0.247  0.00  0.00     0.000 A 
ATOM      3  C3  BNZ d   1       1.056  -3.845   1.091  0.00  0.00     0.000 A 
ATOM      4  C4  BNZ d   1       0.101  -3.506   1.981  0.00  0.00     0.000 A 
ATOM      5  C5  BNZ d   1      -1.145  -3.098   1.547  0.00  0.00     0.000 A 
ATOM      6  C6  BNZ d   1      -1.421  -3.044   0.200  0.00  0.00     0.000 A 
ENDROOT
TORSDOF 0
ENDMDL
