MODEL 1
REMARK minimizedAffinity -1.77271068
REMARK minimizedRMSD -1
REMARK  0 active torsions:
REMARK  status: ('A' for Active; 'I' for Inactive)
ROOT
ATOM      1  C1  BNZ d   1      -0.598  -3.061   1.176  0.00  0.00     0.000 A 
ATOM      2  C2  BNZ d   1      -0.801  -2.098   2.127  0.00  0.00     0.000 A 
ATOM      3  C3  BNZ d   1      -1.074  -0.807   1.769  0.00  0.00     0.000 A 
ATOM      4  C4  BNZ d   1      -1.103  -0.473   0.463  0.00  0.00     0.000 A 
ATOM      5  C5  BNZ d   1      -0.891  -1.432  -0.508  0.00  0.00     0.000 A 
ATOM      6  C6  BNZ d   1      -0.655  -2.738  -0.145  0.00  0.00     0.000 A 
ENDROOT
TORSDOF 0
ENDMDL
