MODEL 1
REMARK minimizedAffinity -2.69086075
REMARK minimizedRMSD -1
REMARK  0 active torsions:
REMARK  status: ('A' for Active; 'I' for Inactive)
ROOT
ATOM      1  C1  BNZ d   1       3.613  -2.187   5.982  0.00  0.00     0.000 A 
ATOM      2  C2  BNZ d   1       3.655  -3.556   5.973  0.00  0.00     0.000 A 
ATOM      3  C3  BNZ d   1       4.850  -4.220   5.992  0.00  0.00     0.000 A 
ATOM      4  C4  BNZ d   1       6.000  -3.515   5.980  0.00  0.00     0.000 A 
ATOM      5  C5  BNZ d   1       5.974  -2.135   5.979  0.00  0.00     0.000 A 
ATOM      6  C6  BNZ d   1       4.769  -1.470   5.999  0.00  0.00     0.000 A 
ENDROOT
TORSDOF 0
ENDMDL
