MODEL 1
REMARK minimizedAffinity 2.52089357
REMARK minimizedRMSD -1
REMARK  0 active torsions:
REMARK  status: ('A' for Active; 'I' for Inactive)
ROOT
ATOM      1  C1  BNZ d   1       3.700  -3.483   5.992  0.00  0.00     0.000 A 
ATOM      2  C2  BNZ d   1       3.690  -2.114   5.995  0.00  0.00     0.000 A 
ATOM      3  C3  BNZ d   1       4.821  -1.405   5.702  0.00  0.00     0.000 A 
ATOM      4  C4  BNZ d   1       5.970  -2.064   5.447  0.00  0.00     0.000 A 
ATOM      5  C5  BNZ d   1       5.998  -3.445   5.449  0.00  0.00     0.000 A 
ATOM      6  C6  BNZ d   1       4.848  -4.155   5.706  0.00  0.00     0.000 A 
ENDROOT
TORSDOF 0
ENDMDL
