MODEL 1
REMARK minimizedAffinity -1.41390371
REMARK minimizedRMSD -1
REMARK  0 active torsions:
REMARK  status: ('A' for Active; 'I' for Inactive)
ROOT
ATOM      1  C1  BNZ d   1      -1.224  -2.585   0.411  0.00  0.00     0.000 A 
ATOM      2  C2  BNZ d   1      -1.438  -1.232   0.407  0.00  0.00     0.000 A 
ATOM      3  C3  BNZ d   1      -0.467  -0.369   0.833  0.00  0.00     0.000 A 
ATOM      4  C4  BNZ d   1       0.699  -0.860   1.299  0.00  0.00     0.000 A 
ATOM      5  C5  BNZ d   1       0.927  -2.221   1.317  0.00  0.00     0.000 A 
ATOM      6  C6  BNZ d   1      -0.038  -3.086   0.852  0.00  0.00     0.000 A 
ENDROOT
TORSDOF 0
ENDMDL
