MODEL 1
REMARK minimizedAffinity 11.7478695
REMARK minimizedRMSD -1
REMARK  2 active torsions:
REMARK  status: ('A' for Active; 'I' for Inactive)
REMARK    1  A    between atoms: C2'_3  and  C1'_4 
REMARK    2  A    between atoms: C1'_4  and  C1_5 
ROOT
ATOM      1  C1  I4B d   1       1.496  -0.701  -1.600  0.00  0.00    -0.075 A 
ATOM      2  C2  I4B d   1       2.804  -0.959  -1.273  0.00  0.00     0.003 A 
ATOM      3  C3  I4B d   1       3.143  -2.138  -0.566  0.00  0.00     0.002 A 
ATOM      4  C4  I4B d   1       2.143  -3.000  -0.163  0.00  0.00    -0.004 A 
ATOM      5  C5  I4B d   1       0.820  -2.748  -0.515  0.00  0.00     0.002 A 
ATOM      6  C6  I4B d   1       0.495  -1.597  -1.249  0.00  0.00     0.003 A 
ENDROOT
BRANCH   1   7
ATOM      7  C1' I4B d   1       1.170   0.570  -2.319  0.00  0.00     0.060 C 
BRANCH   7   8
ATOM      8  C2' I4B d   1       1.009   1.664  -1.283  0.00  0.00    -0.013 C 
ATOM      9  C4' I4B d   1       1.887   2.847  -1.598  0.00  0.00     0.013 C 
ATOM     10  C3' I4B d   1      -0.437   2.058  -1.247  0.00  0.00     0.013 C 
ENDBRANCH   7   8
ENDBRANCH   1   7
TORSDOF 2
ENDMDL
