MODEL 1
REMARK minimizedAffinity 7.07875252
REMARK minimizedRMSD -1
REMARK  2 active torsions:
REMARK  status: ('A' for Active; 'I' for Inactive)
REMARK    1  A    between atoms: C2'_3  and  C1'_4 
REMARK    2  A    between atoms: C1'_4  and  C1_5 
ROOT
ATOM      1  C1  I4B d   1       3.801   3.773  -0.202  0.00  0.00    -0.075 A 
ATOM      2  C2  I4B d   1       3.516   4.564  -1.287  0.00  0.00     0.003 A 
ATOM      3  C3  I4B d   1       4.331   5.682  -1.588  0.00  0.00     0.002 A 
ATOM      4  C4  I4B d   1       5.383   6.000  -0.754  0.00  0.00    -0.004 A 
ATOM      5  C5  I4B d   1       5.685   5.184   0.333  0.00  0.00     0.002 A 
ATOM      6  C6  I4B d   1       4.896   4.056   0.604  0.00  0.00     0.003 A 
ENDROOT
BRANCH   1   7
ATOM      7  C1' I4B d   1       2.900   2.619   0.106  0.00  0.00     0.060 C 
BRANCH   7   8
ATOM      8  C2' I4B d   1       2.371   2.078  -1.207  0.00  0.00    -0.013 C 
ATOM      9  C4' I4B d   1       2.721   0.623  -1.377  0.00  0.00     0.013 C 
ATOM     10  C3' I4B d   1       0.885   2.282  -1.227  0.00  0.00     0.013 C 
ENDBRANCH   7   8
ENDBRANCH   1   7
TORSDOF 2
ENDMDL
