MODEL 1
REMARK minimizedAffinity 7.74414396
REMARK minimizedRMSD -1
REMARK  2 active torsions:
REMARK  status: ('A' for Active; 'I' for Inactive)
REMARK    1  A    between atoms: C2'_3  and  C1'_4 
REMARK    2  A    between atoms: C1'_4  and  C1_5 
ROOT
ATOM      1  C1  I4B d   1       1.017   0.808  -1.578  0.00  0.00    -0.075 A 
ATOM      2  C2  I4B d   1       1.922   0.115  -2.343  0.00  0.00     0.003 A 
ATOM      3  C3  I4B d   1       2.546   0.741  -3.450  0.00  0.00     0.002 A 
ATOM      4  C4  I4B d   1       2.201   2.034  -3.783  0.00  0.00    -0.004 A 
ATOM      5  C5  I4B d   1       1.301   2.743  -2.993  0.00  0.00     0.002 A 
ATOM      6  C6  I4B d   1       0.714   2.131  -1.876  0.00  0.00     0.003 A 
ENDROOT
BRANCH   1   7
ATOM      7  C1' I4B d   1       0.352   0.107  -0.436  0.00  0.00     0.060 C 
BRANCH   7   8
ATOM      8  C2' I4B d   1      -1.100   0.539  -0.405  0.00  0.00    -0.013 C 
ATOM      9  C4' I4B d   1      -2.020  -0.626  -0.658  0.00  0.00     0.013 C 
ATOM     10  C3' I4B d   1      -1.369   1.161   0.932  0.00  0.00     0.013 C 
ENDBRANCH   7   8
ENDBRANCH   1   7
TORSDOF 2
ENDMDL
