MODEL 1
REMARK minimizedAffinity 7.09332609
REMARK minimizedRMSD -1
REMARK  2 active torsions:
REMARK  status: ('A' for Active; 'I' for Inactive)
REMARK    1  A    between atoms: C2'_3  and  C1'_4 
REMARK    2  A    between atoms: C1'_4  and  C1_5 
ROOT
ATOM      1  C1  I4B d   1       1.298  -0.351  -1.366  0.00  0.00    -0.075 A 
ATOM      2  C2  I4B d   1       1.684   0.964  -1.301  0.00  0.00     0.003 A 
ATOM      3  C3  I4B d   1       0.808   1.938  -0.763  0.00  0.00     0.002 A 
ATOM      4  C4  I4B d   1      -0.455   1.564  -0.352  0.00  0.00    -0.004 A 
ATOM      5  C5  I4B d   1      -0.836   0.226  -0.398  0.00  0.00     0.002 A 
ATOM      6  C6  I4B d   1       0.051  -0.740  -0.897  0.00  0.00     0.003 A 
ENDROOT
BRANCH   1   7
ATOM      7  C1' I4B d   1       2.236  -1.348  -1.970  0.00  0.00     0.060 C 
BRANCH   7   8
ATOM      8  C2' I4B d   1       2.950  -2.061  -0.840  0.00  0.00    -0.013 C 
ATOM      9  C4' I4B d   1       3.782  -1.103  -0.030  0.00  0.00     0.013 C 
ATOM     10  C3' I4B d   1       1.914  -2.733   0.011  0.00  0.00     0.013 C 
ENDBRANCH   7   8
ENDBRANCH   1   7
TORSDOF 2
ENDMDL
