MODEL 1
REMARK minimizedAffinity 5.22864914
REMARK minimizedRMSD -1
REMARK  2 active torsions:
REMARK  status: ('A' for Active; 'I' for Inactive)
REMARK    1  A    between atoms: C2'_3  and  C1'_4 
REMARK    2  A    between atoms: C1'_4  and  C1_5 
ROOT
ATOM      1  C1  I4B d   1       0.876  -0.368  -1.002  0.00  0.00    -0.075 A 
ATOM      2  C2  I4B d   1       2.151  -0.022  -1.374  0.00  0.00     0.003 A 
ATOM      3  C3  I4B d   1       3.216  -0.941  -1.210  0.00  0.00     0.002 A 
ATOM      4  C4  I4B d   1       2.972  -2.167  -0.628  0.00  0.00    -0.004 A 
ATOM      5  C5  I4B d   1       1.675  -2.526  -0.272  0.00  0.00     0.002 A 
ATOM      6  C6  I4B d   1       0.618  -1.626  -0.471  0.00  0.00     0.003 A 
ENDROOT
BRANCH   1   7
ATOM      7  C1' I4B d   1      -0.219   0.638  -1.158  0.00  0.00     0.060 C 
BRANCH   7   8
ATOM      8  C2' I4B d   1       0.360   2.007  -0.863  0.00  0.00    -0.013 C 
ATOM      9  C4' I4B d   1       0.087   2.969  -1.990  0.00  0.00     0.013 C 
ATOM     10  C3' I4B d   1      -0.239   2.495   0.422  0.00  0.00     0.013 C 
ENDBRANCH   7   8
ENDBRANCH   1   7
TORSDOF 2
ENDMDL
