MODEL 1
REMARK minimizedAffinity 5.96133184
REMARK minimizedRMSD -1
REMARK  2 active torsions:
REMARK  status: ('A' for Active; 'I' for Inactive)
REMARK    1  A    between atoms: C2'_3  and  C1'_4 
REMARK    2  A    between atoms: C1'_4  and  C1_5 
ROOT
ATOM      1  C1  I4B d   1       1.700   0.130  -2.068  0.00  0.00    -0.075 A 
ATOM      2  C2  I4B d   1       2.168   0.602  -3.269  0.00  0.00     0.003 A 
ATOM      3  C3  I4B d   1       1.800   1.892  -3.720  0.00  0.00     0.002 A 
ATOM      4  C4  I4B d   1       0.928   2.652  -2.967  0.00  0.00    -0.004 A 
ATOM      5  C5  I4B d   1       0.472   2.181  -1.739  0.00  0.00     0.002 A 
ATOM      6  C6  I4B d   1       0.870   0.917  -1.280  0.00  0.00     0.003 A 
ENDROOT
BRANCH   1   7
ATOM      7  C1' I4B d   1       2.082  -1.251  -1.637  0.00  0.00     0.060 C 
BRANCH   7   8
ATOM      8  C2' I4B d   1       1.277  -1.594  -0.400  0.00  0.00    -0.013 C 
ATOM      9  C4' I4B d   1      -0.181  -1.771  -0.731  0.00  0.00     0.013 C 
ATOM     10  C3' I4B d   1       1.853  -2.844   0.195  0.00  0.00     0.013 C 
ENDBRANCH   7   8
ENDBRANCH   1   7
TORSDOF 2
ENDMDL
