MODEL 1
REMARK minimizedAffinity 10.9298096
REMARK minimizedRMSD -1
REMARK  2 active torsions:
REMARK  status: ('A' for Active; 'I' for Inactive)
REMARK    1  A    between atoms: C2'_3  and  C1'_4 
REMARK    2  A    between atoms: C1'_4  and  C1_5 
ROOT
ATOM      1  C1  I4B d   1       1.332   1.651  -0.757  0.00  0.00    -0.075 A 
ATOM      2  C2  I4B d   1      -0.002   1.968  -0.810  0.00  0.00     0.003 A 
ATOM      3  C3  I4B d   1      -0.658   2.481   0.336  0.00  0.00     0.002 A 
ATOM      4  C4  I4B d   1       0.042   2.613   1.518  0.00  0.00    -0.004 A 
ATOM      5  C5  I4B d   1       1.400   2.312   1.563  0.00  0.00     0.002 A 
ATOM      6  C6  I4B d   1       2.053   1.840   0.415  0.00  0.00     0.003 A 
ENDROOT
BRANCH   1   7
ATOM      7  C1' I4B d   1       1.986   1.080  -1.976  0.00  0.00     0.060 C 
BRANCH   7   8
ATOM      8  C2' I4B d   1       2.433  -0.330  -1.649  0.00  0.00    -0.013 C 
ATOM      9  C4' I4B d   1       1.791  -1.333  -2.572  0.00  0.00     0.013 C 
ATOM     10  C3' I4B d   1       3.928  -0.378  -1.753  0.00  0.00     0.013 C 
ENDBRANCH   7   8
ENDBRANCH   1   7
TORSDOF 2
ENDMDL
