MODEL 1
REMARK minimizedAffinity 7.15097809
REMARK minimizedRMSD -1
REMARK  2 active torsions:
REMARK  status: ('A' for Active; 'I' for Inactive)
REMARK    1  A    between atoms: C2'_3  and  C1'_4 
REMARK    2  A    between atoms: C1'_4  and  C1_5 
ROOT
ATOM      1  C1  I4B d   1       2.498   0.060  -2.326  0.00  0.00    -0.075 A 
ATOM      2  C2  I4B d   1       2.660  -0.591  -1.128  0.00  0.00     0.003 A 
ATOM      3  C3  I4B d   1       2.406  -1.981  -1.032  0.00  0.00     0.002 A 
ATOM      4  C4  I4B d   1       1.947  -2.666  -2.139  0.00  0.00    -0.004 A 
ATOM      5  C5  I4B d   1       1.805  -2.009  -3.358  0.00  0.00     0.002 A 
ATOM      6  C6  I4B d   1       2.094  -0.640  -3.455  0.00  0.00     0.003 A 
ENDROOT
BRANCH   1   7
ATOM      7  C1' I4B d   1       2.743   1.534  -2.384  0.00  0.00     0.060 C 
BRANCH   7   8
ATOM      8  C2' I4B d   1       1.455   2.204  -2.819  0.00  0.00    -0.013 C 
ATOM      9  C4' I4B d   1       0.361   1.994  -1.806  0.00  0.00     0.013 C 
ATOM     10  C3' I4B d   1       1.737   3.664  -3.017  0.00  0.00     0.013 C 
ENDBRANCH   7   8
ENDBRANCH   1   7
TORSDOF 2
ENDMDL
