MODEL 1
REMARK minimizedAffinity -1.29439354
REMARK minimizedRMSD -1
REMARK  2 active torsions:
REMARK  status: ('A' for Active; 'I' for Inactive)
REMARK    1  A    between atoms: C2'_3  and  C1'_4 
REMARK    2  A    between atoms: C1'_4  and  C1_5 
ROOT
ATOM      1  C1  I4B d   1       0.795  -0.376  -1.058  0.00  0.00    -0.075 A 
ATOM      2  C2  I4B d   1       0.991  -1.511  -0.313  0.00  0.00     0.003 A 
ATOM      3  C3  I4B d   1       2.155  -2.296  -0.502  0.00  0.00     0.002 A 
ATOM      4  C4  I4B d   1       3.065  -1.937  -1.475  0.00  0.00    -0.004 A 
ATOM      5  C5  I4B d   1       2.876  -0.773  -2.213  0.00  0.00     0.002 A 
ATOM      6  C6  I4B d   1       1.740   0.020  -1.996  0.00  0.00     0.003 A 
ENDROOT
BRANCH   1   7
ATOM      7  C1' I4B d   1      -0.462   0.411  -0.856  0.00  0.00     0.060 C 
BRANCH   7   8
ATOM      8  C2' I4B d   1      -0.083   1.873  -0.734  0.00  0.00    -0.013 C 
ATOM      9  C4' I4B d   1       0.062   2.514  -2.089  0.00  0.00     0.013 C 
ATOM     10  C3' I4B d   1      -1.139   2.559   0.080  0.00  0.00     0.013 C 
ENDBRANCH   7   8
ENDBRANCH   1   7
TORSDOF 2
ENDMDL
