MODEL 1
REMARK minimizedAffinity 2.77519274
REMARK minimizedRMSD -1
REMARK  2 active torsions:
REMARK  status: ('A' for Active; 'I' for Inactive)
REMARK    1  A    between atoms: C2'_3  and  C1'_4 
REMARK    2  A    between atoms: C1'_4  and  C1_5 
ROOT
ATOM      1  C1  I4B d   1       0.017   1.311  -1.537  0.00  0.00    -0.075 A 
ATOM      2  C2  I4B d   1       0.501   0.093  -1.127  0.00  0.00     0.003 A 
ATOM      3  C3  I4B d   1       1.751  -0.373  -1.600  0.00  0.00     0.002 A 
ATOM      4  C4  I4B d   1       2.457   0.383  -2.514  0.00  0.00    -0.004 A 
ATOM      5  C5  I4B d   1       1.976   1.628  -2.910  0.00  0.00     0.002 A 
ATOM      6  C6  I4B d   1       0.754   2.101  -2.410  0.00  0.00     0.003 A 
ENDROOT
BRANCH   1   7
ATOM      7  C1' I4B d   1      -1.323   1.757  -1.043  0.00  0.00     0.060 C 
BRANCH   7   8
ATOM      8  C2' I4B d   1      -1.860   0.686  -0.116  0.00  0.00    -0.013 C 
ATOM      9  C4' I4B d   1      -2.275   1.269   1.209  0.00  0.00     0.013 C 
ATOM     10  C3' I4B d   1      -3.015   0.018  -0.800  0.00  0.00     0.013 C 
ENDBRANCH   7   8
ENDBRANCH   1   7
TORSDOF 2
ENDMDL
