MODEL 1
REMARK minimizedAffinity 5.32041073
REMARK minimizedRMSD -1
REMARK  2 active torsions:
REMARK  status: ('A' for Active; 'I' for Inactive)
REMARK    1  A    between atoms: C2'_3  and  C1'_4 
REMARK    2  A    between atoms: C1'_4  and  C1_5 
ROOT
ATOM      1  C1  I4B d   1       2.472  -0.183  -1.841  0.00  0.00    -0.075 A 
ATOM      2  C2  I4B d   1       1.189  -0.651  -1.980  0.00  0.00     0.003 A 
ATOM      3  C3  I4B d   1       0.706  -1.672  -1.125  0.00  0.00     0.002 A 
ATOM      4  C4  I4B d   1       1.550  -2.227  -0.186  0.00  0.00    -0.004 A 
ATOM      5  C5  I4B d   1       2.843  -1.736  -0.031  0.00  0.00     0.002 A 
ATOM      6  C6  I4B d   1       3.303  -0.699  -0.855  0.00  0.00     0.003 A 
ENDROOT
BRANCH   1   7
ATOM      7  C1' I4B d   1       2.960   0.873  -2.781  0.00  0.00     0.060 C 
BRANCH   7   8
ATOM      8  C2' I4B d   1       1.754   1.631  -3.298  0.00  0.00    -0.013 C 
ATOM      9  C4' I4B d   1       2.006   3.115  -3.308  0.00  0.00     0.013 C 
ATOM     10  C3' I4B d   1       1.445   1.125  -4.676  0.00  0.00     0.013 C 
ENDBRANCH   7   8
ENDBRANCH   1   7
TORSDOF 2
ENDMDL
