MODEL 1
REMARK minimizedAffinity 0.389420778
REMARK minimizedRMSD -1
REMARK  2 active torsions:
REMARK  status: ('A' for Active; 'I' for Inactive)
REMARK    1  A    between atoms: C2'_3  and  C1'_4 
REMARK    2  A    between atoms: C1'_4  and  C1_5 
ROOT
ATOM      1  C1  I4B d   1       1.962  -0.550  -1.755  0.00  0.00    -0.075 A 
ATOM      2  C2  I4B d   1       2.999  -1.073  -1.023  0.00  0.00     0.003 A 
ATOM      3  C3  I4B d   1       2.857  -2.327  -0.381  0.00  0.00     0.002 A 
ATOM      4  C4  I4B d   1       1.653  -2.996  -0.456  0.00  0.00    -0.004 A 
ATOM      5  C5  I4B d   1       0.610  -2.475  -1.217  0.00  0.00     0.002 A 
ATOM      6  C6  I4B d   1       0.770  -1.250  -1.881  0.00  0.00     0.003 A 
ENDROOT
BRANCH   1   7
ATOM      7  C1' I4B d   1       2.135   0.793  -2.392  0.00  0.00     0.060 C 
BRANCH   7   8
ATOM      8  C2' I4B d   1       0.848   1.569  -2.199  0.00  0.00    -0.013 C 
ATOM      9  C4' I4B d   1       0.591   1.845  -0.741  0.00  0.00     0.013 C 
ATOM     10  C3' I4B d   1       0.956   2.845  -2.981  0.00  0.00     0.013 C 
ENDBRANCH   7   8
ENDBRANCH   1   7
TORSDOF 2
ENDMDL
