MODEL 1
REMARK minimizedAffinity 7.9907546
REMARK minimizedRMSD -1
REMARK  2 active torsions:
REMARK  status: ('A' for Active; 'I' for Inactive)
REMARK    1  A    between atoms: C2'_3  and  C1'_4 
REMARK    2  A    between atoms: C1'_4  and  C1_5 
ROOT
ATOM      1  C1  I4B d   1       1.678   1.252  -0.651  0.00  0.00    -0.075 A 
ATOM      2  C2  I4B d   1       0.341   1.390  -0.928  0.00  0.00     0.003 A 
ATOM      3  C3  I4B d   1      -0.526   1.982   0.022  0.00  0.00     0.002 A 
ATOM      4  C4  I4B d   1      -0.026   2.374   1.248  0.00  0.00    -0.004 A 
ATOM      5  C5  I4B d   1       1.334   2.254   1.517  0.00  0.00     0.002 A 
ATOM      6  C6  I4B d   1       2.194   1.701   0.558  0.00  0.00     0.003 A 
ENDROOT
BRANCH   1   7
ATOM      7  C1' I4B d   1       2.559   0.591  -1.664  0.00  0.00     0.060 C 
BRANCH   7   8
ATOM      8  C2' I4B d   1       2.638   1.498  -2.875  0.00  0.00    -0.013 C 
ATOM      9  C4' I4B d   1       1.532   1.198  -3.853  0.00  0.00     0.013 C 
ATOM     10  C3' I4B d   1       2.568   2.917  -2.397  0.00  0.00     0.013 C 
ENDBRANCH   7   8
ENDBRANCH   1   7
TORSDOF 2
ENDMDL
