MODEL 1
REMARK minimizedAffinity 4.12209749
REMARK minimizedRMSD -1
REMARK  2 active torsions:
REMARK  status: ('A' for Active; 'I' for Inactive)
REMARK    1  A    between atoms: C2'_3  and  C1'_4 
REMARK    2  A    between atoms: C1'_4  and  C1_5 
ROOT
ATOM      1  C1  I4B d   1       0.912   1.601  -0.513  0.00  0.00    -0.075 A 
ATOM      2  C2  I4B d   1      -0.428   1.729  -0.244  0.00  0.00     0.003 A 
ATOM      3  C3  I4B d   1      -0.859   2.253   0.998  0.00  0.00     0.002 A 
ATOM      4  C4  I4B d   1       0.077   2.588   1.956  0.00  0.00    -0.004 A 
ATOM      5  C5  I4B d   1       1.435   2.479   1.673  0.00  0.00     0.002 A 
ATOM      6  C6  I4B d   1       1.856   1.995   0.426  0.00  0.00     0.003 A 
ENDROOT
BRANCH   1   7
ATOM      7  C1' I4B d   1       1.332   1.013  -1.823  0.00  0.00     0.060 C 
BRANCH   7   8
ATOM      8  C2' I4B d   1       2.081  -0.273  -1.539  0.00  0.00    -0.013 C 
ATOM      9  C4' I4B d   1       1.495  -1.427  -2.310  0.00  0.00     0.013 C 
ATOM     10  C3' I4B d   1       3.521  -0.058  -1.897  0.00  0.00     0.013 C 
ENDBRANCH   7   8
ENDBRANCH   1   7
TORSDOF 2
ENDMDL
