MODEL 1
REMARK minimizedAffinity 3.04615164
REMARK minimizedRMSD -1
REMARK  2 active torsions:
REMARK  status: ('A' for Active; 'I' for Inactive)
REMARK    1  A    between atoms: C2'_3  and  C1'_4 
REMARK    2  A    between atoms: C1'_4  and  C1_5 
ROOT
ATOM      1  C1  I4B d   1       0.532  -1.369  -1.329  0.00  0.00    -0.075 A 
ATOM      2  C2  I4B d   1       1.409  -0.337  -1.549  0.00  0.00     0.003 A 
ATOM      3  C3  I4B d   1       2.736  -0.413  -1.063  0.00  0.00     0.002 A 
ATOM      4  C4  I4B d   1       3.127  -1.510  -0.323  0.00  0.00    -0.004 A 
ATOM      5  C5  I4B d   1       2.243  -2.566  -0.119  0.00  0.00     0.002 A 
ATOM      6  C6  I4B d   1       0.941  -2.501  -0.636  0.00  0.00     0.003 A 
ENDROOT
BRANCH   1   7
ATOM      7  C1' I4B d   1      -0.873  -1.241  -1.828  0.00  0.00     0.060 C 
BRANCH   7   8
ATOM      8  C2' I4B d   1      -1.641  -0.382  -0.845  0.00  0.00    -0.013 C 
ATOM      9  C4' I4B d   1      -1.377   1.082  -1.078  0.00  0.00     0.013 C 
ATOM     10  C3' I4B d   1      -3.099  -0.700  -0.993  0.00  0.00     0.013 C 
ENDBRANCH   7   8
ENDBRANCH   1   7
TORSDOF 2
ENDMDL
