MODEL 1
REMARK minimizedAffinity 1.26563776
REMARK minimizedRMSD -1
REMARK  2 active torsions:
REMARK  status: ('A' for Active; 'I' for Inactive)
REMARK    1  A    between atoms: C2'_3  and  C1'_4 
REMARK    2  A    between atoms: C1'_4  and  C1_5 
ROOT
ATOM      1  C1  I4B d   1       1.215  -0.755  -1.105  0.00  0.00    -0.075 A 
ATOM      2  C2  I4B d   1       2.477  -0.730  -1.644  0.00  0.00     0.003 A 
ATOM      3  C3  I4B d   1       2.918   0.400  -2.374  0.00  0.00     0.002 A 
ATOM      4  C4  I4B d   1       2.053   1.455  -2.583  0.00  0.00    -0.004 A 
ATOM      5  C5  I4B d   1       0.781   1.437  -2.016  0.00  0.00     0.002 A 
ATOM      6  C6  I4B d   1       0.364   0.331  -1.262  0.00  0.00     0.003 A 
ENDROOT
BRANCH   1   7
ATOM      7  C1' I4B d   1       0.770  -1.978  -0.368  0.00  0.00     0.060 C 
BRANCH   7   8
ATOM      8  C2' I4B d   1       2.007  -2.700   0.127  0.00  0.00    -0.013 C 
ATOM      9  C4' I4B d   1       2.988  -1.740   0.747  0.00  0.00     0.013 C 
ATOM     10  C3' I4B d   1       1.571  -3.741   1.115  0.00  0.00     0.013 C 
ENDBRANCH   7   8
ENDBRANCH   1   7
TORSDOF 2
ENDMDL
