MODEL 1
REMARK minimizedAffinity 13.5657253
REMARK minimizedRMSD -1
REMARK  2 active torsions:
REMARK  status: ('A' for Active; 'I' for Inactive)
REMARK    1  A    between atoms: C2'_3  and  C1'_4 
REMARK    2  A    between atoms: C1'_4  and  C1_5 
ROOT
ATOM      1  C1  I4B d   1       1.590  -0.666  -2.357  0.00  0.00    -0.075 A 
ATOM      2  C2  I4B d   1       2.813  -0.817  -1.752  0.00  0.00     0.003 A 
ATOM      3  C3  I4B d   1       3.044  -1.903  -0.873  0.00  0.00     0.002 A 
ATOM      4  C4  I4B d   1       2.016  -2.779  -0.590  0.00  0.00    -0.004 A 
ATOM      5  C5  I4B d   1       0.783  -2.637  -1.222  0.00  0.00     0.002 A 
ATOM      6  C6  I4B d   1       0.573  -1.581  -2.120  0.00  0.00     0.003 A 
ENDROOT
BRANCH   1   7
ATOM      7  C1' I4B d   1       1.370   0.511  -3.254  0.00  0.00     0.060 C 
BRANCH   7   8
ATOM      8  C2' I4B d   1       1.313   1.754  -2.388  0.00  0.00    -0.013 C 
ATOM      9  C4' I4B d   1       1.177   2.997  -3.228  0.00  0.00     0.013 C 
ATOM     10  C3' I4B d   1       0.155   1.608  -1.446  0.00  0.00     0.013 C 
ENDBRANCH   7   8
ENDBRANCH   1   7
TORSDOF 2
ENDMDL
