MODEL 1
REMARK minimizedAffinity -0.997029841
REMARK minimizedRMSD -1
REMARK  1 active torsions:
REMARK  status: ('A' for Active; 'I' for Inactive)
REMARK    1  A    between atoms: C1_2  and  C2_3 
ROOT
ATOM      1  C2  UNL d   1      -0.760   1.094  -1.210  0.00  0.00    -0.081 A 
ATOM      2  C3  UNL d   1       0.309   0.190  -1.238  0.00  0.00     0.006 A 
ATOM      3  C4  UNL d   1       0.597  -0.601  -0.124  0.00  0.00     0.002 A 
ATOM      4  C5  UNL d   1      -0.184  -0.508   1.033  0.00  0.00    -0.080 A 
ATOM      5  C6  UNL d   1       0.096  -1.374   2.226  0.00  0.00     0.076 C 
ATOM      6  C7  UNL d   1      -1.241   0.407   1.068  0.00  0.00     0.002 A 
ATOM      7  C8  UNL d   1      -1.529   1.199  -0.046  0.00  0.00     0.006 A 
ENDROOT
BRANCH   1   8
ATOM      8  C1  UNL d   1      -1.113   1.902  -2.433  0.00  0.00     0.054 C 
ATOM      9  C   UNL d   1      -2.037   3.060  -2.083  0.00  0.00     0.018 C 
ENDBRANCH   1   8
TORSDOF 1
ENDMDL
