MODEL 1
REMARK minimizedAffinity -2.24953485
REMARK minimizedRMSD -1
REMARK  1 active torsions:
REMARK  status: ('A' for Active; 'I' for Inactive)
REMARK    1  A    between atoms: C1_2  and  C2_3 
ROOT
ATOM      1  C2  UNL d   1      -0.378   0.925  -1.401  0.00  0.00    -0.081 A 
ATOM      2  C3  UNL d   1      -0.805   1.431  -0.167  0.00  0.00     0.006 A 
ATOM      3  C4  UNL d   1      -0.673   0.667   0.995  0.00  0.00     0.002 A 
ATOM      4  C5  UNL d   1      -0.106  -0.611   0.944  0.00  0.00    -0.080 A 
ATOM      5  C6  UNL d   1       0.070  -1.429   2.189  0.00  0.00     0.076 C 
ATOM      6  C7  UNL d   1       0.305  -1.123  -0.291  0.00  0.00     0.002 A 
ATOM      7  C8  UNL d   1       0.172  -0.360  -1.454  0.00  0.00     0.006 A 
ENDROOT
BRANCH   1   8
ATOM      8  C1  UNL d   1      -0.460   1.772  -2.645  0.00  0.00     0.054 C 
ATOM      9  C   UNL d   1       0.446   2.991  -2.546  0.00  0.00     0.018 C 
ENDBRANCH   1   8
TORSDOF 1
ENDMDL
