MODEL 1
REMARK minimizedAffinity -5.92658091
REMARK minimizedRMSD -1
REMARK  1 active torsions:
REMARK  status: ('A' for Active; 'I' for Inactive)
REMARK    1  A    between atoms: C1_2  and  C2_3 
ROOT
ATOM      1  C2  UNL d   1       0.103  -0.224   0.329  0.00  0.00    -0.081 A 
ATOM      2  C3  UNL d   1       1.319  -0.791  -0.071  0.00  0.00     0.006 A 
ATOM      3  C4  UNL d   1       2.219  -1.280   0.879  0.00  0.00     0.002 A 
ATOM      4  C5  UNL d   1       1.916  -1.215   2.243  0.00  0.00    -0.080 A 
ATOM      5  C6  UNL d   1       2.860  -1.763   3.272  0.00  0.00     0.076 C 
ATOM      6  C7  UNL d   1       0.709  -0.632   2.644  0.00  0.00     0.002 A 
ATOM      7  C8  UNL d   1      -0.191  -0.143   1.694  0.00  0.00     0.006 A 
ENDROOT
BRANCH   1   8
ATOM      8  C1  UNL d   1      -0.898   0.245  -0.696  0.00  0.00     0.054 C 
ATOM      9  C   UNL d   1      -0.239   1.121  -1.753  0.00  0.00     0.018 C 
ENDBRANCH   1   8
TORSDOF 1
ENDMDL
