MODEL 1
REMARK minimizedAffinity -4.59449673
REMARK minimizedRMSD -1
REMARK  1 active torsions:
REMARK  status: ('A' for Active; 'I' for Inactive)
REMARK    1  A    between atoms: C1_2  and  C2_3 
ROOT
ATOM      1  C2  UNL d   1      -0.070   0.440  -0.169  0.00  0.00    -0.081 A 
ATOM      2  C3  UNL d   1      -0.415  -0.150  -1.391  0.00  0.00     0.006 A 
ATOM      3  C4  UNL d   1      -0.671   0.641  -2.513  0.00  0.00     0.002 A 
ATOM      4  C5  UNL d   1      -0.579   2.035  -2.434  0.00  0.00    -0.080 A 
ATOM      5  C6  UNL d   1      -0.821   2.894  -3.639  0.00  0.00     0.076 C 
ATOM      6  C7  UNL d   1      -0.251   2.626  -1.209  0.00  0.00     0.002 A 
ATOM      7  C8  UNL d   1       0.004   1.835  -0.087  0.00  0.00     0.006 A 
ENDROOT
BRANCH   1   8
ATOM      8  C1  UNL d   1       0.270  -0.413   1.026  0.00  0.00     0.054 C 
ATOM      9  C   UNL d   1       1.748  -0.776   1.045  0.00  0.00     0.018 C 
ENDBRANCH   1   8
TORSDOF 1
ENDMDL
