MODEL 1
REMARK minimizedAffinity -5.11104822
REMARK minimizedRMSD -1
REMARK  1 active torsions:
REMARK  status: ('A' for Active; 'I' for Inactive)
REMARK    1  A    between atoms: C1_2  and  C2_3 
ROOT
ATOM      1  C2  UNL d   1      -0.016   0.049   0.232  0.00  0.00    -0.081 A 
ATOM      2  C3  UNL d   1      -0.516   0.058   1.540  0.00  0.00     0.006 A 
ATOM      3  C4  UNL d   1       0.304  -0.295   2.615  0.00  0.00     0.002 A 
ATOM      4  C5  UNL d   1       1.638  -0.656   2.400  0.00  0.00    -0.080 A 
ATOM      5  C6  UNL d   1       2.538  -1.008   3.548  0.00  0.00     0.076 C 
ATOM      6  C7  UNL d   1       2.133  -0.682   1.092  0.00  0.00     0.002 A 
ATOM      7  C8  UNL d   1       1.314  -0.330   0.017  0.00  0.00     0.006 A 
ENDROOT
BRANCH   1   8
ATOM      8  C1  UNL d   1      -0.879   0.492  -0.921  0.00  0.00     0.054 C 
ATOM      9  C   UNL d   1      -0.485   1.880  -1.406  0.00  0.00     0.018 C 
ENDBRANCH   1   8
TORSDOF 1
ENDMDL
