MODEL 1
REMARK minimizedAffinity 4.26722097
REMARK minimizedRMSD -1
REMARK  0 active torsions:
REMARK  status: ('A' for Active; 'I' for Inactive)
ROOT
ATOM      1  C1  BNZ d   1      -0.102   3.693  -0.043  0.00  0.00     0.000 A 
ATOM      2  C2  BNZ d   1       0.236   3.289  -1.308  0.00  0.00     0.000 A 
ATOM      3  C3  BNZ d   1       0.375   1.962  -1.605  0.00  0.00     0.000 A 
ATOM      4  C4  BNZ d   1       0.215   1.044  -0.631  0.00  0.00     0.000 A 
ATOM      5  C5  BNZ d   1      -0.117   1.435   0.651  0.00  0.00     0.000 A 
ATOM      6  C6  BNZ d   1      -0.294   2.769   0.938  0.00  0.00     0.000 A 
ENDROOT
TORSDOF 0
ENDMDL
