MODEL 1
REMARK minimizedAffinity 1.20779324
REMARK minimizedRMSD -1
REMARK  0 active torsions:
REMARK  status: ('A' for Active; 'I' for Inactive)
ROOT
ATOM      1  C1  BNZ d   1       0.148   2.230  -0.771  0.00  0.00     0.000 A 
ATOM      2  C2  BNZ d   1       0.485   3.463  -1.261  0.00  0.00     0.000 A 
ATOM      3  C3  BNZ d   1      -0.057   4.600  -0.729  0.00  0.00     0.000 A 
ATOM      4  C4  BNZ d   1      -0.964   4.500   0.264  0.00  0.00     0.000 A 
ATOM      5  C5  BNZ d   1      -1.322   3.263   0.762  0.00  0.00     0.000 A 
ATOM      6  C6  BNZ d   1      -0.745   2.123   0.250  0.00  0.00     0.000 A 
ENDROOT
TORSDOF 0
ENDMDL
