MODEL 1
REMARK minimizedAffinity 1.13322461
REMARK minimizedRMSD -1
REMARK  0 active torsions:
REMARK  status: ('A' for Active; 'I' for Inactive)
ROOT
ATOM      1  C1  BNZ d   1      -2.119   2.118   2.289  0.00  0.00     0.000 A 
ATOM      2  C2  BNZ d   1      -2.407   3.022   1.301  0.00  0.00     0.000 A 
ATOM      3  C3  BNZ d   1      -1.435   3.842   0.799  0.00  0.00     0.000 A 
ATOM      4  C4  BNZ d   1      -0.189   3.785   1.311  0.00  0.00     0.000 A 
ATOM      5  C5  BNZ d   1       0.114   2.885   2.314  0.00  0.00     0.000 A 
ATOM      6  C6  BNZ d   1      -0.857   2.034   2.790  0.00  0.00     0.000 A 
ENDROOT
TORSDOF 0
ENDMDL
