MODEL 1
REMARK minimizedAffinity -1.28114176
REMARK minimizedRMSD -1
REMARK  0 active torsions:
REMARK  status: ('A' for Active; 'I' for Inactive)
ROOT
ATOM      1  C1  BNZ d   1      -2.812   2.796   1.513  0.00  0.00     0.000 A 
ATOM      2  C2  BNZ d   1      -2.078   3.404   0.529  0.00  0.00     0.000 A 
ATOM      3  C3  BNZ d   1      -0.799   3.003   0.261  0.00  0.00     0.000 A 
ATOM      4  C4  BNZ d   1      -0.242   2.024   1.003  0.00  0.00     0.000 A 
ATOM      5  C5  BNZ d   1      -0.966   1.408   2.004  0.00  0.00     0.000 A 
ATOM      6  C6  BNZ d   1      -2.267   1.787   2.245  0.00  0.00     0.000 A 
ENDROOT
TORSDOF 0
ENDMDL
