MODEL 1
REMARK minimizedAffinity 2.68463898
REMARK minimizedRMSD -1
REMARK  0 active torsions:
REMARK  status: ('A' for Active; 'I' for Inactive)
ROOT
ATOM      1  C1  BNZ d   1      -2.400   1.095   2.110  0.00  0.00     0.000 A 
ATOM      2  C2  BNZ d   1      -1.729   0.014   2.617  0.00  0.00     0.000 A 
ATOM      3  C3  BNZ d   1      -0.398  -0.164   2.366  0.00  0.00     0.000 A 
ATOM      4  C4  BNZ d   1       0.251   0.716   1.576  0.00  0.00     0.000 A 
ATOM      5  C5  BNZ d   1      -0.414   1.805   1.049  0.00  0.00     0.000 A 
ATOM      6  C6  BNZ d   1      -1.745   2.002   1.336  0.00  0.00     0.000 A 
ENDROOT
TORSDOF 0
ENDMDL
