MODEL 1
REMARK minimizedAffinity -0.00173457596
REMARK minimizedRMSD -1
REMARK  0 active torsions:
REMARK  status: ('A' for Active; 'I' for Inactive)
ROOT
ATOM      1  C1  BNZ d   1      -3.697  -2.935   5.209  0.00  0.00     0.000 A 
ATOM      2  C2  BNZ d   1      -4.821  -3.097   5.974  0.00  0.00     0.000 A 
ATOM      3  C3  BNZ d   1      -5.967  -3.611   5.434  0.00  0.00     0.000 A 
ATOM      4  C4  BNZ d   1      -5.999  -3.923   4.122  0.00  0.00     0.000 A 
ATOM      5  C5  BNZ d   1      -4.877  -3.756   3.336  0.00  0.00     0.000 A 
ATOM      6  C6  BNZ d   1      -3.714  -3.276   3.892  0.00  0.00     0.000 A 
ENDROOT
TORSDOF 0
ENDMDL
