MODEL 1
REMARK minimizedAffinity 0.452849656
REMARK minimizedRMSD -1
REMARK  0 active torsions:
REMARK  status: ('A' for Active; 'I' for Inactive)
ROOT
ATOM      1  C1  BNZ d   1       0.474  -0.930   2.233  0.00  0.00     0.000 A 
ATOM      2  C2  BNZ d   1       0.299   0.345   1.767  0.00  0.00     0.000 A 
ATOM      3  C3  BNZ d   1      -0.920   0.958   1.844  0.00  0.00     0.000 A 
ATOM      4  C4  BNZ d   1      -1.971   0.282   2.350  0.00  0.00     0.000 A 
ATOM      5  C5  BNZ d   1      -1.814  -1.008   2.815  0.00  0.00     0.000 A 
ATOM      6  C6  BNZ d   1      -0.576  -1.608   2.772  0.00  0.00     0.000 A 
ENDROOT
TORSDOF 0
ENDMDL
