MODEL 1
REMARK minimizedAffinity 1.76156306
REMARK minimizedRMSD -1
REMARK  0 active torsions:
REMARK  status: ('A' for Active; 'I' for Inactive)
ROOT
ATOM      1  C1  BNZ d   1      -0.066   1.108  -0.746  0.00  0.00     0.000 A 
ATOM      2  C2  BNZ d   1      -0.816   0.997   0.394  0.00  0.00     0.000 A 
ATOM      3  C3  BNZ d   1      -1.297   2.110   1.026  0.00  0.00     0.000 A 
ATOM      4  C4  BNZ d   1      -0.994   3.331   0.541  0.00  0.00     0.000 A 
ATOM      5  C5  BNZ d   1      -0.231   3.459  -0.603  0.00  0.00     0.000 A 
ATOM      6  C6  BNZ d   1       0.219   2.336  -1.258  0.00  0.00     0.000 A 
ENDROOT
TORSDOF 0
ENDMDL
