MODEL 1
REMARK minimizedAffinity 5.28438044
REMARK minimizedRMSD -1
REMARK  0 active torsions:
REMARK  status: ('A' for Active; 'I' for Inactive)
ROOT
ATOM      1  C1  BNZ d   1      -1.237  -1.408  -2.770  0.00  0.00     0.000 A 
ATOM      2  C2  BNZ d   1      -0.007  -1.001  -2.327  0.00  0.00     0.000 A 
ATOM      3  C3  BNZ d   1       0.116   0.082  -1.501  0.00  0.00     0.000 A 
ATOM      4  C4  BNZ d   1      -0.985   0.779  -1.153  0.00  0.00     0.000 A 
ATOM      5  C5  BNZ d   1      -2.231   0.386  -1.599  0.00  0.00     0.000 A 
ATOM      6  C6  BNZ d   1      -2.355  -0.727  -2.399  0.00  0.00     0.000 A 
ENDROOT
TORSDOF 0
ENDMDL
