MODEL 1
REMARK minimizedAffinity 1.56924748
REMARK minimizedRMSD -1
REMARK  0 active torsions:
REMARK  status: ('A' for Active; 'I' for Inactive)
ROOT
ATOM      1  C1  BNZ d   1      -1.642   1.174  -2.069  0.00  0.00     0.000 A 
ATOM      2  C2  BNZ d   1      -1.993  -0.046  -2.583  0.00  0.00     0.000 A 
ATOM      3  C3  BNZ d   1      -1.113  -0.764  -3.343  0.00  0.00     0.000 A 
ATOM      4  C4  BNZ d   1       0.100  -0.244  -3.621  0.00  0.00     0.000 A 
ATOM      5  C5  BNZ d   1       0.465   0.988  -3.118  0.00  0.00     0.000 A 
ATOM      6  C6  BNZ d   1      -0.409   1.691  -2.321  0.00  0.00     0.000 A 
ENDROOT
TORSDOF 0
ENDMDL
