MODEL 1
REMARK minimizedAffinity 5.63175201
REMARK minimizedRMSD -1
REMARK  0 active torsions:
REMARK  status: ('A' for Active; 'I' for Inactive)
ROOT
ATOM      1  C1  BNZ d   1       0.170   0.515  -1.768  0.00  0.00     0.000 A 
ATOM      2  C2  BNZ d   1      -0.161  -0.752  -2.168  0.00  0.00     0.000 A 
ATOM      3  C3  BNZ d   1      -1.300  -0.984  -2.888  0.00  0.00     0.000 A 
ATOM      4  C4  BNZ d   1      -2.125   0.044  -3.172  0.00  0.00     0.000 A 
ATOM      5  C5  BNZ d   1      -1.810   1.326  -2.769  0.00  0.00     0.000 A 
ATOM      6  C6  BNZ d   1      -0.643   1.561  -2.078  0.00  0.00     0.000 A 
ENDROOT
TORSDOF 0
ENDMDL
