MODEL 1
REMARK minimizedAffinity 1.24349785
REMARK minimizedRMSD -1
REMARK  0 active torsions:
REMARK  status: ('A' for Active; 'I' for Inactive)
ROOT
ATOM      1  C1  BNZ d   1       0.324   1.964  -2.339  0.00  0.00     0.000 A 
ATOM      2  C2  BNZ d   1       0.326   3.309  -2.595  0.00  0.00     0.000 A 
ATOM      3  C3  BNZ d   1       0.068   4.211  -1.600  0.00  0.00     0.000 A 
ATOM      4  C4  BNZ d   1      -0.230   3.766  -0.363  0.00  0.00     0.000 A 
ATOM      5  C5  BNZ d   1      -0.245   2.412  -0.091  0.00  0.00     0.000 A 
ATOM      6  C6  BNZ d   1       0.053   1.509  -1.086  0.00  0.00     0.000 A 
ENDROOT
TORSDOF 0
ENDMDL
