MODEL 1
REMARK minimizedAffinity 4.44194698
REMARK minimizedRMSD -1
REMARK  0 active torsions:
REMARK  status: ('A' for Active; 'I' for Inactive)
ROOT
ATOM      1  C1  BNZ d   1      -0.470   4.138  -0.418  0.00  0.00     0.000 A 
ATOM      2  C2  BNZ d   1      -1.052   4.116   0.821  0.00  0.00     0.000 A 
ATOM      3  C3  BNZ d   1      -1.261   2.935   1.476  0.00  0.00     0.000 A 
ATOM      4  C4  BNZ d   1      -0.924   1.775   0.875  0.00  0.00     0.000 A 
ATOM      5  C5  BNZ d   1      -0.344   1.780  -0.378  0.00  0.00     0.000 A 
ATOM      6  C6  BNZ d   1      -0.100   2.974  -1.018  0.00  0.00     0.000 A 
ENDROOT
TORSDOF 0
ENDMDL
