MODEL 1
REMARK minimizedAffinity 3.79900312
REMARK minimizedRMSD -1
REMARK  0 active torsions:
REMARK  status: ('A' for Active; 'I' for Inactive)
ROOT
ATOM      1  C1  BNZ d   1       0.632   1.269  -2.108  0.00  0.00     0.000 A 
ATOM      2  C2  BNZ d   1      -0.110   0.321  -2.762  0.00  0.00     0.000 A 
ATOM      3  C3  BNZ d   1      -1.401   0.067  -2.394  0.00  0.00     0.000 A 
ATOM      4  C4  BNZ d   1      -1.935   0.730  -1.348  0.00  0.00     0.000 A 
ATOM      5  C5  BNZ d   1      -1.197   1.681  -0.673  0.00  0.00     0.000 A 
ATOM      6  C6  BNZ d   1       0.090   1.963  -1.071  0.00  0.00     0.000 A 
ENDROOT
TORSDOF 0
ENDMDL
