MODEL 1
REMARK minimizedAffinity 0.944601715
REMARK minimizedRMSD -1
REMARK  0 active torsions:
REMARK  status: ('A' for Active; 'I' for Inactive)
ROOT
ATOM      1  C1  BNZ d   1       0.769   0.572   1.069  0.00  0.00     0.000 A 
ATOM      2  C2  BNZ d   1       0.671   1.268   2.244  0.00  0.00     0.000 A 
ATOM      3  C3  BNZ d   1      -0.114   2.383   2.335  0.00  0.00     0.000 A 
ATOM      4  C4  BNZ d   1      -0.768   2.823   1.241  0.00  0.00     0.000 A 
ATOM      5  C5  BNZ d   1      -0.673   2.139   0.046  0.00  0.00     0.000 A 
ATOM      6  C6  BNZ d   1       0.088   0.994  -0.031  0.00  0.00     0.000 A 
ENDROOT
TORSDOF 0
ENDMDL
