MODEL 1
REMARK minimizedAffinity 4.23106909
REMARK minimizedRMSD -1
REMARK  0 active torsions:
REMARK  status: ('A' for Active; 'I' for Inactive)
ROOT
ATOM      1  C1  BNZ d   1       0.513   1.971   3.969  0.00  0.00     0.000 A 
ATOM      2  C2  BNZ d   1      -0.796   2.339   3.812  0.00  0.00     0.000 A 
ATOM      3  C3  BNZ d   1      -1.525   1.892   2.746  0.00  0.00     0.000 A 
ATOM      4  C4  BNZ d   1      -0.934   1.112   1.819  0.00  0.00     0.000 A 
ATOM      5  C5  BNZ d   1       0.388   0.739   1.958  0.00  0.00     0.000 A 
ATOM      6  C6  BNZ d   1       1.108   1.159   3.053  0.00  0.00     0.000 A 
ENDROOT
TORSDOF 0
ENDMDL
