MODEL 1
REMARK minimizedAffinity 3.15563703
REMARK minimizedRMSD -1
REMARK  0 active torsions:
REMARK  status: ('A' for Active; 'I' for Inactive)
ROOT
ATOM      1  C1  BNZ d   1      -0.159   2.273  -0.969  0.00  0.00     0.000 A 
ATOM      2  C2  BNZ d   1       0.212   2.582  -2.251  0.00  0.00     0.000 A 
ATOM      3  C3  BNZ d   1       0.964   1.713  -2.990  0.00  0.00     0.000 A 
ATOM      4  C4  BNZ d   1       1.377   0.555  -2.435  0.00  0.00     0.000 A 
ATOM      5  C5  BNZ d   1       1.018   0.234  -1.141  0.00  0.00     0.000 A 
ATOM      6  C6  BNZ d   1       0.229   1.094  -0.413  0.00  0.00     0.000 A 
ENDROOT
TORSDOF 0
ENDMDL
