MODEL 1
REMARK minimizedAffinity 16.832655
REMARK minimizedRMSD -1
REMARK  0 active torsions:
REMARK  status: ('A' for Active; 'I' for Inactive)
ROOT
ATOM      1  C   UNL d   1      -1.180  -1.266  -0.710  0.00  0.00    -0.002 A 
ATOM      2  C1  UNL d   1       0.188  -1.444  -0.561  0.00  0.00     0.010 A 
ATOM      3  C2  UNL d   1       0.720  -2.717  -0.350  0.00  0.00     0.041 A 
ATOM      4  C3  UNL d   1      -0.154  -3.820  -0.291  0.00  0.00    -0.075 A 
ATOM      5  S   UNL d   1       0.271  -5.472  -0.041  0.00  0.00     0.015 SA
ATOM      6  C4  UNL d   1      -1.353  -5.981  -0.127  0.00  0.00     0.022 A 
ATOM      7  C5  UNL d   1      -2.213  -4.929  -0.339  0.00  0.00     0.026 A 
ATOM      8  C6  UNL d   1      -1.536  -3.666  -0.438  0.00  0.00    -0.082 A 
ATOM      9  C7  UNL d   1      -2.044  -2.362  -0.650  0.00  0.00     0.045 A 
ENDROOT
TORSDOF 0
ENDMDL
