MODEL 1
REMARK minimizedAffinity 10.2045107
REMARK minimizedRMSD -1
REMARK  0 active torsions:
REMARK  status: ('A' for Active; 'I' for Inactive)
ROOT
ATOM      1  C   UNL d   1       1.887  -1.459   4.041  0.00  0.00    -0.002 A 
ATOM      2  C1  UNL d   1       2.314  -2.775   3.939  0.00  0.00     0.010 A 
ATOM      3  C2  UNL d   1       2.318  -3.427   2.704  0.00  0.00     0.041 A 
ATOM      4  C3  UNL d   1       1.884  -2.726   1.562  0.00  0.00    -0.075 A 
ATOM      5  S   UNL d   1       1.803  -3.320  -0.055  0.00  0.00     0.015 SA
ATOM      6  C4  UNL d   1       1.202  -1.840  -0.648  0.00  0.00     0.022 A 
ATOM      7  C5  UNL d   1       1.059  -0.904   0.349  0.00  0.00     0.026 A 
ATOM      8  C6  UNL d   1       1.450  -1.399   1.639  0.00  0.00    -0.082 A 
ATOM      9  C7  UNL d   1       1.457  -0.766   2.906  0.00  0.00     0.045 A 
ENDROOT
TORSDOF 0
ENDMDL
