MODEL 1
REMARK minimizedAffinity 6.63549137
REMARK minimizedRMSD -1
REMARK  0 active torsions:
REMARK  status: ('A' for Active; 'I' for Inactive)
ROOT
ATOM      1  C   UNL d   1       5.082  -2.746   6.000  0.00  0.00    -0.002 A 
ATOM      2  C1  UNL d   1       6.000  -2.247   5.087  0.00  0.00     0.010 A 
ATOM      3  C2  UNL d   1       5.569  -1.620   3.916  0.00  0.00     0.041 A 
ATOM      4  C3  UNL d   1       4.185  -1.500   3.678  0.00  0.00    -0.075 A 
ATOM      5  S   UNL d   1       3.426  -0.769   2.313  0.00  0.00     0.015 SA
ATOM      6  C4  UNL d   1       1.864  -1.101   2.911  0.00  0.00     0.022 A 
ATOM      7  C5  UNL d   1       1.903  -1.754   4.120  0.00  0.00     0.026 A 
ATOM      8  C6  UNL d   1       3.241  -1.994   4.583  0.00  0.00    -0.082 A 
ATOM      9  C7  UNL d   1       3.711  -2.625   5.759  0.00  0.00     0.045 A 
ENDROOT
TORSDOF 0
ENDMDL
