MODEL 1
REMARK minimizedAffinity 18.2798214
REMARK minimizedRMSD -1
REMARK  0 active torsions:
REMARK  status: ('A' for Active; 'I' for Inactive)
ROOT
ATOM      1  C   UNL d   1       3.162  -2.251   3.111  0.00  0.00    -0.002 A 
ATOM      2  C1  UNL d   1       2.197  -1.521   3.790  0.00  0.00     0.010 A 
ATOM      3  C2  UNL d   1       1.288  -2.159   4.636  0.00  0.00     0.041 A 
ATOM      4  C3  UNL d   1       1.367  -3.557   4.792  0.00  0.00    -0.075 A 
ATOM      5  S   UNL d   1       0.360  -4.552   5.775  0.00  0.00     0.015 SA
ATOM      6  C4  UNL d   1       1.187  -5.970   5.318  0.00  0.00     0.022 A 
ATOM      7  C5  UNL d   1       2.210  -5.709   4.437  0.00  0.00     0.026 A 
ATOM      8  C6  UNL d   1       2.330  -4.314   4.119  0.00  0.00    -0.082 A 
ATOM      9  C7  UNL d   1       3.237  -3.638   3.268  0.00  0.00     0.045 A 
ENDROOT
TORSDOF 0
ENDMDL
