MODEL 1
REMARK minimizedAffinity 18.6798058
REMARK minimizedRMSD -1
REMARK  0 active torsions:
REMARK  status: ('A' for Active; 'I' for Inactive)
ROOT
ATOM      1  C   UNL d   1       2.271   0.736   1.897  0.00  0.00    -0.002 A 
ATOM      2  C1  UNL d   1       0.945   1.035   2.176  0.00  0.00     0.010 A 
ATOM      3  C2  UNL d   1       0.324   2.134   1.581  0.00  0.00     0.041 A 
ATOM      4  C3  UNL d   1       1.065   2.936   0.691  0.00  0.00    -0.075 A 
ATOM      5  S   UNL d   1       0.513   4.333  -0.156  0.00  0.00     0.015 SA
ATOM      6  C4  UNL d   1       2.024   4.566  -0.909  0.00  0.00     0.022 A 
ATOM      7  C5  UNL d   1       2.939   3.611  -0.535  0.00  0.00     0.026 A 
ATOM      8  C6  UNL d   1       2.402   2.656   0.393  0.00  0.00    -0.082 A 
ATOM      9  C7  UNL d   1       3.003   1.534   1.013  0.00  0.00     0.045 A 
ENDROOT
TORSDOF 0
ENDMDL
