MODEL 1
REMARK minimizedAffinity 13.6458359
REMARK minimizedRMSD -1
REMARK  0 active torsions:
REMARK  status: ('A' for Active; 'I' for Inactive)
ROOT
ATOM      1  C   UNL d   1      -6.000   0.378  -1.129  0.00  0.00     0.023 A 
ATOM      2  C1  UNL d   1      -5.066   1.101  -0.386  0.00  0.00     0.003 A 
ATOM      3  C2  UNL d   1      -4.117   0.431   0.388  0.00  0.00     0.048 A 
ATOM      4  C3  UNL d   1      -4.107  -0.963   0.414  0.00  0.00     0.023 A 
ATOM      5  C4  UNL d   1      -5.038  -1.691  -0.328  0.00  0.00     0.048 A 
ATOM      6  C5  UNL d   1      -5.986  -1.016  -1.100  0.00  0.00     0.003 A 
ATOM      7  I   UNL d   1      -2.695  -1.964   1.566  0.00  0.00    -0.146 I 
ENDROOT
TORSDOF 0
ENDMDL
