MODEL 1
REMARK minimizedAffinity 6.72111225
REMARK minimizedRMSD -1
REMARK  0 active torsions:
REMARK  status: ('A' for Active; 'I' for Inactive)
ROOT
ATOM      1  C   UNL d   1      -5.433  -1.125  -1.200  0.00  0.00     0.023 A 
ATOM      2  C1  UNL d   1      -6.000   0.149  -1.199  0.00  0.00     0.003 A 
ATOM      3  C2  UNL d   1      -5.630   1.079  -0.225  0.00  0.00     0.048 A 
ATOM      4  C3  UNL d   1      -4.691   0.727   0.744  0.00  0.00     0.023 A 
ATOM      5  C4  UNL d   1      -4.120  -0.547   0.747  0.00  0.00     0.048 A 
ATOM      6  C5  UNL d   1      -4.494  -1.473  -0.229  0.00  0.00     0.003 A 
ATOM      7  I   UNL d   1      -4.138   2.109   2.195  0.00  0.00    -0.146 I 
ENDROOT
TORSDOF 0
ENDMDL
