MODEL 1
REMARK minimizedAffinity -0.132481307
REMARK minimizedRMSD -1
REMARK  0 active torsions:
REMARK  status: ('A' for Active; 'I' for Inactive)
ROOT
ATOM      1  C   UNL d   1      -0.563  -2.127   5.992  0.00  0.00     0.023 A 
ATOM      2  C1  UNL d   1       0.811  -1.889   5.980  0.00  0.00     0.003 A 
ATOM      3  C2  UNL d   1       1.707  -2.960   5.976  0.00  0.00     0.048 A 
ATOM      4  C3  UNL d   1       1.222  -4.267   5.984  0.00  0.00     0.023 A 
ATOM      5  C4  UNL d   1      -0.152  -4.511   5.995  0.00  0.00     0.048 A 
ATOM      6  C5  UNL d   1      -1.044  -3.437   6.000  0.00  0.00     0.003 A 
ATOM      7  I   UNL d   1       2.553  -5.863   5.978  0.00  0.00    -0.146 I 
ENDROOT
TORSDOF 0
ENDMDL
