MODEL 1
REMARK minimizedAffinity 2.73875093
REMARK minimizedRMSD -1
REMARK  0 active torsions:
REMARK  status: ('A' for Active; 'I' for Inactive)
ROOT
ATOM      1  C   UNL d   1       0.002  -4.786   5.978  0.00  0.00     0.023 A 
ATOM      2  C1  UNL d   1       1.313  -4.310   5.981  0.00  0.00     0.003 A 
ATOM      3  C2  UNL d   1       1.559  -2.936   5.985  0.00  0.00     0.048 A 
ATOM      4  C3  UNL d   1       0.489  -2.042   5.986  0.00  0.00     0.023 A 
ATOM      5  C4  UNL d   1      -0.825  -2.513   5.984  0.00  0.00     0.048 A 
ATOM      6  C5  UNL d   1      -1.066  -3.888   5.979  0.00  0.00     0.003 A 
ATOM      7  I   UNL d   1       0.853   0.004   5.992  0.00  0.00    -0.146 I 
ENDROOT
TORSDOF 0
ENDMDL
