MODEL 1
REMARK minimizedAffinity -0.402051389
REMARK minimizedRMSD -1
REMARK  0 active torsions:
REMARK  status: ('A' for Active; 'I' for Inactive)
ROOT
ATOM      1  C   UNL d   1       0.333  -4.907   5.998  0.00  0.00     0.023 A 
ATOM      2  C1  UNL d   1       1.596  -4.314   6.000  0.00  0.00     0.003 A 
ATOM      3  C2  UNL d   1       1.714  -2.922   6.000  0.00  0.00     0.048 A 
ATOM      4  C3  UNL d   1       0.567  -2.130   5.999  0.00  0.00     0.023 A 
ATOM      5  C4  UNL d   1      -0.699  -2.720   5.998  0.00  0.00     0.048 A 
ATOM      6  C5  UNL d   1      -0.812  -4.111   5.998  0.00  0.00     0.003 A 
ATOM      7  I   UNL d   1       0.741  -0.059   5.999  0.00  0.00    -0.146 I 
ENDROOT
TORSDOF 0
ENDMDL
