MODEL 1
REMARK minimizedAffinity 2.92961359
REMARK minimizedRMSD -1
REMARK  0 active torsions:
REMARK  status: ('A' for Active; 'I' for Inactive)
ROOT
ATOM      1  C   UNL d   1       1.380   0.454   0.888  0.00  0.00     0.023 A 
ATOM      2  C1  UNL d   1       0.005   0.570   0.685  0.00  0.00     0.003 A 
ATOM      3  C2  UNL d   1      -0.642  -0.273  -0.221  0.00  0.00     0.048 A 
ATOM      4  C3  UNL d   1       0.092  -1.230  -0.920  0.00  0.00     0.023 A 
ATOM      5  C4  UNL d   1       1.468  -1.350  -0.720  0.00  0.00     0.048 A 
ATOM      6  C5  UNL d   1       2.111  -0.505   0.186  0.00  0.00     0.003 A 
ATOM      7  I   UNL d   1      -0.869  -2.486  -2.269  0.00  0.00    -0.146 I 
ENDROOT
TORSDOF 0
ENDMDL
