MODEL 1
REMARK minimizedAffinity 10.2324171
REMARK minimizedRMSD -1
REMARK  0 active torsions:
REMARK  status: ('A' for Active; 'I' for Inactive)
ROOT
ATOM      1  C   UNL d   1       3.421  -0.586   1.141  0.00  0.00     0.023 A 
ATOM      2  C1  UNL d   1       3.392  -0.528  -0.252  0.00  0.00     0.003 A 
ATOM      3  C2  UNL d   1       2.172  -0.413  -0.922  0.00  0.00     0.048 A 
ATOM      4  C3  UNL d   1       0.985  -0.355  -0.193  0.00  0.00     0.023 A 
ATOM      5  C4  UNL d   1       1.009  -0.411   1.201  0.00  0.00     0.048 A 
ATOM      6  C5  UNL d   1       2.231  -0.527   1.867  0.00  0.00     0.003 A 
ATOM      7  I   UNL d   1      -0.831  -0.184  -1.188  0.00  0.00    -0.146 I 
ENDROOT
TORSDOF 0
ENDMDL
