MODEL 1
REMARK minimizedAffinity 4.2584796
REMARK minimizedRMSD -1
REMARK  1 active torsions:
REMARK  status: ('A' for Active; 'I' for Inactive)
REMARK    1  A    between atoms: N_2  and  C1_3 
ROOT
ATOM      1  C1  UNL d   1       1.890  -2.247  -0.293  0.00  0.00     0.143 A 
ATOM      2  C2  UNL d   1       1.369  -3.274   0.502  0.00  0.00    -0.057 A 
ATOM      3  C3  UNL d   1       0.236  -3.995   0.105  0.00  0.00     0.033 A 
ATOM      4  C4  UNL d   1      -0.414  -3.682  -1.084  0.00  0.00    -0.042 A 
ATOM      5  C5  UNL d   1       0.072  -2.649  -1.877  0.00  0.00     0.033 A 
ATOM      6  C6  UNL d   1       1.207  -1.936  -1.479  0.00  0.00    -0.057 A 
ENDROOT
BRANCH   1   7
ATOM      7  N   UNL d   1       2.954  -1.429   0.094  0.00  0.00    -0.732 N 
ATOM      8  C   UNL d   1       3.301  -0.256  -0.679  0.00  0.00     0.284 C 
ATOM      9  H3  UNL d   1       2.990  -1.288   1.101  0.00  0.00     0.395 HD
ENDBRANCH   1   7
TORSDOF 1
ENDMDL
