MODEL 1
REMARK minimizedAffinity 6.97235489
REMARK minimizedRMSD -1
REMARK  1 active torsions:
REMARK  status: ('A' for Active; 'I' for Inactive)
REMARK    1  A    between atoms: N_2  and  C1_3 
ROOT
ATOM      1  C1  UNL d   1       2.752  -0.370  -0.272  0.00  0.00     0.143 A 
ATOM      2  C2  UNL d   1       2.372  -1.044   0.894  0.00  0.00    -0.057 A 
ATOM      3  C3  UNL d   1       1.879  -2.353   0.847  0.00  0.00     0.033 A 
ATOM      4  C4  UNL d   1       1.728  -3.003  -0.374  0.00  0.00    -0.042 A 
ATOM      5  C5  UNL d   1       2.075  -2.343  -1.547  0.00  0.00     0.033 A 
ATOM      6  C6  UNL d   1       2.574  -1.038  -1.493  0.00  0.00    -0.057 A 
ENDROOT
BRANCH   1   7
ATOM      7  N   UNL d   1       3.157   0.967  -0.300  0.00  0.00    -0.732 N 
ATOM      8  C   UNL d   1       4.560   1.311  -0.373  0.00  0.00     0.284 C 
ATOM      9  H3  UNL d   1       2.557   1.542  -0.887  0.00  0.00     0.395 HD
ENDBRANCH   1   7
TORSDOF 1
ENDMDL
