MODEL 1
REMARK minimizedAffinity 5.74963617
REMARK minimizedRMSD -1
REMARK  1 active torsions:
REMARK  status: ('A' for Active; 'I' for Inactive)
REMARK    1  A    between atoms: N_2  and  C1_3 
ROOT
ATOM      1  C1  UNL d   1       2.477  -1.233   0.018  0.00  0.00     0.143 A 
ATOM      2  C2  UNL d   1       1.782  -0.217   0.682  0.00  0.00    -0.057 A 
ATOM      3  C3  UNL d   1       2.271   1.094   0.718  0.00  0.00     0.033 A 
ATOM      4  C4  UNL d   1       3.484   1.407   0.113  0.00  0.00    -0.042 A 
ATOM      5  C5  UNL d   1       4.204   0.408  -0.532  0.00  0.00     0.033 A 
ATOM      6  C6  UNL d   1       3.707  -0.898  -0.570  0.00  0.00    -0.057 A 
ENDROOT
BRANCH   1   7
ATOM      7  N   UNL d   1       2.092  -2.576   0.031  0.00  0.00    -0.732 N 
ATOM      8  C   UNL d   1       0.785  -2.973  -0.446  0.00  0.00     0.284 C 
ATOM      9  H3  UNL d   1       2.845  -3.199  -0.254  0.00  0.00     0.395 HD
ENDBRANCH   1   7
TORSDOF 1
ENDMDL
