MODEL 1
REMARK minimizedAffinity 3.43587971
REMARK minimizedRMSD -1
REMARK  1 active torsions:
REMARK  status: ('A' for Active; 'I' for Inactive)
REMARK    1  A    between atoms: N_2  and  C1_3 
ROOT
ATOM      1  C1  UNL d   1       1.159   1.076   0.758  0.00  0.00     0.143 A 
ATOM      2  C2  UNL d   1       1.191   0.840   2.136  0.00  0.00    -0.057 A 
ATOM      3  C3  UNL d   1       0.011   0.755   2.885  0.00  0.00     0.033 A 
ATOM      4  C4  UNL d   1      -1.224   0.936   2.272  0.00  0.00    -0.042 A 
ATOM      5  C5  UNL d   1      -1.278   1.197   0.907  0.00  0.00     0.033 A 
ATOM      6  C6  UNL d   1      -0.097   1.273   0.163  0.00  0.00    -0.057 A 
ENDROOT
BRANCH   1   7
ATOM      7  N   UNL d   1       2.300   1.269  -0.025  0.00  0.00    -0.732 N 
ATOM      8  C   UNL d   1       3.149   0.151  -0.379  0.00  0.00     0.284 C 
ATOM      9  H3  UNL d   1       2.145   1.929  -0.783  0.00  0.00     0.395 HD
ENDBRANCH   1   7
TORSDOF 1
ENDMDL
