MODEL 1
REMARK minimizedAffinity -2.52781868
REMARK minimizedRMSD -1
REMARK  1 active torsions:
REMARK  status: ('A' for Active; 'I' for Inactive)
REMARK    1  A    between atoms: N_2  and  C1_3 
ROOT
ATOM      1  C1  UNL d   1       1.931  -0.749   1.182  0.00  0.00     0.143 A 
ATOM      2  C2  UNL d   1       2.284   0.517   0.702  0.00  0.00    -0.057 A 
ATOM      3  C3  UNL d   1       3.188   0.666  -0.357  0.00  0.00     0.033 A 
ATOM      4  C4  UNL d   1       3.780  -0.452  -0.936  0.00  0.00    -0.042 A 
ATOM      5  C5  UNL d   1       3.463  -1.718  -0.459  0.00  0.00     0.033 A 
ATOM      6  C6  UNL d   1       2.553  -1.861   0.594  0.00  0.00    -0.057 A 
ENDROOT
BRANCH   1   7
ATOM      7  N   UNL d   1       1.113  -0.958   2.295  0.00  0.00    -0.732 N 
ATOM      8  C   UNL d   1       0.419   0.148   2.919  0.00  0.00     0.284 C 
ATOM      9  H3  UNL d   1       0.556  -1.806   2.214  0.00  0.00     0.395 HD
ENDBRANCH   1   7
TORSDOF 1
ENDMDL
