MODEL 1
REMARK minimizedAffinity 9.62489796
REMARK minimizedRMSD -1
REMARK  0 active torsions:
REMARK  status: ('A' for Active; 'I' for Inactive)
ROOT
ATOM      1  C   UNL d   1       1.134  -1.110   3.232  0.00  0.00    -0.002 A 
ATOM      2  C1  UNL d   1      -0.249  -1.098   3.122  0.00  0.00     0.010 A 
ATOM      3  C2  UNL d   1      -0.862  -1.044   1.869  0.00  0.00     0.041 A 
ATOM      4  C3  UNL d   1      -0.053  -1.004   0.716  0.00  0.00    -0.075 A 
ATOM      5  S   UNL d   1      -0.583  -0.937  -0.924  0.00  0.00     0.015 SA
ATOM      6  C4  UNL d   1       1.015  -0.923  -1.517  0.00  0.00     0.022 A 
ATOM      7  C5  UNL d   1       1.942  -0.968  -0.503  0.00  0.00     0.026 A 
ATOM      8  C6  UNL d   1       1.342  -1.017   0.801  0.00  0.00    -0.082 A 
ATOM      9  C7  UNL d   1       1.933  -1.071   2.086  0.00  0.00     0.045 A 
ENDROOT
TORSDOF 0
ENDMDL
