MODEL 1
REMARK minimizedAffinity 4.79802465
REMARK minimizedRMSD -1
REMARK  0 active torsions:
REMARK  status: ('A' for Active; 'I' for Inactive)
ROOT
ATOM      1  C   UNL d   1       2.818  -1.772   0.396  0.00  0.00    -0.002 A 
ATOM      2  C1  UNL d   1       2.596  -3.106   0.705  0.00  0.00     0.010 A 
ATOM      3  C2  UNL d   1       1.619  -3.466   1.636  0.00  0.00     0.041 A 
ATOM      4  C3  UNL d   1       0.860  -2.452   2.254  0.00  0.00    -0.075 A 
ATOM      5  S   UNL d   1      -0.390  -2.657   3.424  0.00  0.00     0.015 SA
ATOM      6  C4  UNL d   1      -0.659  -0.978   3.539  0.00  0.00     0.022 A 
ATOM      7  C5  UNL d   1       0.176  -0.264   2.713  0.00  0.00     0.026 A 
ATOM      8  C6  UNL d   1       1.065  -1.102   1.958  0.00  0.00    -0.082 A 
ATOM      9  C7  UNL d   1       2.064  -0.769   1.011  0.00  0.00     0.045 A 
ENDROOT
TORSDOF 0
ENDMDL
