MODEL 1
REMARK minimizedAffinity 2.35823107
REMARK minimizedRMSD -1
REMARK  0 active torsions:
REMARK  status: ('A' for Active; 'I' for Inactive)
ROOT
ATOM      1  C   UNL d   1       1.861  -2.082   2.421  0.00  0.00    -0.002 A 
ATOM      2  C1  UNL d   1       0.481  -1.937   2.422  0.00  0.00     0.010 A 
ATOM      3  C2  UNL d   1      -0.196  -1.577   1.256  0.00  0.00     0.041 A 
ATOM      4  C3  UNL d   1       0.544  -1.364   0.076  0.00  0.00    -0.075 A 
ATOM      5  S   UNL d   1      -0.072  -0.917  -1.471  0.00  0.00     0.015 SA
ATOM      6  C4  UNL d   1       1.482  -0.909  -2.170  0.00  0.00     0.022 A 
ATOM      7  C5  UNL d   1       2.459  -1.236  -1.260  0.00  0.00     0.026 A 
ATOM      8  C6  UNL d   1       1.934  -1.505   0.050  0.00  0.00    -0.082 A 
ATOM      9  C7  UNL d   1       2.592  -1.870   1.249  0.00  0.00     0.045 A 
ENDROOT
TORSDOF 0
ENDMDL
