MODEL 1
REMARK minimizedAffinity 4.76446486
REMARK minimizedRMSD -1
REMARK  0 active torsions:
REMARK  status: ('A' for Active; 'I' for Inactive)
ROOT
ATOM      1  C   UNL d   1      -0.961  -0.048   1.843  0.00  0.00    -0.002 A 
ATOM      2  C1  UNL d   1      -0.537  -0.365   3.125  0.00  0.00     0.010 A 
ATOM      3  C2  UNL d   1       0.650  -1.072   3.326  0.00  0.00     0.041 A 
ATOM      4  C3  UNL d   1       1.412  -1.458   2.205  0.00  0.00    -0.075 A 
ATOM      5  S   UNL d   1       2.899  -2.330   2.209  0.00  0.00     0.015 SA
ATOM      6  C4  UNL d   1       3.006  -2.302   0.509  0.00  0.00     0.022 A 
ATOM      7  C5  UNL d   1       1.941  -1.648  -0.064  0.00  0.00     0.026 A 
ATOM      8  C6  UNL d   1       1.005  -1.150   0.904  0.00  0.00    -0.082 A 
ATOM      9  C7  UNL d   1      -0.204  -0.433   0.733  0.00  0.00     0.045 A 
ENDROOT
TORSDOF 0
ENDMDL
