MODEL 1
REMARK minimizedAffinity 10.8441858
REMARK minimizedRMSD -1
REMARK  0 active torsions:
REMARK  status: ('A' for Active; 'I' for Inactive)
ROOT
ATOM      1  C   UNL d   1       1.473  -1.360   2.714  0.00  0.00    -0.002 A 
ATOM      2  C1  UNL d   1       0.192  -1.886   2.632  0.00  0.00     0.010 A 
ATOM      3  C2  UNL d   1      -0.525  -1.827   1.435  0.00  0.00     0.041 A 
ATOM      4  C3  UNL d   1       0.075  -1.226   0.311  0.00  0.00    -0.075 A 
ATOM      5  S   UNL d   1      -0.612  -1.040  -1.259  0.00  0.00     0.015 SA
ATOM      6  C4  UNL d   1       0.779  -0.259  -1.858  0.00  0.00     0.022 A 
ATOM      7  C5  UNL d   1       1.754  -0.134  -0.897  0.00  0.00     0.026 A 
ATOM      8  C6  UNL d   1       1.364  -0.689   0.369  0.00  0.00    -0.082 A 
ATOM      9  C7  UNL d   1       2.065  -0.764   1.597  0.00  0.00     0.045 A 
ENDROOT
TORSDOF 0
ENDMDL
