MODEL 1
REMARK minimizedAffinity -3.04235005
REMARK minimizedRMSD -1
REMARK  0 active torsions:
REMARK  status: ('A' for Active; 'I' for Inactive)
ROOT
ATOM      1  C1  DEN d   1       5.963  -2.157   2.248  0.00  0.00     0.130 A 
ATOM      2  C2  DEN d   1       5.986  -3.224   1.251  0.00  0.00    -0.031 A 
ATOM      3  C3  DEN d   1       6.000  -4.516   1.965  0.00  0.00     0.027 A 
ATOM      4  C4  DEN d   1       5.982  -4.967   4.505  0.00  0.00     0.027 A 
ATOM      5  C5  DEN d   1       5.975  -4.377   5.750  0.00  0.00    -0.003 A 
ATOM      6  C6  DEN d   1       5.997  -3.017   5.914  0.00  0.00     0.001 A 
ATOM      7  C7  DEN d   1       5.983  -2.201   4.814  0.00  0.00     0.017 A 
ATOM      8  C8  DEN d   1       5.997  -2.788   3.555  0.00  0.00    -0.094 A 
ATOM      9  C9  DEN d   1       5.962  -4.165   3.411  0.00  0.00    -0.072 A 
ENDROOT
TORSDOF 0
ENDMDL
