MODEL 1
REMARK minimizedAffinity -4.1602006
REMARK minimizedRMSD -1
REMARK  0 active torsions:
REMARK  status: ('A' for Active; 'I' for Inactive)
ROOT
ATOM      1  C1  DEN d   1       5.941  -4.987   2.449  0.00  0.00     0.130 A 
ATOM      2  C2  DEN d   1       6.000  -3.858   1.525  0.00  0.00    -0.031 A 
ATOM      3  C3  DEN d   1       5.585  -2.645   2.260  0.00  0.00     0.027 A 
ATOM      4  C4  DEN d   1       4.866  -2.409   4.725  0.00  0.00     0.027 A 
ATOM      5  C5  DEN d   1       4.648  -3.091   5.901  0.00  0.00    -0.003 A 
ATOM      6  C6  DEN d   1       4.812  -4.448   6.000  0.00  0.00     0.001 A 
ATOM      7  C7  DEN d   1       5.248  -5.159   4.913  0.00  0.00     0.017 A 
ATOM      8  C8  DEN d   1       5.463  -4.479   3.722  0.00  0.00    -0.094 A 
ATOM      9  C9  DEN d   1       5.304  -3.105   3.646  0.00  0.00    -0.072 A 
ENDROOT
TORSDOF 0
ENDMDL
