MODEL 1
REMARK minimizedAffinity -0.543259799
REMARK minimizedRMSD -1
REMARK  0 active torsions:
REMARK  status: ('A' for Active; 'I' for Inactive)
ROOT
ATOM      1  C1  DEN d   1       5.504  -5.998   3.282  0.00  0.00     0.130 A 
ATOM      2  C2  DEN d   1       5.083  -5.974   4.680  0.00  0.00    -0.031 A 
ATOM      3  C3  DEN d   1       4.910  -4.563   5.081  0.00  0.00     0.027 A 
ATOM      4  C4  DEN d   1       5.248  -2.425   3.679  0.00  0.00     0.027 A 
ATOM      5  C5  DEN d   1       5.614  -1.939   2.443  0.00  0.00    -0.003 A 
ATOM      6  C6  DEN d   1       5.998  -2.764   1.419  0.00  0.00     0.001 A 
ATOM      7  C7  DEN d   1       5.982  -4.122   1.598  0.00  0.00     0.017 A 
ATOM      8  C8  DEN d   1       5.622  -4.619   2.844  0.00  0.00    -0.094 A 
ATOM      9  C9  DEN d   1       5.225  -3.769   3.863  0.00  0.00    -0.072 A 
ENDROOT
TORSDOF 0
ENDMDL
