MODEL 1
REMARK minimizedAffinity -3.62035751
REMARK minimizedRMSD -1
REMARK  0 active torsions:
REMARK  status: ('A' for Active; 'I' for Inactive)
ROOT
ATOM      1  C1  DEN d   1       5.942  -2.933   2.246  0.00  0.00     0.130 A 
ATOM      2  C2  DEN d   1       6.000  -4.244   1.606  0.00  0.00    -0.031 A 
ATOM      3  C3  DEN d   1       5.537  -5.250   2.583  0.00  0.00     0.027 A 
ATOM      4  C4  DEN d   1       4.736  -4.906   5.010  0.00  0.00     0.027 A 
ATOM      5  C5  DEN d   1       4.522  -3.972   6.000  0.00  0.00    -0.003 A 
ATOM      6  C6  DEN d   1       4.795  -2.642   5.821  0.00  0.00     0.001 A 
ATOM      7  C7  DEN d   1       5.257  -2.202   4.608  0.00  0.00     0.017 A 
ATOM      8  C8  DEN d   1       5.483  -3.138   3.608  0.00  0.00    -0.094 A 
ATOM      9  C9  DEN d   1       5.188  -4.477   3.805  0.00  0.00    -0.072 A 
ENDROOT
TORSDOF 0
ENDMDL
