MODEL 1
REMARK minimizedAffinity -3.43639874
REMARK minimizedRMSD -1
REMARK  0 active torsions:
REMARK  status: ('A' for Active; 'I' for Inactive)
ROOT
ATOM      1  C1  DEN d   1       5.892  -4.218   5.622  0.00  0.00     0.130 A 
ATOM      2  C2  DEN d   1       5.994  -5.629   5.260  0.00  0.00    -0.031 A 
ATOM      3  C3  DEN d   1       5.918  -5.729   3.789  0.00  0.00     0.027 A 
ATOM      4  C4  DEN d   1       5.657  -3.846   2.045  0.00  0.00     0.027 A 
ATOM      5  C5  DEN d   1       5.517  -2.486   1.874  0.00  0.00    -0.003 A 
ATOM      6  C6  DEN d   1       5.459  -1.619   2.933  0.00  0.00     0.001 A 
ATOM      7  C7  DEN d   1       5.586  -2.098   4.210  0.00  0.00     0.017 A 
ATOM      8  C8  DEN d   1       5.720  -3.468   4.391  0.00  0.00    -0.094 A 
ATOM      9  C9  DEN d   1       5.789  -4.327   3.307  0.00  0.00    -0.072 A 
ENDROOT
TORSDOF 0
ENDMDL
