MODEL 1
REMARK minimizedAffinity -4.54342556
REMARK minimizedRMSD -1
REMARK  0 active torsions:
REMARK  status: ('A' for Active; 'I' for Inactive)
ROOT
ATOM      1  C1  DEN d   1       5.553  -2.232   2.421  0.00  0.00     0.130 A 
ATOM      2  C2  DEN d   1       5.996  -3.291   1.518  0.00  0.00    -0.031 A 
ATOM      3  C3  DEN d   1       5.998  -4.561   2.271  0.00  0.00     0.027 A 
ATOM      4  C4  DEN d   1       5.358  -4.989   4.733  0.00  0.00     0.027 A 
ATOM      5  C5  DEN d   1       4.932  -4.397   5.901  0.00  0.00    -0.003 A 
ATOM      6  C6  DEN d   1       4.717  -3.048   6.000  0.00  0.00     0.001 A 
ATOM      7  C7  DEN d   1       4.884  -2.251   4.898  0.00  0.00     0.017 A 
ATOM      8  C8  DEN d   1       5.322  -2.840   3.718  0.00  0.00    -0.094 A 
ATOM      9  C9  DEN d   1       5.522  -4.208   3.636  0.00  0.00    -0.072 A 
ENDROOT
TORSDOF 0
ENDMDL
