MODEL 1
REMARK minimizedAffinity -4.14166641
REMARK minimizedRMSD -1
REMARK  0 active torsions:
REMARK  status: ('A' for Active; 'I' for Inactive)
ROOT
ATOM      1  C1  DEN d   1       5.748  -2.524   2.135  0.00  0.00     0.130 A 
ATOM      2  C2  DEN d   1       5.998  -3.761   1.400  0.00  0.00    -0.031 A 
ATOM      3  C3  DEN d   1       5.999  -4.876   2.368  0.00  0.00     0.027 A 
ATOM      4  C4  DEN d   1       5.636  -4.808   4.921  0.00  0.00     0.027 A 
ATOM      5  C5  DEN d   1       5.400  -3.985   5.999  0.00  0.00    -0.003 A 
ATOM      6  C6  DEN d   1       5.299  -2.625   5.872  0.00  0.00     0.001 A 
ATOM      7  C7  DEN d   1       5.389  -2.051   4.631  0.00  0.00     0.017 A 
ATOM      8  C8  DEN d   1       5.633  -2.874   3.540  0.00  0.00    -0.094 A 
ATOM      9  C9  DEN d   1       5.721  -4.248   3.688  0.00  0.00    -0.072 A 
ENDROOT
TORSDOF 0
ENDMDL
