MODEL 1
REMARK minimizedAffinity -3.67182112
REMARK minimizedRMSD -1
REMARK  0 active torsions:
REMARK  status: ('A' for Active; 'I' for Inactive)
ROOT
ATOM      1  C1  DEN d   1       4.815  -4.073   6.000  0.00  0.00     0.130 A 
ATOM      2  C2  DEN d   1       4.650  -2.625   5.921  0.00  0.00    -0.031 A 
ATOM      3  C3  DEN d   1       4.974  -2.202   4.544  0.00  0.00     0.027 A 
ATOM      4  C4  DEN d   1       5.708  -3.644   2.535  0.00  0.00     0.027 A 
ATOM      5  C5  DEN d   1       6.000  -4.925   2.119  0.00  0.00    -0.003 A 
ATOM      6  C6  DEN d   1       5.950  -5.998   2.969  0.00  0.00     0.001 A 
ATOM      7  C7  DEN d   1       5.557  -5.816   4.269  0.00  0.00     0.017 A 
ATOM      8  C8  DEN d   1       5.269  -4.527   4.697  0.00  0.00    -0.094 A 
ATOM      9  C9  DEN d   1       5.313  -3.457   3.820  0.00  0.00    -0.072 A 
ENDROOT
TORSDOF 0
ENDMDL
