MODEL 1
REMARK minimizedAffinity -4.43135023
REMARK minimizedRMSD -1
REMARK  0 active torsions:
REMARK  status: ('A' for Active; 'I' for Inactive)
ROOT
ATOM      1  C1  DEN d   1       4.869  -4.998   5.065  0.00  0.00     0.130 A 
ATOM      2  C2  DEN d   1       4.649  -3.816   5.893  0.00  0.00    -0.031 A 
ATOM      3  C3  DEN d   1       4.918  -2.623   5.065  0.00  0.00     0.027 A 
ATOM      4  C4  DEN d   1       5.645  -2.493   2.594  0.00  0.00     0.027 A 
ATOM      5  C5  DEN d   1       5.970  -3.233   1.479  0.00  0.00    -0.003 A 
ATOM      6  C6  DEN d   1       5.984  -4.603   1.491  0.00  0.00     0.001 A 
ATOM      7  C7  DEN d   1       5.623  -5.276   2.628  0.00  0.00     0.017 A 
ATOM      8  C8  DEN d   1       5.301  -4.536   3.758  0.00  0.00    -0.094 A 
ATOM      9  C9  DEN d   1       5.281  -3.152   3.723  0.00  0.00    -0.072 A 
ENDROOT
TORSDOF 0
ENDMDL
