MODEL 1
REMARK minimizedAffinity -3.96592355
REMARK minimizedRMSD -1
REMARK  0 active torsions:
REMARK  status: ('A' for Active; 'I' for Inactive)
ROOT
ATOM      1  C1  DEN d   1       5.999  -2.169   2.416  0.00  0.00     0.130 A 
ATOM      2  C2  DEN d   1       5.999  -3.223   1.405  0.00  0.00    -0.031 A 
ATOM      3  C3  DEN d   1       5.633  -4.491   2.067  0.00  0.00     0.027 A 
ATOM      4  C4  DEN d   1       5.065  -4.923   4.545  0.00  0.00     0.027 A 
ATOM      5  C5  DEN d   1       4.944  -4.339   5.787  0.00  0.00    -0.003 A 
ATOM      6  C6  DEN d   1       5.197  -3.010   5.997  0.00  0.00     0.001 A 
ATOM      7  C7  DEN d   1       5.540  -2.209   4.940  0.00  0.00     0.017 A 
ATOM      8  C8  DEN d   1       5.672  -2.791   3.686  0.00  0.00    -0.094 A 
ATOM      9  C9  DEN d   1       5.400  -4.135   3.492  0.00  0.00    -0.072 A 
ENDROOT
TORSDOF 0
ENDMDL
