MODEL 1
REMARK minimizedAffinity -4.02899694
REMARK minimizedRMSD -1
REMARK  0 active torsions:
REMARK  status: ('A' for Active; 'I' for Inactive)
ROOT
ATOM      1  C1  DEN d   1       5.980  -5.148   2.524  0.00  0.00     0.130 A 
ATOM      2  C2  DEN d   1       5.999  -4.262   1.364  0.00  0.00    -0.031 A 
ATOM      3  C3  DEN d   1       5.997  -2.869   1.854  0.00  0.00     0.027 A 
ATOM      4  C4  DEN d   1       5.971  -2.003   4.284  0.00  0.00     0.027 A 
ATOM      5  C5  DEN d   1       5.940  -2.379   5.609  0.00  0.00    -0.003 A 
ATOM      6  C6  DEN d   1       5.886  -3.692   5.995  0.00  0.00     0.001 A 
ATOM      7  C7  DEN d   1       5.907  -4.679   5.046  0.00  0.00     0.017 A 
ATOM      8  C8  DEN d   1       5.931  -4.309   3.708  0.00  0.00    -0.094 A 
ATOM      9  C9  DEN d   1       5.998  -2.976   3.338  0.00  0.00    -0.072 A 
ENDROOT
TORSDOF 0
ENDMDL
