MODEL 1
REMARK minimizedAffinity -1.85092223
REMARK minimizedRMSD -1
REMARK  0 active torsions:
REMARK  status: ('A' for Active; 'I' for Inactive)
ROOT
ATOM      1  C1  DEN d   1       5.932  -2.256   4.886  0.00  0.00     0.130 A 
ATOM      2  C2  DEN d   1       5.928  -3.590   5.482  0.00  0.00    -0.031 A 
ATOM      3  C3  DEN d   1       5.951  -4.579   4.386  0.00  0.00     0.027 A 
ATOM      4  C4  DEN d   1       5.998  -4.178   1.838  0.00  0.00     0.027 A 
ATOM      5  C5  DEN d   1       6.000  -3.215   0.854  0.00  0.00    -0.003 A 
ATOM      6  C6  DEN d   1       5.946  -1.877   1.141  0.00  0.00     0.001 A 
ATOM      7  C7  DEN d   1       5.933  -1.463   2.446  0.00  0.00     0.017 A 
ATOM      8  C8  DEN d   1       5.923  -2.428   3.445  0.00  0.00    -0.094 A 
ATOM      9  C9  DEN d   1       5.991  -3.776   3.134  0.00  0.00    -0.072 A 
ENDROOT
TORSDOF 0
ENDMDL
