MODEL 1
REMARK minimizedAffinity -2.24896574
REMARK minimizedRMSD -1
REMARK  0 active torsions:
REMARK  status: ('A' for Active; 'I' for Inactive)
ROOT
ATOM      1  C1  DEN d   1       5.496  -5.992   4.609  0.00  0.00     0.130 A 
ATOM      2  C2  DEN d   1       5.029  -5.617   5.941  0.00  0.00    -0.031 A 
ATOM      3  C3  DEN d   1       4.819  -4.156   5.957  0.00  0.00     0.027 A 
ATOM      4  C4  DEN d   1       5.165  -2.446   4.057  0.00  0.00     0.027 A 
ATOM      5  C5  DEN d   1       5.561  -2.288   2.747  0.00  0.00    -0.003 A 
ATOM      6  C6  DEN d   1       5.992  -3.339   1.983  0.00  0.00     0.001 A 
ATOM      7  C7  DEN d   1       5.995  -4.605   2.509  0.00  0.00     0.017 A 
ATOM      8  C8  DEN d   1       5.603  -4.771   3.831  0.00  0.00    -0.094 A 
ATOM      9  C9  DEN d   1       5.159  -3.697   4.583  0.00  0.00    -0.072 A 
ENDROOT
TORSDOF 0
ENDMDL
