MODEL 1
REMARK minimizedAffinity -3.37576127
REMARK minimizedRMSD -1
REMARK  0 active torsions:
REMARK  status: ('A' for Active; 'I' for Inactive)
ROOT
ATOM      1  C1  DEN d   1       4.497  -3.654   5.999  0.00  0.00     0.130 A 
ATOM      2  C2  DEN d   1       4.520  -5.114   5.986  0.00  0.00    -0.031 A 
ATOM      3  C3  DEN d   1       5.051  -5.551   4.679  0.00  0.00     0.027 A 
ATOM      4  C4  DEN d   1       5.841  -4.116   2.687  0.00  0.00     0.027 A 
ATOM      5  C5  DEN d   1       6.000  -2.828   2.224  0.00  0.00    -0.003 A 
ATOM      6  C6  DEN d   1       5.640  -1.736   2.968  0.00  0.00     0.001 A 
ATOM      7  C7  DEN d   1       5.145  -1.909   4.233  0.00  0.00     0.017 A 
ATOM      8  C8  DEN d   1       4.975  -3.204   4.704  0.00  0.00    -0.094 A 
ATOM      9  C9  DEN d   1       5.356  -4.295   3.942  0.00  0.00    -0.072 A 
ENDROOT
TORSDOF 0
ENDMDL
