MODEL 1
REMARK minimizedAffinity -4.28792715
REMARK minimizedRMSD -1
REMARK  0 active torsions:
REMARK  status: ('A' for Active; 'I' for Inactive)
ROOT
ATOM      1  C1  DEN d   1       4.696  -6.000   4.439  0.00  0.00     0.130 A 
ATOM      2  C2  DEN d   1       4.500  -5.446   5.776  0.00  0.00    -0.031 A 
ATOM      3  C3  DEN d   1       4.850  -4.012   5.732  0.00  0.00     0.027 A 
ATOM      4  C4  DEN d   1       5.669  -2.602   3.733  0.00  0.00     0.027 A 
ATOM      5  C5  DEN d   1       6.000  -2.636   2.396  0.00  0.00    -0.003 A 
ATOM      6  C6  DEN d   1       5.953  -3.791   1.661  0.00  0.00     0.001 A 
ATOM      7  C7  DEN d   1       5.522  -4.952   2.248  0.00  0.00     0.017 A 
ATOM      8  C8  DEN d   1       5.194  -4.927   3.597  0.00  0.00    -0.094 A 
ATOM      9  C9  DEN d   1       5.236  -3.747   4.320  0.00  0.00    -0.072 A 
ENDROOT
TORSDOF 0
ENDMDL
