MODEL 1
REMARK minimizedAffinity -0.422468483
REMARK minimizedRMSD -1
REMARK  0 active torsions:
REMARK  status: ('A' for Active; 'I' for Inactive)
ROOT
ATOM      1  N1  IND d   1      -0.260   1.451   0.992  0.00  0.00    -0.196 N 
ATOM      2  C2  IND d   1       0.285   0.990  -0.174  0.00  0.00     0.054 A 
ATOM      3  C3  IND d   1      -0.670   0.436  -0.953  0.00  0.00    -0.031 A 
ATOM      4  C4  IND d   1      -3.208   0.267  -0.559  0.00  0.00     0.051 A 
ATOM      5  C5  IND d   1      -4.172   0.515   0.378  0.00  0.00    -0.031 A 
ATOM      6  C6  IND d   1      -3.875   1.101   1.591  0.00  0.00     0.015 A 
ATOM      7  C7  IND d   1      -2.600   1.474   1.909  0.00  0.00    -0.016 A 
ATOM      8  C8  IND d   1      -1.618   1.218   0.963  0.00  0.00    -0.047 A 
ATOM      9  C9  IND d   1      -1.906   0.584  -0.253  0.00  0.00    -0.096 A 
ATOM     10  HN1 IND d   1       0.172   1.823   1.635  0.00  0.00     0.298 HD
ENDROOT
TORSDOF 0
ENDMDL
