MODEL 1
REMARK minimizedAffinity -1.65495372
REMARK minimizedRMSD -1
REMARK  0 active torsions:
REMARK  status: ('A' for Active; 'I' for Inactive)
ROOT
ATOM      1  N1  IND d   1      -0.287   1.194   0.889  0.00  0.00    -0.196 N 
ATOM      2  C2  IND d   1      -1.434   1.153   0.146  0.00  0.00     0.054 A 
ATOM      3  C3  IND d   1      -1.392   0.121  -0.726  0.00  0.00    -0.031 A 
ATOM      4  C4  IND d   1       0.414  -1.687  -1.035  0.00  0.00     0.051 A 
ATOM      5  C5  IND d   1       1.662  -2.047  -0.610  0.00  0.00    -0.031 A 
ATOM      6  C6  IND d   1       2.337  -1.331   0.358  0.00  0.00     0.015 A 
ATOM      7  C7  IND d   1       1.781  -0.231   0.948  0.00  0.00    -0.016 A 
ATOM      8  C8  IND d   1       0.517   0.141   0.514  0.00  0.00    -0.047 A 
ATOM      9  C9  IND d   1      -0.155  -0.556  -0.499  0.00  0.00    -0.096 A 
ATOM     10  HN1 IND d   1      -0.100   1.780   1.490  0.00  0.00     0.298 HD
ENDROOT
TORSDOF 0
ENDMDL
