MODEL 1
REMARK minimizedAffinity -6.38648367
REMARK minimizedRMSD -1
REMARK  0 active torsions:
REMARK  status: ('A' for Active; 'I' for Inactive)
ROOT
ATOM      1  N1  IND d   1       0.044   1.407  -0.402  0.00  0.00    -0.196 N 
ATOM      2  C2  IND d   1      -0.892   0.410  -0.427  0.00  0.00     0.054 A 
ATOM      3  C3  IND d   1      -0.354  -0.751   0.009  0.00  0.00    -0.031 A 
ATOM      4  C4  IND d   1       2.012  -1.221   0.908  0.00  0.00     0.051 A 
ATOM      5  C5  IND d   1       3.233  -0.633   1.089  0.00  0.00    -0.031 A 
ATOM      6  C6  IND d   1       3.456   0.693   0.779  0.00  0.00     0.015 A 
ATOM      7  C7  IND d   1       2.460   1.486   0.284  0.00  0.00    -0.016 A 
ATOM      8  C8  IND d   1       1.221   0.890   0.092  0.00  0.00    -0.047 A 
ATOM      9  C9  IND d   1       1.000  -0.466   0.365  0.00  0.00    -0.096 A 
ATOM     10  HN1 IND d   1      -0.082   2.219  -0.654  0.00  0.00     0.298 HD
ENDROOT
TORSDOF 0
ENDMDL
