MODEL 1
REMARK minimizedAffinity -6.08130264
REMARK minimizedRMSD -1
REMARK  0 active torsions:
REMARK  status: ('A' for Active; 'I' for Inactive)
ROOT
ATOM      1  N1  IND d   1      -0.092   1.497  -0.404  0.00  0.00    -0.196 N 
ATOM      2  C2  IND d   1      -0.969   0.467  -0.605  0.00  0.00     0.054 A 
ATOM      3  C3  IND d   1      -0.356  -0.719  -0.394  0.00  0.00    -0.031 A 
ATOM      4  C4  IND d   1       2.049  -1.203   0.385  0.00  0.00     0.051 A 
ATOM      5  C5  IND d   1       3.236  -0.585   0.663  0.00  0.00    -0.031 A 
ATOM      6  C6  IND d   1       3.377   0.786   0.600  0.00  0.00     0.015 A 
ATOM      7  C7  IND d   1       2.327   1.595   0.268  0.00  0.00    -0.016 A 
ATOM      8  C8  IND d   1       1.122   0.971  -0.022  0.00  0.00    -0.047 A 
ATOM      9  C9  IND d   1       0.985  -0.423  -0.002  0.00  0.00    -0.096 A 
ATOM     10  HN1 IND d   1      -0.270   2.333  -0.500  0.00  0.00     0.298 HD
ENDROOT
TORSDOF 0
ENDMDL
