MODEL 1
REMARK minimizedAffinity 1.29677284
REMARK minimizedRMSD -1
REMARK  0 active torsions:
REMARK  status: ('A' for Active; 'I' for Inactive)
ROOT
ATOM      1  N1  IND d   1       0.005   1.083   1.143  0.00  0.00    -0.196 N 
ATOM      2  C2  IND d   1      -1.134   1.195   0.396  0.00  0.00     0.054 A 
ATOM      3  C3  IND d   1      -1.076   0.374  -0.677  0.00  0.00    -0.031 A 
ATOM      4  C4  IND d   1       0.748  -1.315  -1.347  0.00  0.00     0.051 A 
ATOM      5  C5  IND d   1       1.995  -1.749  -0.995  0.00  0.00    -0.031 A 
ATOM      6  C6  IND d   1       2.655  -1.254   0.111  0.00  0.00     0.015 A 
ATOM      7  C7  IND d   1       2.085  -0.309   0.917  0.00  0.00    -0.016 A 
ATOM      8  C8  IND d   1       0.821   0.139   0.559  0.00  0.00    -0.047 A 
ATOM      9  C9  IND d   1       0.164  -0.329  -0.586  0.00  0.00    -0.096 A 
ATOM     10  HN1 IND d   1       0.182   1.528   1.857  0.00  0.00     0.298 HD
ENDROOT
TORSDOF 0
ENDMDL
