MODEL 1
REMARK minimizedAffinity -5.3693018
REMARK minimizedRMSD -1
REMARK  0 active torsions:
REMARK  status: ('A' for Active; 'I' for Inactive)
ROOT
ATOM      1  N1  IND d   1       0.121   1.131  -0.098  0.00  0.00    -0.196 N 
ATOM      2  C2  IND d   1      -0.801   0.400  -0.794  0.00  0.00     0.054 A 
ATOM      3  C3  IND d   1      -0.449  -0.905  -0.815  0.00  0.00    -0.031 A 
ATOM      4  C4  IND d   1       1.545  -2.078   0.314  0.00  0.00     0.051 A 
ATOM      5  C5  IND d   1       2.681  -1.823   1.029  0.00  0.00    -0.031 A 
ATOM      6  C6  IND d   1       3.028  -0.544   1.415  0.00  0.00     0.015 A 
ATOM      7  C7  IND d   1       2.241   0.530   1.109  0.00  0.00    -0.016 A 
ATOM      8  C8  IND d   1       1.091   0.275   0.377  0.00  0.00    -0.047 A 
ATOM      9  C9  IND d   1       0.756  -1.015  -0.054  0.00  0.00    -0.096 A 
ATOM     10  HN1 IND d   1       0.099   1.982   0.023  0.00  0.00     0.298 HD
ENDROOT
TORSDOF 0
ENDMDL
