MODEL 1
REMARK minimizedAffinity -3.51013565
REMARK minimizedRMSD -1
REMARK  0 active torsions:
REMARK  status: ('A' for Active; 'I' for Inactive)
ROOT
ATOM      1  N1  IND d   1      -0.116   1.055   1.295  0.00  0.00    -0.196 N 
ATOM      2  C2  IND d   1      -1.278   1.078   0.576  0.00  0.00     0.054 A 
ATOM      3  C3  IND d   1      -1.232   0.166  -0.422  0.00  0.00    -0.031 A 
ATOM      4  C4  IND d   1       0.609  -1.539  -0.995  0.00  0.00     0.051 A 
ATOM      5  C5  IND d   1       1.876  -1.916  -0.645  0.00  0.00    -0.031 A 
ATOM      6  C6  IND d   1       2.555  -1.311   0.393  0.00  0.00     0.015 A 
ATOM      7  C7  IND d   1       1.987  -0.310   1.129  0.00  0.00    -0.016 A 
ATOM      8  C8  IND d   1       0.704   0.080   0.772  0.00  0.00    -0.047 A 
ATOM      9  C9  IND d   1       0.026  -0.501  -0.307  0.00  0.00    -0.096 A 
ATOM     10  HN1 IND d   1       0.072   1.565   1.961  0.00  0.00     0.298 HD
ENDROOT
TORSDOF 0
ENDMDL
