MODEL 1
REMARK minimizedAffinity 7.69294024
REMARK minimizedRMSD -1
REMARK  1 active torsions:
REMARK  status: ('A' for Active; 'I' for Inactive)
REMARK    1  A    between atoms: C3_4  and  O_7 
ROOT
ATOM      1  C   UNL d   1      -6.000   1.494   4.738  0.00  0.00    -0.033 A 
ATOM      2  C1  UNL d   1      -6.000   0.385   5.586  0.00  0.00     0.039 A 
ATOM      3  C2  UNL d   1      -5.266  -0.755   5.249  0.00  0.00    -0.080 A 
ATOM      4  C3  UNL d   1      -4.538  -0.772   4.063  0.00  0.00     0.150 A 
ATOM      5  C4  UNL d   1      -4.530   0.331   3.215  0.00  0.00    -0.007 A 
ATOM      6  C5  UNL d   1      -5.264   1.467   3.553  0.00  0.00     0.039 A 
ENDROOT
BRANCH   4   7
ATOM      7  O   UNL d   1      -3.811  -1.863   3.688  0.00  0.00    -0.526 OA
ATOM      8  H5  UNL d   1      -3.933  -2.558   4.356  0.00  0.00     0.418 HD
ENDBRANCH   4   7
TORSDOF 1
ENDMDL
