MODEL 1
REMARK minimizedAffinity 5.48075724
REMARK minimizedRMSD -1
REMARK  1 active torsions:
REMARK  status: ('A' for Active; 'I' for Inactive)
REMARK    1  A    between atoms: C3_4  and  O_7 
ROOT
ATOM      1  C   UNL d   1      -0.347   4.682   1.656  0.00  0.00    -0.033 A 
ATOM      2  C1  UNL d   1      -0.334   5.917   1.005  0.00  0.00     0.039 A 
ATOM      3  C2  UNL d   1       0.065   6.000  -0.331  0.00  0.00    -0.080 A 
ATOM      4  C3  UNL d   1       0.446   4.842  -1.003  0.00  0.00     0.150 A 
ATOM      5  C4  UNL d   1       0.431   3.608  -0.362  0.00  0.00    -0.007 A 
ATOM      6  C5  UNL d   1       0.034   3.527   0.972  0.00  0.00     0.039 A 
ENDROOT
BRANCH   4   7
ATOM      7  O   UNL d   1       0.847   4.874  -2.306  0.00  0.00    -0.526 OA
ATOM      8  H5  UNL d   1       0.834   5.797  -2.609  0.00  0.00     0.418 HD
ENDBRANCH   4   7
TORSDOF 1
ENDMDL
