MODEL 1
REMARK minimizedAffinity 8.51154995
REMARK minimizedRMSD -1
REMARK  1 active torsions:
REMARK  status: ('A' for Active; 'I' for Inactive)
REMARK    1  A    between atoms: C3_4  and  O_7 
ROOT
ATOM      1  C   UNL d   1      -1.002   3.038   1.961  0.00  0.00    -0.033 A 
ATOM      2  C1  UNL d   1       0.299   2.671   1.612  0.00  0.00     0.039 A 
ATOM      3  C2  UNL d   1       0.973   3.358   0.601  0.00  0.00    -0.080 A 
ATOM      4  C3  UNL d   1       0.335   4.409  -0.053  0.00  0.00     0.150 A 
ATOM      5  C4  UNL d   1      -0.960   4.782   0.291  0.00  0.00    -0.007 A 
ATOM      6  C5  UNL d   1      -1.631   4.094   1.301  0.00  0.00     0.039 A 
ENDROOT
BRANCH   4   7
ATOM      7  O   UNL d   1       0.950   5.106  -1.050  0.00  0.00    -0.526 OA
ATOM      8  H5  UNL d   1       1.829   4.719  -1.199  0.00  0.00     0.418 HD
ENDBRANCH   4   7
TORSDOF 1
ENDMDL
