MODEL 1
REMARK minimizedAffinity 4.00405693
REMARK minimizedRMSD -1
REMARK  1 active torsions:
REMARK  status: ('A' for Active; 'I' for Inactive)
REMARK    1  A    between atoms: C3_4  and  O_7 
ROOT
ATOM      1  C   UNL d   1       3.753  -4.500  -3.449  0.00  0.00    -0.033 A 
ATOM      2  C1  UNL d   1       4.989  -3.996  -3.040  0.00  0.00     0.039 A 
ATOM      3  C2  UNL d   1       5.599  -4.491  -1.885  0.00  0.00    -0.080 A 
ATOM      4  C3  UNL d   1       4.964  -5.489  -1.151  0.00  0.00     0.150 A 
ATOM      5  C4  UNL d   1       3.734  -5.999  -1.556  0.00  0.00    -0.007 A 
ATOM      6  C5  UNL d   1       3.126  -5.502  -2.708  0.00  0.00     0.039 A 
ENDROOT
BRANCH   4   7
ATOM      7  O   UNL d   1       5.518  -6.000  -0.016  0.00  0.00    -0.526 OA
ATOM      8  H5  UNL d   1       6.353  -5.533   0.157  0.00  0.00     0.418 HD
ENDBRANCH   4   7
TORSDOF 1
ENDMDL
