MODEL 1
REMARK minimizedAffinity 9.88586807
REMARK minimizedRMSD -1
REMARK  1 active torsions:
REMARK  status: ('A' for Active; 'I' for Inactive)
REMARK    1  A    between atoms: C3_4  and  O_7 
ROOT
ATOM      1  C   UNL d   1       4.305  -5.999  -1.021  0.00  0.00    -0.033 A 
ATOM      2  C1  UNL d   1       3.139  -5.322  -0.658  0.00  0.00     0.039 A 
ATOM      3  C2  UNL d   1       3.090  -3.929  -0.724  0.00  0.00    -0.080 A 
ATOM      4  C3  UNL d   1       4.210  -3.225  -1.156  0.00  0.00     0.150 A 
ATOM      5  C4  UNL d   1       5.374  -3.893  -1.523  0.00  0.00    -0.007 A 
ATOM      6  C5  UNL d   1       5.422  -5.285  -1.455  0.00  0.00     0.039 A 
ENDROOT
BRANCH   4   7
ATOM      7  O   UNL d   1       4.211  -1.864  -1.233  0.00  0.00    -0.526 OA
ATOM      8  H5  UNL d   1       3.351  -1.537  -0.921  0.00  0.00     0.418 HD
ENDBRANCH   4   7
TORSDOF 1
ENDMDL
