MODEL 1
REMARK minimizedAffinity 4.1673274
REMARK minimizedRMSD -1
REMARK  1 active torsions:
REMARK  status: ('A' for Active; 'I' for Inactive)
REMARK    1  A    between atoms: C3_4  and  O_7 
ROOT
ATOM      1  C   UNL d   1      -0.018   5.157  -1.026  0.00  0.00    -0.033 A 
ATOM      2  C1  UNL d   1       0.380   6.000   0.013  0.00  0.00     0.039 A 
ATOM      3  C2  UNL d   1       0.713   5.466   1.259  0.00  0.00    -0.080 A 
ATOM      4  C3  UNL d   1       0.645   4.089   1.453  0.00  0.00     0.150 A 
ATOM      5  C4  UNL d   1       0.253   3.243   0.421  0.00  0.00    -0.007 A 
ATOM      6  C5  UNL d   1      -0.080   3.778  -0.823  0.00  0.00     0.039 A 
ENDROOT
BRANCH   4   7
ATOM      7  O   UNL d   1       0.956   3.522   2.653  0.00  0.00    -0.526 OA
ATOM      8  H5  UNL d   1       1.181   4.230   3.279  0.00  0.00     0.418 HD
ENDBRANCH   4   7
TORSDOF 1
ENDMDL
