MODEL 1
REMARK minimizedAffinity 6.65029716
REMARK minimizedRMSD -1
REMARK  1 active torsions:
REMARK  status: ('A' for Active; 'I' for Inactive)
REMARK    1  A    between atoms: C3_4  and  O_7 
ROOT
ATOM      1  C   UNL d   1      -1.137   4.499   1.731  0.00  0.00    -0.033 A 
ATOM      2  C1  UNL d   1      -0.442   3.435   1.151  0.00  0.00     0.039 A 
ATOM      3  C2  UNL d   1       0.224   3.613  -0.063  0.00  0.00    -0.080 A 
ATOM      4  C3  UNL d   1       0.187   4.857  -0.687  0.00  0.00     0.150 A 
ATOM      5  C4  UNL d   1      -0.500   5.922  -0.113  0.00  0.00    -0.007 A 
ATOM      6  C5  UNL d   1      -1.165   5.743   1.099  0.00  0.00     0.039 A 
ENDROOT
BRANCH   4   7
ATOM      7  O   UNL d   1       0.817   5.077  -1.875  0.00  0.00    -0.526 OA
ATOM      8  H5  UNL d   1       1.226   4.245  -2.166  0.00  0.00     0.418 HD
ENDBRANCH   4   7
TORSDOF 1
ENDMDL
