MODEL 1
REMARK minimizedAffinity 0.909870625
REMARK minimizedRMSD -1
REMARK  1 active torsions:
REMARK  status: ('A' for Active; 'I' for Inactive)
REMARK    1  A    between atoms: C3_4  and  O_7 
ROOT
ATOM      1  C   UNL d   1       0.752   4.043  -0.375  0.00  0.00    -0.033 A 
ATOM      2  C1  UNL d   1       0.346   5.326  -0.749  0.00  0.00     0.039 A 
ATOM      3  C2  UNL d   1      -0.621   6.000  -0.000  0.00  0.00    -0.080 A 
ATOM      4  C3  UNL d   1      -1.172   5.382   1.119  0.00  0.00     0.150 A 
ATOM      5  C4  UNL d   1      -0.769   4.106   1.499  0.00  0.00    -0.007 A 
ATOM      6  C5  UNL d   1       0.196   3.434   0.750  0.00  0.00     0.039 A 
ENDROOT
BRANCH   4   7
ATOM      7  O   UNL d   1      -2.122   5.998   1.878  0.00  0.00    -0.526 OA
ATOM      8  H5  UNL d   1      -2.322   6.862   1.479  0.00  0.00     0.418 HD
ENDBRANCH   4   7
TORSDOF 1
ENDMDL
