MODEL 1
REMARK minimizedAffinity 4.70344734
REMARK minimizedRMSD -1
REMARK  1 active torsions:
REMARK  status: ('A' for Active; 'I' for Inactive)
REMARK    1  A    between atoms: C3_4  and  O_7 
ROOT
ATOM      1  C   UNL d   1       0.311   5.932  -1.093  0.00  0.00    -0.033 A 
ATOM      2  C1  UNL d   1      -0.774   5.982  -0.215  0.00  0.00     0.039 A 
ATOM      3  C2  UNL d   1      -1.046   4.899   0.623  0.00  0.00    -0.080 A 
ATOM      4  C3  UNL d   1      -0.227   3.775   0.574  0.00  0.00     0.150 A 
ATOM      5  C4  UNL d   1       0.858   3.720  -0.295  0.00  0.00    -0.007 A 
ATOM      6  C5  UNL d   1       1.127   4.802  -1.132  0.00  0.00     0.039 A 
ENDROOT
BRANCH   4   7
ATOM      7  O   UNL d   1      -0.456   2.691   1.369  0.00  0.00    -0.526 OA
ATOM      8  H5  UNL d   1      -1.254   2.860   1.897  0.00  0.00     0.418 HD
ENDBRANCH   4   7
TORSDOF 1
ENDMDL
