MODEL 1
REMARK minimizedAffinity 8.06920528
REMARK minimizedRMSD -1
REMARK  1 active torsions:
REMARK  status: ('A' for Active; 'I' for Inactive)
REMARK    1  A    between atoms: C3_4  and  O_7 
ROOT
ATOM      1  C   UNL d   1      -1.372  -0.750  -0.977  0.00  0.00    -0.033 A 
ATOM      2  C1  UNL d   1      -0.722  -1.044  -2.177  0.00  0.00     0.039 A 
ATOM      3  C2  UNL d   1      -1.112  -0.409  -3.358  0.00  0.00    -0.080 A 
ATOM      4  C3  UNL d   1      -2.151   0.518  -3.324  0.00  0.00     0.150 A 
ATOM      5  C4  UNL d   1      -2.799   0.818  -2.131  0.00  0.00    -0.007 A 
ATOM      6  C5  UNL d   1      -2.409   0.182  -0.953  0.00  0.00     0.039 A 
ENDROOT
BRANCH   4   7
ATOM      7  O   UNL d   1      -2.570   1.160  -4.451  0.00  0.00    -0.526 OA
ATOM      8  H5  UNL d   1      -2.050   0.831  -5.204  0.00  0.00     0.418 HD
ENDBRANCH   4   7
TORSDOF 1
ENDMDL
