MODEL 1
REMARK minimizedAffinity 5.8011198
REMARK minimizedRMSD -1
REMARK  1 active torsions:
REMARK  status: ('A' for Active; 'I' for Inactive)
REMARK    1  A    between atoms: C3_4  and  O_7 
ROOT
ATOM      1  C   UNL d   1       4.758  -5.973   0.846  0.00  0.00    -0.033 A 
ATOM      2  C1  UNL d   1       3.591  -5.493   0.247  0.00  0.00     0.039 A 
ATOM      3  C2  UNL d   1       3.627  -4.995  -1.057  0.00  0.00    -0.080 A 
ATOM      4  C3  UNL d   1       4.834  -4.985  -1.751  0.00  0.00     0.150 A 
ATOM      5  C4  UNL d   1       5.999  -5.465  -1.162  0.00  0.00    -0.007 A 
ATOM      6  C5  UNL d   1       5.961  -5.961   0.140  0.00  0.00     0.039 A 
ENDROOT
BRANCH   4   7
ATOM      7  O   UNL d   1       4.920  -4.504  -3.024  0.00  0.00    -0.526 OA
ATOM      8  H5  UNL d   1       4.043  -4.180  -3.290  0.00  0.00     0.418 HD
ENDBRANCH   4   7
TORSDOF 1
ENDMDL
