MODEL 1
REMARK minimizedAffinity 2.63238239
REMARK minimizedRMSD -1
REMARK  1 active torsions:
REMARK  status: ('A' for Active; 'I' for Inactive)
REMARK    1  A    between atoms: C3_4  and  O_7 
ROOT
ATOM      1  C   UNL d   1      -4.008  -1.823   4.160  0.00  0.00    -0.033 A 
ATOM      2  C1  UNL d   1      -3.329  -0.991   3.268  0.00  0.00     0.039 A 
ATOM      3  C2  UNL d   1      -3.981   0.104   2.698  0.00  0.00    -0.080 A 
ATOM      4  C3  UNL d   1      -5.309   0.357   3.029  0.00  0.00     0.150 A 
ATOM      5  C4  UNL d   1      -5.990  -0.465   3.920  0.00  0.00    -0.007 A 
ATOM      6  C5  UNL d   1      -5.338  -1.559   4.488  0.00  0.00     0.039 A 
ENDROOT
BRANCH   4   7
ATOM      7  O   UNL d   1      -5.989   1.411   2.494  0.00  0.00    -0.526 OA
ATOM      8  H5  UNL d   1      -5.401   1.874   1.874  0.00  0.00     0.418 HD
ENDBRANCH   4   7
TORSDOF 1
ENDMDL
