MODEL 1
REMARK minimizedAffinity 5.33572531
REMARK minimizedRMSD -1
REMARK  0 active torsions:
REMARK  status: ('A' for Active; 'I' for Inactive)
ROOT
ATOM      1  C   UNL d   1      -5.997  -0.724  -2.468  0.00  0.00    -0.002 A 
ATOM      2  C1  UNL d   1      -6.000  -1.298  -3.732  0.00  0.00     0.010 A 
ATOM      3  C2  UNL d   1      -5.997  -0.496  -4.875  0.00  0.00     0.041 A 
ATOM      4  C3  UNL d   1      -5.988   0.904  -4.726  0.00  0.00    -0.075 A 
ATOM      5  S   UNL d   1      -5.982   2.084  -5.983  0.00  0.00     0.015 SA
ATOM      6  C4  UNL d   1      -5.974   3.377  -4.873  0.00  0.00     0.022 A 
ATOM      7  C5  UNL d   1      -5.976   2.937  -3.570  0.00  0.00     0.026 A 
ATOM      8  C6  UNL d   1      -5.984   1.505  -3.464  0.00  0.00    -0.082 A 
ATOM      9  C7  UNL d   1      -5.988   0.666  -2.324  0.00  0.00     0.045 A 
ENDROOT
TORSDOF 0
ENDMDL
