MODEL 1
REMARK minimizedAffinity 12.9965858
REMARK minimizedRMSD -1
REMARK  0 active torsions:
REMARK  status: ('A' for Active; 'I' for Inactive)
ROOT
ATOM      1  C   UNL d   1       0.213  -1.642  -0.796  0.00  0.00    -0.002 A 
ATOM      2  C1  UNL d   1      -0.818  -1.453   0.113  0.00  0.00     0.010 A 
ATOM      3  C2  UNL d   1      -0.544  -1.083   1.431  0.00  0.00     0.041 A 
ATOM      4  C3  UNL d   1       0.797  -0.902   1.823  0.00  0.00    -0.075 A 
ATOM      5  S   UNL d   1       1.372  -0.448   3.384  0.00  0.00     0.015 SA
ATOM      6  C4  UNL d   1       2.999  -0.493   2.880  0.00  0.00     0.022 A 
ATOM      7  C5  UNL d   1       3.120  -0.844   1.557  0.00  0.00     0.026 A 
ATOM      8  C6  UNL d   1       1.853  -1.085   0.925  0.00  0.00    -0.082 A 
ATOM      9  C7  UNL d   1       1.542  -1.461  -0.404  0.00  0.00     0.045 A 
ENDROOT
TORSDOF 0
ENDMDL
