MODEL 1
REMARK minimizedAffinity 1.83690238
REMARK minimizedRMSD -1
REMARK  0 active torsions:
REMARK  status: ('A' for Active; 'I' for Inactive)
ROOT
ATOM      1  C   UNL d   1       2.551  -0.834   1.730  0.00  0.00    -0.002 A 
ATOM      2  C1  UNL d   1       1.546  -0.313   2.534  0.00  0.00     0.010 A 
ATOM      3  C2  UNL d   1       1.236  -0.907   3.758  0.00  0.00     0.041 A 
ATOM      4  C3  UNL d   1       1.961  -2.044   4.167  0.00  0.00    -0.075 A 
ATOM      5  S   UNL d   1       1.756  -2.937   5.628  0.00  0.00     0.015 SA
ATOM      6  C4  UNL d   1       2.998  -4.032   5.220  0.00  0.00     0.022 A 
ATOM      7  C5  UNL d   1       3.565  -3.737   4.003  0.00  0.00     0.026 A 
ATOM      8  C6  UNL d   1       2.978  -2.587   3.376  0.00  0.00    -0.082 A 
ATOM      9  C7  UNL d   1       3.268  -1.962   2.139  0.00  0.00     0.045 A 
ENDROOT
TORSDOF 0
ENDMDL
