MODEL 1
REMARK minimizedAffinity 14.2221985
REMARK minimizedRMSD -1
REMARK  0 active torsions:
REMARK  status: ('A' for Active; 'I' for Inactive)
ROOT
ATOM      1  C   UNL d   1       4.050  -3.190   4.237  0.00  0.00    -0.002 A 
ATOM      2  C1  UNL d   1       3.137  -2.151   4.346  0.00  0.00     0.010 A 
ATOM      3  C2  UNL d   1       1.842  -2.390   4.811  0.00  0.00     0.041 A 
ATOM      4  C3  UNL d   1       1.478  -3.703   5.169  0.00  0.00    -0.075 A 
ATOM      5  S   UNL d   1      -0.052  -4.232   5.764  0.00  0.00     0.015 SA
ATOM      6  C4  UNL d   1       0.472  -5.849   5.887  0.00  0.00     0.022 A 
ATOM      7  C5  UNL d   1       1.779  -6.000   5.488  0.00  0.00     0.026 A 
ATOM      8  C6  UNL d   1       2.380  -4.766   5.068  0.00  0.00    -0.082 A 
ATOM      9  C7  UNL d   1       3.685  -4.491   4.593  0.00  0.00     0.045 A 
ENDROOT
TORSDOF 0
ENDMDL
