MODEL 1
REMARK minimizedAffinity 10.8525019
REMARK minimizedRMSD -1
REMARK  0 active torsions:
REMARK  status: ('A' for Active; 'I' for Inactive)
ROOT
ATOM      1  C   UNL d   1      -5.953   0.946  -5.971  0.00  0.00    -0.002 A 
ATOM      2  C1  UNL d   1      -5.894   2.324  -5.825  0.00  0.00     0.010 A 
ATOM      3  C2  UNL d   1      -5.871   2.904  -4.555  0.00  0.00     0.041 A 
ATOM      4  C3  UNL d   1      -5.906   2.066  -3.423  0.00  0.00    -0.075 A 
ATOM      5  S   UNL d   1      -5.886   2.552  -1.769  0.00  0.00     0.015 SA
ATOM      6  C4  UNL d   1      -5.953   0.941  -1.217  0.00  0.00     0.022 A 
ATOM      7  C5  UNL d   1      -5.991   0.041  -2.256  0.00  0.00     0.026 A 
ATOM      8  C6  UNL d   1      -5.964   0.675  -3.545  0.00  0.00    -0.082 A 
ATOM      9  C7  UNL d   1      -5.987   0.118  -4.846  0.00  0.00     0.045 A 
ENDROOT
TORSDOF 0
ENDMDL
