MODEL 1
REMARK minimizedAffinity 14.21873
REMARK minimizedRMSD -1
REMARK  0 active torsions:
REMARK  status: ('A' for Active; 'I' for Inactive)
ROOT
ATOM      1  C   UNL d   1       2.562   0.100   2.602  0.00  0.00    -0.002 A 
ATOM      2  C1  UNL d   1       1.393  -0.622   2.796  0.00  0.00     0.010 A 
ATOM      3  C2  UNL d   1       1.407  -1.816   3.520  0.00  0.00     0.041 A 
ATOM      4  C3  UNL d   1       2.628  -2.275   4.053  0.00  0.00    -0.075 A 
ATOM      5  S   UNL d   1       2.886  -3.709   4.974  0.00  0.00     0.015 SA
ATOM      6  C4  UNL d   1       4.553  -3.397   5.133  0.00  0.00     0.022 A 
ATOM      7  C5  UNL d   1       4.922  -2.231   4.505  0.00  0.00     0.026 A 
ATOM      8  C6  UNL d   1       3.818  -1.565   3.872  0.00  0.00    -0.082 A 
ATOM      9  C7  UNL d   1       3.770  -0.359   3.132  0.00  0.00     0.045 A 
ENDROOT
TORSDOF 0
ENDMDL
