MODEL 1
REMARK minimizedAffinity 12.1162539
REMARK minimizedRMSD -1
REMARK  0 active torsions:
REMARK  status: ('A' for Active; 'I' for Inactive)
ROOT
ATOM      1  C   UNL d   1       2.140  -0.641   3.599  0.00  0.00    -0.002 A 
ATOM      2  C1  UNL d   1       2.951  -1.559   2.947  0.00  0.00     0.010 A 
ATOM      3  C2  UNL d   1       2.558  -2.112   1.726  0.00  0.00     0.041 A 
ATOM      4  C3  UNL d   1       1.325  -1.723   1.166  0.00  0.00    -0.075 A 
ATOM      5  S   UNL d   1       0.640  -2.268  -0.319  0.00  0.00     0.015 SA
ATOM      6  C4  UNL d   1      -0.746  -1.295  -0.122  0.00  0.00     0.022 A 
ATOM      7  C5  UNL d   1      -0.703  -0.565   1.042  0.00  0.00     0.026 A 
ATOM      8  C6  UNL d   1       0.492  -0.799   1.804  0.00  0.00    -0.082 A 
ATOM      9  C7  UNL d   1       0.917  -0.257   3.040  0.00  0.00     0.045 A 
ENDROOT
TORSDOF 0
ENDMDL
