MODEL 1
REMARK minimizedAffinity -2.2593832
REMARK minimizedRMSD -1
REMARK  0 active torsions:
REMARK  status: ('A' for Active; 'I' for Inactive)
ROOT
ATOM      1  C1  BNZ d   1       0.510   0.402   0.819  0.00  0.00     0.000 A 
ATOM      2  C2  BNZ d   1       1.664   0.231   1.536  0.00  0.00     0.000 A 
ATOM      3  C3  BNZ d   1       2.834   0.806   1.125  0.00  0.00     0.000 A 
ATOM      4  C4  BNZ d   1       2.858   1.516  -0.021  0.00  0.00     0.000 A 
ATOM      5  C5  BNZ d   1       1.705   1.690  -0.760  0.00  0.00     0.000 A 
ATOM      6  C6  BNZ d   1       0.520   1.142  -0.323  0.00  0.00     0.000 A 
ENDROOT
TORSDOF 0
ENDMDL
