MODEL 1
REMARK minimizedAffinity -0.648623943
REMARK minimizedRMSD -1
REMARK  0 active torsions:
REMARK  status: ('A' for Active; 'I' for Inactive)
ROOT
ATOM      1  C1  BNZ d   1      -1.211   0.382   0.079  0.00  0.00     0.000 A 
ATOM      2  C2  BNZ d   1      -0.024   0.760   0.650  0.00  0.00     0.000 A 
ATOM      3  C3  BNZ d   1       1.026   1.168  -0.124  0.00  0.00     0.000 A 
ATOM      4  C4  BNZ d   1       0.903   1.160  -1.467  0.00  0.00     0.000 A 
ATOM      5  C5  BNZ d   1      -0.284   0.773  -2.058  0.00  0.00     0.000 A 
ATOM      6  C6  BNZ d   1      -1.352   0.400  -1.274  0.00  0.00     0.000 A 
ENDROOT
TORSDOF 0
ENDMDL
