MODEL 1
REMARK minimizedAffinity -2.47861147
REMARK minimizedRMSD -1
REMARK  0 active torsions:
REMARK  status: ('A' for Active; 'I' for Inactive)
ROOT
ATOM      1  C1  BNZ d   1       0.745   1.096  -1.322  0.00  0.00     0.000 A 
ATOM      2  C2  BNZ d   1      -0.425   0.534  -1.760  0.00  0.00     0.000 A 
ATOM      3  C3  BNZ d   1      -1.326   0.013  -0.873  0.00  0.00     0.000 A 
ATOM      4  C4  BNZ d   1      -1.039   0.018   0.444  0.00  0.00     0.000 A 
ATOM      5  C5  BNZ d   1       0.141   0.573   0.900  0.00  0.00     0.000 A 
ATOM      6  C6  BNZ d   1       1.027   1.131   0.008  0.00  0.00     0.000 A 
ENDROOT
TORSDOF 0
ENDMDL
