MODEL 1
REMARK minimizedAffinity -4.52353811
REMARK minimizedRMSD -1
REMARK  0 active torsions:
REMARK  status: ('A' for Active; 'I' for Inactive)
ROOT
ATOM      1  C1  BNZ d   1       1.432   0.774   0.552  0.00  0.00     0.000 A 
ATOM      2  C2  BNZ d   1       0.153   1.221   0.352  0.00  0.00     0.000 A 
ATOM      3  C3  BNZ d   1      -0.730   0.500  -0.404  0.00  0.00     0.000 A 
ATOM      4  C4  BNZ d   1      -0.321  -0.643  -0.990  0.00  0.00     0.000 A 
ATOM      5  C5  BNZ d   1       0.968  -1.102  -0.805  0.00  0.00     0.000 A 
ATOM      6  C6  BNZ d   1       1.842  -0.394  -0.012  0.00  0.00     0.000 A 
ENDROOT
TORSDOF 0
ENDMDL
