MODEL 1
REMARK minimizedAffinity -4.62517643
REMARK minimizedRMSD -1
REMARK  0 active torsions:
REMARK  status: ('A' for Active; 'I' for Inactive)
ROOT
ATOM      1  C1  BNZ d   1      -0.352  -0.632   0.677  0.00  0.00     0.000 A 
ATOM      2  C2  BNZ d   1       0.897  -1.048   1.053  0.00  0.00     0.000 A 
ATOM      3  C3  BNZ d   1       1.972  -0.208   0.963  0.00  0.00     0.000 A 
ATOM      4  C4  BNZ d   1       1.803   1.032   0.461  0.00  0.00     0.000 A 
ATOM      5  C5  BNZ d   1       0.552   1.464   0.069  0.00  0.00     0.000 A 
ATOM      6  C6  BNZ d   1      -0.534   0.628   0.197  0.00  0.00     0.000 A 
ENDROOT
TORSDOF 0
ENDMDL
