MODEL 1
REMARK minimizedAffinity -4.10077953
REMARK minimizedRMSD -1
REMARK  0 active torsions:
REMARK  status: ('A' for Active; 'I' for Inactive)
ROOT
ATOM      1  C1  BNZ d   1       2.135  -1.305   1.927  0.00  0.00     0.000 A 
ATOM      2  C2  BNZ d   1       2.479  -0.234   1.147  0.00  0.00     0.000 A 
ATOM      3  C3  BNZ d   1       1.551   0.381   0.353  0.00  0.00     0.000 A 
ATOM      4  C4  BNZ d   1       0.292  -0.101   0.310  0.00  0.00     0.000 A 
ATOM      5  C5  BNZ d   1      -0.068  -1.186   1.084  0.00  0.00     0.000 A 
ATOM      6  C6  BNZ d   1       0.859  -1.778   1.911  0.00  0.00     0.000 A 
ENDROOT
TORSDOF 0
ENDMDL
