MODEL 1
REMARK minimizedAffinity -2.65653563
REMARK minimizedRMSD -1
REMARK  0 active torsions:
REMARK  status: ('A' for Active; 'I' for Inactive)
ROOT
ATOM      1  C1  BNZ d   1       0.745   1.126  -0.046  0.00  0.00     0.000 A 
ATOM      2  C2  BNZ d   1       1.991   1.085   0.521  0.00  0.00     0.000 A 
ATOM      3  C3  BNZ d   1       2.488  -0.080   1.035  0.00  0.00     0.000 A 
ATOM      4  C4  BNZ d   1       1.724  -1.191   1.018  0.00  0.00     0.000 A 
ATOM      5  C5  BNZ d   1       0.463  -1.164   0.458  0.00  0.00     0.000 A 
ATOM      6  C6  BNZ d   1      -0.019   0.001  -0.094  0.00  0.00     0.000 A 
ENDROOT
TORSDOF 0
ENDMDL
