MODEL 1
REMARK minimizedAffinity -3.57984257
REMARK minimizedRMSD -1
REMARK  0 active torsions:
REMARK  status: ('A' for Active; 'I' for Inactive)
ROOT
ATOM      1  C1  DEN d   1      -1.369  -0.551  -0.510  0.00  0.00     0.130 A 
ATOM      2  C2  DEN d   1      -0.140  -0.675  -1.289  0.00  0.00    -0.031 A 
ATOM      3  C3  DEN d   1       0.920   0.081  -0.593  0.00  0.00     0.027 A 
ATOM      4  C4  DEN d   1       0.781   1.421   1.606  0.00  0.00     0.027 A 
ATOM      5  C5  DEN d   1      -0.055   1.826   2.623  0.00  0.00    -0.003 A 
ATOM      6  C6  DEN d   1      -1.385   1.498   2.649  0.00  0.00     0.001 A 
ATOM      7  C7  DEN d   1      -1.908   0.705   1.662  0.00  0.00     0.017 A 
ATOM      8  C8  DEN d   1      -1.073   0.299   0.629  0.00  0.00    -0.094 A 
ATOM      9  C9  DEN d   1       0.272   0.631   0.628  0.00  0.00    -0.072 A 
ENDROOT
TORSDOF 0
ENDMDL
