MODEL 1
REMARK minimizedAffinity -2.53018403
REMARK minimizedRMSD -1
REMARK  0 active torsions:
REMARK  status: ('A' for Active; 'I' for Inactive)
ROOT
ATOM      1  C1  DEN d   1       0.423   1.433  -3.633  0.00  0.00     0.130 A 
ATOM      2  C2  DEN d   1       1.431   0.763  -4.449  0.00  0.00    -0.031 A 
ATOM      3  C3  DEN d   1       1.942  -0.394  -3.686  0.00  0.00     0.027 A 
ATOM      4  C4  DEN d   1       1.268  -1.210  -1.334  0.00  0.00     0.027 A 
ATOM      5  C5  DEN d   1       0.462  -0.958  -0.246  0.00  0.00    -0.003 A 
ATOM      6  C6  DEN d   1      -0.382   0.120  -0.197  0.00  0.00     0.001 A 
ATOM      7  C7  DEN d   1      -0.472   0.961  -1.275  0.00  0.00     0.017 A 
ATOM      8  C8  DEN d   1       0.343   0.717  -2.372  0.00  0.00    -0.094 A 
ATOM      9  C9  DEN d   1       1.181  -0.385  -2.407  0.00  0.00    -0.072 A 
ENDROOT
TORSDOF 0
ENDMDL
