MODEL 1
REMARK minimizedAffinity -2.12942529
REMARK minimizedRMSD -1
REMARK  0 active torsions:
REMARK  status: ('A' for Active; 'I' for Inactive)
ROOT
ATOM      1  C1  DEN d   1      -1.255  -0.360  -0.575  0.00  0.00     0.130 A 
ATOM      2  C2  DEN d   1      -0.013   0.092  -1.196  0.00  0.00    -0.031 A 
ATOM      3  C3  DEN d   1       0.745   0.865  -0.192  0.00  0.00     0.027 A 
ATOM      4  C4  DEN d   1       0.121   1.400   2.253  0.00  0.00     0.027 A 
ATOM      5  C5  DEN d   1      -0.840   1.241   3.227  0.00  0.00    -0.003 A 
ATOM      6  C6  DEN d   1      -2.012   0.572   2.993  0.00  0.00     0.001 A 
ATOM      7  C7  DEN d   1      -2.234  -0.003   1.770  0.00  0.00     0.017 A 
ATOM      8  C8  DEN d   1      -1.273   0.160   0.781  0.00  0.00    -0.094 A 
ATOM      9  C9  DEN d   1      -0.089   0.829   1.040  0.00  0.00    -0.072 A 
ENDROOT
TORSDOF 0
ENDMDL
