MODEL 1
REMARK minimizedAffinity -3.99661589
REMARK minimizedRMSD -1
REMARK  0 active torsions:
REMARK  status: ('A' for Active; 'I' for Inactive)
ROOT
ATOM      1  C1  DEN d   1       0.114   1.142   2.225  0.00  0.00     0.130 A 
ATOM      2  C2  DEN d   1      -1.205   1.090   2.849  0.00  0.00    -0.031 A 
ATOM      3  C3  DEN d   1      -2.057   0.192   2.042  0.00  0.00     0.027 A 
ATOM      4  C4  DEN d   1      -1.462  -1.118  -0.098  0.00  0.00     0.027 A 
ATOM      5  C5  DEN d   1      -0.466  -1.381  -1.013  0.00  0.00    -0.003 A 
ATOM      6  C6  DEN d   1       0.771  -0.801  -0.932  0.00  0.00     0.001 A 
ATOM      7  C7  DEN d   1       1.061   0.039   0.111  0.00  0.00     0.017 A 
ATOM      8  C8  DEN d   1       0.060   0.315   1.033  0.00  0.00    -0.094 A 
ATOM      9  C9  DEN d   1      -1.181  -0.291   0.941  0.00  0.00    -0.072 A 
ENDROOT
TORSDOF 0
ENDMDL
