MODEL 1
REMARK minimizedAffinity -3.55703211
REMARK minimizedRMSD -1
REMARK  0 active torsions:
REMARK  status: ('A' for Active; 'I' for Inactive)
ROOT
ATOM      1  C1  DEN d   1       0.882  -0.454  -0.146  0.00  0.00     0.130 A 
ATOM      2  C2  DEN d   1      -0.268  -0.113  -0.979  0.00  0.00    -0.031 A 
ATOM      3  C3  DEN d   1      -1.343   0.378  -0.094  0.00  0.00     0.027 A 
ATOM      4  C4  DEN d   1      -1.338   0.646   2.471  0.00  0.00     0.027 A 
ATOM      5  C5  DEN d   1      -0.591   0.476   3.616  0.00  0.00    -0.003 A 
ATOM      6  C6  DEN d   1       0.676  -0.044   3.591  0.00  0.00     0.001 A 
ATOM      7  C7  DEN d   1       1.252  -0.370   2.391  0.00  0.00     0.017 A 
ATOM      8  C8  DEN d   1       0.503  -0.208   1.233  0.00  0.00    -0.094 A 
ATOM      9  C9  DEN d   1      -0.772   0.331   1.278  0.00  0.00    -0.072 A 
ENDROOT
TORSDOF 0
ENDMDL
