MODEL 1
REMARK minimizedAffinity -4.87355375
REMARK minimizedRMSD -1
REMARK  0 active torsions:
REMARK  status: ('A' for Active; 'I' for Inactive)
ROOT
ATOM      1  C1  DEN d   1       0.406   1.215   2.274  0.00  0.00     0.130 A 
ATOM      2  C2  DEN d   1      -0.812   1.281   3.076  0.00  0.00    -0.031 A 
ATOM      3  C3  DEN d   1      -1.838   0.448   2.417  0.00  0.00     0.027 A 
ATOM      4  C4  DEN d   1      -1.657  -0.935   0.248  0.00  0.00     0.027 A 
ATOM      5  C5  DEN d   1      -0.824  -1.292  -0.790  0.00  0.00    -0.003 A 
ATOM      6  C6  DEN d   1       0.456  -0.816  -0.895  0.00  0.00     0.001 A 
ATOM      7  C7  DEN d   1       0.955   0.010   0.077  0.00  0.00     0.017 A 
ATOM      8  C8  DEN d   1       0.119   0.381   1.122  0.00  0.00    -0.094 A 
ATOM      9  C9  DEN d   1      -1.168  -0.121   1.217  0.00  0.00    -0.072 A 
ENDROOT
TORSDOF 0
ENDMDL
