MODEL 1
REMARK minimizedAffinity -2.84065318
REMARK minimizedRMSD -1
REMARK  0 active torsions:
REMARK  status: ('A' for Active; 'I' for Inactive)
ROOT
ATOM      1  C1  DEN d   1       1.398  -0.593   0.259  0.00  0.00     0.130 A 
ATOM      2  C2  DEN d   1       2.383  -0.372   1.314  0.00  0.00    -0.031 A 
ATOM      3  C3  DEN d   1       1.726   0.378   2.403  0.00  0.00     0.027 A 
ATOM      4  C4  DEN d   1      -0.711   1.210   2.558  0.00  0.00     0.027 A 
ATOM      5  C5  DEN d   1      -1.920   1.271   1.902  0.00  0.00    -0.003 A 
ATOM      6  C6  DEN d   1      -2.097   0.750   0.648  0.00  0.00     0.001 A 
ATOM      7  C7  DEN d   1      -1.060   0.103   0.029  0.00  0.00     0.017 A 
ATOM      8  C8  DEN d   1       0.164   0.044   0.681  0.00  0.00    -0.094 A 
ATOM      9  C9  DEN d   1       0.320   0.567   1.954  0.00  0.00    -0.072 A 
ENDROOT
TORSDOF 0
ENDMDL
