MODEL 1
REMARK minimizedAffinity -7.1397748
REMARK minimizedRMSD -1
REMARK  0 active torsions:
REMARK  status: ('A' for Active; 'I' for Inactive)
ROOT
ATOM      1  C1  DEN d   1       1.782  -0.454   2.213  0.00  0.00     0.130 A 
ATOM      2  C2  DEN d   1       1.502   0.204   3.486  0.00  0.00    -0.031 A 
ATOM      3  C3  DEN d   1       0.162   0.818   3.397  0.00  0.00     0.027 A 
ATOM      4  C4  DEN d   1      -1.498   0.812   1.424  0.00  0.00     0.027 A 
ATOM      5  C5  DEN d   1      -1.700   0.392   0.127  0.00  0.00    -0.003 A 
ATOM      6  C6  DEN d   1      -0.749  -0.304  -0.570  0.00  0.00     0.001 A 
ATOM      7  C7  DEN d   1       0.431  -0.641   0.040  0.00  0.00     0.017 A 
ATOM      8  C8  DEN d   1       0.644  -0.215   1.345  0.00  0.00    -0.094 A 
ATOM      9  C9  DEN d   1      -0.335   0.478   2.037  0.00  0.00    -0.072 A 
ENDROOT
TORSDOF 0
ENDMDL
