MODEL 1
REMARK minimizedAffinity -5.66913271
REMARK minimizedRMSD -1
REMARK  0 active torsions:
REMARK  status: ('A' for Active; 'I' for Inactive)
ROOT
ATOM      1  C1  DEN d   1      -1.082  -0.130  -0.229  0.00  0.00     0.130 A 
ATOM      2  C2  DEN d   1       0.114  -0.524  -0.968  0.00  0.00    -0.031 A 
ATOM      3  C3  DEN d   1       1.280  -0.343  -0.080  0.00  0.00     0.027 A 
ATOM      4  C4  DEN d   1       1.347   0.499   2.357  0.00  0.00     0.027 A 
ATOM      5  C5  DEN d   1       0.585   0.964   3.406  0.00  0.00    -0.003 A 
ATOM      6  C6  DEN d   1      -0.772   1.128   3.306  0.00  0.00     0.001 A 
ATOM      7  C7  DEN d   1      -1.413   0.781   2.146  0.00  0.00     0.017 A 
ATOM      8  C8  DEN d   1      -0.650   0.319   1.082  0.00  0.00    -0.094 A 
ATOM      9  C9  DEN d   1       0.718   0.149   1.207  0.00  0.00    -0.072 A 
ENDROOT
TORSDOF 0
ENDMDL
