MODEL 1
REMARK minimizedAffinity -5.4560051
REMARK minimizedRMSD -1
REMARK  0 active torsions:
REMARK  status: ('A' for Active; 'I' for Inactive)
ROOT
ATOM      1  C1  DEN d   1       1.565  -0.909   0.329  0.00  0.00     0.130 A 
ATOM      2  C2  DEN d   1       2.546  -1.091   1.395  0.00  0.00    -0.031 A 
ATOM      3  C3  DEN d   1       1.942  -0.619   2.658  0.00  0.00     0.027 A 
ATOM      4  C4  DEN d   1      -0.407   0.365   3.063  0.00  0.00     0.027 A 
ATOM      5  C5  DEN d   1      -1.593   0.725   2.462  0.00  0.00    -0.003 A 
ATOM      6  C6  DEN d   1      -1.795   0.599   1.113  0.00  0.00     0.001 A 
ATOM      7  C7  DEN d   1      -0.812   0.057   0.327  0.00  0.00     0.017 A 
ATOM      8  C8  DEN d   1       0.388  -0.301   0.926  0.00  0.00    -0.094 A 
ATOM      9  C9  DEN d   1       0.569  -0.177   2.293  0.00  0.00    -0.072 A 
ENDROOT
TORSDOF 0
ENDMDL
