MODEL 1
REMARK minimizedAffinity -3.8285203
REMARK minimizedRMSD -1
REMARK  0 active torsions:
REMARK  status: ('A' for Active; 'I' for Inactive)
ROOT
ATOM      1  C1  DEN d   1       0.641   1.348   2.050  0.00  0.00     0.130 A 
ATOM      2  C2  DEN d   1      -0.443   1.493   3.018  0.00  0.00    -0.031 A 
ATOM      3  C3  DEN d   1      -1.676   0.961   2.405  0.00  0.00     0.027 A 
ATOM      4  C4  DEN d   1      -2.010  -0.071   0.065  0.00  0.00     0.027 A 
ATOM      5  C5  DEN d   1      -1.385  -0.396  -1.118  0.00  0.00    -0.003 A 
ATOM      6  C6  DEN d   1      -0.058  -0.134  -1.339  0.00  0.00     0.001 A 
ATOM      7  C7  DEN d   1       0.696   0.431  -0.345  0.00  0.00     0.017 A 
ATOM      8  C8  DEN d   1       0.071   0.768   0.848  0.00  0.00    -0.094 A 
ATOM      9  C9  DEN d   1      -1.268   0.483   1.056  0.00  0.00    -0.072 A 
ENDROOT
TORSDOF 0
ENDMDL
