MODEL 1
REMARK minimizedAffinity 0.129769921
REMARK minimizedRMSD -1
REMARK  2 active torsions:
REMARK  status: ('A' for Active; 'I' for Inactive)
REMARK    1  A    between atoms: C2'_3  and  C1'_4 
REMARK    2  A    between atoms: C1'_4  and  C1_5 
ROOT
ATOM      1  C1  I4B d   1       0.160   0.105  -1.664  0.00  0.00    -0.075 A 
ATOM      2  C2  I4B d   1      -1.062   0.689  -1.888  0.00  0.00     0.003 A 
ATOM      3  C3  I4B d   1      -2.068   0.641  -0.892  0.00  0.00     0.002 A 
ATOM      4  C4  I4B d   1      -1.827  -0.040   0.284  0.00  0.00    -0.004 A 
ATOM      5  C5  I4B d   1      -0.580  -0.612   0.518  0.00  0.00     0.002 A 
ATOM      6  C6  I4B d   1       0.425  -0.528  -0.457  0.00  0.00     0.003 A 
ENDROOT
BRANCH   1   7
ATOM      7  C1' I4B d   1       1.188   0.146  -2.750  0.00  0.00     0.060 C 
BRANCH   7   8
ATOM      8  C2' I4B d   1       1.462  -1.278  -3.187  0.00  0.00    -0.013 C 
ATOM      9  C4' I4B d   1       0.530  -1.699  -4.292  0.00  0.00     0.013 C 
ATOM     10  C3' I4B d   1       2.894  -1.360  -3.626  0.00  0.00     0.013 C 
ENDBRANCH   7   8
ENDBRANCH   1   7
TORSDOF 2
ENDMDL
