MODEL 1
REMARK minimizedAffinity -6.40972519
REMARK minimizedRMSD -1
REMARK  2 active torsions:
REMARK  status: ('A' for Active; 'I' for Inactive)
REMARK    1  A    between atoms: C2'_3  and  C1'_4 
REMARK    2  A    between atoms: C1'_4  and  C1_5 
ROOT
ATOM      1  C1  I4B d   1      -1.087  -0.024   0.605  0.00  0.00    -0.075 A 
ATOM      2  C2  I4B d   1       0.069  -0.038   1.345  0.00  0.00     0.003 A 
ATOM      3  C3  I4B d   1       0.028  -0.355   2.725  0.00  0.00     0.002 A 
ATOM      4  C4  I4B d   1      -1.187  -0.600   3.330  0.00  0.00    -0.004 A 
ATOM      5  C5  I4B d   1      -2.355  -0.609   2.573  0.00  0.00     0.002 A 
ATOM      6  C6  I4B d   1      -2.304  -0.331   1.200  0.00  0.00     0.003 A 
ENDROOT
BRANCH   1   7
ATOM      7  C1' I4B d   1      -1.011   0.347  -0.842  0.00  0.00     0.060 C 
BRANCH   7   8
ATOM      8  C2' I4B d   1       0.302  -0.174  -1.390  0.00  0.00    -0.013 C 
ATOM      9  C4' I4B d   1       0.082  -1.046  -2.598  0.00  0.00     0.013 C 
ATOM     10  C3' I4B d   1       1.165   1.006  -1.723  0.00  0.00     0.013 C 
ENDBRANCH   7   8
ENDBRANCH   1   7
TORSDOF 2
ENDMDL
