MODEL 1
REMARK minimizedAffinity -5.31254101
REMARK minimizedRMSD -1
REMARK  2 active torsions:
REMARK  status: ('A' for Active; 'I' for Inactive)
REMARK    1  A    between atoms: C2'_3  and  C1'_4 
REMARK    2  A    between atoms: C1'_4  and  C1_5 
ROOT
ATOM      1  C1  I4B d   1      -0.095  -0.146  -0.027  0.00  0.00    -0.075 A 
ATOM      2  C2  I4B d   1      -1.196  -0.176   0.792  0.00  0.00     0.003 A 
ATOM      3  C3  I4B d   1      -1.038  -0.278   2.195  0.00  0.00     0.002 A 
ATOM      4  C4  I4B d   1       0.228  -0.397   2.730  0.00  0.00    -0.004 A 
ATOM      5  C5  I4B d   1       1.344  -0.344   1.900  0.00  0.00     0.002 A 
ATOM      6  C6  I4B d   1       1.183  -0.204   0.514  0.00  0.00     0.003 A 
ENDROOT
BRANCH   1   7
ATOM      7  C1' I4B d   1      -0.299  -0.070  -1.507  0.00  0.00     0.060 C 
BRANCH   7   8
ATOM      8  C2' I4B d   1       0.884  -0.739  -2.176  0.00  0.00    -0.013 C 
ATOM      9  C4' I4B d   1       0.512  -2.096  -2.713  0.00  0.00     0.013 C 
ATOM     10  C3' I4B d   1       1.367   0.163  -3.273  0.00  0.00     0.013 C 
ENDBRANCH   7   8
ENDBRANCH   1   7
TORSDOF 2
ENDMDL
