MODEL 1
REMARK minimizedAffinity -4.42249823
REMARK minimizedRMSD -1
REMARK  2 active torsions:
REMARK  status: ('A' for Active; 'I' for Inactive)
REMARK    1  A    between atoms: C2'_3  and  C1'_4 
REMARK    2  A    between atoms: C1'_4  and  C1_5 
ROOT
ATOM      1  C1  I4B d   1      -0.002  -0.101  -0.257  0.00  0.00    -0.075 A 
ATOM      2  C2  I4B d   1      -1.018  -0.770   0.378  0.00  0.00     0.003 A 
ATOM      3  C3  I4B d   1      -0.995  -0.933   1.785  0.00  0.00     0.002 A 
ATOM      4  C4  I4B d   1       0.082  -0.457   2.506  0.00  0.00    -0.004 A 
ATOM      5  C5  I4B d   1       1.100   0.241   1.864  0.00  0.00     0.002 A 
ATOM      6  C6  I4B d   1       1.052   0.431   0.475  0.00  0.00     0.003 A 
ENDROOT
BRANCH   1   7
ATOM      7  C1' I4B d   1      -0.041   0.024  -1.747  0.00  0.00     0.060 C 
BRANCH   7   8
ATOM      8  C2' I4B d   1       0.980  -0.935  -2.323  0.00  0.00    -0.013 C 
ATOM      9  C4' I4B d   1       0.320  -1.987  -3.176  0.00  0.00     0.013 C 
ATOM     10  C3' I4B d   1       1.969  -0.136  -3.117  0.00  0.00     0.013 C 
ENDBRANCH   7   8
ENDBRANCH   1   7
TORSDOF 2
ENDMDL
