MODEL 1
REMARK minimizedAffinity 3.72363758
REMARK minimizedRMSD -1
REMARK  2 active torsions:
REMARK  status: ('A' for Active; 'I' for Inactive)
REMARK    1  A    between atoms: C2'_3  and  C1'_4 
REMARK    2  A    between atoms: C1'_4  and  C1_5 
ROOT
ATOM      1  C1  I4B d   1       2.073  -0.767  -4.247  0.00  0.00    -0.075 A 
ATOM      2  C2  I4B d   1       2.200   0.593  -4.112  0.00  0.00     0.003 A 
ATOM      3  C3  I4B d   1       3.396   1.240  -4.504  0.00  0.00     0.002 A 
ATOM      4  C4  I4B d   1       4.452   0.488  -4.976  0.00  0.00    -0.004 A 
ATOM      5  C5  I4B d   1       4.314  -0.888  -5.134  0.00  0.00     0.002 A 
ATOM      6  C6  I4B d   1       3.113  -1.519  -4.778  0.00  0.00     0.003 A 
ENDROOT
BRANCH   1   7
ATOM      7  C1' I4B d   1       0.808  -1.422  -3.792  0.00  0.00     0.060 C 
BRANCH   7   8
ATOM      8  C2' I4B d   1       0.482  -2.535  -4.766  0.00  0.00    -0.013 C 
ATOM      9  C4' I4B d   1       0.274  -3.844  -4.049  0.00  0.00     0.013 C 
ATOM     10  C3' I4B d   1      -0.745  -2.137  -5.531  0.00  0.00     0.013 C 
ENDBRANCH   7   8
ENDBRANCH   1   7
TORSDOF 2
ENDMDL
