MODEL 1
REMARK minimizedAffinity -3.56649566
REMARK minimizedRMSD -1
REMARK  2 active torsions:
REMARK  status: ('A' for Active; 'I' for Inactive)
REMARK    1  A    between atoms: C2'_3  and  C1'_4 
REMARK    2  A    between atoms: C1'_4  and  C1_5 
ROOT
ATOM      1  C1  I4B d   1       0.084   0.417  -0.537  0.00  0.00    -0.075 A 
ATOM      2  C2  I4B d   1      -1.065  -0.109  -0.001  0.00  0.00     0.003 A 
ATOM      3  C3  I4B d   1      -1.170  -0.317   1.395  0.00  0.00     0.002 A 
ATOM      4  C4  I4B d   1      -0.090  -0.035   2.207  0.00  0.00    -0.004 A 
ATOM      5  C5  I4B d   1       1.066   0.519   1.665  0.00  0.00     0.002 A 
ATOM      6  C6  I4B d   1       1.149   0.758   0.286  0.00  0.00     0.003 A 
ENDROOT
BRANCH   1   7
ATOM      7  C1' I4B d   1       0.173   0.593  -2.020  0.00  0.00     0.060 C 
BRANCH   7   8
ATOM      8  C2' I4B d   1       0.908  -0.604  -2.589  0.00  0.00    -0.013 C 
ATOM      9  C4' I4B d   1      -0.021  -1.493  -3.373  0.00  0.00     0.013 C 
ATOM     10  C3' I4B d   1       2.024  -0.094  -3.451  0.00  0.00     0.013 C 
ENDBRANCH   7   8
ENDBRANCH   1   7
TORSDOF 2
ENDMDL
