MODEL 1
REMARK minimizedAffinity 0.931621373
REMARK minimizedRMSD -1
REMARK  2 active torsions:
REMARK  status: ('A' for Active; 'I' for Inactive)
REMARK    1  A    between atoms: C2'_3  and  C1'_4 
REMARK    2  A    between atoms: C1'_4  and  C1_5 
ROOT
ATOM      1  C1  I4B d   1       0.089   0.501   2.000  0.00  0.00    -0.075 A 
ATOM      2  C2  I4B d   1      -1.098   0.007   1.519  0.00  0.00     0.003 A 
ATOM      3  C3  I4B d   1      -1.207  -0.392   0.165  0.00  0.00     0.002 A 
ATOM      4  C4  I4B d   1      -0.127  -0.233  -0.680  0.00  0.00    -0.004 A 
ATOM      5  C5  I4B d   1       1.082   0.246  -0.185  0.00  0.00     0.002 A 
ATOM      6  C6  I4B d   1       1.195   0.605   1.167  0.00  0.00     0.003 A 
ENDROOT
BRANCH   1   7
ATOM      7  C1' I4B d   1       0.159   0.944   3.427  0.00  0.00     0.060 C 
BRANCH   7   8
ATOM      8  C2' I4B d   1       0.175   2.459   3.446  0.00  0.00    -0.013 C 
ATOM      9  C4' I4B d   1      -1.206   3.016   3.670  0.00  0.00     0.013 C 
ATOM     10  C3' I4B d   1       1.119   2.899   4.525  0.00  0.00     0.013 C 
ENDBRANCH   7   8
ENDBRANCH   1   7
TORSDOF 2
ENDMDL
