MODEL 1
REMARK minimizedAffinity -6.56855965
REMARK minimizedRMSD -1
REMARK  2 active torsions:
REMARK  status: ('A' for Active; 'I' for Inactive)
REMARK    1  A    between atoms: C2'_3  and  C1'_4 
REMARK    2  A    between atoms: C1'_4  and  C1_5 
ROOT
ATOM      1  C1  I4B d   1       0.340   0.201   0.071  0.00  0.00    -0.075 A 
ATOM      2  C2  I4B d   1      -0.606  -0.489   0.788  0.00  0.00     0.003 A 
ATOM      3  C3  I4B d   1      -0.364  -0.833   2.140  0.00  0.00     0.002 A 
ATOM      4  C4  I4B d   1       0.848  -0.514   2.716  0.00  0.00    -0.004 A 
ATOM      5  C5  I4B d   1       1.796   0.206   1.995  0.00  0.00     0.002 A 
ATOM      6  C6  I4B d   1       1.536   0.576   0.668  0.00  0.00     0.003 A 
ENDROOT
BRANCH   1   7
ATOM      7  C1' I4B d   1       0.066   0.519  -1.365  0.00  0.00     0.060 C 
BRANCH   7   8
ATOM      8  C2' I4B d   1       0.873  -0.438  -2.218  0.00  0.00    -0.013 C 
ATOM      9  C4' I4B d   1      -0.013  -1.468  -2.868  0.00  0.00     0.013 C 
ATOM     10  C3' I4B d   1       1.611   0.367  -3.245  0.00  0.00     0.013 C 
ENDBRANCH   7   8
ENDBRANCH   1   7
TORSDOF 2
ENDMDL
