MODEL 1
REMARK minimizedAffinity -4.13858414
REMARK minimizedRMSD -1
REMARK  2 active torsions:
REMARK  status: ('A' for Active; 'I' for Inactive)
REMARK    1  A    between atoms: C2'_3  and  C1'_4 
REMARK    2  A    between atoms: C1'_4  and  C1_5 
ROOT
ATOM      1  C1  I4B d   1      -0.625   0.473   0.245  0.00  0.00    -0.075 A 
ATOM      2  C2  I4B d   1       0.544   0.377   0.957  0.00  0.00     0.003 A 
ATOM      3  C3  I4B d   1       0.521   0.404   2.372  0.00  0.00     0.002 A 
ATOM      4  C4  I4B d   1      -0.680   0.579   3.029  0.00  0.00    -0.004 A 
ATOM      5  C5  I4B d   1      -1.867   0.653   2.306  0.00  0.00     0.002 A 
ATOM      6  C6  I4B d   1      -1.841   0.587   0.906  0.00  0.00     0.003 A 
ENDROOT
BRANCH   1   7
ATOM      7  C1' I4B d   1      -0.561   0.474  -1.250  0.00  0.00     0.060 C 
BRANCH   7   8
ATOM      8  C2' I4B d   1       0.532  -0.487  -1.671  0.00  0.00    -0.013 C 
ATOM      9  C4' I4B d   1      -0.041  -1.699  -2.356  0.00  0.00     0.013 C 
ATOM     10  C3' I4B d   1       1.475   0.251  -2.574  0.00  0.00     0.013 C 
ENDBRANCH   7   8
ENDBRANCH   1   7
TORSDOF 2
ENDMDL
