MODEL 1
REMARK minimizedAffinity -3.05590129
REMARK minimizedRMSD -1
REMARK  2 active torsions:
REMARK  status: ('A' for Active; 'I' for Inactive)
REMARK    1  A    between atoms: C2'_3  and  C1'_4 
REMARK    2  A    between atoms: C1'_4  and  C1_5 
ROOT
ATOM      1  C1  I4B d   1       0.355   0.452   0.275  0.00  0.00    -0.075 A 
ATOM      2  C2  I4B d   1      -0.908   0.168   0.733  0.00  0.00     0.003 A 
ATOM      3  C3  I4B d   1      -1.208   0.282   2.112  0.00  0.00     0.002 A 
ATOM      4  C4  I4B d   1      -0.210   0.630   2.999  0.00  0.00    -0.004 A 
ATOM      5  C5  I4B d   1       1.064   0.940   2.530  0.00  0.00     0.002 A 
ATOM      6  C6  I4B d   1       1.345   0.863   1.158  0.00  0.00     0.003 A 
ENDROOT
BRANCH   1   7
ATOM      7  C1' I4B d   1       0.646   0.290  -1.183  0.00  0.00     0.060 C 
BRANCH   7   8
ATOM      8  C2' I4B d   1       0.713  -1.193  -1.484  0.00  0.00    -0.013 C 
ATOM      9  C4' I4B d   1       1.245  -1.445  -2.870  0.00  0.00     0.013 C 
ATOM     10  C3' I4B d   1       1.583  -1.837  -0.445  0.00  0.00     0.013 C 
ENDBRANCH   7   8
ENDBRANCH   1   7
TORSDOF 2
ENDMDL
