MODEL 1
REMARK minimizedAffinity 6.04220152
REMARK minimizedRMSD -1
REMARK  0 active torsions:
REMARK  status: ('A' for Active; 'I' for Inactive)
ROOT
ATOM      1  C   UNL d   1       1.876  -2.998   1.475  0.00  0.00     0.078 C 
ATOM      2  C1  UNL d   1       1.809  -1.917   0.437  0.00  0.00    -0.077 A 
ATOM      3  C2  UNL d   1       0.717  -1.820  -0.433  0.00  0.00    -0.001 A 
ATOM      4  C3  UNL d   1       0.672  -0.815  -1.401  0.00  0.00     0.003 A 
ATOM      5  C4  UNL d   1       1.717   0.100  -1.507  0.00  0.00    -0.005 A 
ATOM      6  C5  UNL d   1       2.810   0.010  -0.647  0.00  0.00     0.003 A 
ATOM      7  C6  UNL d   1       2.856  -0.994   0.321  0.00  0.00    -0.001 A 
ENDROOT
TORSDOF 0
ENDMDL
