MODEL 1
REMARK minimizedAffinity 3.63333082
REMARK minimizedRMSD -1
REMARK  0 active torsions:
REMARK  status: ('A' for Active; 'I' for Inactive)
ROOT
ATOM      1  C   UNL d   1      -3.256   0.670   2.831  0.00  0.00     0.078 C 
ATOM      2  C1  UNL d   1      -1.932  -0.027   2.728  0.00  0.00    -0.077 A 
ATOM      3  C2  UNL d   1      -1.692  -0.973   1.724  0.00  0.00    -0.001 A 
ATOM      4  C3  UNL d   1      -0.458  -1.621   1.645  0.00  0.00     0.003 A 
ATOM      5  C4  UNL d   1       0.545  -1.331   2.569  0.00  0.00    -0.005 A 
ATOM      6  C5  UNL d   1       0.314  -0.393   3.573  0.00  0.00     0.003 A 
ATOM      7  C6  UNL d   1      -0.919   0.256   3.653  0.00  0.00    -0.001 A 
ENDROOT
TORSDOF 0
ENDMDL
