MODEL 1
REMARK minimizedAffinity 5.08877563
REMARK minimizedRMSD -1
REMARK  0 active torsions:
REMARK  status: ('A' for Active; 'I' for Inactive)
ROOT
ATOM      1  C   UNL d   1      -3.331   1.028   2.818  0.00  0.00     0.078 C 
ATOM      2  C1  UNL d   1      -2.041   0.267   2.750  0.00  0.00    -0.077 A 
ATOM      3  C2  UNL d   1      -1.818  -0.686   1.748  0.00  0.00    -0.001 A 
ATOM      4  C3  UNL d   1      -0.616  -1.394   1.702  0.00  0.00     0.003 A 
ATOM      5  C4  UNL d   1       0.372  -1.158   2.656  0.00  0.00    -0.005 A 
ATOM      6  C5  UNL d   1       0.158  -0.213   3.658  0.00  0.00     0.003 A 
ATOM      7  C6  UNL d   1      -1.043   0.496   3.705  0.00  0.00    -0.001 A 
ENDROOT
TORSDOF 0
ENDMDL
