MODEL 1
REMARK minimizedAffinity 2.21020126
REMARK minimizedRMSD -1
REMARK  0 active torsions:
REMARK  status: ('A' for Active; 'I' for Inactive)
ROOT
ATOM      1  C   UNL d   1      -5.598   3.329  -5.249  0.00  0.00     0.078 C 
ATOM      2  C1  UNL d   1      -5.154   1.896  -5.242  0.00  0.00    -0.077 A 
ATOM      3  C2  UNL d   1      -5.828   0.937  -4.476  0.00  0.00    -0.001 A 
ATOM      4  C3  UNL d   1      -5.398  -0.391  -4.471  0.00  0.00     0.003 A 
ATOM      5  C4  UNL d   1      -4.293  -0.772  -5.230  0.00  0.00    -0.005 A 
ATOM      6  C5  UNL d   1      -3.615   0.176  -5.994  0.00  0.00     0.003 A 
ATOM      7  C6  UNL d   1      -4.043   1.505  -6.000  0.00  0.00    -0.001 A 
ENDROOT
TORSDOF 0
ENDMDL
