MODEL 1
REMARK minimizedAffinity 6.50621319
REMARK minimizedRMSD -1
REMARK  0 active torsions:
REMARK  status: ('A' for Active; 'I' for Inactive)
ROOT
ATOM      1  C   UNL d   1      -5.960   2.105  -5.251  0.00  0.00     0.078 C 
ATOM      2  C1  UNL d   1      -4.919   1.036  -5.097  0.00  0.00    -0.077 A 
ATOM      3  C2  UNL d   1      -3.972   1.095  -4.068  0.00  0.00    -0.001 A 
ATOM      4  C3  UNL d   1      -3.003   0.097  -3.943  0.00  0.00     0.003 A 
ATOM      5  C4  UNL d   1      -2.972  -0.965  -4.844  0.00  0.00    -0.005 A 
ATOM      6  C5  UNL d   1      -3.910  -1.031  -5.873  0.00  0.00     0.003 A 
ATOM      7  C6  UNL d   1      -4.879  -0.035  -6.000  0.00  0.00    -0.001 A 
ENDROOT
TORSDOF 0
ENDMDL
