MODEL 1
REMARK minimizedAffinity 7.37284946
REMARK minimizedRMSD -1
REMARK  0 active torsions:
REMARK  status: ('A' for Active; 'I' for Inactive)
ROOT
ATOM      1  C   UNL d   1      -5.038  -0.003  -5.789  0.00  0.00     0.078 C 
ATOM      2  C1  UNL d   1      -5.057   1.379  -5.207  0.00  0.00    -0.077 A 
ATOM      3  C2  UNL d   1      -6.000   2.325  -5.627  0.00  0.00    -0.001 A 
ATOM      4  C3  UNL d   1      -6.000   3.611  -5.084  0.00  0.00     0.003 A 
ATOM      5  C4  UNL d   1      -5.058   3.963  -4.120  0.00  0.00    -0.005 A 
ATOM      6  C5  UNL d   1      -4.114   3.029  -3.697  0.00  0.00     0.003 A 
ATOM      7  C6  UNL d   1      -4.113   1.742  -4.239  0.00  0.00    -0.001 A 
ENDROOT
TORSDOF 0
ENDMDL
