MODEL 1
REMARK minimizedAffinity -0.941629589
REMARK minimizedRMSD -1
REMARK  0 active torsions:
REMARK  status: ('A' for Active; 'I' for Inactive)
ROOT
ATOM      1  C   UNL d   1      -3.927   0.812  -5.346  0.00  0.00     0.078 C 
ATOM      2  C1  UNL d   1      -4.031  -0.326  -4.375  0.00  0.00    -0.077 A 
ATOM      3  C2  UNL d   1      -2.903  -0.798  -3.693  0.00  0.00    -0.001 A 
ATOM      4  C3  UNL d   1      -3.013  -1.865  -2.800  0.00  0.00     0.003 A 
ATOM      5  C4  UNL d   1      -4.249  -2.469  -2.580  0.00  0.00    -0.005 A 
ATOM      6  C5  UNL d   1      -5.377  -2.007  -3.256  0.00  0.00     0.003 A 
ATOM      7  C6  UNL d   1      -5.269  -0.941  -4.150  0.00  0.00    -0.001 A 
ENDROOT
TORSDOF 0
ENDMDL
