MODEL 1
REMARK minimizedAffinity 7.26834393
REMARK minimizedRMSD -1
REMARK  0 active torsions:
REMARK  status: ('A' for Active; 'I' for Inactive)
ROOT
ATOM      1  C   UNL d   1       0.562  -1.850   2.074  0.00  0.00     0.078 C 
ATOM      2  C1  UNL d   1      -0.553  -0.902   2.401  0.00  0.00    -0.077 A 
ATOM      3  C2  UNL d   1      -1.741  -0.902   1.659  0.00  0.00    -0.001 A 
ATOM      4  C3  UNL d   1      -2.766  -0.008   1.968  0.00  0.00     0.003 A 
ATOM      5  C4  UNL d   1      -2.614   0.895   3.019  0.00  0.00    -0.005 A 
ATOM      6  C5  UNL d   1      -1.435   0.905   3.761  0.00  0.00     0.003 A 
ATOM      7  C6  UNL d   1      -0.408   0.011   3.453  0.00  0.00    -0.001 A 
ENDROOT
TORSDOF 0
ENDMDL
