MODEL 1
REMARK minimizedAffinity 2.99932861
REMARK minimizedRMSD -1
REMARK  0 active torsions:
REMARK  status: ('A' for Active; 'I' for Inactive)
ROOT
ATOM      1  C   UNL d   1       1.425  -1.815   0.967  0.00  0.00     0.078 C 
ATOM      2  C1  UNL d   1       1.979  -1.476  -0.384  0.00  0.00    -0.077 A 
ATOM      3  C2  UNL d   1       1.143  -1.030  -1.415  0.00  0.00    -0.001 A 
ATOM      4  C3  UNL d   1       1.672  -0.727  -2.671  0.00  0.00     0.003 A 
ATOM      5  C4  UNL d   1       3.037  -0.869  -2.909  0.00  0.00    -0.005 A 
ATOM      6  C5  UNL d   1       3.877  -1.314  -1.889  0.00  0.00     0.003 A 
ATOM      7  C6  UNL d   1       3.350  -1.618  -0.633  0.00  0.00    -0.001 A 
ENDROOT
TORSDOF 0
ENDMDL
