MODEL 1
REMARK minimizedAffinity 5.41157389
REMARK minimizedRMSD -1
REMARK  0 active torsions:
REMARK  status: ('A' for Active; 'I' for Inactive)
ROOT
ATOM      1  C   UNL d   1      -1.757  -0.800   2.663  0.00  0.00     0.078 C 
ATOM      2  C1  UNL d   1      -3.043  -0.029   2.681  0.00  0.00    -0.077 A 
ATOM      3  C2  UNL d   1      -3.557   0.488   3.877  0.00  0.00    -0.001 A 
ATOM      4  C3  UNL d   1      -4.760   1.195   3.881  0.00  0.00     0.003 A 
ATOM      5  C4  UNL d   1      -5.460   1.392   2.692  0.00  0.00    -0.005 A 
ATOM      6  C5  UNL d   1      -4.957   0.881   1.497  0.00  0.00     0.003 A 
ATOM      7  C6  UNL d   1      -3.754   0.173   1.492  0.00  0.00    -0.001 A 
ENDROOT
TORSDOF 0
ENDMDL
