MODEL 1
REMARK minimizedAffinity 1.31592107
REMARK minimizedRMSD -1
REMARK  0 active torsions:
REMARK  status: ('A' for Active; 'I' for Inactive)
ROOT
ATOM      1  C   UNL d   1       3.066   2.491  -1.478  0.00  0.00     0.078 C 
ATOM      2  C1  UNL d   1       1.663   2.244  -1.945  0.00  0.00    -0.077 A 
ATOM      3  C2  UNL d   1       1.090   0.969  -1.868  0.00  0.00    -0.001 A 
ATOM      4  C3  UNL d   1      -0.214   0.752  -2.315  0.00  0.00     0.003 A 
ATOM      5  C4  UNL d   1      -0.956   1.805  -2.844  0.00  0.00    -0.005 A 
ATOM      6  C5  UNL d   1      -0.395   3.078  -2.927  0.00  0.00     0.003 A 
ATOM      7  C6  UNL d   1       0.909   3.297  -2.480  0.00  0.00    -0.001 A 
ENDROOT
TORSDOF 0
ENDMDL
