MODEL 1
REMARK minimizedAffinity -4.14410019
REMARK minimizedRMSD -1
REMARK  2 active torsions:
REMARK  status: ('A' for Active; 'I' for Inactive)
REMARK    1  A    between atoms: C2'_3  and  C1'_4 
REMARK    2  A    between atoms: C1'_4  and  C1_5 
ROOT
ATOM      1  C1  I4B d   1       0.147  -0.595  -0.059  0.00  0.00    -0.075 A 
ATOM      2  C2  I4B d   1       0.364  -1.395  -1.153  0.00  0.00     0.003 A 
ATOM      3  C3  I4B d   1      -0.103  -2.732  -1.162  0.00  0.00     0.002 A 
ATOM      4  C4  I4B d   1      -0.733  -3.239  -0.044  0.00  0.00    -0.004 A 
ATOM      5  C5  I4B d   1      -0.972  -2.419   1.056  0.00  0.00     0.002 A 
ATOM      6  C6  I4B d   1      -0.541  -1.085   1.043  0.00  0.00     0.003 A 
ENDROOT
BRANCH   1   7
ATOM      7  C1' I4B d   1       0.683   0.802  -0.070  0.00  0.00     0.060 C 
BRANCH   7   8
ATOM      8  C2' I4B d   1      -0.461   1.738  -0.405  0.00  0.00    -0.013 C 
ATOM      9  C4' I4B d   1      -0.102   3.168  -0.098  0.00  0.00     0.013 C 
ATOM     10  C3' I4B d   1      -0.793   1.562  -1.856  0.00  0.00     0.013 C 
ENDBRANCH   7   8
ENDBRANCH   1   7
TORSDOF 2
ENDMDL
