MODEL 1
REMARK minimizedAffinity -1.00845659
REMARK minimizedRMSD -1
REMARK  2 active torsions:
REMARK  status: ('A' for Active; 'I' for Inactive)
REMARK    1  A    between atoms: C2'_3  and  C1'_4 
REMARK    2  A    between atoms: C1'_4  and  C1_5 
ROOT
ATOM      1  C1  I4B d   1      -0.423  -0.423   0.125  0.00  0.00    -0.075 A 
ATOM      2  C2  I4B d   1      -0.430   0.926  -0.126  0.00  0.00     0.003 A 
ATOM      3  C3  I4B d   1      -0.093   1.414  -1.412  0.00  0.00     0.002 A 
ATOM      4  C4  I4B d   1       0.292   0.526  -2.396  0.00  0.00    -0.004 A 
ATOM      5  C5  I4B d   1       0.276  -0.843  -2.146  0.00  0.00     0.002 A 
ATOM      6  C6  I4B d   1      -0.095  -1.322  -0.881  0.00  0.00     0.003 A 
ENDROOT
BRANCH   1   7
ATOM      7  C1' I4B d   1      -0.753  -0.901   1.504  0.00  0.00     0.060 C 
BRANCH   7   8
ATOM      8  C2' I4B d   1      -1.131  -2.365   1.412  0.00  0.00    -0.013 C 
ATOM      9  C4' I4B d   1      -2.220  -2.585   0.396  0.00  0.00     0.013 C 
ATOM     10  C3' I4B d   1       0.103  -3.141   1.058  0.00  0.00     0.013 C 
ENDBRANCH   7   8
ENDBRANCH   1   7
TORSDOF 2
ENDMDL
