MODEL 1
REMARK minimizedAffinity -0.714332342
REMARK minimizedRMSD -1
REMARK  2 active torsions:
REMARK  status: ('A' for Active; 'I' for Inactive)
REMARK    1  A    between atoms: C2'_3  and  C1'_4 
REMARK    2  A    between atoms: C1'_4  and  C1_5 
ROOT
ATOM      1  C1  I4B d   1      -0.703  -0.883   0.200  0.00  0.00    -0.075 A 
ATOM      2  C2  I4B d   1      -0.470  -0.770  -1.148  0.00  0.00     0.003 A 
ATOM      3  C3  I4B d   1      -0.007   0.452  -1.692  0.00  0.00     0.002 A 
ATOM      4  C4  I4B d   1       0.161   1.544  -0.864  0.00  0.00    -0.004 A 
ATOM      5  C5  I4B d   1      -0.053   1.421   0.505  0.00  0.00     0.002 A 
ATOM      6  C6  I4B d   1      -0.476   0.197   1.043  0.00  0.00     0.003 A 
ENDROOT
BRANCH   1   7
ATOM      7  C1' I4B d   1      -1.223  -2.179   0.736  0.00  0.00     0.060 C 
BRANCH   7   8
ATOM      8  C2' I4B d   1      -1.313  -3.158  -0.416  0.00  0.00    -0.013 C 
ATOM      9  C4' I4B d   1      -0.446  -4.365  -0.176  0.00  0.00     0.013 C 
ATOM     10  C3' I4B d   1      -2.752  -3.549  -0.579  0.00  0.00     0.013 C 
ENDBRANCH   7   8
ENDBRANCH   1   7
TORSDOF 2
ENDMDL
