MODEL 1
REMARK minimizedAffinity -4.57625532
REMARK minimizedRMSD -1
REMARK  2 active torsions:
REMARK  status: ('A' for Active; 'I' for Inactive)
REMARK    1  A    between atoms: C2'_3  and  C1'_4 
REMARK    2  A    between atoms: C1'_4  and  C1_5 
ROOT
ATOM      1  C1  I4B d   1      -0.401  -0.412  -0.406  0.00  0.00    -0.075 A 
ATOM      2  C2  I4B d   1      -0.085  -0.963  -1.622  0.00  0.00     0.003 A 
ATOM      3  C3  I4B d   1      -0.315  -2.339  -1.863  0.00  0.00     0.002 A 
ATOM      4  C4  I4B d   1      -0.814  -3.132  -0.850  0.00  0.00    -0.004 A 
ATOM      5  C5  I4B d   1      -1.155  -2.567   0.375  0.00  0.00     0.002 A 
ATOM      6  C6  I4B d   1      -0.960  -1.196   0.595  0.00  0.00     0.003 A 
ENDROOT
BRANCH   1   7
ATOM      7  C1' I4B d   1      -0.114   1.038  -0.175  0.00  0.00     0.060 C 
BRANCH   7   8
ATOM      8  C2' I4B d   1       1.271   1.149   0.429  0.00  0.00    -0.013 C 
ATOM      9  C4' I4B d   1       1.739   2.580   0.462  0.00  0.00     0.013 C 
ATOM     10  C3' I4B d   1       1.223   0.563   1.809  0.00  0.00     0.013 C 
ENDBRANCH   7   8
ENDBRANCH   1   7
TORSDOF 2
ENDMDL
