MODEL 1
REMARK minimizedAffinity -3.56131673
REMARK minimizedRMSD -1
REMARK  2 active torsions:
REMARK  status: ('A' for Active; 'I' for Inactive)
REMARK    1  A    between atoms: C2'_3  and  C1'_4 
REMARK    2  A    between atoms: C1'_4  and  C1_5 
ROOT
ATOM      1  C1  I4B d   1      -0.314   0.136  -0.557  0.00  0.00    -0.075 A 
ATOM      2  C2  I4B d   1       0.042  -0.432  -1.755  0.00  0.00     0.003 A 
ATOM      3  C3  I4B d   1      -0.175  -1.813  -1.981  0.00  0.00     0.002 A 
ATOM      4  C4  I4B d   1      -0.700  -2.593  -0.971  0.00  0.00    -0.004 A 
ATOM      5  C5  I4B d   1      -1.081  -2.011   0.234  0.00  0.00     0.002 A 
ATOM      6  C6  I4B d   1      -0.899  -0.635   0.439  0.00  0.00     0.003 A 
ENDROOT
BRANCH   1   7
ATOM      7  C1' I4B d   1      -0.040   1.591  -0.340  0.00  0.00     0.060 C 
BRANCH   7   8
ATOM      8  C2' I4B d   1       1.264   1.712   0.421  0.00  0.00    -0.013 C 
ATOM      9  C4' I4B d   1       1.481   3.119   0.912  0.00  0.00     0.013 C 
ATOM     10  C3' I4B d   1       1.227   0.739   1.562  0.00  0.00     0.013 C 
ENDBRANCH   7   8
ENDBRANCH   1   7
TORSDOF 2
ENDMDL
