MODEL 1
REMARK minimizedAffinity -1.97820687
REMARK minimizedRMSD -1
REMARK  2 active torsions:
REMARK  status: ('A' for Active; 'I' for Inactive)
REMARK    1  A    between atoms: C2'_3  and  C1'_4 
REMARK    2  A    between atoms: C1'_4  and  C1_5 
ROOT
ATOM      1  C1  I4B d   1      -0.297   1.143   0.359  0.00  0.00    -0.075 A 
ATOM      2  C2  I4B d   1       0.732   0.248   0.208  0.00  0.00     0.003 A 
ATOM      3  C3  I4B d   1       0.582  -1.092   0.641  0.00  0.00     0.002 A 
ATOM      4  C4  I4B d   1      -0.589  -1.478   1.261  0.00  0.00    -0.004 A 
ATOM      5  C5  I4B d   1      -1.640  -0.575   1.394  0.00  0.00     0.002 A 
ATOM      6  C6  I4B d   1      -1.498   0.740   0.929  0.00  0.00     0.003 A 
ENDROOT
BRANCH   1   7
ATOM      7  C1' I4B d   1      -0.092   2.558  -0.079  0.00  0.00     0.060 C 
BRANCH   7   8
ATOM      8  C2' I4B d   1       0.486   3.330   1.090  0.00  0.00    -0.013 C 
ATOM      9  C4' I4B d   1       1.803   3.963   0.727  0.00  0.00     0.013 C 
ATOM     10  C3' I4B d   1      -0.517   4.365   1.503  0.00  0.00     0.013 C 
ENDBRANCH   7   8
ENDBRANCH   1   7
TORSDOF 2
ENDMDL
