MODEL 1
REMARK minimizedAffinity -2.31278133
REMARK minimizedRMSD -1
REMARK  2 active torsions:
REMARK  status: ('A' for Active; 'I' for Inactive)
REMARK    1  A    between atoms: C2'_3  and  C1'_4 
REMARK    2  A    between atoms: C1'_4  and  C1_5 
ROOT
ATOM      1  C1  I4B d   1       0.299  -0.711  -0.180  0.00  0.00    -0.075 A 
ATOM      2  C2  I4B d   1       0.369  -1.579  -1.242  0.00  0.00     0.003 A 
ATOM      3  C3  I4B d   1       0.209  -1.100  -2.565  0.00  0.00     0.002 A 
ATOM      4  C4  I4B d   1      -0.067   0.235  -2.776  0.00  0.00    -0.004 A 
ATOM      5  C5  I4B d   1      -0.115   1.117  -1.700  0.00  0.00     0.002 A 
ATOM      6  C6  I4B d   1       0.081   0.644  -0.395  0.00  0.00     0.003 A 
ENDROOT
BRANCH   1   7
ATOM      7  C1' I4B d   1       0.439  -1.256   1.206  0.00  0.00     0.060 C 
BRANCH   7   8
ATOM      8  C2' I4B d   1      -0.951  -1.515   1.749  0.00  0.00    -0.013 C 
ATOM      9  C4' I4B d   1      -1.772  -0.253   1.771  0.00  0.00     0.013 C 
ATOM     10  C3' I4B d   1      -1.595  -2.564   0.891  0.00  0.00     0.013 C 
ENDBRANCH   7   8
ENDBRANCH   1   7
TORSDOF 2
ENDMDL
