MODEL 1
REMARK minimizedAffinity -2.35636306
REMARK minimizedRMSD -1
REMARK  2 active torsions:
REMARK  status: ('A' for Active; 'I' for Inactive)
REMARK    1  A    between atoms: C2'_3  and  C1'_4 
REMARK    2  A    between atoms: C1'_4  and  C1_5 
ROOT
ATOM      1  C1  I4B d   1      -0.280  -1.195   0.682  0.00  0.00    -0.075 A 
ATOM      2  C2  I4B d   1       0.515  -0.914  -0.401  0.00  0.00     0.003 A 
ATOM      3  C3  I4B d   1       0.721   0.428  -0.805  0.00  0.00     0.002 A 
ATOM      4  C4  I4B d   1       0.077   1.446  -0.133  0.00  0.00    -0.004 A 
ATOM      5  C5  I4B d   1      -0.710   1.161   0.979  0.00  0.00     0.002 A 
ATOM      6  C6  I4B d   1      -0.880  -0.166   1.397  0.00  0.00     0.003 A 
ENDROOT
BRANCH   1   7
ATOM      7  C1' I4B d   1      -0.502  -2.625   1.061  0.00  0.00     0.060 C 
BRANCH   7   8
ATOM      8  C2' I4B d   1      -1.200  -3.311  -0.096  0.00  0.00    -0.013 C 
ATOM      9  C4' I4B d   1      -0.571  -4.646  -0.396  0.00  0.00     0.013 C 
ATOM     10  C3' I4B d   1      -2.648  -3.463   0.261  0.00  0.00     0.013 C 
ENDBRANCH   7   8
ENDBRANCH   1   7
TORSDOF 2
ENDMDL
