MODEL 1
REMARK minimizedAffinity -2.86473179
REMARK minimizedRMSD -1
REMARK  2 active torsions:
REMARK  status: ('A' for Active; 'I' for Inactive)
REMARK    1  A    between atoms: C2'_3  and  C1'_4 
REMARK    2  A    between atoms: C1'_4  and  C1_5 
ROOT
ATOM      1  C1  I4B d   1       0.389   0.913  -0.276  0.00  0.00    -0.075 A 
ATOM      2  C2  I4B d   1       0.238   0.735   1.076  0.00  0.00     0.003 A 
ATOM      3  C3  I4B d   1      -0.197  -0.512   1.587  0.00  0.00     0.002 A 
ATOM      4  C4  I4B d   1      -0.517  -1.530   0.712  0.00  0.00    -0.004 A 
ATOM      5  C5  I4B d   1      -0.342  -1.355  -0.657  0.00  0.00     0.002 A 
ATOM      6  C6  I4B d   1       0.126  -0.130  -1.155  0.00  0.00     0.003 A 
ENDROOT
BRANCH   1   7
ATOM      7  C1' I4B d   1       0.818   2.253  -0.783  0.00  0.00     0.060 C 
BRANCH   7   8
ATOM      8  C2' I4B d   1       1.263   3.082   0.405  0.00  0.00    -0.013 C 
ATOM      9  C4' I4B d   1       2.658   3.613   0.208  0.00  0.00     0.013 C 
ATOM     10  C3' I4B d   1       0.278   4.198   0.585  0.00  0.00     0.013 C 
ENDBRANCH   7   8
ENDBRANCH   1   7
TORSDOF 2
ENDMDL
