MODEL 1
REMARK minimizedAffinity -4.02881956
REMARK minimizedRMSD -1
REMARK  2 active torsions:
REMARK  status: ('A' for Active; 'I' for Inactive)
REMARK    1  A    between atoms: C2'_3  and  C1'_4 
REMARK    2  A    between atoms: C1'_4  and  C1_5 
ROOT
ATOM      1  C1  I4B d   1       0.533   1.450   0.038  0.00  0.00    -0.075 A 
ATOM      2  C2  I4B d   1       1.825   1.688  -0.359  0.00  0.00     0.003 A 
ATOM      3  C3  I4B d   1       2.450   2.920  -0.050  0.00  0.00     0.002 A 
ATOM      4  C4  I4B d   1       1.735   3.899   0.608  0.00  0.00    -0.004 A 
ATOM      5  C5  I4B d   1       0.432   3.647   1.030  0.00  0.00     0.002 A 
ATOM      6  C6  I4B d   1      -0.169   2.411   0.754  0.00  0.00     0.003 A 
ENDROOT
BRANCH   1   7
ATOM      7  C1' I4B d   1      -0.108   0.150  -0.333  0.00  0.00     0.060 C 
BRANCH   7   8
ATOM      8  C2' I4B d   1      -0.653  -0.480   0.932  0.00  0.00    -0.013 C 
ATOM      9  C4' I4B d   1      -1.254  -1.832   0.652  0.00  0.00     0.013 C 
ATOM     10  C3' I4B d   1       0.470  -0.580   1.921  0.00  0.00     0.013 C 
ENDBRANCH   7   8
ENDBRANCH   1   7
TORSDOF 2
ENDMDL
