MODEL 1
REMARK minimizedAffinity -2.61656857
REMARK minimizedRMSD -1
REMARK  2 active torsions:
REMARK  status: ('A' for Active; 'I' for Inactive)
REMARK    1  A    between atoms: C2'_3  and  C1'_4 
REMARK    2  A    between atoms: C1'_4  and  C1_5 
ROOT
ATOM      1  C1  I4B d   1      -0.318   0.523   0.088  0.00  0.00    -0.075 A 
ATOM      2  C2  I4B d   1      -0.166  -0.637  -0.630  0.00  0.00     0.003 A 
ATOM      3  C3  I4B d   1      -0.661  -1.862  -0.120  0.00  0.00     0.002 A 
ATOM      4  C4  I4B d   1      -1.252  -1.889   1.127  0.00  0.00    -0.004 A 
ATOM      5  C5  I4B d   1      -1.426  -0.708   1.844  0.00  0.00     0.002 A 
ATOM      6  C6  I4B d   1      -0.967   0.507   1.316  0.00  0.00     0.003 A 
ENDROOT
BRANCH   1   7
ATOM      7  C1' I4B d   1       0.247   1.792  -0.465  0.00  0.00     0.060 C 
BRANCH   7   8
ATOM      8  C2' I4B d   1       0.947   2.523   0.662  0.00  0.00    -0.013 C 
ATOM      9  C4' I4B d   1       2.414   2.699   0.370  0.00  0.00     0.013 C 
ATOM     10  C3' I4B d   1       0.269   3.847   0.848  0.00  0.00     0.013 C 
ENDBRANCH   7   8
ENDBRANCH   1   7
TORSDOF 2
ENDMDL
