MODEL 1
REMARK minimizedAffinity -2.48086071
REMARK minimizedRMSD -1
REMARK  2 active torsions:
REMARK  status: ('A' for Active; 'I' for Inactive)
REMARK    1  A    between atoms: C2'_3  and  C1'_4 
REMARK    2  A    between atoms: C1'_4  and  C1_5 
ROOT
ATOM      1  C1  I4B d   1       0.658   2.210   0.259  0.00  0.00    -0.075 A 
ATOM      2  C2  I4B d   1       1.872   1.677   0.613  0.00  0.00     0.003 A 
ATOM      3  C3  I4B d   1       2.894   2.513   1.127  0.00  0.00     0.002 A 
ATOM      4  C4  I4B d   1       2.677   3.872   1.222  0.00  0.00    -0.004 A 
ATOM      5  C5  I4B d   1       1.437   4.407   0.883  0.00  0.00     0.002 A 
ATOM      6  C6  I4B d   1       0.417   3.569   0.410  0.00  0.00     0.003 A 
ENDROOT
BRANCH   1   7
ATOM      7  C1' I4B d   1      -0.387   1.304  -0.312  0.00  0.00     0.060 C 
BRANCH   7   8
ATOM      8  C2' I4B d   1      -0.101  -0.103   0.173  0.00  0.00    -0.013 C 
ATOM      9  C4' I4B d   1      -1.119  -0.547   1.190  0.00  0.00     0.013 C 
ATOM     10  C3' I4B d   1      -0.095  -1.011  -1.020  0.00  0.00     0.013 C 
ENDBRANCH   7   8
ENDBRANCH   1   7
TORSDOF 2
ENDMDL
