MODEL 1
REMARK minimizedAffinity 4.40830326
REMARK minimizedRMSD -1
REMARK  2 active torsions:
REMARK  status: ('A' for Active; 'I' for Inactive)
REMARK    1  A    between atoms: C2'_3  and  C1'_4 
REMARK    2  A    between atoms: C1'_4  and  C1_5 
ROOT
ATOM      1  C1  I4B d   1       4.492   1.942  -1.364  0.00  0.00    -0.075 A 
ATOM      2  C2  I4B d   1       4.127   0.876  -2.147  0.00  0.00     0.003 A 
ATOM      3  C3  I4B d   1       3.128  -0.025  -1.703  0.00  0.00     0.002 A 
ATOM      4  C4  I4B d   1       2.561   0.149  -0.457  0.00  0.00    -0.004 A 
ATOM      5  C5  I4B d   1       2.917   1.243   0.325  0.00  0.00     0.002 A 
ATOM      6  C6  I4B d   1       3.879   2.153  -0.136  0.00  0.00     0.003 A 
ENDROOT
BRANCH   1   7
ATOM      7  C1' I4B d   1       5.573   2.855  -1.849  0.00  0.00     0.060 C 
BRANCH   7   8
ATOM      8  C2' I4B d   1       5.290   4.242  -1.309  0.00  0.00    -0.013 C 
ATOM      9  C4' I4B d   1       5.997   4.472   0.001  0.00  0.00     0.013 C 
ATOM     10  C3' I4B d   1       5.725   5.239  -2.341  0.00  0.00     0.013 C 
ENDBRANCH   7   8
ENDBRANCH   1   7
TORSDOF 2
ENDMDL
