MODEL 1
REMARK minimizedAffinity 6.61020851
REMARK minimizedRMSD -1
REMARK  2 active torsions:
REMARK  status: ('A' for Active; 'I' for Inactive)
REMARK    1  A    between atoms: C2'_3  and  C1'_4 
REMARK    2  A    between atoms: C1'_4  and  C1_5 
ROOT
ATOM      1  C1  I4B d   1      -5.131   4.061   1.866  0.00  0.00    -0.075 A 
ATOM      2  C2  I4B d   1      -5.168   3.345   3.037  0.00  0.00     0.003 A 
ATOM      3  C3  I4B d   1      -5.632   3.952   4.229  0.00  0.00     0.002 A 
ATOM      4  C4  I4B d   1      -6.000   5.282   4.216  0.00  0.00    -0.004 A 
ATOM      5  C5  I4B d   1      -5.983   6.000   3.024  0.00  0.00     0.002 A 
ATOM      6  C6  I4B d   1      -5.557   5.383   1.838  0.00  0.00     0.003 A 
ENDROOT
BRANCH   1   7
ATOM      7  C1' I4B d   1      -4.603   3.400   0.633  0.00  0.00     0.060 C 
BRANCH   7   8
ATOM      8  C2' I4B d   1      -4.492   1.914   0.911  0.00  0.00    -0.013 C 
ATOM      9  C4' I4B d   1      -5.405   1.121   0.013  0.00  0.00     0.013 C 
ATOM     10  C3' I4B d   1      -3.060   1.513   0.718  0.00  0.00     0.013 C 
ENDBRANCH   7   8
ENDBRANCH   1   7
TORSDOF 2
ENDMDL
