MODEL 1
REMARK minimizedAffinity 3.05502439
REMARK minimizedRMSD -1
REMARK  2 active torsions:
REMARK  status: ('A' for Active; 'I' for Inactive)
REMARK    1  A    between atoms: C2'_3  and  C1'_4 
REMARK    2  A    between atoms: C1'_4  and  C1_5 
ROOT
ATOM      1  C1  I4B d   1      -0.522   4.181   0.951  0.00  0.00    -0.075 A 
ATOM      2  C2  I4B d   1      -0.041   3.478  -0.125  0.00  0.00     0.003 A 
ATOM      3  C3  I4B d   1       0.902   2.439   0.067  0.00  0.00     0.002 A 
ATOM      4  C4  I4B d   1       1.371   2.173   1.337  0.00  0.00    -0.004 A 
ATOM      5  C5  I4B d   1       0.865   2.871   2.429  0.00  0.00     0.002 A 
ATOM      6  C6  I4B d   1      -0.097   3.874   2.237  0.00  0.00     0.003 A 
ENDROOT
BRANCH   1   7
ATOM      7  C1' I4B d   1      -1.492   5.294   0.710  0.00  0.00     0.060 C 
BRANCH   7   8
ATOM      8  C2' I4B d   1      -2.853   4.841   1.199  0.00  0.00    -0.013 C 
ATOM      9  C4' I4B d   1      -3.316   5.672   2.367  0.00  0.00     0.013 C 
ATOM     10  C3' I4B d   1      -3.813   4.937   0.051  0.00  0.00     0.013 C 
ENDBRANCH   7   8
ENDBRANCH   1   7
TORSDOF 2
ENDMDL
