MODEL 1
REMARK minimizedAffinity 9.87975216
REMARK minimizedRMSD -1
REMARK  2 active torsions:
REMARK  status: ('A' for Active; 'I' for Inactive)
REMARK    1  A    between atoms: C2'_3  and  C1'_4 
REMARK    2  A    between atoms: C1'_4  and  C1_5 
ROOT
ATOM      1  C1  I4B d   1       4.282   2.937   2.563  0.00  0.00    -0.075 A 
ATOM      2  C2  I4B d   1       3.116   2.265   2.293  0.00  0.00     0.003 A 
ATOM      3  C3  I4B d   1       2.134   2.107   3.301  0.00  0.00     0.002 A 
ATOM      4  C4  I4B d   1       2.380   2.589   4.570  0.00  0.00    -0.004 A 
ATOM      5  C5  I4B d   1       3.553   3.290   4.836  0.00  0.00     0.002 A 
ATOM      6  C6  I4B d   1       4.505   3.476   3.823  0.00  0.00     0.003 A 
ENDROOT
BRANCH   1   7
ATOM      7  C1' I4B d   1       5.311   3.057   1.484  0.00  0.00     0.060 C 
BRANCH   7   8
ATOM      8  C2' I4B d   1       4.632   3.615   0.251  0.00  0.00    -0.013 C 
ATOM      9  C4' I4B d   1       5.605   4.379  -0.609  0.00  0.00     0.013 C 
ATOM     10  C3' I4B d   1       4.027   2.469  -0.504  0.00  0.00     0.013 C 
ENDBRANCH   7   8
ENDBRANCH   1   7
TORSDOF 2
ENDMDL
