MODEL 1
REMARK minimizedAffinity 12.0631237
REMARK minimizedRMSD -1
REMARK  2 active torsions:
REMARK  status: ('A' for Active; 'I' for Inactive)
REMARK    1  A    between atoms: C2'_3  and  C1'_4 
REMARK    2  A    between atoms: C1'_4  and  C1_5 
ROOT
ATOM      1  C1  I4B d   1       3.777   1.128  -0.339  0.00  0.00    -0.075 A 
ATOM      2  C2  I4B d   1       3.358  -0.179  -0.327  0.00  0.00     0.003 A 
ATOM      3  C3  I4B d   1       2.027  -0.498   0.035  0.00  0.00     0.002 A 
ATOM      4  C4  I4B d   1       1.168   0.510   0.423  0.00  0.00    -0.004 A 
ATOM      5  C5  I4B d   1       1.587   1.837   0.387  0.00  0.00     0.002 A 
ATOM      6  C6  I4B d   1       2.896   2.150  -0.008  0.00  0.00     0.003 A 
ENDROOT
BRANCH   1   7
ATOM      7  C1' I4B d   1       5.199   1.426  -0.694  0.00  0.00     0.060 C 
BRANCH   7   8
ATOM      8  C2' I4B d   1       5.976   1.598   0.596  0.00  0.00    -0.013 C 
ATOM      9  C4' I4B d   1       5.367   2.670   1.460  0.00  0.00     0.013 C 
ATOM     10  C3' I4B d   1       5.995   0.276   1.304  0.00  0.00     0.013 C 
ENDBRANCH   7   8
ENDBRANCH   1   7
TORSDOF 2
ENDMDL
