MODEL 1
REMARK minimizedAffinity 15.1066713
REMARK minimizedRMSD -1
REMARK  2 active torsions:
REMARK  status: ('A' for Active; 'I' for Inactive)
REMARK    1  A    between atoms: C2'_3  and  C1'_4 
REMARK    2  A    between atoms: C1'_4  and  C1_5 
ROOT
ATOM      1  C1  I4B d   1       5.007   2.257  -0.033  0.00  0.00    -0.075 A 
ATOM      2  C2  I4B d   1       5.030   2.974  -1.203  0.00  0.00     0.003 A 
ATOM      3  C3  I4B d   1       5.557   4.288  -1.223  0.00  0.00     0.002 A 
ATOM      4  C4  I4B d   1       6.000   4.861  -0.048  0.00  0.00    -0.004 A 
ATOM      5  C5  I4B d   1       5.997   4.124   1.132  0.00  0.00     0.002 A 
ATOM      6  C6  I4B d   1       5.509   2.809   1.138  0.00  0.00     0.003 A 
ENDROOT
BRANCH   1   7
ATOM      7  C1' I4B d   1       4.414   0.884  -0.041  0.00  0.00     0.060 C 
BRANCH   7   8
ATOM      8  C2' I4B d   1       2.945   1.012  -0.393  0.00  0.00    -0.013 C 
ATOM      9  C4' I4B d   1       2.270  -0.334  -0.411  0.00  0.00     0.013 C 
ATOM     10  C3' I4B d   1       2.307   1.924   0.612  0.00  0.00     0.013 C 
ENDBRANCH   7   8
ENDBRANCH   1   7
TORSDOF 2
ENDMDL
