MODEL 1
REMARK minimizedAffinity 8.67404175
REMARK minimizedRMSD -1
REMARK  2 active torsions:
REMARK  status: ('A' for Active; 'I' for Inactive)
REMARK    1  A    between atoms: C2'_3  and  C1'_4 
REMARK    2  A    between atoms: C1'_4  and  C1_5 
ROOT
ATOM      1  C1  I4B d   1      -1.575  -2.729   4.162  0.00  0.00    -0.075 A 
ATOM      2  C2  I4B d   1      -0.590  -3.250   4.964  0.00  0.00     0.003 A 
ATOM      3  C3  I4B d   1       0.772  -3.097   4.610  0.00  0.00     0.002 A 
ATOM      4  C4  I4B d   1       1.100  -2.464   3.428  0.00  0.00    -0.004 A 
ATOM      5  C5  I4B d   1       0.102  -1.916   2.629  0.00  0.00     0.002 A 
ATOM      6  C6  I4B d   1      -1.244  -2.038   3.004  0.00  0.00     0.003 A 
ENDROOT
BRANCH   1   7
ATOM      7  C1' I4B d   1      -3.005  -2.937   4.549  0.00  0.00     0.060 C 
BRANCH   7   8
ATOM      8  C2' I4B d   1      -3.471  -1.705   5.297  0.00  0.00    -0.013 C 
ATOM      9  C4' I4B d   1      -3.647  -0.535   4.365  0.00  0.00     0.013 C 
ATOM     10  C3' I4B d   1      -4.756  -2.043   5.991  0.00  0.00     0.013 C 
ENDBRANCH   7   8
ENDBRANCH   1   7
TORSDOF 2
ENDMDL
