MODEL 1
REMARK minimizedAffinity 3.17925167
REMARK minimizedRMSD -1
REMARK  2 active torsions:
REMARK  status: ('A' for Active; 'I' for Inactive)
REMARK    1  A    between atoms: C2'_3  and  C1'_4 
REMARK    2  A    between atoms: C1'_4  and  C1_5 
ROOT
ATOM      1  C1  I4B d   1      -1.797  -5.094  -4.941  0.00  0.00    -0.075 A 
ATOM      2  C2  I4B d   1      -2.042  -3.744  -4.998  0.00  0.00     0.003 A 
ATOM      3  C3  I4B d   1      -3.271  -3.264  -5.511  0.00  0.00     0.002 A 
ATOM      4  C4  I4B d   1      -4.200  -4.160  -6.000  0.00  0.00    -0.004 A 
ATOM      5  C5  I4B d   1      -3.960  -5.529  -5.920  0.00  0.00     0.002 A 
ATOM      6  C6  I4B d   1      -2.756  -6.000  -5.376  0.00  0.00     0.003 A 
ENDROOT
BRANCH   1   7
ATOM      7  C1' I4B d   1      -0.475  -5.565  -4.424  0.00  0.00     0.060 C 
BRANCH   7   8
ATOM      8  C2' I4B d   1      -0.395  -5.208  -2.954  0.00  0.00    -0.013 C 
ATOM      9  C4' I4B d   1      -1.587  -5.734  -2.199  0.00  0.00     0.013 C 
ATOM     10  C3' I4B d   1       0.883  -5.773  -2.409  0.00  0.00     0.013 C 
ENDBRANCH   7   8
ENDBRANCH   1   7
TORSDOF 2
ENDMDL
