MODEL 1
REMARK minimizedAffinity 1.82695091
REMARK minimizedRMSD -1
REMARK  2 active torsions:
REMARK  status: ('A' for Active; 'I' for Inactive)
REMARK    1  A    between atoms: C2'_3  and  C1'_4 
REMARK    2  A    between atoms: C1'_4  and  C1_5 
ROOT
ATOM      1  C1  I4B d   1      -0.363  -1.979   2.184  0.00  0.00    -0.075 A 
ATOM      2  C2  I4B d   1       0.827  -2.039   1.502  0.00  0.00     0.003 A 
ATOM      3  C3  I4B d   1       1.093  -1.127   0.452  0.00  0.00     0.002 A 
ATOM      4  C4  I4B d   1       0.127  -0.212   0.086  0.00  0.00    -0.004 A 
ATOM      5  C5  I4B d   1      -1.069  -0.138   0.794  0.00  0.00     0.002 A 
ATOM      6  C6  I4B d   1      -1.311  -1.019   1.858  0.00  0.00     0.003 A 
ENDROOT
BRANCH   1   7
ATOM      7  C1' I4B d   1      -0.624  -2.978   3.266  0.00  0.00     0.060 C 
BRANCH   7   8
ATOM      8  C2' I4B d   1       0.600  -3.032   4.157  0.00  0.00    -0.013 C 
ATOM      9  C4' I4B d   1       0.385  -3.960   5.324  0.00  0.00     0.013 C 
ATOM     10  C3' I4B d   1       1.763  -3.476   3.321  0.00  0.00     0.013 C 
ENDBRANCH   7   8
ENDBRANCH   1   7
TORSDOF 2
ENDMDL
