MODEL 1
REMARK minimizedAffinity 16.1269283
REMARK minimizedRMSD -1
REMARK  2 active torsions:
REMARK  status: ('A' for Active; 'I' for Inactive)
REMARK    1  A    between atoms: C2'_3  and  C1'_4 
REMARK    2  A    between atoms: C1'_4  and  C1_5 
ROOT
ATOM      1  C1  I4B d   1      -3.551  -1.147  -0.986  0.00  0.00    -0.075 A 
ATOM      2  C2  I4B d   1      -3.569  -0.241  -2.017  0.00  0.00     0.003 A 
ATOM      3  C3  I4B d   1      -4.795   0.314  -2.457  0.00  0.00     0.002 A 
ATOM      4  C4  I4B d   1      -5.976  -0.100  -1.875  0.00  0.00    -0.004 A 
ATOM      5  C5  I4B d   1      -5.954  -1.001  -0.815  0.00  0.00     0.002 A 
ATOM      6  C6  I4B d   1      -4.734  -1.519  -0.359  0.00  0.00     0.003 A 
ENDROOT
BRANCH   1   7
ATOM      7  C1' I4B d   1      -2.242  -1.739  -0.568  0.00  0.00     0.060 C 
BRANCH   7   8
ATOM      8  C2' I4B d   1      -1.407  -0.635   0.049  0.00  0.00    -0.013 C 
ATOM      9  C4' I4B d   1      -1.377  -0.749   1.550  0.00  0.00     0.013 C 
ATOM     10  C3' I4B d   1      -0.026  -0.722  -0.528  0.00  0.00     0.013 C 
ENDBRANCH   7   8
ENDBRANCH   1   7
TORSDOF 2
ENDMDL
