MODEL 1
REMARK minimizedAffinity 2.98028922
REMARK minimizedRMSD -1
REMARK  2 active torsions:
REMARK  status: ('A' for Active; 'I' for Inactive)
REMARK    1  A    between atoms: C2'_3  and  C1'_4 
REMARK    2  A    between atoms: C1'_4  and  C1_5 
ROOT
ATOM      1  C1  I4B d   1      -1.767  -5.848  -4.905  0.00  0.00    -0.075 A 
ATOM      2  C2  I4B d   1      -0.446  -6.000  -5.245  0.00  0.00     0.003 A 
ATOM      3  C3  I4B d   1       0.557  -5.959  -4.246  0.00  0.00     0.002 A 
ATOM      4  C4  I4B d   1       0.201  -5.716  -2.936  0.00  0.00    -0.004 A 
ATOM      5  C5  I4B d   1      -1.141  -5.586  -2.589  0.00  0.00     0.002 A 
ATOM      6  C6  I4B d   1      -2.132  -5.664  -3.578  0.00  0.00     0.003 A 
ENDROOT
BRANCH   1   7
ATOM      7  C1' I4B d   1      -2.797  -5.864  -5.990  0.00  0.00     0.060 C 
BRANCH   7   8
ATOM      8  C2' I4B d   1      -3.992  -5.066  -5.509  0.00  0.00    -0.013 C 
ATOM      9  C4' I4B d   1      -3.931  -3.643  -6.000  0.00  0.00     0.013 C 
ATOM     10  C3' I4B d   1      -5.233  -5.754  -5.995  0.00  0.00     0.013 C 
ENDBRANCH   7   8
ENDBRANCH   1   7
TORSDOF 2
ENDMDL
