MODEL 1
REMARK minimizedAffinity 1.64584947
REMARK minimizedRMSD -1
REMARK  2 active torsions:
REMARK  status: ('A' for Active; 'I' for Inactive)
REMARK    1  A    between atoms: C2'_3  and  C1'_4 
REMARK    2  A    between atoms: C1'_4  and  C1_5 
ROOT
ATOM      1  C1  I4B d   1      -0.924   1.922  -0.805  0.00  0.00    -0.075 A 
ATOM      2  C2  I4B d   1       0.150   1.673   0.012  0.00  0.00     0.003 A 
ATOM      3  C3  I4B d   1       0.276   0.422   0.663  0.00  0.00     0.002 A 
ATOM      4  C4  I4B d   1      -0.714  -0.527   0.508  0.00  0.00    -0.004 A 
ATOM      5  C5  I4B d   1      -1.790  -0.282  -0.339  0.00  0.00     0.002 A 
ATOM      6  C6  I4B d   1      -1.890   0.945  -1.010  0.00  0.00     0.003 A 
ENDROOT
BRANCH   1   7
ATOM      7  C1' I4B d   1      -1.043   3.266  -1.450  0.00  0.00     0.060 C 
BRANCH   7   8
ATOM      8  C2' I4B d   1      -2.279   3.256  -2.327  0.00  0.00    -0.013 C 
ATOM      9  C4' I4B d   1      -3.399   4.043  -1.700  0.00  0.00     0.013 C 
ATOM     10  C3' I4B d   1      -1.903   3.820  -3.664  0.00  0.00     0.013 C 
ENDBRANCH   7   8
ENDBRANCH   1   7
TORSDOF 2
ENDMDL
