MODEL 1
REMARK minimizedAffinity 2.63680267
REMARK minimizedRMSD -1
REMARK  2 active torsions:
REMARK  status: ('A' for Active; 'I' for Inactive)
REMARK    1  A    between atoms: C2'_3  and  C1'_4 
REMARK    2  A    between atoms: C1'_4  and  C1_5 
ROOT
ATOM      1  C1  I4B d   1      -2.285  -5.000  -5.438  0.00  0.00    -0.075 A 
ATOM      2  C2  I4B d   1      -2.663  -3.680  -5.451  0.00  0.00     0.003 A 
ATOM      3  C3  I4B d   1      -4.009  -3.327  -5.711  0.00  0.00     0.002 A 
ATOM      4  C4  I4B d   1      -4.927  -4.316  -6.000  0.00  0.00    -0.004 A 
ATOM      5  C5  I4B d   1      -4.547  -5.654  -5.964  0.00  0.00     0.002 A 
ATOM      6  C6  I4B d   1      -3.220  -5.999  -5.669  0.00  0.00     0.003 A 
ENDROOT
BRANCH   1   7
ATOM      7  C1' I4B d   1      -0.848  -5.335  -5.193  0.00  0.00     0.060 C 
BRANCH   7   8
ATOM      8  C2' I4B d   1      -0.717  -5.812  -3.761  0.00  0.00    -0.013 C 
ATOM      9  C4' I4B d   1       0.727  -5.995  -3.377  0.00  0.00     0.013 C 
ATOM     10  C3' I4B d   1      -1.389  -4.805  -2.875  0.00  0.00     0.013 C 
ENDBRANCH   7   8
ENDBRANCH   1   7
TORSDOF 2
ENDMDL
