MODEL 1
REMARK minimizedAffinity 5.98037148
REMARK minimizedRMSD -1
REMARK  2 active torsions:
REMARK  status: ('A' for Active; 'I' for Inactive)
REMARK    1  A    between atoms: C2'_3  and  C1'_4 
REMARK    2  A    between atoms: C1'_4  and  C1_5 
ROOT
ATOM      1  C1  I4B d   1      -0.486  -1.950   2.452  0.00  0.00    -0.075 A 
ATOM      2  C2  I4B d   1       0.084  -3.060   1.880  0.00  0.00     0.003 A 
ATOM      3  C3  I4B d   1       0.489  -3.034   0.523  0.00  0.00     0.002 A 
ATOM      4  C4  I4B d   1       0.260  -1.902  -0.233  0.00  0.00    -0.004 A 
ATOM      5  C5  I4B d   1      -0.297  -0.770   0.355  0.00  0.00     0.002 A 
ATOM      6  C6  I4B d   1      -0.661  -0.790   1.709  0.00  0.00     0.003 A 
ENDROOT
BRANCH   1   7
ATOM      7  C1' I4B d   1      -0.931  -2.024   3.878  0.00  0.00     0.060 C 
BRANCH   7   8
ATOM      8  C2' I4B d   1      -2.446  -1.975   3.897  0.00  0.00    -0.013 C 
ATOM      9  C4' I4B d   1      -3.037  -3.351   3.731  0.00  0.00     0.013 C 
ATOM     10  C3' I4B d   1      -2.873  -1.355   5.193  0.00  0.00     0.013 C 
ENDBRANCH   7   8
ENDBRANCH   1   7
TORSDOF 2
ENDMDL
