MODEL 1
REMARK minimizedAffinity 9.00871563
REMARK minimizedRMSD -1
REMARK  2 active torsions:
REMARK  status: ('A' for Active; 'I' for Inactive)
REMARK    1  A    between atoms: C2'_3  and  C1'_4 
REMARK    2  A    between atoms: C1'_4  and  C1_5 
ROOT
ATOM      1  C1  I4B d   1      -0.077  -2.321   2.470  0.00  0.00    -0.075 A 
ATOM      2  C2  I4B d   1      -1.041  -2.338   3.447  0.00  0.00     0.003 A 
ATOM      3  C3  I4B d   1      -0.734  -2.819   4.743  0.00  0.00     0.002 A 
ATOM      4  C4  I4B d   1       0.527  -3.318   5.001  0.00  0.00    -0.004 A 
ATOM      5  C5  I4B d   1       1.509  -3.279   4.016  0.00  0.00     0.002 A 
ATOM      6  C6  I4B d   1       1.209  -2.766   2.746  0.00  0.00     0.003 A 
ENDROOT
BRANCH   1   7
ATOM      7  C1' I4B d   1      -0.445  -1.836   1.103  0.00  0.00     0.060 C 
BRANCH   7   8
ATOM      8  C2' I4B d   1       0.155  -0.457   0.920  0.00  0.00    -0.013 C 
ATOM      9  C4' I4B d   1       1.485  -0.530   0.217  0.00  0.00     0.013 C 
ATOM     10  C3' I4B d   1      -0.823   0.374   0.144  0.00  0.00     0.013 C 
ENDBRANCH   7   8
ENDBRANCH   1   7
TORSDOF 2
ENDMDL
