MODEL 1
REMARK minimizedAffinity 1.91890013
REMARK minimizedRMSD -1
REMARK  2 active torsions:
REMARK  status: ('A' for Active; 'I' for Inactive)
REMARK    1  A    between atoms: C2'_3  and  C1'_4 
REMARK    2  A    between atoms: C1'_4  and  C1_5 
ROOT
ATOM      1  C1  I4B d   1       1.197  -0.091   0.301  0.00  0.00    -0.075 A 
ATOM      2  C2  I4B d   1       1.800   1.043   0.785  0.00  0.00     0.003 A 
ATOM      3  C3  I4B d   1       3.144   1.003   1.227  0.00  0.00     0.002 A 
ATOM      4  C4  I4B d   1       3.828  -0.196   1.215  0.00  0.00    -0.004 A 
ATOM      5  C5  I4B d   1       3.223  -1.340   0.702  0.00  0.00     0.002 A 
ATOM      6  C6  I4B d   1       1.903  -1.285   0.231  0.00  0.00     0.003 A 
ENDROOT
BRANCH   1   7
ATOM      7  C1' I4B d   1      -0.235  -0.020  -0.127  0.00  0.00     0.060 C 
BRANCH   7   8
ATOM      8  C2' I4B d   1      -0.865  -1.374   0.126  0.00  0.00    -0.013 C 
ATOM      9  C4' I4B d   1      -1.142  -1.581   1.592  0.00  0.00     0.013 C 
ATOM     10  C3' I4B d   1      -2.127  -1.455  -0.680  0.00  0.00     0.013 C 
ENDBRANCH   7   8
ENDBRANCH   1   7
TORSDOF 2
ENDMDL
