MODEL 1
REMARK minimizedAffinity 3.24534249
REMARK minimizedRMSD -1
REMARK  2 active torsions:
REMARK  status: ('A' for Active; 'I' for Inactive)
REMARK    1  A    between atoms: C2'_3  and  C1'_4 
REMARK    2  A    between atoms: C1'_4  and  C1_5 
ROOT
ATOM      1  C1  I4B d   1      -5.875  -0.047  -3.869  0.00  0.00    -0.075 A 
ATOM      2  C2  I4B d   1      -6.000   0.902  -2.885  0.00  0.00     0.003 A 
ATOM      3  C3  I4B d   1      -5.918   0.529  -1.521  0.00  0.00     0.002 A 
ATOM      4  C4  I4B d   1      -5.762  -0.801  -1.188  0.00  0.00    -0.004 A 
ATOM      5  C5  I4B d   1      -5.613  -1.758  -2.188  0.00  0.00     0.002 A 
ATOM      6  C6  I4B d   1      -5.658  -1.378  -3.537  0.00  0.00     0.003 A 
ENDROOT
BRANCH   1   7
ATOM      7  C1' I4B d   1      -6.000   0.377  -5.298  0.00  0.00     0.060 C 
BRANCH   7   8
ATOM      8  C2' I4B d   1      -4.699   0.041  -6.000  0.00  0.00    -0.013 C 
ATOM      9  C4' I4B d   1      -3.531   0.723  -5.337  0.00  0.00     0.013 C 
ATOM     10  C3' I4B d   1      -4.537  -1.449  -5.985  0.00  0.00     0.013 C 
ENDBRANCH   7   8
ENDBRANCH   1   7
TORSDOF 2
ENDMDL
