MODEL 1
REMARK minimizedAffinity -0.867084205
REMARK minimizedRMSD -1
REMARK  2 active torsions:
REMARK  status: ('A' for Active; 'I' for Inactive)
REMARK    1  A    between atoms: C2'_3  and  C1'_4 
REMARK    2  A    between atoms: C1'_4  and  C1_5 
ROOT
ATOM      1  C1  I4B d   1      -3.743  -2.682  -4.574  0.00  0.00    -0.075 A 
ATOM      2  C2  I4B d   1      -4.782  -1.843  -4.891  0.00  0.00     0.003 A 
ATOM      3  C3  I4B d   1      -5.497  -1.175  -3.867  0.00  0.00     0.002 A 
ATOM      4  C4  I4B d   1      -5.173  -1.413  -2.546  0.00  0.00    -0.004 A 
ATOM      5  C5  I4B d   1      -4.105  -2.246  -2.228  0.00  0.00     0.002 A 
ATOM      6  C6  I4B d   1      -3.376  -2.875  -3.248  0.00  0.00     0.003 A 
ENDROOT
BRANCH   1   7
ATOM      7  C1' I4B d   1      -3.031  -3.396  -5.678  0.00  0.00     0.060 C 
BRANCH   7   8
ATOM      8  C2' I4B d   1      -2.679  -4.785  -5.185  0.00  0.00    -0.013 C 
ATOM      9  C4' I4B d   1      -3.375  -5.845  -5.999  0.00  0.00     0.013 C 
ATOM     10  C3' I4B d   1      -1.189  -4.939  -5.257  0.00  0.00     0.013 C 
ENDBRANCH   7   8
ENDBRANCH   1   7
TORSDOF 2
ENDMDL
