MODEL 1
REMARK minimizedAffinity 10.429409
REMARK minimizedRMSD -1
REMARK  2 active torsions:
REMARK  status: ('A' for Active; 'I' for Inactive)
REMARK    1  A    between atoms: C2'_3  and  C1'_4 
REMARK    2  A    between atoms: C1'_4  and  C1_5 
ROOT
ATOM      1  C1  I4B d   1      -2.830  -0.178  -1.059  0.00  0.00    -0.075 A 
ATOM      2  C2  I4B d   1      -1.900  -0.900  -0.354  0.00  0.00     0.003 A 
ATOM      3  C3  I4B d   1      -0.859  -0.236   0.340  0.00  0.00     0.002 A 
ATOM      4  C4  I4B d   1      -0.758   1.138   0.259  0.00  0.00    -0.004 A 
ATOM      5  C5  I4B d   1      -1.715   1.870  -0.438  0.00  0.00     0.002 A 
ATOM      6  C6  I4B d   1      -2.765   1.209  -1.091  0.00  0.00     0.003 A 
ENDROOT
BRANCH   1   7
ATOM      7  C1' I4B d   1      -3.897  -0.913  -1.807  0.00  0.00     0.060 C 
BRANCH   7   8
ATOM      8  C2' I4B d   1      -5.177  -0.109  -1.706  0.00  0.00    -0.013 C 
ATOM      9  C4' I4B d   1      -5.997  -0.228  -2.964  0.00  0.00     0.013 C 
ATOM     10  C3' I4B d   1      -5.940  -0.602  -0.513  0.00  0.00     0.013 C 
ENDBRANCH   7   8
ENDBRANCH   1   7
TORSDOF 2
ENDMDL
