MODEL 1
REMARK minimizedAffinity 17.1424255
REMARK minimizedRMSD -1
REMARK  2 active torsions:
REMARK  status: ('A' for Active; 'I' for Inactive)
REMARK    1  A    between atoms: C2'_3  and  C1'_4 
REMARK    2  A    between atoms: C1'_4  and  C1_5 
ROOT
ATOM      1  C1  I4B d   1       0.346  -2.619   2.007  0.00  0.00    -0.075 A 
ATOM      2  C2  I4B d   1      -0.680  -2.525   2.914  0.00  0.00     0.003 A 
ATOM      3  C3  I4B d   1      -0.504  -2.988   4.240  0.00  0.00     0.002 A 
ATOM      4  C4  I4B d   1       0.689  -3.580   4.601  0.00  0.00    -0.004 A 
ATOM      5  C5  I4B d   1       1.737  -3.653   3.687  0.00  0.00     0.002 A 
ATOM      6  C6  I4B d   1       1.569  -3.158   2.386  0.00  0.00     0.003 A 
ENDROOT
BRANCH   1   7
ATOM      7  C1' I4B d   1       0.115  -2.150   0.606  0.00  0.00     0.060 C 
BRANCH   7   8
ATOM      8  C2' I4B d   1      -0.352  -0.710   0.667  0.00  0.00    -0.013 C 
ATOM      9  C4' I4B d   1       0.602   0.204  -0.056  0.00  0.00     0.013 C 
ATOM     10  C3' I4B d   1      -1.725  -0.643   0.067  0.00  0.00     0.013 C 
ENDBRANCH   7   8
ENDBRANCH   1   7
TORSDOF 2
ENDMDL
