MODEL 1
REMARK minimizedAffinity -0.284258485
REMARK minimizedRMSD -1
REMARK  0 active torsions:
REMARK  status: ('A' for Active; 'I' for Inactive)
ROOT
ATOM      1  C1  DEN d   1      -5.942   3.736   3.914  0.00  0.00     0.130 A 
ATOM      2  C2  DEN d   1      -6.000   5.118   4.382  0.00  0.00    -0.031 A 
ATOM      3  C3  DEN d   1      -5.614   5.997   3.260  0.00  0.00     0.027 A 
ATOM      4  C4  DEN d   1      -4.940   5.356   0.854  0.00  0.00     0.027 A 
ATOM      5  C5  DEN d   1      -4.733   4.304  -0.011  0.00  0.00    -0.003 A 
ATOM      6  C6  DEN d   1      -4.880   2.999   0.378  0.00  0.00     0.001 A 
ATOM      7  C7  DEN d   1      -5.289   2.713   1.654  0.00  0.00     0.017 A 
ATOM      8  C8  DEN d   1      -5.492   3.767   2.534  0.00  0.00    -0.094 A 
ATOM      9  C9  DEN d   1      -5.350   5.081   2.118  0.00  0.00    -0.072 A 
ENDROOT
TORSDOF 0
ENDMDL
