MODEL 1
REMARK minimizedAffinity 1.13445473
REMARK minimizedRMSD -1
REMARK  0 active torsions:
REMARK  status: ('A' for Active; 'I' for Inactive)
ROOT
ATOM      1  C1  DEN d   1      -5.471   5.270   5.085  0.00  0.00     0.130 A 
ATOM      2  C2  DEN d   1      -4.879   4.105   5.736  0.00  0.00    -0.031 A 
ATOM      3  C3  DEN d   1      -4.544   3.118   4.690  0.00  0.00     0.027 A 
ATOM      4  C4  DEN d   1      -4.879   3.283   2.138  0.00  0.00     0.027 A 
ATOM      5  C5  DEN d   1      -5.354   4.076   1.117  0.00  0.00    -0.003 A 
ATOM      6  C6  DEN d   1      -5.928   5.298   1.348  0.00  0.00     0.001 A 
ATOM      7  C7  DEN d   1      -6.000   5.783   2.628  0.00  0.00     0.017 A 
ATOM      8  C8  DEN d   1      -5.530   4.986   3.663  0.00  0.00    -0.094 A 
ATOM      9  C9  DEN d   1      -4.942   3.758   3.407  0.00  0.00    -0.072 A 
ENDROOT
TORSDOF 0
ENDMDL
