MODEL 1
REMARK minimizedAffinity 1.26143694
REMARK minimizedRMSD -1
REMARK  0 active torsions:
REMARK  status: ('A' for Active; 'I' for Inactive)
ROOT
ATOM      1  C1  DEN d   1       0.706   0.041   0.797  0.00  0.00     0.130 A 
ATOM      2  C2  DEN d   1       0.339   0.206   2.201  0.00  0.00    -0.031 A 
ATOM      3  C3  DEN d   1      -1.104  -0.076   2.333  0.00  0.00     0.027 A 
ATOM      4  C4  DEN d   1      -2.797  -0.754   0.509  0.00  0.00     0.027 A 
ATOM      5  C5  DEN d   1      -2.957  -1.008  -0.836  0.00  0.00    -0.003 A 
ATOM      6  C6  DEN d   1      -1.924  -0.898  -1.728  0.00  0.00     0.001 A 
ATOM      7  C7  DEN d   1      -0.672  -0.568  -1.279  0.00  0.00     0.017 A 
ATOM      8  C8  DEN d   1      -0.505  -0.303   0.074  0.00  0.00    -0.094 A 
ATOM      9  C9  DEN d   1      -1.559  -0.431   0.961  0.00  0.00    -0.072 A 
ENDROOT
TORSDOF 0
ENDMDL
