MODEL 1
REMARK minimizedAffinity -2.85217953
REMARK minimizedRMSD -1
REMARK  0 active torsions:
REMARK  status: ('A' for Active; 'I' for Inactive)
ROOT
ATOM      1  C1  DEN d   1      -5.999   2.734   4.150  0.00  0.00     0.130 A 
ATOM      2  C2  DEN d   1      -5.470   3.203   5.427  0.00  0.00    -0.031 A 
ATOM      3  C3  DEN d   1      -4.870   4.536   5.212  0.00  0.00     0.027 A 
ATOM      4  C4  DEN d   1      -4.715   5.913   3.037  0.00  0.00     0.027 A 
ATOM      5  C5  DEN d   1      -5.013   5.924   1.692  0.00  0.00    -0.003 A 
ATOM      6  C6  DEN d   1      -5.625   4.868   1.070  0.00  0.00     0.001 A 
ATOM      7  C7  DEN d   1      -6.000   3.773   1.804  0.00  0.00     0.017 A 
ATOM      8  C8  DEN d   1      -5.696   3.751   3.158  0.00  0.00    -0.094 A 
ATOM      9  C9  DEN d   1      -5.088   4.834   3.771  0.00  0.00    -0.072 A 
ENDROOT
TORSDOF 0
ENDMDL
