MODEL 1
REMARK minimizedAffinity -2.78293848
REMARK minimizedRMSD -1
REMARK  0 active torsions:
REMARK  status: ('A' for Active; 'I' for Inactive)
ROOT
ATOM      1  C1  DEN d   1      -4.873   3.741   1.873  0.00  0.00     0.130 A 
ATOM      2  C2  DEN d   1      -5.337   4.907   1.126  0.00  0.00    -0.031 A 
ATOM      3  C3  DEN d   1      -5.582   5.999   2.089  0.00  0.00     0.027 A 
ATOM      4  C4  DEN d   1      -5.285   6.000   4.651  0.00  0.00     0.027 A 
ATOM      5  C5  DEN d   1      -4.924   5.237   5.740  0.00  0.00    -0.003 A 
ATOM      6  C6  DEN d   1      -4.557   3.923   5.621  0.00  0.00     0.001 A 
ATOM      7  C7  DEN d   1      -4.499   3.344   4.380  0.00  0.00     0.017 A 
ATOM      8  C8  DEN d   1      -4.868   4.105   3.279  0.00  0.00    -0.094 A 
ATOM      9  C9  DEN d   1      -5.224   5.435   3.419  0.00  0.00    -0.072 A 
ENDROOT
TORSDOF 0
ENDMDL
