MODEL 1
REMARK minimizedAffinity -1.79722476
REMARK minimizedRMSD -1
REMARK  0 active torsions:
REMARK  status: ('A' for Active; 'I' for Inactive)
ROOT
ATOM      1  C1  DEN d   1      -5.954   3.627   2.110  0.00  0.00     0.130 A 
ATOM      2  C2  DEN d   1      -5.989   4.856   1.323  0.00  0.00    -0.031 A 
ATOM      3  C3  DEN d   1      -5.999   5.998   2.260  0.00  0.00     0.027 A 
ATOM      4  C4  DEN d   1      -5.959   5.981   4.839  0.00  0.00     0.027 A 
ATOM      5  C5  DEN d   1      -5.939   5.175   5.956  0.00  0.00    -0.003 A 
ATOM      6  C6  DEN d   1      -5.956   3.808   5.871  0.00  0.00     0.001 A 
ATOM      7  C7  DEN d   1      -5.949   3.205   4.641  0.00  0.00     0.017 A 
ATOM      8  C8  DEN d   1      -5.977   4.010   3.510  0.00  0.00    -0.094 A 
ATOM      9  C9  DEN d   1      -5.947   5.390   3.617  0.00  0.00    -0.072 A 
ENDROOT
TORSDOF 0
ENDMDL
