MODEL 1
REMARK minimizedAffinity 0.652377248
REMARK minimizedRMSD -1
REMARK  0 active torsions:
REMARK  status: ('A' for Active; 'I' for Inactive)
ROOT
ATOM      1  C1  DEN d   1      -5.506   3.652   1.756  0.00  0.00     0.130 A 
ATOM      2  C2  DEN d   1      -5.251   4.890   1.024  0.00  0.00    -0.031 A 
ATOM      3  C3  DEN d   1      -5.222   5.998   1.999  0.00  0.00     0.027 A 
ATOM      4  C4  DEN d   1      -5.540   5.918   4.558  0.00  0.00     0.027 A 
ATOM      5  C5  DEN d   1      -5.793   5.094   5.632  0.00  0.00    -0.003 A 
ATOM      6  C6  DEN d   1      -6.000   3.747   5.487  0.00  0.00     0.001 A 
ATOM      7  C7  DEN d   1      -5.913   3.177   4.244  0.00  0.00     0.017 A 
ATOM      8  C8  DEN d   1      -5.666   4.003   3.155  0.00  0.00    -0.094 A 
ATOM      9  C9  DEN d   1      -5.447   5.360   3.324  0.00  0.00    -0.072 A 
ENDROOT
TORSDOF 0
ENDMDL
