MODEL 1
REMARK minimizedAffinity 2.00424933
REMARK minimizedRMSD -1
REMARK  0 active torsions:
REMARK  status: ('A' for Active; 'I' for Inactive)
ROOT
ATOM      1  C1  DEN d   1      -5.004   2.634   3.953  0.00  0.00     0.130 A 
ATOM      2  C2  DEN d   1      -4.091   3.120   4.985  0.00  0.00    -0.031 A 
ATOM      3  C3  DEN d   1      -3.747   4.520   4.668  0.00  0.00     0.027 A 
ATOM      4  C4  DEN d   1      -4.538   5.978   2.693  0.00  0.00     0.027 A 
ATOM      5  C5  DEN d   1      -5.308   6.000   1.551  0.00  0.00    -0.003 A 
ATOM      6  C6  DEN d   1      -5.999   4.900   1.116  0.00  0.00     0.001 A 
ATOM      7  C7  DEN d   1      -5.969   3.744   1.851  0.00  0.00     0.017 A 
ATOM      8  C8  DEN d   1      -5.188   3.713   2.999  0.00  0.00    -0.094 A 
ATOM      9  C9  DEN d   1      -4.507   4.839   3.429  0.00  0.00    -0.072 A 
ENDROOT
TORSDOF 0
ENDMDL
