MODEL 1
REMARK minimizedAffinity -3.69613671
REMARK minimizedRMSD -1
REMARK  0 active torsions:
REMARK  status: ('A' for Active; 'I' for Inactive)
ROOT
ATOM      1  C1  DEN d   1      -4.111   5.989   3.271  0.00  0.00     0.130 A 
ATOM      2  C2  DEN d   1      -5.063   5.943   2.165  0.00  0.00    -0.031 A 
ATOM      3  C3  DEN d   1      -5.972   4.802   2.392  0.00  0.00     0.027 A 
ATOM      4  C4  DEN d   1      -5.999   3.112   4.341  0.00  0.00     0.027 A 
ATOM      5  C5  DEN d   1      -5.378   2.739   5.511  0.00  0.00    -0.003 A 
ATOM      6  C6  DEN d   1      -4.278   3.397   5.996  0.00  0.00     0.001 A 
ATOM      7  C7  DEN d   1      -3.794   4.491   5.330  0.00  0.00     0.017 A 
ATOM      8  C8  DEN d   1      -4.411   4.869   4.144  0.00  0.00    -0.094 A 
ATOM      9  C9  DEN d   1      -5.529   4.199   3.678  0.00  0.00    -0.072 A 
ENDROOT
TORSDOF 0
ENDMDL
