MODEL 1
REMARK minimizedAffinity -3.03794718
REMARK minimizedRMSD -1
REMARK  0 active torsions:
REMARK  status: ('A' for Active; 'I' for Inactive)
ROOT
ATOM      1  C1  DEN d   1      -5.994   2.645   4.680  0.00  0.00     0.130 A 
ATOM      2  C2  DEN d   1      -5.569   3.102   6.000  0.00  0.00    -0.031 A 
ATOM      3  C3  DEN d   1      -5.067   4.484   5.865  0.00  0.00     0.027 A 
ATOM      4  C4  DEN d   1      -4.913   5.956   3.752  0.00  0.00     0.027 A 
ATOM      5  C5  DEN d   1      -5.144   5.999   2.395  0.00  0.00    -0.003 A 
ATOM      6  C6  DEN d   1      -5.638   4.924   1.704  0.00  0.00     0.001 A 
ATOM      7  C7  DEN d   1      -5.960   3.775   2.376  0.00  0.00     0.017 A 
ATOM      8  C8  DEN d   1      -5.724   3.722   3.743  0.00  0.00    -0.094 A 
ATOM      9  C9  DEN d   1      -5.235   4.823   4.426  0.00  0.00    -0.072 A 
ENDROOT
TORSDOF 0
ENDMDL
