MODEL 1
REMARK minimizedAffinity -2.48129845
REMARK minimizedRMSD -1
REMARK  0 active torsions:
REMARK  status: ('A' for Active; 'I' for Inactive)
ROOT
ATOM      1  C1  DEN d   1      -5.967   3.627   2.159  0.00  0.00     0.130 A 
ATOM      2  C2  DEN d   1      -5.946   4.851   1.363  0.00  0.00    -0.031 A 
ATOM      3  C3  DEN d   1      -5.917   5.999   2.292  0.00  0.00     0.027 A 
ATOM      4  C4  DEN d   1      -5.899   5.999   4.871  0.00  0.00     0.027 A 
ATOM      5  C5  DEN d   1      -5.920   5.202   5.993  0.00  0.00    -0.003 A 
ATOM      6  C6  DEN d   1      -5.992   3.836   5.918  0.00  0.00     0.001 A 
ATOM      7  C7  DEN d   1      -6.000   3.224   4.692  0.00  0.00     0.017 A 
ATOM      8  C8  DEN d   1      -5.986   4.021   3.556  0.00  0.00    -0.094 A 
ATOM      9  C9  DEN d   1      -5.901   5.400   3.653  0.00  0.00    -0.072 A 
ENDROOT
TORSDOF 0
ENDMDL
