MODEL 1
REMARK minimizedAffinity -4.1188941
REMARK minimizedRMSD -1
REMARK  0 active torsions:
REMARK  status: ('A' for Active; 'I' for Inactive)
ROOT
ATOM      1  C1  DEN d   1      -4.822   6.000   3.400  0.00  0.00     0.130 A 
ATOM      2  C2  DEN d   1      -4.519   5.789   1.987  0.00  0.00    -0.031 A 
ATOM      3  C3  DEN d   1      -4.771   4.368   1.673  0.00  0.00     0.027 A 
ATOM      4  C4  DEN d   1      -5.600   2.485   3.228  0.00  0.00     0.027 A 
ATOM      5  C5  DEN d   1      -5.981   2.179   4.516  0.00  0.00    -0.003 A 
ATOM      6  C6  DEN d   1      -5.969   3.109   5.521  0.00  0.00     0.001 A 
ATOM      7  C7  DEN d   1      -5.612   4.402   5.245  0.00  0.00     0.017 A 
ATOM      8  C8  DEN d   1      -5.220   4.717   3.951  0.00  0.00    -0.094 A 
ATOM      9  C9  DEN d   1      -5.251   3.766   2.945  0.00  0.00    -0.072 A 
ENDROOT
TORSDOF 0
ENDMDL
