MODEL 1
REMARK minimizedAffinity -3.92383099
REMARK minimizedRMSD -1
REMARK  0 active torsions:
REMARK  status: ('A' for Active; 'I' for Inactive)
ROOT
ATOM      1  C1  DEN d   1      -5.155   2.643   4.690  0.00  0.00     0.130 A 
ATOM      2  C2  DEN d   1      -5.601   3.157   5.982  0.00  0.00    -0.031 A 
ATOM      3  C3  DEN d   1      -5.998   4.568   5.799  0.00  0.00     0.027 A 
ATOM      4  C4  DEN d   1      -5.971   5.995   3.651  0.00  0.00     0.027 A 
ATOM      5  C5  DEN d   1      -5.663   5.997   2.308  0.00  0.00    -0.003 A 
ATOM      6  C6  DEN d   1      -5.137   4.901   1.678  0.00  0.00     0.001 A 
ATOM      7  C7  DEN d   1      -4.944   3.741   2.381  0.00  0.00     0.017 A 
ATOM      8  C8  DEN d   1      -5.246   3.734   3.737  0.00  0.00    -0.094 A 
ATOM      9  C9  DEN d   1      -5.789   4.848   4.353  0.00  0.00    -0.072 A 
ENDROOT
TORSDOF 0
ENDMDL
