MODEL 1
REMARK minimizedAffinity -3.84788179
REMARK minimizedRMSD -1
REMARK  0 active torsions:
REMARK  status: ('A' for Active; 'I' for Inactive)
ROOT
ATOM      1  C1  DEN d   1      -4.673   5.998   2.186  0.00  0.00     0.130 A 
ATOM      2  C2  DEN d   1      -5.310   5.068   1.257  0.00  0.00    -0.031 A 
ATOM      3  C3  DEN d   1      -5.886   3.959   2.043  0.00  0.00     0.027 A 
ATOM      4  C4  DEN d   1      -5.860   3.596   4.597  0.00  0.00     0.027 A 
ATOM      5  C5  DEN d   1      -5.429   4.111   5.799  0.00  0.00    -0.003 A 
ATOM      6  C6  DEN d   1      -4.692   5.263   5.878  0.00  0.00     0.001 A 
ATOM      7  C7  DEN d   1      -4.403   5.964   4.737  0.00  0.00     0.017 A 
ATOM      8  C8  DEN d   1      -4.828   5.447   3.520  0.00  0.00    -0.094 A 
ATOM      9  C9  DEN d   1      -5.582   4.287   3.462  0.00  0.00    -0.072 A 
ENDROOT
TORSDOF 0
ENDMDL
