MODEL 1
REMARK minimizedAffinity -2.08889818
REMARK minimizedRMSD -1
REMARK  0 active torsions:
REMARK  status: ('A' for Active; 'I' for Inactive)
ROOT
ATOM      1  C1  DEN d   1       0.327  -0.406  -1.045  0.00  0.00     0.130 A 
ATOM      2  C2  DEN d   1      -0.634  -0.442  -2.144  0.00  0.00    -0.031 A 
ATOM      3  C3  DEN d   1      -1.919  -0.936  -1.609  0.00  0.00     0.027 A 
ATOM      4  C4  DEN d   1      -2.511  -1.640   0.800  0.00  0.00     0.027 A 
ATOM      5  C5  DEN d   1      -2.020  -1.793   2.078  0.00  0.00    -0.003 A 
ATOM      6  C6  DEN d   1      -0.714  -1.528   2.394  0.00  0.00     0.001 A 
ATOM      7  C7  DEN d   1       0.136  -1.054   1.430  0.00  0.00     0.017 A 
ATOM      8  C8  DEN d   1      -0.351  -0.904   0.138  0.00  0.00    -0.094 A 
ATOM      9  C9  DEN d   1      -1.678  -1.165  -0.159  0.00  0.00    -0.072 A 
ENDROOT
TORSDOF 0
ENDMDL
