MODEL 1
REMARK minimizedAffinity -3.4111948
REMARK minimizedRMSD -1
REMARK  0 active torsions:
REMARK  status: ('A' for Active; 'I' for Inactive)
ROOT
ATOM      1  C1  DEN d   1      -5.440   2.581   4.704  0.00  0.00     0.130 A 
ATOM      2  C2  DEN d   1      -5.251   3.229   5.999  0.00  0.00    -0.031 A 
ATOM      3  C3  DEN d   1      -5.347   4.689   5.796  0.00  0.00     0.027 A 
ATOM      4  C4  DEN d   1      -5.774   6.000   3.616  0.00  0.00     0.027 A 
ATOM      5  C5  DEN d   1      -5.986   5.885   2.260  0.00  0.00    -0.003 A 
ATOM      6  C6  DEN d   1      -5.997   4.672   1.623  0.00  0.00     0.001 A 
ATOM      7  C7  DEN d   1      -5.837   3.522   2.350  0.00  0.00     0.017 A 
ATOM      8  C8  DEN d   1      -5.615   3.631   3.717  0.00  0.00    -0.094 A 
ATOM      9  C9  DEN d   1      -5.620   4.865   4.344  0.00  0.00    -0.072 A 
ENDROOT
TORSDOF 0
ENDMDL
