MODEL 1
REMARK minimizedAffinity 4.97445965
REMARK minimizedRMSD -1
REMARK  0 active torsions:
REMARK  status: ('A' for Active; 'I' for Inactive)
ROOT
ATOM      1  C   UNL d   1       2.317  -3.326   0.120  0.00  0.00     0.023 A 
ATOM      2  C1  UNL d   1       1.081  -3.971   0.074  0.00  0.00     0.003 A 
ATOM      3  C2  UNL d   1      -0.064  -3.324   0.542  0.00  0.00     0.048 A 
ATOM      4  C3  UNL d   1       0.033  -2.031   1.054  0.00  0.00     0.023 A 
ATOM      5  C4  UNL d   1       1.267  -1.380   1.101  0.00  0.00     0.048 A 
ATOM      6  C5  UNL d   1       2.410  -2.032   0.633  0.00  0.00     0.003 A 
ATOM      7  I   UNL d   1      -1.670  -1.065   1.751  0.00  0.00    -0.146 I 
ENDROOT
TORSDOF 0
ENDMDL
