MODEL 1
REMARK minimizedAffinity 3.93449306
REMARK minimizedRMSD -1
REMARK  0 active torsions:
REMARK  status: ('A' for Active; 'I' for Inactive)
ROOT
ATOM      1  C   UNL d   1       0.583  -1.356  -0.322  0.00  0.00     0.023 A 
ATOM      2  C1  UNL d   1      -0.684  -1.451   0.255  0.00  0.00     0.003 A 
ATOM      3  C2  UNL d   1      -0.893  -1.005   1.561  0.00  0.00     0.048 A 
ATOM      4  C3  UNL d   1       0.169  -0.465   2.286  0.00  0.00     0.023 A 
ATOM      5  C4  UNL d   1       1.438  -0.368   1.713  0.00  0.00     0.048 A 
ATOM      6  C5  UNL d   1       1.643  -0.815   0.406  0.00  0.00     0.003 A 
ATOM      7  I   UNL d   1      -0.139   0.199   4.231  0.00  0.00    -0.146 I 
ENDROOT
TORSDOF 0
ENDMDL
