MODEL 1
REMARK minimizedAffinity 5.94729614
REMARK minimizedRMSD -1
REMARK  0 active torsions:
REMARK  status: ('A' for Active; 'I' for Inactive)
ROOT
ATOM      1  C   UNL d   1      -0.933  -1.900   0.563  0.00  0.00     0.023 A 
ATOM      2  C1  UNL d   1      -0.504  -0.718   1.168  0.00  0.00     0.003 A 
ATOM      3  C2  UNL d   1       0.845  -0.358   1.121  0.00  0.00     0.048 A 
ATOM      4  C3  UNL d   1       1.758  -1.184   0.466  0.00  0.00     0.023 A 
ATOM      5  C4  UNL d   1       1.333  -2.366  -0.141  0.00  0.00     0.048 A 
ATOM      6  C5  UNL d   1      -0.016  -2.723  -0.091  0.00  0.00     0.003 A 
ATOM      7  I   UNL d   1       3.766  -0.650   0.395  0.00  0.00    -0.146 I 
ENDROOT
TORSDOF 0
ENDMDL
