MODEL 1
REMARK minimizedAffinity 1.97047615
REMARK minimizedRMSD -1
REMARK  0 active torsions:
REMARK  status: ('A' for Active; 'I' for Inactive)
ROOT
ATOM      1  C   UNL d   1       3.130   5.789   2.184  0.00  0.00     0.023 A 
ATOM      2  C1  UNL d   1       2.584   5.999   0.917  0.00  0.00     0.003 A 
ATOM      3  C2  UNL d   1       3.406   5.981  -0.211  0.00  0.00     0.048 A 
ATOM      4  C3  UNL d   1       4.774   5.751  -0.066  0.00  0.00     0.023 A 
ATOM      5  C4  UNL d   1       5.325   5.539   1.199  0.00  0.00     0.048 A 
ATOM      6  C5  UNL d   1       4.499   5.560   2.324  0.00  0.00     0.003 A 
ATOM      7  I   UNL d   1       6.000   5.722  -1.744  0.00  0.00    -0.146 I 
ENDROOT
TORSDOF 0
ENDMDL
