MODEL 1
REMARK minimizedAffinity 3.46486878
REMARK minimizedRMSD -1
REMARK  0 active torsions:
REMARK  status: ('A' for Active; 'I' for Inactive)
ROOT
ATOM      1  C   UNL d   1       0.746  -1.562   0.575  0.00  0.00     0.023 A 
ATOM      2  C1  UNL d   1      -0.174  -0.695   1.164  0.00  0.00     0.003 A 
ATOM      3  C2  UNL d   1      -1.472  -1.131   1.436  0.00  0.00     0.048 A 
ATOM      4  C3  UNL d   1      -1.843  -2.437   1.118  0.00  0.00     0.023 A 
ATOM      5  C4  UNL d   1      -0.926  -3.309   0.529  0.00  0.00     0.048 A 
ATOM      6  C5  UNL d   1       0.370  -2.867   0.258  0.00  0.00     0.003 A 
ATOM      7  I   UNL d   1      -3.775  -3.090   1.522  0.00  0.00    -0.146 I 
ENDROOT
TORSDOF 0
ENDMDL
