MODEL 1
REMARK minimizedAffinity -0.124912038
REMARK minimizedRMSD -1
REMARK  0 active torsions:
REMARK  status: ('A' for Active; 'I' for Inactive)
ROOT
ATOM      1  C   UNL d   1      -0.849  -0.603   1.253  0.00  0.00     0.023 A 
ATOM      2  C1  UNL d   1      -1.083  -1.843   0.659  0.00  0.00     0.003 A 
ATOM      3  C2  UNL d   1      -0.028  -2.555   0.086  0.00  0.00     0.048 A 
ATOM      4  C3  UNL d   1       1.261  -2.022   0.112  0.00  0.00     0.023 A 
ATOM      5  C4  UNL d   1       1.500  -0.782   0.706  0.00  0.00     0.048 A 
ATOM      6  C5  UNL d   1       0.442  -0.073   1.276  0.00  0.00     0.003 A 
ATOM      7  I   UNL d   1       2.834  -3.081  -0.739  0.00  0.00    -0.146 I 
ENDROOT
TORSDOF 0
ENDMDL
