MODEL 1
REMARK minimizedAffinity 0.664134622
REMARK minimizedRMSD -1
REMARK  0 active torsions:
REMARK  status: ('A' for Active; 'I' for Inactive)
ROOT
ATOM      1  C   UNL d   1      -0.830  -2.569  -0.536  0.00  0.00     0.023 A 
ATOM      2  C1  UNL d   1       0.488  -3.012  -0.430  0.00  0.00     0.003 A 
ATOM      3  C2  UNL d   1       1.414  -2.280   0.316  0.00  0.00     0.048 A 
ATOM      4  C3  UNL d   1       1.015  -1.106   0.954  0.00  0.00     0.023 A 
ATOM      5  C4  UNL d   1      -0.304  -0.660   0.851  0.00  0.00     0.048 A 
ATOM      6  C5  UNL d   1      -1.226  -1.395   0.104  0.00  0.00     0.003 A 
ATOM      7  I   UNL d   1       2.391  -0.014   2.065  0.00  0.00    -0.146 I 
ENDROOT
TORSDOF 0
ENDMDL
