MODEL 1
REMARK minimizedAffinity 3.88092899
REMARK minimizedRMSD -1
REMARK  0 active torsions:
REMARK  status: ('A' for Active; 'I' for Inactive)
ROOT
ATOM      1  C   UNL d   1       0.240   0.303   1.711  0.00  0.00     0.023 A 
ATOM      2  C1  UNL d   1       1.493  -0.309   1.743  0.00  0.00     0.003 A 
ATOM      3  C2  UNL d   1       1.688  -1.538   1.108  0.00  0.00     0.048 A 
ATOM      4  C3  UNL d   1       0.625  -2.148   0.443  0.00  0.00     0.023 A 
ATOM      5  C4  UNL d   1      -0.630  -1.539   0.407  0.00  0.00     0.048 A 
ATOM      6  C5  UNL d   1      -0.820  -0.311   1.044  0.00  0.00     0.003 A 
ATOM      7  I   UNL d   1       0.913  -3.977  -0.503  0.00  0.00    -0.146 I 
ENDROOT
TORSDOF 0
ENDMDL
