MODEL 1
REMARK minimizedAffinity 4.21934652
REMARK minimizedRMSD -1
REMARK  0 active torsions:
REMARK  status: ('A' for Active; 'I' for Inactive)
ROOT
ATOM      1  C   UNL d   1       1.735  -1.776   0.254  0.00  0.00     0.023 A 
ATOM      2  C1  UNL d   1       0.507  -2.078  -0.334  0.00  0.00     0.003 A 
ATOM      3  C2  UNL d   1      -0.639  -1.370   0.036  0.00  0.00     0.048 A 
ATOM      4  C3  UNL d   1      -0.548  -0.360   0.994  0.00  0.00     0.023 A 
ATOM      5  C4  UNL d   1       0.680  -0.054   1.584  0.00  0.00     0.048 A 
ATOM      6  C5  UNL d   1       1.822  -0.766   1.211  0.00  0.00     0.003 A 
ATOM      7  I   UNL d   1      -2.251   0.695   1.547  0.00  0.00    -0.146 I 
ENDROOT
TORSDOF 0
ENDMDL
