MODEL 1
REMARK minimizedAffinity 5.2062521
REMARK minimizedRMSD -1
REMARK  0 active torsions:
REMARK  status: ('A' for Active; 'I' for Inactive)
ROOT
ATOM      1  C   UNL d   1      -0.383  -0.602   0.705  0.00  0.00     0.023 A 
ATOM      2  C1  UNL d   1      -0.679  -1.965   0.746  0.00  0.00     0.003 A 
ATOM      3  C2  UNL d   1       0.278  -2.901   0.350  0.00  0.00     0.048 A 
ATOM      4  C3  UNL d   1       1.530  -2.467  -0.086  0.00  0.00     0.023 A 
ATOM      5  C4  UNL d   1       1.831  -1.105  -0.129  0.00  0.00     0.048 A 
ATOM      6  C5  UNL d   1       0.870  -0.173   0.268  0.00  0.00     0.003 A 
ATOM      7  I   UNL d   1       2.957  -3.858  -0.677  0.00  0.00    -0.146 I 
ENDROOT
TORSDOF 0
ENDMDL
