MODEL 1
REMARK minimizedAffinity 4.27639627
REMARK minimizedRMSD -1
REMARK  0 active torsions:
REMARK  status: ('A' for Active; 'I' for Inactive)
ROOT
ATOM      1  C   UNL d   1      -0.210  -0.402   0.716  0.00  0.00     0.023 A 
ATOM      2  C1  UNL d   1      -0.744  -1.592   0.221  0.00  0.00     0.003 A 
ATOM      3  C2  UNL d   1       0.100  -2.653  -0.110  0.00  0.00     0.048 A 
ATOM      4  C3  UNL d   1       1.478  -2.519   0.056  0.00  0.00     0.023 A 
ATOM      5  C4  UNL d   1       2.017  -1.331   0.552  0.00  0.00     0.048 A 
ATOM      6  C5  UNL d   1       1.169  -0.272   0.881  0.00  0.00     0.003 A 
ATOM      7  I   UNL d   1       2.736  -4.098  -0.436  0.00  0.00    -0.146 I 
ENDROOT
TORSDOF 0
ENDMDL
