MODEL 1
REMARK minimizedAffinity 0.227363765
REMARK minimizedRMSD -1
REMARK  0 active torsions:
REMARK  status: ('A' for Active; 'I' for Inactive)
ROOT
ATOM      1  C   UNL d   1      -4.954  -2.812   2.442  0.00  0.00     0.023 A 
ATOM      2  C1  UNL d   1      -4.884  -2.408   3.775  0.00  0.00     0.003 A 
ATOM      3  C2  UNL d   1      -5.149  -3.322   4.798  0.00  0.00     0.048 A 
ATOM      4  C3  UNL d   1      -5.482  -4.638   4.480  0.00  0.00     0.023 A 
ATOM      5  C4  UNL d   1      -5.552  -5.047   3.147  0.00  0.00     0.048 A 
ATOM      6  C5  UNL d   1      -5.287  -4.130   2.128  0.00  0.00     0.003 A 
ATOM      7  I   UNL d   1      -5.876  -6.000   6.000  0.00  0.00    -0.146 I 
ENDROOT
TORSDOF 0
ENDMDL
