MODEL 1
REMARK minimizedAffinity -2.60817194
REMARK minimizedRMSD -1
REMARK  0 active torsions:
REMARK  status: ('A' for Active; 'I' for Inactive)
ROOT
ATOM      1  C   UNL d   1      -2.084   0.892  -1.645  0.00  0.00     0.077 C 
ATOM      2  C1  UNL d   1      -0.986   0.470  -0.714  0.00  0.00    -0.074 A 
ATOM      3  C2  UNL d   1       0.354   0.528  -1.110  0.00  0.00    -0.005 A 
ATOM      4  C3  UNL d   1       1.365   0.141  -0.230  0.00  0.00     0.006 A 
ATOM      5  C4  UNL d   1       1.047  -0.306   1.053  0.00  0.00    -0.005 A 
ATOM      6  C5  UNL d   1      -0.287  -0.369   1.467  0.00  0.00    -0.074 A 
ATOM      7  C6  UNL d   1      -0.646  -0.838   2.846  0.00  0.00     0.077 C 
ATOM      8  C7  UNL d   1      -1.297   0.027   0.579  0.00  0.00    -0.001 A 
ENDROOT
TORSDOF 0
ENDMDL
