MODEL 1
REMARK minimizedAffinity -4.45932341
REMARK minimizedRMSD -1
REMARK  0 active torsions:
REMARK  status: ('A' for Active; 'I' for Inactive)
ROOT
ATOM      1  C   UNL d   1      -1.079  -0.997   3.159  0.00  0.00     0.077 C 
ATOM      2  C1  UNL d   1      -0.211  -0.355   2.117  0.00  0.00    -0.074 A 
ATOM      3  C2  UNL d   1       0.816   0.522   2.479  0.00  0.00    -0.005 A 
ATOM      4  C3  UNL d   1       1.621   1.104   1.500  0.00  0.00     0.006 A 
ATOM      5  C4  UNL d   1       1.408   0.815   0.151  0.00  0.00    -0.005 A 
ATOM      6  C5  UNL d   1       0.386  -0.061  -0.229  0.00  0.00    -0.074 A 
ATOM      7  C6  UNL d   1       0.149  -0.390  -1.673  0.00  0.00     0.077 C 
ATOM      8  C7  UNL d   1      -0.415  -0.647   0.761  0.00  0.00    -0.001 A 
ENDROOT
TORSDOF 0
ENDMDL
