MODEL 1
REMARK minimizedAffinity -4.07726049
REMARK minimizedRMSD -1
REMARK  0 active torsions:
REMARK  status: ('A' for Active; 'I' for Inactive)
ROOT
ATOM      1  C   UNL d   1      -2.910  -0.010   1.783  0.00  0.00     0.077 C 
ATOM      2  C1  UNL d   1      -1.868   0.287   0.746  0.00  0.00    -0.074 A 
ATOM      3  C2  UNL d   1      -2.232   0.666  -0.550  0.00  0.00    -0.005 A 
ATOM      4  C3  UNL d   1      -1.251   0.948  -1.502  0.00  0.00     0.006 A 
ATOM      5  C4  UNL d   1       0.100   0.854  -1.167  0.00  0.00    -0.005 A 
ATOM      6  C5  UNL d   1       0.483   0.478   0.125  0.00  0.00    -0.074 A 
ATOM      7  C6  UNL d   1       1.931   0.381   0.504  0.00  0.00     0.077 C 
ATOM      8  C7  UNL d   1      -0.509   0.202   1.077  0.00  0.00    -0.001 A 
ENDROOT
TORSDOF 0
ENDMDL
