MODEL 1
REMARK minimizedAffinity -5.07941008
REMARK minimizedRMSD -1
REMARK  0 active torsions:
REMARK  status: ('A' for Active; 'I' for Inactive)
ROOT
ATOM      1  C   UNL d   1       0.455   0.208  -0.525  0.00  0.00     0.077 C 
ATOM      2  C1  UNL d   1      -0.241   0.218   0.804  0.00  0.00    -0.074 A 
ATOM      3  C2  UNL d   1       0.486   0.291   1.996  0.00  0.00    -0.005 A 
ATOM      4  C3  UNL d   1      -0.175   0.310   3.224  0.00  0.00     0.006 A 
ATOM      5  C4  UNL d   1      -1.569   0.256   3.272  0.00  0.00    -0.005 A 
ATOM      6  C5  UNL d   1      -2.313   0.184   2.090  0.00  0.00    -0.074 A 
ATOM      7  C6  UNL d   1      -3.812   0.135   2.123  0.00  0.00     0.077 C 
ATOM      8  C7  UNL d   1      -1.641   0.173   0.860  0.00  0.00    -0.001 A 
ENDROOT
TORSDOF 0
ENDMDL
