MODEL 1
REMARK minimizedAffinity -3.78304744
REMARK minimizedRMSD -1
REMARK  0 active torsions:
REMARK  status: ('A' for Active; 'I' for Inactive)
ROOT
ATOM      1  C   UNL d   1       2.195   0.765   1.507  0.00  0.00     0.077 C 
ATOM      2  C1  UNL d   1       0.835   0.139   1.412  0.00  0.00    -0.074 A 
ATOM      3  C2  UNL d   1       0.423  -0.829   2.334  0.00  0.00    -0.005 A 
ATOM      4  C3  UNL d   1      -0.848  -1.395   2.239  0.00  0.00     0.006 A 
ATOM      5  C4  UNL d   1      -1.718  -1.001   1.222  0.00  0.00    -0.005 A 
ATOM      6  C5  UNL d   1      -1.324  -0.034   0.291  0.00  0.00    -0.074 A 
ATOM      7  C6  UNL d   1      -2.251   0.408  -0.802  0.00  0.00     0.077 C 
ATOM      8  C7  UNL d   1      -0.048   0.535   0.398  0.00  0.00    -0.001 A 
ENDROOT
TORSDOF 0
ENDMDL
