MODEL 1
REMARK minimizedAffinity -2.88578057
REMARK minimizedRMSD -1
REMARK  0 active torsions:
REMARK  status: ('A' for Active; 'I' for Inactive)
ROOT
ATOM      1  C   UNL d   1      -2.232  -0.023   3.125  0.00  0.00     0.077 C 
ATOM      2  C1  UNL d   1      -0.998   0.037   2.274  0.00  0.00    -0.074 A 
ATOM      3  C2  UNL d   1       0.271  -0.145   2.833  0.00  0.00    -0.005 A 
ATOM      4  C3  UNL d   1       1.408  -0.096   2.027  0.00  0.00     0.006 A 
ATOM      5  C4  UNL d   1       1.288   0.135   0.657  0.00  0.00    -0.005 A 
ATOM      6  C5  UNL d   1       0.028   0.319   0.079  0.00  0.00    -0.074 A 
ATOM      7  C6  UNL d   1      -0.119   0.558  -1.394  0.00  0.00     0.077 C 
ATOM      8  C7  UNL d   1      -1.111   0.261   0.895  0.00  0.00    -0.001 A 
ENDROOT
TORSDOF 0
ENDMDL
