MODEL 1
REMARK minimizedAffinity 3.00204968
REMARK minimizedRMSD -1
REMARK  0 active torsions:
REMARK  status: ('A' for Active; 'I' for Inactive)
ROOT
ATOM      1  C   UNL d   1       1.576   2.053   0.318  0.00  0.00     0.077 C 
ATOM      2  C1  UNL d   1       0.785   1.139   1.205  0.00  0.00    -0.074 A 
ATOM      3  C2  UNL d   1       1.417   0.350   2.172  0.00  0.00    -0.005 A 
ATOM      4  C3  UNL d   1       0.668  -0.488   2.997  0.00  0.00     0.006 A 
ATOM      5  C4  UNL d   1      -0.720  -0.547   2.864  0.00  0.00    -0.005 A 
ATOM      6  C5  UNL d   1      -1.370   0.235   1.903  0.00  0.00    -0.074 A 
ATOM      7  C6  UNL d   1      -2.862   0.192   1.754  0.00  0.00     0.077 C 
ATOM      8  C7  UNL d   1      -0.611   1.080   1.083  0.00  0.00    -0.001 A 
ENDROOT
TORSDOF 0
ENDMDL
