MODEL 1
REMARK minimizedAffinity 2.29891324
REMARK minimizedRMSD -1
REMARK  0 active torsions:
REMARK  status: ('A' for Active; 'I' for Inactive)
ROOT
ATOM      1  C   UNL d   1       1.137  -0.352   3.047  0.00  0.00     0.077 C 
ATOM      2  C1  UNL d   1      -0.284  -0.249   2.576  0.00  0.00    -0.074 A 
ATOM      3  C2  UNL d   1      -1.350  -0.449   3.458  0.00  0.00    -0.005 A 
ATOM      4  C3  UNL d   1      -2.666  -0.340   3.008  0.00  0.00     0.006 A 
ATOM      5  C4  UNL d   1      -2.928  -0.030   1.673  0.00  0.00    -0.005 A 
ATOM      6  C5  UNL d   1      -1.874   0.174   0.776  0.00  0.00    -0.074 A 
ATOM      7  C6  UNL d   1      -2.138   0.518  -0.660  0.00  0.00     0.077 C 
ATOM      8  C7  UNL d   1      -0.555   0.070   1.238  0.00  0.00    -0.001 A 
ENDROOT
TORSDOF 0
ENDMDL
