MODEL 1
REMARK minimizedAffinity -3.40816522
REMARK minimizedRMSD -1
REMARK  0 active torsions:
REMARK  status: ('A' for Active; 'I' for Inactive)
ROOT
ATOM      1  C   UNL d   1      -0.956  -1.494   3.208  0.00  0.00     0.077 C 
ATOM      2  C1  UNL d   1      -0.381  -0.633   2.123  0.00  0.00    -0.074 A 
ATOM      3  C2  UNL d   1       0.612   0.311   2.405  0.00  0.00    -0.005 A 
ATOM      4  C3  UNL d   1       1.144   1.098   1.384  0.00  0.00     0.006 A 
ATOM      5  C4  UNL d   1       0.690   0.949   0.073  0.00  0.00    -0.005 A 
ATOM      6  C5  UNL d   1      -0.301   0.010  -0.228  0.00  0.00    -0.074 A 
ATOM      7  C6  UNL d   1      -0.793  -0.170  -1.634  0.00  0.00     0.077 C 
ATOM      8  C7  UNL d   1      -0.826  -0.782   0.802  0.00  0.00    -0.001 A 
ENDROOT
TORSDOF 0
ENDMDL
