MODEL 1
REMARK minimizedAffinity -3.63765359
REMARK minimizedRMSD -1
REMARK  0 active torsions:
REMARK  status: ('A' for Active; 'I' for Inactive)
ROOT
ATOM      1  C   UNL d   1       0.537  -0.259  -2.031  0.00  0.00     0.077 C 
ATOM      2  C1  UNL d   1      -0.238  -0.098  -0.757  0.00  0.00    -0.074 A 
ATOM      3  C2  UNL d   1      -1.606   0.193  -0.780  0.00  0.00    -0.005 A 
ATOM      4  C3  UNL d   1      -2.316   0.331   0.413  0.00  0.00     0.006 A 
ATOM      5  C4  UNL d   1      -1.666   0.178   1.638  0.00  0.00    -0.005 A 
ATOM      6  C5  UNL d   1      -0.299  -0.114   1.681  0.00  0.00    -0.074 A 
ATOM      7  C6  UNL d   1       0.412  -0.291   2.989  0.00  0.00     0.077 C 
ATOM      8  C7  UNL d   1       0.406  -0.257   0.478  0.00  0.00    -0.001 A 
ENDROOT
TORSDOF 0
ENDMDL
