MODEL 1
REMARK minimizedAffinity -4.58886814
REMARK minimizedRMSD -1
REMARK  0 active torsions:
REMARK  status: ('A' for Active; 'I' for Inactive)
ROOT
ATOM      1  C   UNL d   1      -0.343   0.483  -1.515  0.00  0.00     0.077 C 
ATOM      2  C1  UNL d   1       0.182   0.250  -0.130  0.00  0.00    -0.074 A 
ATOM      3  C2  UNL d   1       1.474   0.651   0.226  0.00  0.00    -0.005 A 
ATOM      4  C3  UNL d   1       1.946   0.437   1.521  0.00  0.00     0.006 A 
ATOM      5  C4  UNL d   1       1.132  -0.181   2.472  0.00  0.00    -0.005 A 
ATOM      6  C5  UNL d   1      -0.162  -0.589   2.134  0.00  0.00    -0.074 A 
ATOM      7  C6  UNL d   1      -1.053  -1.245   3.147  0.00  0.00     0.077 C 
ATOM      8  C7  UNL d   1      -0.632  -0.363   0.833  0.00  0.00    -0.001 A 
ENDROOT
TORSDOF 0
ENDMDL
