MODEL 1
REMARK minimizedAffinity -5.33200598
REMARK minimizedRMSD -1
REMARK  0 active torsions:
REMARK  status: ('A' for Active; 'I' for Inactive)
ROOT
ATOM      1  C   UNL d   1      -4.134  -0.172   1.093  0.00  0.00     0.077 C 
ATOM      2  C1  UNL d   1      -2.755  -0.243   1.680  0.00  0.00    -0.074 A 
ATOM      3  C2  UNL d   1      -2.566  -0.499   3.042  0.00  0.00    -0.005 A 
ATOM      4  C3  UNL d   1      -1.278  -0.572   3.572  0.00  0.00     0.006 A 
ATOM      5  C4  UNL d   1      -0.168  -0.391   2.746  0.00  0.00    -0.005 A 
ATOM      6  C5  UNL d   1      -0.337  -0.136   1.382  0.00  0.00    -0.074 A 
ATOM      7  C6  UNL d   1       0.846   0.051   0.479  0.00  0.00     0.077 C 
ATOM      8  C7  UNL d   1      -1.634  -0.071   0.856  0.00  0.00    -0.001 A 
ENDROOT
TORSDOF 0
ENDMDL
