MODEL 1
REMARK minimizedAffinity -4.88511705
REMARK minimizedRMSD -1
REMARK  0 active torsions:
REMARK  status: ('A' for Active; 'I' for Inactive)
ROOT
ATOM      1  C   UNL d   1       0.319   0.531  -0.799  0.00  0.00     0.077 C 
ATOM      2  C1  UNL d   1      -0.121   0.319   0.619  0.00  0.00    -0.074 A 
ATOM      3  C2  UNL d   1       0.810   0.038   1.625  0.00  0.00    -0.005 A 
ATOM      4  C3  UNL d   1       0.387  -0.148   2.941  0.00  0.00     0.006 A 
ATOM      5  C4  UNL d   1      -0.967  -0.056   3.264  0.00  0.00    -0.005 A 
ATOM      6  C5  UNL d   1      -1.912   0.225   2.272  0.00  0.00    -0.074 A 
ATOM      7  C6  UNL d   1      -3.370   0.337   2.603  0.00  0.00     0.077 C 
ATOM      8  C7  UNL d   1      -1.479   0.417   0.953  0.00  0.00    -0.001 A 
ENDROOT
TORSDOF 0
ENDMDL
