MODEL 1
REMARK minimizedAffinity -2.95373464
REMARK minimizedRMSD -1
REMARK  0 active torsions:
REMARK  status: ('A' for Active; 'I' for Inactive)
ROOT
ATOM      1  C   UNL d   1       0.455  -0.271  -0.554  0.00  0.00     0.077 C 
ATOM      2  C1  UNL d   1      -0.742  -0.037   0.319  0.00  0.00    -0.074 A 
ATOM      3  C2  UNL d   1      -1.998   0.224  -0.238  0.00  0.00    -0.005 A 
ATOM      4  C3  UNL d   1      -3.104   0.430   0.586  0.00  0.00     0.006 A 
ATOM      5  C4  UNL d   1      -2.966   0.376   1.974  0.00  0.00    -0.005 A 
ATOM      6  C5  UNL d   1      -1.718   0.115   2.549  0.00  0.00    -0.074 A 
ATOM      7  C6  UNL d   1      -1.554   0.044   4.038  0.00  0.00     0.077 C 
ATOM      8  C7  UNL d   1      -0.613  -0.097   1.714  0.00  0.00    -0.001 A 
ENDROOT
TORSDOF 0
ENDMDL
