MODEL 1
REMARK minimizedAffinity -3.66494846
REMARK minimizedRMSD -1
REMARK  0 active torsions:
REMARK  status: ('A' for Active; 'I' for Inactive)
ROOT
ATOM      1  C   UNL d   1      -1.484  -0.875   3.922  0.00  0.00     0.077 C 
ATOM      2  C1  UNL d   1      -0.623  -0.232   2.876  0.00  0.00    -0.074 A 
ATOM      3  C2  UNL d   1       0.179   0.871   3.184  0.00  0.00    -0.005 A 
ATOM      4  C3  UNL d   1       0.982   1.453   2.202  0.00  0.00     0.006 A 
ATOM      5  C4  UNL d   1       0.991   0.938   0.905  0.00  0.00    -0.005 A 
ATOM      6  C5  UNL d   1       0.196  -0.166   0.579  0.00  0.00    -0.074 A 
ATOM      7  C6  UNL d   1       0.202  -0.738  -0.807  0.00  0.00     0.077 C 
ATOM      8  C7  UNL d   1      -0.602  -0.749   1.573  0.00  0.00    -0.001 A 
ENDROOT
TORSDOF 0
ENDMDL
