MODEL 1
REMARK minimizedAffinity 2.18231559
REMARK minimizedRMSD -1
REMARK  0 active torsions:
REMARK  status: ('A' for Active; 'I' for Inactive)
ROOT
ATOM      1  C   UNL d   1      -2.576  -3.988   0.305  0.00  0.00     0.077 C 
ATOM      2  C1  UNL d   1      -2.185  -2.577   0.631  0.00  0.00    -0.074 A 
ATOM      3  C2  UNL d   1      -2.488  -2.017   1.876  0.00  0.00    -0.005 A 
ATOM      4  C3  UNL d   1      -2.110  -0.707   2.169  0.00  0.00     0.006 A 
ATOM      5  C4  UNL d   1      -1.426   0.056   1.221  0.00  0.00    -0.005 A 
ATOM      6  C5  UNL d   1      -1.113  -0.488  -0.029  0.00  0.00    -0.074 A 
ATOM      7  C6  UNL d   1      -0.370   0.314  -1.056  0.00  0.00     0.077 C 
ATOM      8  C7  UNL d   1      -1.491  -1.807  -0.313  0.00  0.00    -0.001 A 
ENDROOT
TORSDOF 0
ENDMDL
