MODEL 1
REMARK minimizedAffinity -3.28208542
REMARK minimizedRMSD -1
REMARK  0 active torsions:
REMARK  status: ('A' for Active; 'I' for Inactive)
ROOT
ATOM      1  C   UNL d   1       0.021   0.072  -1.391  0.00  0.00     0.077 C 
ATOM      2  C1  UNL d   1       0.043  -0.039   0.104  0.00  0.00    -0.074 A 
ATOM      3  C2  UNL d   1       1.214   0.214   0.827  0.00  0.00    -0.005 A 
ATOM      4  C3  UNL d   1       1.217   0.116   2.218  0.00  0.00     0.006 A 
ATOM      5  C4  UNL d   1       0.051  -0.235   2.900  0.00  0.00    -0.005 A 
ATOM      6  C5  UNL d   1      -1.129  -0.491   2.194  0.00  0.00    -0.074 A 
ATOM      7  C6  UNL d   1      -2.393  -0.860   2.913  0.00  0.00     0.077 C 
ATOM      8  C7  UNL d   1      -1.126  -0.383   0.797  0.00  0.00    -0.001 A 
ENDROOT
TORSDOF 0
ENDMDL
