MODEL 1
REMARK minimizedAffinity -5.35150385
REMARK minimizedRMSD -1
REMARK  0 active torsions:
REMARK  status: ('A' for Active; 'I' for Inactive)
ROOT
ATOM      1  C   UNL d   1       0.608   0.189  -1.290  0.00  0.00     0.077 C 
ATOM      2  C1  UNL d   1       0.259   0.155   0.169  0.00  0.00    -0.074 A 
ATOM      3  C2  UNL d   1       1.219   0.443   1.144  0.00  0.00    -0.005 A 
ATOM      4  C3  UNL d   1       0.877   0.417   2.496  0.00  0.00     0.006 A 
ATOM      5  C4  UNL d   1      -0.426   0.103   2.886  0.00  0.00    -0.005 A 
ATOM      6  C5  UNL d   1      -1.399  -0.186   1.924  0.00  0.00    -0.074 A 
ATOM      7  C6  UNL d   1      -2.806  -0.516   2.325  0.00  0.00     0.077 C 
ATOM      8  C7  UNL d   1      -1.050  -0.151   0.567  0.00  0.00    -0.001 A 
ENDROOT
TORSDOF 0
ENDMDL
