MODEL 1
REMARK minimizedAffinity 9.55268383
REMARK minimizedRMSD -1
REMARK  1 active torsions:
REMARK  status: ('A' for Active; 'I' for Inactive)
REMARK    1  A    between atoms: C1_2  and  C2_3 
ROOT
ATOM      1  C2  UNL d   1       1.138  -2.269   3.864  0.00  0.00    -0.076 A 
ATOM      2  C3  UNL d   1       1.454  -1.024   3.293  0.00  0.00     0.004 A 
ATOM      3  C4  UNL d   1       1.995   0.003   4.064  0.00  0.00    -0.003 A 
ATOM      4  C5  UNL d   1       2.231  -0.199   5.420  0.00  0.00     0.000 A 
ATOM      5  C6  UNL d   1       1.940  -1.433   6.000  0.00  0.00     0.000 A 
ATOM      6  C7  UNL d   1       1.408  -2.484   5.232  0.00  0.00    -0.073 A 
ATOM      7  C8  UNL d   1       1.108  -3.793   5.911  0.00  0.00     0.078 C 
ENDROOT
BRANCH   1   8
ATOM      8  C1  UNL d   1       0.527  -3.336   2.984  0.00  0.00     0.053 C 
ATOM      9  C   UNL d   1      -0.501  -2.773   2.014  0.00  0.00     0.018 C 
ENDBRANCH   1   8
TORSDOF 1
ENDMDL
