MODEL 1
REMARK minimizedAffinity 12.3327961
REMARK minimizedRMSD -1
REMARK  1 active torsions:
REMARK  status: ('A' for Active; 'I' for Inactive)
REMARK    1  A    between atoms: C1_2  and  C2_3 
ROOT
ATOM      1  C2  UNL d   1      -1.667  -0.499   0.009  0.00  0.00    -0.076 A 
ATOM      2  C3  UNL d   1      -1.927  -1.304  -1.113  0.00  0.00     0.004 A 
ATOM      3  C4  UNL d   1      -2.300  -0.739  -2.331  0.00  0.00    -0.003 A 
ATOM      4  C5  UNL d   1      -2.419   0.641  -2.447  0.00  0.00     0.000 A 
ATOM      5  C6  UNL d   1      -2.149   1.457  -1.348  0.00  0.00     0.000 A 
ATOM      6  C7  UNL d   1      -1.756   0.904  -0.118  0.00  0.00    -0.073 A 
ATOM      7  C8  UNL d   1      -1.482   1.830   1.036  0.00  0.00     0.078 C 
ENDROOT
BRANCH   1   8
ATOM      8  C1  UNL d   1      -1.293  -1.170   1.312  0.00  0.00     0.053 C 
ATOM      9  C   UNL d   1      -0.631  -2.523   1.101  0.00  0.00     0.018 C 
ENDBRANCH   1   8
TORSDOF 1
ENDMDL
