MODEL 1
REMARK minimizedAffinity -2.57724953
REMARK minimizedRMSD -1
REMARK  1 active torsions:
REMARK  status: ('A' for Active; 'I' for Inactive)
REMARK    1  A    between atoms: C1_2  and  C2_3 
ROOT
ATOM      1  C2  UNL d   1       1.737  -0.204   1.523  0.00  0.00    -0.076 A 
ATOM      2  C3  UNL d   1       1.049  -0.850   0.481  0.00  0.00     0.004 A 
ATOM      3  C4  UNL d   1       0.304  -0.122  -0.445  0.00  0.00    -0.003 A 
ATOM      4  C5  UNL d   1       0.236   1.263  -0.346  0.00  0.00     0.000 A 
ATOM      5  C6  UNL d   1       0.927   1.922   0.671  0.00  0.00     0.000 A 
ATOM      6  C7  UNL d   1       1.695   1.205   1.604  0.00  0.00    -0.073 A 
ATOM      7  C8  UNL d   1       2.415   1.966   2.683  0.00  0.00     0.078 C 
ENDROOT
BRANCH   1   8
ATOM      8  C1  UNL d   1       2.506  -1.047   2.515  0.00  0.00     0.053 C 
ATOM      9  C   UNL d   1       1.737  -2.286   2.946  0.00  0.00     0.018 C 
ENDBRANCH   1   8
TORSDOF 1
ENDMDL
