MODEL 1
REMARK minimizedAffinity 13.5675478
REMARK minimizedRMSD -1
REMARK  1 active torsions:
REMARK  status: ('A' for Active; 'I' for Inactive)
REMARK    1  A    between atoms: C1_2  and  C2_3 
ROOT
ATOM      1  C2  UNL d   1      -2.531  -1.139  -3.409  0.00  0.00    -0.076 A 
ATOM      2  C3  UNL d   1      -3.226  -0.336  -4.329  0.00  0.00     0.004 A 
ATOM      3  C4  UNL d   1      -3.069   1.049  -4.335  0.00  0.00    -0.003 A 
ATOM      4  C5  UNL d   1      -2.213   1.653  -3.421  0.00  0.00     0.000 A 
ATOM      5  C6  UNL d   1      -1.502   0.870  -2.513  0.00  0.00     0.000 A 
ATOM      6  C7  UNL d   1      -1.636  -0.529  -2.504  0.00  0.00    -0.073 A 
ATOM      7  C8  UNL d   1      -0.850  -1.323  -1.498  0.00  0.00     0.078 C 
ENDROOT
BRANCH   1   8
ATOM      8  C1  UNL d   1      -2.762  -2.633  -3.432  0.00  0.00     0.053 C 
ATOM      9  C   UNL d   1      -4.003  -3.042  -2.653  0.00  0.00     0.018 C 
ENDBRANCH   1   8
TORSDOF 1
ENDMDL
