MODEL 1
REMARK minimizedAffinity 4.35820484
REMARK minimizedRMSD -1
REMARK  0 active torsions:
REMARK  status: ('A' for Active; 'I' for Inactive)
ROOT
ATOM      1  C   UNL d   1       1.254   1.180  -4.526  0.00  0.00     0.124 A 
ATOM      2  C1  UNL d   1       1.818   1.893  -3.476  0.00  0.00     0.062 A 
ATOM      3  C2  UNL d   1       1.527   1.548  -2.160  0.00  0.00     0.162 A 
ATOM      4  C3  UNL d   1       0.670   0.482  -1.884  0.00  0.00    -0.034 A 
ATOM      5  C4  UNL d   1       0.107  -0.230  -2.945  0.00  0.00     0.162 A 
ATOM      6  C5  UNL d   1       0.400   0.120  -4.259  0.00  0.00     0.062 A 
ATOM      7  F   UNL d   1      -0.145  -0.570  -5.272  0.00  0.00    -0.097 F 
ATOM      8  F1  UNL d   1      -0.722  -1.259  -2.716  0.00  0.00    -0.096 F 
ATOM      9  I   UNL d   1       0.234  -0.038   0.083  0.00  0.00    -0.060 I 
ATOM     10  F2  UNL d   1       2.086   2.254  -1.166  0.00  0.00    -0.096 F 
ATOM     11  F3  UNL d   1       2.643   2.919  -3.731  0.00  0.00    -0.097 F 
ATOM     12  F4  UNL d   1       1.535   1.515  -5.792  0.00  0.00    -0.092 F 
ENDROOT
TORSDOF 0
ENDMDL
