MODEL 1
REMARK minimizedAffinity -1.31616175
REMARK minimizedRMSD -1
REMARK  0 active torsions:
REMARK  status: ('A' for Active; 'I' for Inactive)
ROOT
ATOM      1  C   UNL d   1      -0.459   0.634   2.172  0.00  0.00     0.124 A 
ATOM      2  C1  UNL d   1       0.828   0.560   1.658  0.00  0.00     0.062 A 
ATOM      3  C2  UNL d   1       1.031   0.204   0.328  0.00  0.00     0.162 A 
ATOM      4  C3  UNL d   1      -0.056  -0.078  -0.499  0.00  0.00    -0.034 A 
ATOM      5  C4  UNL d   1      -1.348  -0.002   0.025  0.00  0.00     0.162 A 
ATOM      6  C5  UNL d   1      -1.546   0.353   1.355  0.00  0.00     0.062 A 
ATOM      7  F   UNL d   1      -2.790   0.425   1.850  0.00  0.00    -0.097 F 
ATOM      8  F1  UNL d   1      -2.416  -0.267  -0.742  0.00  0.00    -0.096 F 
ATOM      9  I   UNL d   1       0.243  -0.610  -2.489  0.00  0.00    -0.060 I 
ATOM     10  F2  UNL d   1       2.286   0.140  -0.142  0.00  0.00    -0.096 F 
ATOM     11  F3  UNL d   1       1.879   0.830   2.445  0.00  0.00    -0.097 F 
ATOM     12  F4  UNL d   1      -0.652   0.975   3.452  0.00  0.00    -0.092 F 
ENDROOT
TORSDOF 0
ENDMDL
