MODEL 1
REMARK minimizedAffinity -1.12878215
REMARK minimizedRMSD -1
REMARK  0 active torsions:
REMARK  status: ('A' for Active; 'I' for Inactive)
ROOT
ATOM      1  C   UNL d   1      -0.453   0.506   1.897  0.00  0.00     0.124 A 
ATOM      2  C1  UNL d   1      -1.606   0.485   1.124  0.00  0.00     0.062 A 
ATOM      3  C2  UNL d   1      -1.548   0.090  -0.209  0.00  0.00     0.162 A 
ATOM      4  C3  UNL d   1      -0.332  -0.290  -0.778  0.00  0.00    -0.034 A 
ATOM      5  C4  UNL d   1       0.823  -0.265   0.005  0.00  0.00     0.162 A 
ATOM      6  C5  UNL d   1       0.760   0.131   1.337  0.00  0.00     0.062 A 
ATOM      7  F   UNL d   1       1.875   0.150   2.082  0.00  0.00    -0.097 F 
ATOM      8  F1  UNL d   1       2.008  -0.624  -0.511  0.00  0.00    -0.096 F 
ATOM      9  I   UNL d   1      -0.242  -0.881  -2.771  0.00  0.00    -0.060 I 
ATOM     10  F2  UNL d   1      -2.678   0.080  -0.932  0.00  0.00    -0.096 F 
ATOM     11  F3  UNL d   1      -2.779   0.848   1.663  0.00  0.00    -0.097 F 
ATOM     12  F4  UNL d   1      -0.512   0.888   3.180  0.00  0.00    -0.092 F 
ENDROOT
TORSDOF 0
ENDMDL
