MODEL 1
REMARK minimizedAffinity 0.936863899
REMARK minimizedRMSD -1
REMARK  0 active torsions:
REMARK  status: ('A' for Active; 'I' for Inactive)
ROOT
ATOM      1  C   UNL d   1      -0.177  -0.765  -1.156  0.00  0.00     0.124 A 
ATOM      2  C1  UNL d   1      -1.441  -0.366  -0.743  0.00  0.00     0.062 A 
ATOM      3  C2  UNL d   1      -1.623   0.182   0.523  0.00  0.00     0.162 A 
ATOM      4  C3  UNL d   1      -0.538   0.336   1.387  0.00  0.00    -0.034 A 
ATOM      5  C4  UNL d   1       0.730  -0.068   0.965  0.00  0.00     0.162 A 
ATOM      6  C5  UNL d   1       0.907  -0.616  -0.302  0.00  0.00     0.062 A 
ATOM      7  F   UNL d   1       2.129  -1.000  -0.699  0.00  0.00    -0.097 F 
ATOM      8  F1  UNL d   1       1.794   0.065   1.769  0.00  0.00    -0.096 F 
ATOM      9  I   UNL d   1      -0.807   1.155   3.281  0.00  0.00    -0.060 I 
ATOM     10  F2  UNL d   1      -2.856   0.558   0.896  0.00  0.00    -0.096 F 
ATOM     11  F3  UNL d   1      -2.490  -0.510  -1.566  0.00  0.00    -0.097 F 
ATOM     12  F4  UNL d   1      -0.004  -1.293  -2.374  0.00  0.00    -0.092 F 
ENDROOT
TORSDOF 0
ENDMDL
