MODEL 1
REMARK minimizedAffinity -2.44750476
REMARK minimizedRMSD -1
REMARK  0 active torsions:
REMARK  status: ('A' for Active; 'I' for Inactive)
ROOT
ATOM      1  C   UNL d   1       0.650  -0.154   1.258  0.00  0.00     0.124 A 
ATOM      2  C1  UNL d   1      -0.546   0.170   1.883  0.00  0.00     0.062 A 
ATOM      3  C2  UNL d   1      -1.759  -0.124   1.268  0.00  0.00     0.162 A 
ATOM      4  C3  UNL d   1      -1.783  -0.748   0.020  0.00  0.00    -0.034 A 
ATOM      5  C4  UNL d   1      -0.576  -1.070  -0.602  0.00  0.00     0.162 A 
ATOM      6  C5  UNL d   1       0.634  -0.773   0.016  0.00  0.00     0.062 A 
ATOM      7  F   UNL d   1       1.789  -1.087  -0.589  0.00  0.00    -0.097 F 
ATOM      8  F1  UNL d   1      -0.562  -1.669  -1.802  0.00  0.00    -0.096 F 
ATOM      9  I   UNL d   1      -3.595  -1.190  -0.902  0.00  0.00    -0.060 I 
ATOM     10  F2  UNL d   1      -2.900   0.200   1.895  0.00  0.00    -0.096 F 
ATOM     11  F3  UNL d   1      -0.533   0.769   3.082  0.00  0.00    -0.097 F 
ATOM     12  F4  UNL d   1       1.816   0.132   1.852  0.00  0.00    -0.092 F 
ENDROOT
TORSDOF 0
ENDMDL
