MODEL 1
REMARK minimizedAffinity 4.64268351
REMARK minimizedRMSD -1
REMARK  0 active torsions:
REMARK  status: ('A' for Active; 'I' for Inactive)
ROOT
ATOM      1  N1  IND d   1       3.748   2.449   4.612  0.00  0.00    -0.196 N 
ATOM      2  C2  IND d   1       3.057   2.675   3.455  0.00  0.00     0.054 A 
ATOM      3  C3  IND d   1       3.301   3.923   2.997  0.00  0.00    -0.031 A 
ATOM      4  C4  IND d   1       4.879   5.729   3.932  0.00  0.00     0.051 A 
ATOM      5  C5  IND d   1       5.698   6.000   4.993  0.00  0.00    -0.031 A 
ATOM      6  C6  IND d   1       5.914   5.082   6.000  0.00  0.00     0.015 A 
ATOM      7  C7  IND d   1       5.327   3.848   5.977  0.00  0.00    -0.016 A 
ATOM      8  C8  IND d   1       4.490   3.572   4.906  0.00  0.00    -0.047 A 
ATOM      9  C9  IND d   1       4.233   4.516   3.903  0.00  0.00    -0.096 A 
ATOM     10  HN1 IND d   1       3.724   1.727   5.079  0.00  0.00     0.298 HD
ENDROOT
TORSDOF 0
ENDMDL
