MODEL 1
REMARK minimizedAffinity 11.0421171
REMARK minimizedRMSD -1
REMARK  0 active torsions:
REMARK  status: ('A' for Active; 'I' for Inactive)
ROOT
ATOM      1  N1  IND d   1       3.473   0.589  -2.267  0.00  0.00    -0.196 N 
ATOM      2  C2  IND d   1       2.939  -0.667  -2.182  0.00  0.00     0.054 A 
ATOM      3  C3  IND d   1       2.312  -0.833  -0.996  0.00  0.00    -0.031 A 
ATOM      4  C4  IND d   1       1.950   0.857   0.913  0.00  0.00     0.051 A 
ATOM      5  C5  IND d   1       2.285   2.121   1.310  0.00  0.00    -0.031 A 
ATOM      6  C6  IND d   1       3.045   2.957   0.518  0.00  0.00     0.015 A 
ATOM      7  C7  IND d   1       3.492   2.562  -0.711  0.00  0.00    -0.016 A 
ATOM      8  C8  IND d   1       3.161   1.276  -1.115  0.00  0.00    -0.047 A 
ATOM      9  C9  IND d   1       2.425   0.408  -0.297  0.00  0.00    -0.096 A 
ATOM     10  HN1 IND d   1       3.927   0.897  -2.928  0.00  0.00     0.298 HD
ENDROOT
TORSDOF 0
ENDMDL
