MODEL 1
REMARK minimizedAffinity 12.9482136
REMARK minimizedRMSD -1
REMARK  0 active torsions:
REMARK  status: ('A' for Active; 'I' for Inactive)
ROOT
ATOM      1  N1  IND d   1       1.899   0.225   0.380  0.00  0.00    -0.196 N 
ATOM      2  C2  IND d   1       2.797   0.877  -0.417  0.00  0.00     0.054 A 
ATOM      3  C3  IND d   1       3.226   2.009   0.185  0.00  0.00    -0.031 A 
ATOM      4  C4  IND d   1       2.663   2.933   2.521  0.00  0.00     0.051 A 
ATOM      5  C5  IND d   1       1.862   2.706   3.605  0.00  0.00    -0.031 A 
ATOM      6  C6  IND d   1       1.017   1.617   3.672  0.00  0.00     0.015 A 
ATOM      7  C7  IND d   1       0.950   0.704   2.657  0.00  0.00    -0.016 A 
ATOM      8  C8  IND d   1       1.757   0.935   1.552  0.00  0.00    -0.047 A 
ATOM      9  C9  IND d   1       2.585   2.061   1.460  0.00  0.00    -0.096 A 
ATOM     10  HN1 IND d   1       1.491  -0.506   0.183  0.00  0.00     0.298 HD
ENDROOT
TORSDOF 0
ENDMDL
