MODEL 1
REMARK minimizedAffinity 19.5589237
REMARK minimizedRMSD -1
REMARK  0 active torsions:
REMARK  status: ('A' for Active; 'I' for Inactive)
ROOT
ATOM      1  N1  IND d   1       2.279  -4.918   5.432  0.00  0.00    -0.196 N 
ATOM      2  C2  IND d   1       1.626  -5.978   5.997  0.00  0.00     0.054 A 
ATOM      3  C3  IND d   1       0.288  -5.824   5.880  0.00  0.00    -0.031 A 
ATOM      4  C4  IND d   1      -1.047  -3.960   4.708  0.00  0.00     0.051 A 
ATOM      5  C5  IND d   1      -0.892  -2.758   4.077  0.00  0.00    -0.031 A 
ATOM      6  C6  IND d   1       0.353  -2.204   3.859  0.00  0.00     0.015 A 
ATOM      7  C7  IND d   1       1.495  -2.841   4.255  0.00  0.00    -0.016 A 
ATOM      8  C8  IND d   1       1.341  -4.059   4.902  0.00  0.00    -0.047 A 
ATOM      9  C9  IND d   1       0.079  -4.605   5.165  0.00  0.00    -0.096 A 
ATOM     10  HN1 IND d   1       3.131  -4.807   5.410  0.00  0.00     0.298 HD
ENDROOT
TORSDOF 0
ENDMDL
