MODEL 1
REMARK minimizedAffinity 11.9274359
REMARK minimizedRMSD -1
REMARK  0 active torsions:
REMARK  status: ('A' for Active; 'I' for Inactive)
ROOT
ATOM      1  N1  IND d   1       5.985   2.572   5.674  0.00  0.00    -0.196 N 
ATOM      2  C2  IND d   1       6.000   1.578   4.735  0.00  0.00     0.054 A 
ATOM      3  C3  IND d   1       5.290   1.949   3.646  0.00  0.00    -0.031 A 
ATOM      4  C4  IND d   1       4.106   4.180   3.147  0.00  0.00     0.051 A 
ATOM      5  C5  IND d   1       3.785   5.380   3.717  0.00  0.00    -0.031 A 
ATOM      6  C6  IND d   1       4.192   5.713   4.993  0.00  0.00     0.015 A 
ATOM      7  C7  IND d   1       4.947   4.859   5.746  0.00  0.00    -0.016 A 
ATOM      8  C8  IND d   1       5.269   3.637   5.173  0.00  0.00    -0.047 A 
ATOM      9  C9  IND d   1       4.823   3.276   3.895  0.00  0.00    -0.096 A 
ATOM     10  HN1 IND d   1       6.359   2.537   6.447  0.00  0.00     0.298 HD
ENDROOT
TORSDOF 0
ENDMDL
