MODEL 1
REMARK minimizedAffinity 12.6858902
REMARK minimizedRMSD -1
REMARK  0 active torsions:
REMARK  status: ('A' for Active; 'I' for Inactive)
ROOT
ATOM      1  N1  IND d   1       3.212  -2.264  -1.014  0.00  0.00    -0.196 N 
ATOM      2  C2  IND d   1       2.297  -1.985  -1.991  0.00  0.00     0.054 A 
ATOM      3  C3  IND d   1       1.526  -0.936  -1.627  0.00  0.00    -0.031 A 
ATOM      4  C4  IND d   1       1.656   0.536   0.481  0.00  0.00     0.051 A 
ATOM      5  C5  IND d   1       2.305   0.648   1.679  0.00  0.00    -0.031 A 
ATOM      6  C6  IND d   1       3.312  -0.221   2.046  0.00  0.00     0.015 A 
ATOM      7  C7  IND d   1       3.717  -1.232   1.221  0.00  0.00    -0.016 A 
ATOM      8  C8  IND d   1       3.055  -1.353   0.007  0.00  0.00    -0.047 A 
ATOM      9  C9  IND d   1       2.003  -0.500  -0.353  0.00  0.00    -0.096 A 
ATOM     10  HN1 IND d   1       3.789  -2.902  -1.034  0.00  0.00     0.298 HD
ENDROOT
TORSDOF 0
ENDMDL
