MODEL 1
REMARK minimizedAffinity -1.88896739
REMARK minimizedRMSD -1
REMARK  0 active torsions:
REMARK  status: ('A' for Active; 'I' for Inactive)
ROOT
ATOM      1  N1  IND d   1       2.783  -1.656   0.508  0.00  0.00    -0.196 N 
ATOM      2  C2  IND d   1       1.825  -1.795  -0.457  0.00  0.00     0.054 A 
ATOM      3  C3  IND d   1       1.908  -0.785  -1.352  0.00  0.00    -0.031 A 
ATOM      4  C4  IND d   1       3.604   1.148  -1.483  0.00  0.00     0.051 A 
ATOM      5  C5  IND d   1       4.645   1.715  -0.803  0.00  0.00    -0.031 A 
ATOM      6  C6  IND d   1       5.130   1.176   0.371  0.00  0.00     0.015 A 
ATOM      7  C7  IND d   1       4.597   0.037   0.905  0.00  0.00    -0.016 A 
ATOM      8  C8  IND d   1       3.535  -0.538   0.221  0.00  0.00    -0.047 A 
ATOM      9  C9  IND d   1       3.011   0.028  -0.948  0.00  0.00    -0.096 A 
ATOM     10  HN1 IND d   1       2.896  -2.179   1.181  0.00  0.00     0.298 HD
ENDROOT
TORSDOF 0
ENDMDL
