MODEL 1
REMARK minimizedAffinity 2.35641241
REMARK minimizedRMSD -1
REMARK  0 active torsions:
REMARK  status: ('A' for Active; 'I' for Inactive)
ROOT
ATOM      1  N1  IND d   1       1.957  -3.022  -0.407  0.00  0.00    -0.196 N 
ATOM      2  C2  IND d   1       0.941  -2.864   0.494  0.00  0.00     0.054 A 
ATOM      3  C3  IND d   1       0.855  -1.573   0.885  0.00  0.00    -0.031 A 
ATOM      4  C4  IND d   1       2.212   0.468   0.097  0.00  0.00     0.051 A 
ATOM      5  C5  IND d   1       3.274   0.817  -0.689  0.00  0.00    -0.031 A 
ATOM      6  C6  IND d   1       3.963  -0.114  -1.439  0.00  0.00     0.015 A 
ATOM      7  C7  IND d   1       3.607  -1.433  -1.439  0.00  0.00    -0.016 A 
ATOM      8  C8  IND d   1       2.534  -1.793  -0.636  0.00  0.00    -0.047 A 
ATOM      9  C9  IND d   1       1.857  -0.859   0.160  0.00  0.00    -0.096 A 
ATOM     10  HN1 IND d   1       2.195  -3.765  -0.769  0.00  0.00     0.298 HD
ENDROOT
TORSDOF 0
ENDMDL
