MODEL 1
REMARK minimizedAffinity 9.83621502
REMARK minimizedRMSD -1
REMARK  0 active torsions:
REMARK  status: ('A' for Active; 'I' for Inactive)
ROOT
ATOM      1  N1  IND d   1      -4.953   2.499   1.550  0.00  0.00    -0.196 N 
ATOM      2  C2  IND d   1      -5.152   2.831   0.239  0.00  0.00     0.054 A 
ATOM      3  C3  IND d   1      -5.607   4.100   0.139  0.00  0.00    -0.031 A 
ATOM      4  C4  IND d   1      -6.000   5.847   1.988  0.00  0.00     0.051 A 
ATOM      5  C5  IND d   1      -5.992   5.999   3.347  0.00  0.00    -0.031 A 
ATOM      6  C6  IND d   1      -5.627   4.971   4.192  0.00  0.00     0.015 A 
ATOM      7  C7  IND d   1      -5.244   3.752   3.709  0.00  0.00    -0.016 A 
ATOM      8  C8  IND d   1      -5.258   3.593   2.330  0.00  0.00    -0.047 A 
ATOM      9  C9  IND d   1      -5.668   4.619   1.469  0.00  0.00    -0.096 A 
ATOM     10  HN1 IND d   1      -4.682   1.736   1.839  0.00  0.00     0.298 HD
ENDROOT
TORSDOF 0
ENDMDL
