MODEL 1
REMARK minimizedAffinity 6.90813446
REMARK minimizedRMSD -1
REMARK  0 active torsions:
REMARK  status: ('A' for Active; 'I' for Inactive)
ROOT
ATOM      1  N1  IND d   1       3.216   0.178  -1.935  0.00  0.00    -0.196 N 
ATOM      2  C2  IND d   1       2.393  -0.394  -1.005  0.00  0.00     0.054 A 
ATOM      3  C3  IND d   1       2.552   0.206   0.196  0.00  0.00    -0.031 A 
ATOM      4  C4  IND d   1       4.034   2.211   0.839  0.00  0.00     0.051 A 
ATOM      5  C5  IND d   1       4.991   3.048   0.338  0.00  0.00    -0.031 A 
ATOM      6  C6  IND d   1       5.412   2.970  -0.974  0.00  0.00     0.015 A 
ATOM      7  C7  IND d   1       4.881   2.057  -1.840  0.00  0.00    -0.016 A 
ATOM      8  C8  IND d   1       3.914   1.201  -1.333  0.00  0.00    -0.047 A 
ATOM      9  C9  IND d   1       3.513   1.247   0.009  0.00  0.00    -0.096 A 
ATOM     10  HN1 IND d   1       3.286  -0.062  -2.758  0.00  0.00     0.298 HD
ENDROOT
TORSDOF 0
ENDMDL
