MODEL 1
REMARK minimizedAffinity 21.0682774
REMARK minimizedRMSD -1
REMARK  0 active torsions:
REMARK  status: ('A' for Active; 'I' for Inactive)
ROOT
ATOM      1  N1  IND d   1      -3.544  -0.077  -2.356  0.00  0.00    -0.196 N 
ATOM      2  C2  IND d   1      -2.269   0.412  -2.417  0.00  0.00     0.054 A 
ATOM      3  C3  IND d   1      -2.061   1.036  -3.598  0.00  0.00    -0.031 A 
ATOM      4  C4  IND d   1      -3.704   1.463  -5.534  0.00  0.00     0.051 A 
ATOM      5  C5  IND d   1      -4.972   1.175  -5.954  0.00  0.00    -0.031 A 
ATOM      6  C6  IND d   1      -5.848   0.443  -5.179  0.00  0.00     0.015 A 
ATOM      7  C7  IND d   1      -5.490  -0.021  -3.945  0.00  0.00    -0.016 A 
ATOM      8  C8  IND d   1      -4.201   0.263  -3.518  0.00  0.00    -0.047 A 
ATOM      9  C9  IND d   1      -3.293   0.969  -4.318  0.00  0.00    -0.096 A 
ATOM     10  HN1 IND d   1      -3.880  -0.521  -1.701  0.00  0.00     0.298 HD
ENDROOT
TORSDOF 0
ENDMDL
