MODEL 1
REMARK minimizedAffinity 6.23409271
REMARK minimizedRMSD -1
REMARK  0 active torsions:
REMARK  status: ('A' for Active; 'I' for Inactive)
ROOT
ATOM      1  N1  IND d   1      -5.816   0.793  -1.592  0.00  0.00    -0.196 N 
ATOM      2  C2  IND d   1      -5.015   0.429  -0.547  0.00  0.00     0.054 A 
ATOM      3  C3  IND d   1      -3.738   0.278  -0.964  0.00  0.00    -0.031 A 
ATOM      4  C4  IND d   1      -2.720   0.679  -3.294  0.00  0.00     0.051 A 
ATOM      5  C5  IND d   1      -3.062   0.986  -4.581  0.00  0.00    -0.031 A 
ATOM      6  C6  IND d   1      -4.367   1.252  -4.944  0.00  0.00     0.015 A 
ATOM      7  C7  IND d   1      -5.380   1.233  -4.028  0.00  0.00    -0.016 A 
ATOM      8  C8  IND d   1      -5.036   0.915  -2.721  0.00  0.00    -0.047 A 
ATOM      9  C9  IND d   1      -3.721   0.602  -2.355  0.00  0.00    -0.096 A 
ATOM     10  HN1 IND d   1      -6.665   0.925  -1.552  0.00  0.00     0.298 HD
ENDROOT
TORSDOF 0
ENDMDL
