MODEL 1
REMARK minimizedAffinity -4.80612755
REMARK minimizedRMSD -1
REMARK  0 active torsions:
REMARK  status: ('A' for Active; 'I' for Inactive)
ROOT
ATOM      1  C4' PXY d   1      -0.826   0.325   1.418  0.00  0.00     0.077 C 
ATOM      2  C1' PXY d   1       2.445  -1.430  -3.013  0.00  0.00     0.077 C 
ATOM      3  C1  PXY d   1       1.592  -0.958  -1.852  0.00  0.00    -0.082 A 
ATOM      4  C2  PXY d   1       1.143  -1.836  -0.970  0.00  0.00     0.003 A 
ATOM      5  C3  PXY d   1       0.344  -1.431   0.068  0.00  0.00     0.003 A 
ATOM      6  C4  PXY d   1       0.046  -0.105   0.236  0.00  0.00    -0.082 A 
ATOM      7  C5  PXY d   1       0.510   0.799  -0.653  0.00  0.00     0.003 A 
ATOM      8  C6  PXY d   1       1.285   0.361  -1.723  0.00  0.00     0.003 A 
ENDROOT
TORSDOF 0
ENDMDL
