MODEL 1
REMARK minimizedAffinity -2.31546688
REMARK minimizedRMSD -1
REMARK  0 active torsions:
REMARK  status: ('A' for Active; 'I' for Inactive)
ROOT
ATOM      1  C4' PXY d   1      -1.707  -0.040   1.578  0.00  0.00     0.077 C 
ATOM      2  C1' PXY d   1       2.882   0.290  -1.921  0.00  0.00     0.077 C 
ATOM      3  C1  PXY d   1       1.678   0.191  -1.006  0.00  0.00    -0.082 A 
ATOM      4  C2  PXY d   1       0.920   1.256  -0.805  0.00  0.00     0.003 A 
ATOM      5  C3  PXY d   1      -0.155   1.192   0.045  0.00  0.00     0.003 A 
ATOM      6  C4  PXY d   1      -0.487   0.012   0.654  0.00  0.00    -0.082 A 
ATOM      7  C5  PXY d   1       0.276  -1.082   0.446  0.00  0.00     0.003 A 
ATOM      8  C6  PXY d   1       1.386  -0.986  -0.388  0.00  0.00     0.003 A 
ENDROOT
TORSDOF 0
ENDMDL
