MODEL 1
REMARK minimizedAffinity -5.97357655
REMARK minimizedRMSD -1
REMARK  0 active torsions:
REMARK  status: ('A' for Active; 'I' for Inactive)
ROOT
ATOM      1  C4' PXY d   1       0.843  -2.965  -1.475  0.00  0.00     0.077 C 
ATOM      2  C1' PXY d   1       1.238   2.553   0.202  0.00  0.00     0.077 C 
ATOM      3  C1  PXY d   1       1.137   1.109  -0.250  0.00  0.00    -0.082 A 
ATOM      4  C2  PXY d   1       0.479   0.235   0.495  0.00  0.00     0.003 A 
ATOM      5  C3  PXY d   1       0.405  -1.081   0.117  0.00  0.00     0.003 A 
ATOM      6  C4  PXY d   1       0.963  -1.495  -1.062  0.00  0.00    -0.082 A 
ATOM      7  C5  PXY d   1       1.627  -0.607  -1.833  0.00  0.00     0.003 A 
ATOM      8  C6  PXY d   1       1.726   0.715  -1.411  0.00  0.00     0.003 A 
ENDROOT
TORSDOF 0
ENDMDL
