MODEL 1
REMARK minimizedAffinity -3.87163043
REMARK minimizedRMSD -1
REMARK  0 active torsions:
REMARK  status: ('A' for Active; 'I' for Inactive)
ROOT
ATOM      1  C4' PXY d   1       1.928   0.363  -2.422  0.00  0.00     0.077 C 
ATOM      2  C1' PXY d   1      -1.907   0.185   1.899  0.00  0.00     0.077 C 
ATOM      3  C1  PXY d   1      -0.902   0.245   0.766  0.00  0.00    -0.082 A 
ATOM      4  C2  PXY d   1      -0.761  -0.796  -0.039  0.00  0.00     0.003 A 
ATOM      5  C3  PXY d   1       0.166  -0.771  -1.049  0.00  0.00     0.003 A 
ATOM      6  C4  PXY d   1       0.919   0.351  -1.271  0.00  0.00    -0.082 A 
ATOM      7  C5  PXY d   1       0.774   1.420  -0.460  0.00  0.00     0.003 A 
ATOM      8  C6  PXY d   1      -0.143   1.360   0.585  0.00  0.00     0.003 A 
ENDROOT
TORSDOF 0
ENDMDL
