MODEL 1
REMARK minimizedAffinity -2.61615825
REMARK minimizedRMSD -1
REMARK  0 active torsions:
REMARK  status: ('A' for Active; 'I' for Inactive)
ROOT
ATOM      1  C4' PXY d   1      -0.771   0.699   1.794  0.00  0.00     0.077 C 
ATOM      2  C1' PXY d   1       1.995  -0.622  -3.107  0.00  0.00     0.077 C 
ATOM      3  C1  PXY d   1       1.280  -0.269  -1.818  0.00  0.00    -0.082 A 
ATOM      4  C2  PXY d   1       0.266  -1.013  -1.408  0.00  0.00     0.003 A 
ATOM      5  C3  PXY d   1      -0.412  -0.690  -0.260  0.00  0.00     0.003 A 
ATOM      6  C4  PXY d   1      -0.014   0.375   0.503  0.00  0.00    -0.082 A 
ATOM      7  C5  PXY d   1       1.027   1.132   0.097  0.00  0.00     0.003 A 
ATOM      8  C6  PXY d   1       1.676   0.812  -1.092  0.00  0.00     0.003 A 
ENDROOT
TORSDOF 0
ENDMDL
