MODEL 1
REMARK minimizedAffinity -3.88112712
REMARK minimizedRMSD -1
REMARK  0 active torsions:
REMARK  status: ('A' for Active; 'I' for Inactive)
ROOT
ATOM      1  C4' PXY d   1       1.341  -3.700  -2.050  0.00  0.00     0.077 C 
ATOM      2  C1' PXY d   1       0.831   1.759  -0.221  0.00  0.00     0.077 C 
ATOM      3  C1  PXY d   1       0.969   0.332  -0.712  0.00  0.00    -0.082 A 
ATOM      4  C2  PXY d   1       0.252  -0.626  -0.148  0.00  0.00     0.003 A 
ATOM      5  C3  PXY d   1       0.388  -1.928  -0.558  0.00  0.00     0.003 A 
ATOM      6  C4  PXY d   1       1.227  -2.244  -1.593  0.00  0.00    -0.082 A 
ATOM      7  C5  PXY d   1       1.954  -1.270  -2.181  0.00  0.00     0.003 A 
ATOM      8  C6  PXY d   1       1.832   0.038  -1.722  0.00  0.00     0.003 A 
ENDROOT
TORSDOF 0
ENDMDL
