MODEL 1
REMARK minimizedAffinity -3.8079865
REMARK minimizedRMSD -1
REMARK  0 active torsions:
REMARK  status: ('A' for Active; 'I' for Inactive)
ROOT
ATOM      1  C4' PXY d   1       1.341  -0.002  -3.196  0.00  0.00     0.077 C 
ATOM      2  C1' PXY d   1       0.241  -0.415   2.464  0.00  0.00     0.077 C 
ATOM      3  C1  PXY d   1       0.530  -0.293   0.980  0.00  0.00    -0.082 A 
ATOM      4  C2  PXY d   1       0.173  -1.270   0.163  0.00  0.00     0.003 A 
ATOM      5  C3  PXY d   1       0.455  -1.191  -1.177  0.00  0.00     0.003 A 
ATOM      6  C4  PXY d   1       1.061  -0.077  -1.693  0.00  0.00    -0.082 A 
ATOM      7  C5  PXY d   1       1.418   0.929  -0.866  0.00  0.00     0.003 A 
ATOM      8  C6  PXY d   1       1.160   0.811   0.496  0.00  0.00     0.003 A 
ENDROOT
TORSDOF 0
ENDMDL
