MODEL 1
REMARK minimizedAffinity -5.20927858
REMARK minimizedRMSD -1
REMARK  0 active torsions:
REMARK  status: ('A' for Active; 'I' for Inactive)
ROOT
ATOM      1  C4' PXY d   1      -0.752  -0.156   1.535  0.00  0.00     0.077 C 
ATOM      2  C1' PXY d   1       2.423  -0.744  -3.260  0.00  0.00     0.077 C 
ATOM      3  C1  PXY d   1       1.597  -0.579  -1.999  0.00  0.00    -0.082 A 
ATOM      4  C2  PXY d   1       1.031  -1.639  -1.445  0.00  0.00     0.003 A 
ATOM      5  C3  PXY d   1       0.254  -1.503  -0.323  0.00  0.00     0.003 A 
ATOM      6  C4  PXY d   1       0.099  -0.277   0.268  0.00  0.00    -0.082 A 
ATOM      7  C5  PXY d   1       0.682   0.807  -0.286  0.00  0.00     0.003 A 
ATOM      8  C6  PXY d   1       1.432   0.654  -1.448  0.00  0.00     0.003 A 
ENDROOT
TORSDOF 0
ENDMDL
