MODEL 1
REMARK minimizedAffinity -4.23599291
REMARK minimizedRMSD -1
REMARK  0 active torsions:
REMARK  status: ('A' for Active; 'I' for Inactive)
ROOT
ATOM      1  C4' PXY d   1       1.933   0.080  -2.976  0.00  0.00     0.077 C 
ATOM      2  C1' PXY d   1      -1.020  -0.125   1.989  0.00  0.00     0.077 C 
ATOM      3  C1  PXY d   1      -0.245  -0.084   0.687  0.00  0.00    -0.082 A 
ATOM      4  C2  PXY d   1       0.435   1.004   0.364  0.00  0.00     0.003 A 
ATOM      5  C3  PXY d   1       1.115   1.069  -0.824  0.00  0.00     0.003 A 
ATOM      6  C4  PXY d   1       1.144  -0.010  -1.667  0.00  0.00    -0.082 A 
ATOM      7  C5  PXY d   1       0.462  -1.128  -1.339  0.00  0.00     0.003 A 
ATOM      8  C6  PXY d   1      -0.256  -1.159  -0.147  0.00  0.00     0.003 A 
ENDROOT
TORSDOF 0
ENDMDL
