MODEL 1
REMARK minimizedAffinity -1.56262386
REMARK minimizedRMSD -1
REMARK  0 active torsions:
REMARK  status: ('A' for Active; 'I' for Inactive)
ROOT
ATOM      1  C4' PXY d   1       2.008  -0.057  -3.681  0.00  0.00     0.077 C 
ATOM      2  C1' PXY d   1      -0.895  -0.255   1.313  0.00  0.00     0.077 C 
ATOM      3  C1  PXY d   1      -0.134  -0.216   0.003  0.00  0.00    -0.082 A 
ATOM      4  C2  PXY d   1       0.619   0.833  -0.285  0.00  0.00     0.003 A 
ATOM      5  C3  PXY d   1       1.289   0.899  -1.480  0.00  0.00     0.003 A 
ATOM      6  C4  PXY d   1       1.229  -0.144  -2.366  0.00  0.00    -0.082 A 
ATOM      7  C5  PXY d   1       0.472  -1.222  -2.074  0.00  0.00     0.003 A 
ATOM      8  C6  PXY d   1      -0.233  -1.251  -0.875  0.00  0.00     0.003 A 
ENDROOT
TORSDOF 0
ENDMDL
