MODEL 1
REMARK minimizedAffinity -4.55672932
REMARK minimizedRMSD -1
REMARK  0 active torsions:
REMARK  status: ('A' for Active; 'I' for Inactive)
ROOT
ATOM      1  C4' PXY d   1       1.144  -2.608  -2.026  0.00  0.00     0.077 C 
ATOM      2  C1' PXY d   1       0.709   2.929  -0.426  0.00  0.00     0.077 C 
ATOM      3  C1  PXY d   1       0.830   1.481  -0.856  0.00  0.00    -0.082 A 
ATOM      4  C2  PXY d   1      -0.054   0.595  -0.426  0.00  0.00     0.003 A 
ATOM      5  C3  PXY d   1       0.059  -0.725  -0.780  0.00  0.00     0.003 A 
ATOM      6  C4  PXY d   1       1.055  -1.133  -1.625  0.00  0.00    -0.082 A 
ATOM      7  C5  PXY d   1       1.955  -0.234  -2.077  0.00  0.00     0.003 A 
ATOM      8  C6  PXY d   1       1.847   1.094  -1.673  0.00  0.00     0.003 A 
ENDROOT
TORSDOF 0
ENDMDL
