MODEL 1
REMARK minimizedAffinity -5.59447193
REMARK minimizedRMSD -1
REMARK  0 active torsions:
REMARK  status: ('A' for Active; 'I' for Inactive)
ROOT
ATOM      1  C4' PXY d   1      -0.809   0.012   1.851  0.00  0.00     0.077 C 
ATOM      2  C1' PXY d   1       2.303  -0.325  -3.008  0.00  0.00     0.077 C 
ATOM      3  C1  PXY d   1       1.480  -0.247  -1.738  0.00  0.00    -0.082 A 
ATOM      4  C2  PXY d   1       1.399   0.899  -1.080  0.00  0.00     0.003 A 
ATOM      5  C3  PXY d   1       0.685   0.979   0.088  0.00  0.00     0.003 A 
ATOM      6  C4  PXY d   1       0.003  -0.111   0.559  0.00  0.00    -0.082 A 
ATOM      7  C5  PXY d   1       0.072  -1.280  -0.112  0.00  0.00     0.003 A 
ATOM      8  C6  PXY d   1       0.836  -1.352  -1.273  0.00  0.00     0.003 A 
ENDROOT
TORSDOF 0
ENDMDL
