MODEL 1
REMARK minimizedAffinity -2.90707326
REMARK minimizedRMSD -1
REMARK  0 active torsions:
REMARK  status: ('A' for Active; 'I' for Inactive)
ROOT
ATOM      1  C4' PXY d   1       1.977  -0.587  -3.287  0.00  0.00     0.077 C 
ATOM      2  C1' PXY d   1      -0.750   0.382   1.717  0.00  0.00     0.077 C 
ATOM      3  C1  PXY d   1      -0.034   0.115   0.408  0.00  0.00    -0.082 A 
ATOM      4  C2  PXY d   1       0.588   1.106  -0.211  0.00  0.00     0.003 A 
ATOM      5  C3  PXY d   1       1.214   0.889  -1.412  0.00  0.00     0.003 A 
ATOM      6  C4  PXY d   1       1.249  -0.366  -1.958  0.00  0.00    -0.082 A 
ATOM      7  C5  PXY d   1       0.626  -1.384  -1.327  0.00  0.00     0.003 A 
ATOM      8  C6  PXY d   1      -0.038  -1.135  -0.130  0.00  0.00     0.003 A 
ENDROOT
TORSDOF 0
ENDMDL
