MODEL 1
REMARK minimizedAffinity -3.17989469
REMARK minimizedRMSD -1
REMARK  0 active torsions:
REMARK  status: ('A' for Active; 'I' for Inactive)
ROOT
ATOM      1  C4' PXY d   1       2.268   0.012  -2.735  0.00  0.00     0.077 C 
ATOM      2  C1' PXY d   1      -1.651   0.029   1.515  0.00  0.00     0.077 C 
ATOM      3  C1  PXY d   1      -0.623   0.012   0.401  0.00  0.00    -0.082 A 
ATOM      4  C2  PXY d   1       0.122   1.083   0.182  0.00  0.00     0.003 A 
ATOM      5  C3  PXY d   1       1.035   1.096  -0.842  0.00  0.00     0.003 A 
ATOM      6  C4  PXY d   1       1.224  -0.018  -1.615  0.00  0.00    -0.082 A 
ATOM      7  C5  PXY d   1       0.475  -1.119  -1.391  0.00  0.00     0.003 A 
ATOM      8  C6  PXY d   1      -0.474  -1.097  -0.373  0.00  0.00     0.003 A 
ENDROOT
TORSDOF 0
ENDMDL
