MODEL 1
REMARK minimizedAffinity -3.9138248
REMARK minimizedRMSD -1
REMARK  0 active torsions:
REMARK  status: ('A' for Active; 'I' for Inactive)
ROOT
ATOM      1  C4' PXY d   1       1.909  -0.144  -2.483  0.00  0.00     0.077 C 
ATOM      2  C1' PXY d   1      -1.354   0.388   2.258  0.00  0.00     0.077 C 
ATOM      3  C1  PXY d   1      -0.500   0.236   1.015  0.00  0.00    -0.082 A 
ATOM      4  C2  PXY d   1       0.375   1.178   0.703  0.00  0.00     0.003 A 
ATOM      5  C3  PXY d   1       1.133   1.071  -0.435  0.00  0.00     0.003 A 
ATOM      6  C4  PXY d   1       1.032  -0.037  -1.233  0.00  0.00    -0.082 A 
ATOM      7  C5  PXY d   1       0.150  -1.007  -0.915  0.00  0.00     0.003 A 
ATOM      8  C6  PXY d   1      -0.640  -0.861   0.221  0.00  0.00     0.003 A 
ENDROOT
TORSDOF 0
ENDMDL
