MODEL 1
REMARK minimizedAffinity -5.20248413
REMARK minimizedRMSD -1
REMARK  0 active torsions:
REMARK  status: ('A' for Active; 'I' for Inactive)
ROOT
ATOM      1  C4' PXY d   1       1.707   0.070  -2.712  0.00  0.00     0.077 C 
ATOM      2  C1' PXY d   1      -1.965   0.383   1.742  0.00  0.00     0.077 C 
ATOM      3  C1  PXY d   1      -0.995   0.291   0.580  0.00  0.00    -0.082 A 
ATOM      4  C2  PXY d   1      -0.817   1.340  -0.207  0.00  0.00     0.003 A 
ATOM      5  C3  PXY d   1       0.032   1.264  -1.281  0.00  0.00     0.003 A 
ATOM      6  C4  PXY d   1       0.745   0.120  -1.521  0.00  0.00    -0.082 A 
ATOM      7  C5  PXY d   1       0.577  -0.950  -0.716  0.00  0.00     0.003 A 
ATOM      8  C6  PXY d   1      -0.320  -0.866   0.344  0.00  0.00     0.003 A 
ENDROOT
TORSDOF 0
ENDMDL
