MODEL 1
REMARK minimizedAffinity -4.5494132
REMARK minimizedRMSD -1
REMARK  0 active torsions:
REMARK  status: ('A' for Active; 'I' for Inactive)
ROOT
ATOM      1  C4' PXY d   1      -0.846   0.359   1.705  0.00  0.00     0.077 C 
ATOM      2  C1' PXY d   1       2.063  -0.679  -3.182  0.00  0.00     0.077 C 
ATOM      3  C1  PXY d   1       1.309  -0.398  -1.897  0.00  0.00    -0.082 A 
ATOM      4  C2  PXY d   1       0.482  -1.309  -1.411  0.00  0.00     0.003 A 
ATOM      5  C3  PXY d   1      -0.232  -1.059  -0.268  0.00  0.00     0.003 A 
ATOM      6  C4  PXY d   1      -0.057   0.115   0.415  0.00  0.00    -0.082 A 
ATOM      7  C5  PXY d   1       0.793   1.045  -0.068  0.00  0.00     0.003 A 
ATOM      8  C6  PXY d   1       1.477   0.789  -1.253  0.00  0.00     0.003 A 
ENDROOT
TORSDOF 0
ENDMDL
