MODEL 1
REMARK minimizedAffinity -2.86366057
REMARK minimizedRMSD -1
REMARK  0 active torsions:
REMARK  status: ('A' for Active; 'I' for Inactive)
ROOT
ATOM      1  C4' PXY d   1      -1.706  -0.010   1.260  0.00  0.00     0.077 C 
ATOM      2  C1' PXY d   1       2.934   0.153  -2.183  0.00  0.00     0.077 C 
ATOM      3  C1  PXY d   1       1.724   0.116  -1.271  0.00  0.00    -0.082 A 
ATOM      4  C2  PXY d   1       0.755  -0.753  -1.506  0.00  0.00     0.003 A 
ATOM      5  C3  PXY d   1      -0.361  -0.779  -0.709  0.00  0.00     0.003 A 
ATOM      6  C4  PXY d   1      -0.462   0.057   0.370  0.00  0.00    -0.082 A 
ATOM      7  C5  PXY d   1       0.528   0.939   0.623  0.00  0.00     0.003 A 
ATOM      8  C6  PXY d   1       1.634   0.978  -0.222  0.00  0.00     0.003 A 
ENDROOT
TORSDOF 0
ENDMDL
