MODEL 1
REMARK minimizedAffinity -4.6350584
REMARK minimizedRMSD -1
REMARK  0 active torsions:
REMARK  status: ('A' for Active; 'I' for Inactive)
ROOT
ATOM      1  C4' PXY d   1       1.562   0.174  -2.733  0.00  0.00     0.077 C 
ATOM      2  C1' PXY d   1      -1.391   0.096   2.236  0.00  0.00     0.077 C 
ATOM      3  C1  PXY d   1      -0.616   0.130   0.934  0.00  0.00    -0.082 A 
ATOM      4  C2  PXY d   1      -0.744  -0.864   0.070  0.00  0.00     0.003 A 
ATOM      5  C3  PXY d   1      -0.026  -0.866  -1.098  0.00  0.00     0.003 A 
ATOM      6  C4  PXY d   1       0.792   0.187  -1.409  0.00  0.00    -0.082 A 
ATOM      7  C5  PXY d   1       0.920   1.210  -0.538  0.00  0.00     0.003 A 
ATOM      8  C6  PXY d   1       0.214   1.173   0.660  0.00  0.00     0.003 A 
ENDROOT
TORSDOF 0
ENDMDL
