MODEL 1
REMARK minimizedAffinity -3.55374336
REMARK minimizedRMSD -1
REMARK  0 active torsions:
REMARK  status: ('A' for Active; 'I' for Inactive)
ROOT
ATOM      1  C4' PXY d   1       1.195   0.422  -3.517  0.00  0.00     0.077 C 
ATOM      2  C1' PXY d   1      -0.329  -0.532   1.977  0.00  0.00     0.077 C 
ATOM      3  C1  PXY d   1       0.072  -0.269   0.539  0.00  0.00    -0.082 A 
ATOM      4  C2  PXY d   1      -0.309  -1.109  -0.411  0.00  0.00     0.003 A 
ATOM      5  C3  PXY d   1       0.072  -0.903  -1.712  0.00  0.00     0.003 A 
ATOM      6  C4  PXY d   1       0.805   0.202  -2.053  0.00  0.00    -0.082 A 
ATOM      7  C5  PXY d   1       1.189   1.068  -1.092  0.00  0.00     0.003 A 
ATOM      8  C6  PXY d   1       0.827   0.820   0.229  0.00  0.00     0.003 A 
ENDROOT
TORSDOF 0
ENDMDL
