MODEL 1
REMARK minimizedAffinity 9.2127142
REMARK minimizedRMSD -1
REMARK  2 active torsions:
REMARK  status: ('A' for Active; 'I' for Inactive)
REMARK    1  A    between atoms: C1_2  and  C2_3 
REMARK    2  A    between atoms: C2_3  and  C3_4 
ROOT
ATOM      1  C3  UNL d   1      -0.040   2.692  -1.413  0.00  0.00    -0.075 A 
ATOM      2  C4  UNL d   1      -1.343   2.253  -1.684  0.00  0.00     0.002 A 
ATOM      3  C5  UNL d   1      -2.029   1.457  -0.765  0.00  0.00     0.002 A 
ATOM      4  C6  UNL d   1      -1.417   1.084   0.429  0.00  0.00    -0.004 A 
ATOM      5  C7  UNL d   1      -0.116   1.501   0.702  0.00  0.00     0.002 A 
ATOM      6  C8  UNL d   1       0.570   2.300  -0.214  0.00  0.00     0.002 A 
ENDROOT
BRANCH   1   7
ATOM      7  C2  UNL d   1       0.696   3.577  -2.390  0.00  0.00     0.056 C 
BRANCH   7   8
ATOM      8  C1  UNL d   1       0.725   5.057  -1.992  0.00  0.00     0.007 C 
ATOM      9  C   UNL d   1       0.550   6.000  -3.175  0.00  0.00     0.009 C 
ENDBRANCH   7   8
ENDBRANCH   1   7
TORSDOF 2
ENDMDL
