MODEL 1
REMARK minimizedAffinity 2.20244241
REMARK minimizedRMSD -1
REMARK  2 active torsions:
REMARK  status: ('A' for Active; 'I' for Inactive)
REMARK    1  A    between atoms: C1_2  and  C2_3 
REMARK    2  A    between atoms: C2_3  and  C3_4 
ROOT
ATOM      1  C3  UNL d   1      -0.660   1.812  -0.272  0.00  0.00    -0.075 A 
ATOM      2  C4  UNL d   1      -0.298   3.020  -0.887  0.00  0.00     0.002 A 
ATOM      3  C5  UNL d   1       0.051   4.130  -0.117  0.00  0.00     0.002 A 
ATOM      4  C6  UNL d   1       0.032   4.050   1.273  0.00  0.00    -0.004 A 
ATOM      5  C7  UNL d   1      -0.341   2.861   1.895  0.00  0.00     0.002 A 
ATOM      6  C8  UNL d   1      -0.687   1.747   1.127  0.00  0.00     0.002 A 
ENDROOT
BRANCH   1   7
ATOM      7  C2  UNL d   1      -1.010   0.599  -1.100  0.00  0.00     0.056 C 
BRANCH   7   8
ATOM      8  C1  UNL d   1      -2.431   0.074  -0.868  0.00  0.00     0.007 C 
ATOM      9  C   UNL d   1      -2.640  -1.343  -1.384  0.00  0.00     0.009 C 
ENDBRANCH   7   8
ENDBRANCH   1   7
TORSDOF 2
ENDMDL
