MODEL 1
REMARK minimizedAffinity 11.9342289
REMARK minimizedRMSD -1
REMARK  2 active torsions:
REMARK  status: ('A' for Active; 'I' for Inactive)
REMARK    1  A    between atoms: C1_2  and  C2_3 
REMARK    2  A    between atoms: C2_3  and  C3_4 
ROOT
ATOM      1  C3  UNL d   1       4.652  -3.473  -0.711  0.00  0.00    -0.075 A 
ATOM      2  C4  UNL d   1       3.343  -3.791  -0.319  0.00  0.00     0.002 A 
ATOM      3  C5  UNL d   1       2.443  -2.784   0.029  0.00  0.00     0.002 A 
ATOM      4  C6  UNL d   1       2.841  -1.449   0.001  0.00  0.00    -0.004 A 
ATOM      5  C7  UNL d   1       4.144  -1.122  -0.371  0.00  0.00     0.002 A 
ATOM      6  C8  UNL d   1       5.045  -2.128  -0.724  0.00  0.00     0.002 A 
ENDROOT
BRANCH   1   7
ATOM      7  C2  UNL d   1       5.622  -4.556  -1.117  0.00  0.00     0.056 C 
BRANCH   7   8
ATOM      8  C1  UNL d   1       5.373  -5.905  -0.433  0.00  0.00     0.007 C 
ATOM      9  C   UNL d   1       6.000  -6.000   0.952  0.00  0.00     0.009 C 
ENDBRANCH   7   8
ENDBRANCH   1   7
TORSDOF 2
ENDMDL
