MODEL 1
REMARK minimizedAffinity 8.47359943
REMARK minimizedRMSD -1
REMARK  2 active torsions:
REMARK  status: ('A' for Active; 'I' for Inactive)
REMARK    1  A    between atoms: C1_2  and  C2_3 
REMARK    2  A    between atoms: C2_3  and  C3_4 
ROOT
ATOM      1  C3  UNL d   1       0.746   0.578   3.206  0.00  0.00    -0.075 A 
ATOM      2  C4  UNL d   1       1.860   1.391   2.952  0.00  0.00     0.002 A 
ATOM      3  C5  UNL d   1       1.696   2.691   2.475  0.00  0.00     0.002 A 
ATOM      4  C6  UNL d   1       0.418   3.192   2.235  0.00  0.00    -0.004 A 
ATOM      5  C7  UNL d   1      -0.696   2.388   2.467  0.00  0.00     0.002 A 
ATOM      6  C8  UNL d   1      -0.534   1.088   2.949  0.00  0.00     0.002 A 
ENDROOT
BRANCH   1   7
ATOM      7  C2  UNL d   1       0.916  -0.819   3.751  0.00  0.00     0.056 C 
BRANCH   7   8
ATOM      8  C1  UNL d   1       0.000  -1.143   4.936  0.00  0.00     0.007 C 
ATOM      9  C   UNL d   1       0.675  -1.998   6.000  0.00  0.00     0.009 C 
ENDBRANCH   7   8
ENDBRANCH   1   7
TORSDOF 2
ENDMDL
