MODEL 1
REMARK minimizedAffinity 6.55020189
REMARK minimizedRMSD -1
REMARK  2 active torsions:
REMARK  status: ('A' for Active; 'I' for Inactive)
REMARK    1  A    between atoms: C1_2  and  C2_3 
REMARK    2  A    between atoms: C2_3  and  C3_4 
ROOT
ATOM      1  C3  UNL d   1      -0.102   1.989   1.708  0.00  0.00    -0.075 A 
ATOM      2  C4  UNL d   1      -0.493   1.427   0.484  0.00  0.00     0.002 A 
ATOM      3  C5  UNL d   1      -0.526   2.205  -0.674  0.00  0.00     0.002 A 
ATOM      4  C6  UNL d   1      -0.179   3.553  -0.621  0.00  0.00    -0.004 A 
ATOM      5  C7  UNL d   1       0.195   4.125   0.593  0.00  0.00     0.002 A 
ATOM      6  C8  UNL d   1       0.233   3.348   1.752  0.00  0.00     0.002 A 
ENDROOT
BRANCH   1   7
ATOM      7  C2  UNL d   1      -0.037   1.145   2.959  0.00  0.00     0.056 C 
BRANCH   7   8
ATOM      8  C1  UNL d   1       1.011   0.029   2.905  0.00  0.00     0.007 C 
ATOM      9  C   UNL d   1       0.782  -1.061   3.943  0.00  0.00     0.009 C 
ENDBRANCH   7   8
ENDBRANCH   1   7
TORSDOF 2
ENDMDL
