MODEL 1
REMARK minimizedAffinity 6.78369761
REMARK minimizedRMSD -1
REMARK  2 active torsions:
REMARK  status: ('A' for Active; 'I' for Inactive)
REMARK    1  A    between atoms: C1_2  and  C2_3 
REMARK    2  A    between atoms: C2_3  and  C3_4 
ROOT
ATOM      1  C3  UNL d   1      -0.254   2.502   0.514  0.00  0.00    -0.075 A 
ATOM      2  C4  UNL d   1      -0.351   1.632   1.610  0.00  0.00     0.002 A 
ATOM      3  C5  UNL d   1       0.248   1.956   2.827  0.00  0.00     0.002 A 
ATOM      4  C6  UNL d   1       0.959   3.147   2.962  0.00  0.00    -0.004 A 
ATOM      5  C7  UNL d   1       1.076   4.011   1.875  0.00  0.00     0.002 A 
ATOM      6  C8  UNL d   1       0.474   3.690   0.657  0.00  0.00     0.002 A 
ENDROOT
BRANCH   1   7
ATOM      7  C2  UNL d   1      -0.925   2.170  -0.797  0.00  0.00     0.056 C 
BRANCH   7   8
ATOM      8  C1  UNL d   1      -2.194   1.323  -0.652  0.00  0.00     0.007 C 
ATOM      9  C   UNL d   1      -3.367   1.855  -1.465  0.00  0.00     0.009 C 
ENDBRANCH   7   8
ENDBRANCH   1   7
TORSDOF 2
ENDMDL
