MODEL 1
REMARK minimizedAffinity 3.71743679
REMARK minimizedRMSD -1
REMARK  2 active torsions:
REMARK  status: ('A' for Active; 'I' for Inactive)
REMARK    1  A    between atoms: C1_2  and  C2_3 
REMARK    2  A    between atoms: C2_3  and  C3_4 
ROOT
ATOM      1  C3  UNL d   1      -0.935   1.329  -0.959  0.00  0.00    -0.075 A 
ATOM      2  C4  UNL d   1       0.094   0.385  -1.086  0.00  0.00     0.002 A 
ATOM      3  C5  UNL d   1      -0.201  -0.961  -1.303  0.00  0.00     0.002 A 
ATOM      4  C6  UNL d   1      -1.527  -1.382  -1.385  0.00  0.00    -0.004 A 
ATOM      5  C7  UNL d   1      -2.558  -0.455  -1.243  0.00  0.00     0.002 A 
ATOM      6  C8  UNL d   1      -2.265   0.893  -1.031  0.00  0.00     0.002 A 
ENDROOT
BRANCH   1   7
ATOM      7  C2  UNL d   1      -0.622   2.792  -0.754  0.00  0.00     0.056 C 
BRANCH   7   8
ATOM      8  C1  UNL d   1       0.252   3.076   0.472  0.00  0.00     0.007 C 
ATOM      9  C   UNL d   1      -0.478   2.866   1.791  0.00  0.00     0.009 C 
ENDBRANCH   7   8
ENDBRANCH   1   7
TORSDOF 2
ENDMDL
