MODEL 1
REMARK minimizedAffinity -1.29745054
REMARK minimizedRMSD -1
REMARK  2 active torsions:
REMARK  status: ('A' for Active; 'I' for Inactive)
REMARK    1  A    between atoms: C1_2  and  C2_3 
REMARK    2  A    between atoms: C2_3  and  C3_4 
ROOT
ATOM      1  C3  UNL d   1       3.858  -2.658  -1.146  0.00  0.00    -0.075 A 
ATOM      2  C4  UNL d   1       3.311  -1.766  -0.212  0.00  0.00     0.002 A 
ATOM      3  C5  UNL d   1       4.105  -1.224   0.799  0.00  0.00     0.002 A 
ATOM      4  C6  UNL d   1       5.450  -1.574   0.896  0.00  0.00    -0.004 A 
ATOM      5  C7  UNL d   1       6.000  -2.472  -0.016  0.00  0.00     0.002 A 
ATOM      6  C8  UNL d   1       5.209  -3.012  -1.032  0.00  0.00     0.002 A 
ENDROOT
BRANCH   1   7
ATOM      7  C2  UNL d   1       3.011  -3.225  -2.260  0.00  0.00     0.056 C 
BRANCH   7   8
ATOM      8  C1  UNL d   1       2.313  -4.542  -1.905  0.00  0.00     0.007 C 
ATOM      9  C   UNL d   1       0.994  -4.343  -1.170  0.00  0.00     0.009 C 
ENDBRANCH   7   8
ENDBRANCH   1   7
TORSDOF 2
ENDMDL
