MODEL 1
REMARK minimizedAffinity 3.0598042
REMARK minimizedRMSD -1
REMARK  2 active torsions:
REMARK  status: ('A' for Active; 'I' for Inactive)
REMARK    1  A    between atoms: C1_2  and  C2_3 
REMARK    2  A    between atoms: C2_3  and  C3_4 
ROOT
ATOM      1  C3  UNL d   1       3.587   1.540  -0.681  0.00  0.00    -0.075 A 
ATOM      2  C4  UNL d   1       2.578   1.809   0.255  0.00  0.00     0.002 A 
ATOM      3  C5  UNL d   1       2.381   0.962   1.346  0.00  0.00     0.002 A 
ATOM      4  C6  UNL d   1       3.181  -0.167   1.509  0.00  0.00    -0.004 A 
ATOM      5  C7  UNL d   1       4.175  -0.452   0.576  0.00  0.00     0.002 A 
ATOM      6  C8  UNL d   1       4.378   0.396  -0.514  0.00  0.00     0.002 A 
ENDROOT
BRANCH   1   7
ATOM      7  C2  UNL d   1       3.825   2.469  -1.848  0.00  0.00     0.056 C 
BRANCH   7   8
ATOM      8  C1  UNL d   1       3.251   1.962  -3.176  0.00  0.00     0.007 C 
ATOM      9  C   UNL d   1       4.122   0.903  -3.840  0.00  0.00     0.009 C 
ENDBRANCH   7   8
ENDBRANCH   1   7
TORSDOF 2
ENDMDL
