MODEL 1
REMARK minimizedAffinity 7.77749777
REMARK minimizedRMSD -1
REMARK  2 active torsions:
REMARK  status: ('A' for Active; 'I' for Inactive)
REMARK    1  A    between atoms: C1_2  and  C2_3 
REMARK    2  A    between atoms: C2_3  and  C3_4 
ROOT
ATOM      1  C3  UNL d   1       4.153  -0.477   2.599  0.00  0.00    -0.075 A 
ATOM      2  C4  UNL d   1       4.758  -0.735   1.360  0.00  0.00     0.002 A 
ATOM      3  C5  UNL d   1       4.294  -0.109   0.202  0.00  0.00     0.002 A 
ATOM      4  C6  UNL d   1       3.217   0.772   0.266  0.00  0.00    -0.004 A 
ATOM      5  C7  UNL d   1       2.598   1.022   1.488  0.00  0.00     0.002 A 
ATOM      6  C8  UNL d   1       3.062   0.401   2.649  0.00  0.00     0.002 A 
ENDROOT
BRANCH   1   7
ATOM      7  C2  UNL d   1       4.668  -1.128   3.860  0.00  0.00     0.056 C 
BRANCH   7   8
ATOM      8  C1  UNL d   1       5.810  -0.361   4.536  0.00  0.00     0.007 C 
ATOM      9  C   UNL d   1       6.000  -0.735   6.000  0.00  0.00     0.009 C 
ENDBRANCH   7   8
ENDBRANCH   1   7
TORSDOF 2
ENDMDL
