MODEL 1
REMARK minimizedAffinity 14.428112
REMARK minimizedRMSD -1
REMARK  2 active torsions:
REMARK  status: ('A' for Active; 'I' for Inactive)
REMARK    1  A    between atoms: C1_2  and  C2_3 
REMARK    2  A    between atoms: C2_3  and  C3_4 
ROOT
ATOM      1  C3  UNL d   1      -3.355  -2.789  -3.120  0.00  0.00    -0.075 A 
ATOM      2  C4  UNL d   1      -4.664  -2.780  -2.617  0.00  0.00     0.002 A 
ATOM      3  C5  UNL d   1      -5.756  -2.857  -3.483  0.00  0.00     0.002 A 
ATOM      4  C6  UNL d   1      -5.554  -2.934  -4.859  0.00  0.00    -0.004 A 
ATOM      5  C7  UNL d   1      -4.258  -2.927  -5.371  0.00  0.00     0.002 A 
ATOM      6  C8  UNL d   1      -3.164  -2.854  -4.507  0.00  0.00     0.002 A 
ENDROOT
BRANCH   1   7
ATOM      7  C2  UNL d   1      -2.169  -2.735  -2.188  0.00  0.00     0.056 C 
BRANCH   7   8
ATOM      8  C1  UNL d   1      -2.332  -1.747  -1.027  0.00  0.00     0.007 C 
ATOM      9  C   UNL d   1      -1.514  -2.124   0.201  0.00  0.00     0.009 C 
ENDBRANCH   7   8
ENDBRANCH   1   7
TORSDOF 2
ENDMDL
