MODEL 1
REMARK minimizedAffinity 5.85522461
REMARK minimizedRMSD -1
REMARK  2 active torsions:
REMARK  status: ('A' for Active; 'I' for Inactive)
REMARK    1  A    between atoms: C1_2  and  C2_3 
REMARK    2  A    between atoms: C2_3  and  C3_4 
ROOT
ATOM      1  C3  UNL d   1      -4.731   2.512   5.345  0.00  0.00    -0.075 A 
ATOM      2  C4  UNL d   1      -4.151   2.276   4.090  0.00  0.00     0.002 A 
ATOM      3  C5  UNL d   1      -4.241   1.018   3.494  0.00  0.00     0.002 A 
ATOM      4  C6  UNL d   1      -4.902  -0.020   4.147  0.00  0.00    -0.004 A 
ATOM      5  C7  UNL d   1      -5.468   0.199   5.401  0.00  0.00     0.002 A 
ATOM      6  C8  UNL d   1      -5.382   1.458   5.999  0.00  0.00     0.002 A 
ENDROOT
BRANCH   1   7
ATOM      7  C2  UNL d   1      -4.662   3.879   5.983  0.00  0.00     0.056 C 
BRANCH   7   8
ATOM      8  C1  UNL d   1      -5.999   4.628   6.000  0.00  0.00     0.007 C 
ATOM      9  C   UNL d   1      -5.941   5.976   5.294  0.00  0.00     0.009 C 
ENDBRANCH   7   8
ENDBRANCH   1   7
TORSDOF 2
ENDMDL
