MODEL 1
REMARK minimizedAffinity 12.2864561
REMARK minimizedRMSD -1
REMARK  2 active torsions:
REMARK  status: ('A' for Active; 'I' for Inactive)
REMARK    1  A    between atoms: C1_2  and  C2_3 
REMARK    2  A    between atoms: C2_3  and  C3_4 
ROOT
ATOM      1  C3  UNL d   1      -5.053   0.765   4.441  0.00  0.00    -0.075 A 
ATOM      2  C4  UNL d   1      -5.347   1.709   5.436  0.00  0.00     0.002 A 
ATOM      3  C5  UNL d   1      -4.778   2.982   5.395  0.00  0.00     0.002 A 
ATOM      4  C6  UNL d   1      -3.903   3.324   4.367  0.00  0.00    -0.004 A 
ATOM      5  C7  UNL d   1      -3.590   2.390   3.382  0.00  0.00     0.002 A 
ATOM      6  C8  UNL d   1      -4.161   1.116   3.418  0.00  0.00     0.002 A 
ENDROOT
BRANCH   1   7
ATOM      7  C2  UNL d   1      -5.688  -0.605   4.463  0.00  0.00     0.056 C 
BRANCH   7   8
ATOM      8  C1  UNL d   1      -5.999  -1.125   5.870  0.00  0.00     0.007 C 
ATOM      9  C   UNL d   1      -5.992  -2.645   5.964  0.00  0.00     0.009 C 
ENDBRANCH   7   8
ENDBRANCH   1   7
TORSDOF 2
ENDMDL
