MODEL 1
REMARK minimizedAffinity 14.542285
REMARK minimizedRMSD -1
REMARK  2 active torsions:
REMARK  status: ('A' for Active; 'I' for Inactive)
REMARK    1  A    between atoms: C1_2  and  C2_3 
REMARK    2  A    between atoms: C2_3  and  C3_4 
ROOT
ATOM      1  C3  UNL d   1       1.335   0.299   1.626  0.00  0.00    -0.075 A 
ATOM      2  C4  UNL d   1       2.460  -0.539   1.609  0.00  0.00     0.002 A 
ATOM      3  C5  UNL d   1       3.665  -0.096   1.063  0.00  0.00     0.002 A 
ATOM      4  C6  UNL d   1       3.758   1.183   0.520  0.00  0.00    -0.004 A 
ATOM      5  C7  UNL d   1       2.643   2.018   0.517  0.00  0.00     0.002 A 
ATOM      6  C8  UNL d   1       1.437   1.579   1.066  0.00  0.00     0.002 A 
ENDROOT
BRANCH   1   7
ATOM      7  C2  UNL d   1       0.036  -0.164   2.242  0.00  0.00     0.056 C 
BRANCH   7   8
ATOM      8  C1  UNL d   1      -0.370  -1.587   1.846  0.00  0.00     0.007 C 
ATOM      9  C   UNL d   1      -1.471  -1.627   0.794  0.00  0.00     0.009 C 
ENDBRANCH   7   8
ENDBRANCH   1   7
TORSDOF 2
ENDMDL
