MODEL 1
REMARK minimizedAffinity 14.8286963
REMARK minimizedRMSD -1
REMARK  2 active torsions:
REMARK  status: ('A' for Active; 'I' for Inactive)
REMARK    1  A    between atoms: C1_2  and  C2_3 
REMARK    2  A    between atoms: C2_3  and  C3_4 
ROOT
ATOM      1  C3  UNL d   1      -3.268  -3.040  -2.507  0.00  0.00    -0.075 A 
ATOM      2  C4  UNL d   1      -3.043  -2.370  -1.296  0.00  0.00     0.002 A 
ATOM      3  C5  UNL d   1      -1.882  -1.619  -1.107  0.00  0.00     0.002 A 
ATOM      4  C6  UNL d   1      -0.930  -1.536  -2.120  0.00  0.00    -0.004 A 
ATOM      5  C7  UNL d   1      -1.135  -2.211  -3.321  0.00  0.00     0.002 A 
ATOM      6  C8  UNL d   1      -2.298  -2.960  -3.515  0.00  0.00     0.002 A 
ENDROOT
BRANCH   1   7
ATOM      7  C2  UNL d   1      -4.535  -3.830  -2.729  0.00  0.00     0.056 C 
BRANCH   7   8
ATOM      8  C1  UNL d   1      -5.695  -3.004  -3.293  0.00  0.00     0.007 C 
ATOM      9  C   UNL d   1      -5.630  -2.831  -4.804  0.00  0.00     0.009 C 
ENDBRANCH   7   8
ENDBRANCH   1   7
TORSDOF 2
ENDMDL
