MODEL 1
REMARK minimizedAffinity 8.81366348
REMARK minimizedRMSD -1
REMARK  2 active torsions:
REMARK  status: ('A' for Active; 'I' for Inactive)
REMARK    1  A    between atoms: C1_2  and  C2_3 
REMARK    2  A    between atoms: C2_3  and  C3_4 
ROOT
ATOM      1  C3  UNL d   1       2.603   0.319   1.099  0.00  0.00    -0.075 A 
ATOM      2  C4  UNL d   1       1.289   0.274   1.588  0.00  0.00     0.002 A 
ATOM      3  C5  UNL d   1       0.493   1.420   1.585  0.00  0.00     0.002 A 
ATOM      4  C6  UNL d   1       1.001   2.624   1.103  0.00  0.00    -0.004 A 
ATOM      5  C7  UNL d   1       2.310   2.684   0.631  0.00  0.00     0.002 A 
ATOM      6  C8  UNL d   1       3.108   1.539   0.629  0.00  0.00     0.002 A 
ENDROOT
BRANCH   1   7
ATOM      7  C2  UNL d   1       3.461  -0.923   1.073  0.00  0.00     0.056 C 
BRANCH   7   8
ATOM      8  C1  UNL d   1       4.786  -0.783   1.830  0.00  0.00     0.007 C 
ATOM      9  C   UNL d   1       5.998  -1.169   0.994  0.00  0.00     0.009 C 
ENDBRANCH   7   8
ENDBRANCH   1   7
TORSDOF 2
ENDMDL
