MODEL 1
REMARK minimizedAffinity 7.98270226
REMARK minimizedRMSD -1
REMARK  2 active torsions:
REMARK  status: ('A' for Active; 'I' for Inactive)
REMARK    1  A    between atoms: C1_2  and  C2_3 
REMARK    2  A    between atoms: C2_3  and  C3_4 
ROOT
ATOM      1  C3  UNL d   1      -3.755   1.574   4.485  0.00  0.00    -0.075 A 
ATOM      2  C4  UNL d   1      -3.781   2.795   5.173  0.00  0.00     0.002 A 
ATOM      3  C5  UNL d   1      -4.895   3.158   5.930  0.00  0.00     0.002 A 
ATOM      4  C6  UNL d   1      -5.999   2.312   6.000  0.00  0.00    -0.004 A 
ATOM      5  C7  UNL d   1      -5.991   1.104   5.306  0.00  0.00     0.002 A 
ATOM      6  C8  UNL d   1      -4.876   0.735   4.552  0.00  0.00     0.002 A 
ENDROOT
BRANCH   1   7
ATOM      7  C2  UNL d   1      -2.540   1.161   3.688  0.00  0.00     0.056 C 
BRANCH   7   8
ATOM      8  C1  UNL d   1      -1.930  -0.174   4.127  0.00  0.00     0.007 C 
ATOM      9  C   UNL d   1      -0.493  -0.360   3.660  0.00  0.00     0.009 C 
ENDBRANCH   7   8
ENDBRANCH   1   7
TORSDOF 2
ENDMDL
