MODEL 1
REMARK minimizedAffinity 12.685071
REMARK minimizedRMSD -1
REMARK  2 active torsions:
REMARK  status: ('A' for Active; 'I' for Inactive)
REMARK    1  A    between atoms: C1_2  and  C2_3 
REMARK    2  A    between atoms: C2_3  and  C3_4 
ROOT
ATOM      1  C3  UNL d   1       2.876  -0.113   2.943  0.00  0.00    -0.075 A 
ATOM      2  C4  UNL d   1       2.657   0.774   1.879  0.00  0.00     0.002 A 
ATOM      3  C5  UNL d   1       1.396   1.332   1.669  0.00  0.00     0.002 A 
ATOM      4  C6  UNL d   1       0.337   1.004   2.513  0.00  0.00    -0.004 A 
ATOM      5  C7  UNL d   1       0.539   0.111   3.563  0.00  0.00     0.002 A 
ATOM      6  C8  UNL d   1       1.801  -0.446   3.777  0.00  0.00     0.002 A 
ENDROOT
BRANCH   1   7
ATOM      7  C2  UNL d   1       4.246  -0.698   3.192  0.00  0.00     0.056 C 
BRANCH   7   8
ATOM      8  C1  UNL d   1       4.641  -0.753   4.671  0.00  0.00     0.007 C 
ATOM      9  C   UNL d   1       5.998  -0.124   4.954  0.00  0.00     0.009 C 
ENDBRANCH   7   8
ENDBRANCH   1   7
TORSDOF 2
ENDMDL
