MODEL 1
REMARK minimizedAffinity 9.76711369
REMARK minimizedRMSD -1
REMARK  2 active torsions:
REMARK  status: ('A' for Active; 'I' for Inactive)
REMARK    1  A    between atoms: C1_2  and  C2_3 
REMARK    2  A    between atoms: C2_3  and  C3_4 
ROOT
ATOM      1  C3  UNL d   1      -3.791  -3.058  -2.253  0.00  0.00    -0.075 A 
ATOM      2  C4  UNL d   1      -4.897  -2.620  -2.995  0.00  0.00     0.002 A 
ATOM      3  C5  UNL d   1      -5.997  -3.457  -3.189  0.00  0.00     0.002 A 
ATOM      4  C6  UNL d   1      -5.999  -4.743  -2.653  0.00  0.00    -0.004 A 
ATOM      5  C7  UNL d   1      -4.898  -5.194  -1.928  0.00  0.00     0.002 A 
ATOM      6  C8  UNL d   1      -3.799  -4.357  -1.729  0.00  0.00     0.002 A 
ENDROOT
BRANCH   1   7
ATOM      7  C2  UNL d   1      -2.610  -2.146  -2.016  0.00  0.00     0.056 C 
BRANCH   7   8
ATOM      8  C1  UNL d   1      -2.528  -1.592  -0.590  0.00  0.00     0.007 C 
ATOM      9  C   UNL d   1      -1.521  -2.329   0.284  0.00  0.00     0.009 C 
ENDBRANCH   7   8
ENDBRANCH   1   7
TORSDOF 2
ENDMDL
