MODEL 1
REMARK minimizedAffinity 1.06325996
REMARK minimizedRMSD -1
REMARK  2 active torsions:
REMARK  status: ('A' for Active; 'I' for Inactive)
REMARK    1  A    between atoms: C1_2  and  C2_3 
REMARK    2  A    between atoms: C2_3  and  C3_4 
ROOT
ATOM      1  C3  UNL d   1      -5.028   0.967   4.163  0.00  0.00    -0.075 A 
ATOM      2  C4  UNL d   1      -5.808   1.245   5.295  0.00  0.00     0.002 A 
ATOM      3  C5  UNL d   1      -5.648   2.445   5.988  0.00  0.00     0.002 A 
ATOM      4  C6  UNL d   1      -4.701   3.376   5.566  0.00  0.00    -0.004 A 
ATOM      5  C7  UNL d   1      -3.909   3.104   4.453  0.00  0.00     0.002 A 
ATOM      6  C8  UNL d   1      -4.070   1.905   3.754  0.00  0.00     0.002 A 
ENDROOT
BRANCH   1   7
ATOM      7  C2  UNL d   1      -5.216  -0.317   3.391  0.00  0.00     0.056 C 
BRANCH   7   8
ATOM      8  C1  UNL d   1      -6.000  -1.392   4.151  0.00  0.00     0.007 C 
ATOM      9  C   UNL d   1      -5.999  -1.182   5.660  0.00  0.00     0.009 C 
ENDBRANCH   7   8
ENDBRANCH   1   7
TORSDOF 2
ENDMDL
