MODEL 1
REMARK minimizedAffinity 11.6127329
REMARK minimizedRMSD -1
REMARK  2 active torsions:
REMARK  status: ('A' for Active; 'I' for Inactive)
REMARK    1  A    between atoms: C1_2  and  C2_3 
REMARK    2  A    between atoms: C2_3  and  C3_4 
ROOT
ATOM      1  C3  UNL d   1      -4.469   0.854   3.812  0.00  0.00    -0.075 A 
ATOM      2  C4  UNL d   1      -3.907   2.139   3.796  0.00  0.00     0.002 A 
ATOM      3  C5  UNL d   1      -4.084   3.003   4.877  0.00  0.00     0.002 A 
ATOM      4  C6  UNL d   1      -4.831   2.599   5.980  0.00  0.00    -0.004 A 
ATOM      5  C7  UNL d   1      -5.408   1.331   6.000  0.00  0.00     0.002 A 
ATOM      6  C8  UNL d   1      -5.229   0.462   4.922  0.00  0.00     0.002 A 
ENDROOT
BRANCH   1   7
ATOM      7  C2  UNL d   1      -4.256  -0.096   2.658  0.00  0.00     0.056 C 
BRANCH   7   8
ATOM      8  C1  UNL d   1      -2.888  -0.787   2.662  0.00  0.00     0.007 C 
ATOM      9  C   UNL d   1      -2.620  -1.596   1.401  0.00  0.00     0.009 C 
ENDBRANCH   7   8
ENDBRANCH   1   7
TORSDOF 2
ENDMDL
