MODEL 1
REMARK minimizedAffinity 16.0977306
REMARK minimizedRMSD -1
REMARK  2 active torsions:
REMARK  status: ('A' for Active; 'I' for Inactive)
REMARK    1  A    between atoms: C1_2  and  C2_3 
REMARK    2  A    between atoms: C2_3  and  C3_4 
ROOT
ATOM      1  C3  UNL d   1      -0.121   1.407   3.407  0.00  0.00    -0.075 A 
ATOM      2  C4  UNL d   1       0.478   2.364   2.576  0.00  0.00     0.002 A 
ATOM      3  C5  UNL d   1       1.475   1.995   1.673  0.00  0.00     0.002 A 
ATOM      4  C6  UNL d   1       1.893   0.668   1.598  0.00  0.00    -0.004 A 
ATOM      5  C7  UNL d   1       1.317  -0.289   2.431  0.00  0.00     0.002 A 
ATOM      6  C8  UNL d   1       0.316   0.077   3.332  0.00  0.00     0.002 A 
ENDROOT
BRANCH   1   7
ATOM      7  C2  UNL d   1      -1.222   1.795   4.365  0.00  0.00     0.056 C 
BRANCH   7   8
ATOM      8  C1  UNL d   1      -2.491   2.313   3.681  0.00  0.00     0.007 C 
ATOM      9  C   UNL d   1      -3.735   1.511   4.037  0.00  0.00     0.009 C 
ENDBRANCH   7   8
ENDBRANCH   1   7
TORSDOF 2
ENDMDL
