MODEL 1
REMARK minimizedAffinity 7.03182936
REMARK minimizedRMSD -1
REMARK  2 active torsions:
REMARK  status: ('A' for Active; 'I' for Inactive)
REMARK    1  A    between atoms: C1_2  and  C2_3 
REMARK    2  A    between atoms: C2_3  and  C3_4 
ROOT
ATOM      1  C3  UNL d   1      -3.863  -3.855  -2.047  0.00  0.00    -0.075 A 
ATOM      2  C4  UNL d   1      -4.957  -3.575  -2.879  0.00  0.00     0.002 A 
ATOM      3  C5  UNL d   1      -6.000  -4.493  -3.011  0.00  0.00     0.002 A 
ATOM      4  C6  UNL d   1      -5.957  -5.704  -2.323  0.00  0.00    -0.004 A 
ATOM      5  C7  UNL d   1      -4.867  -5.999  -1.507  0.00  0.00     0.002 A 
ATOM      6  C8  UNL d   1      -3.825  -5.081  -1.369  0.00  0.00     0.002 A 
ENDROOT
BRANCH   1   7
ATOM      7  C2  UNL d   1      -2.746  -2.853  -1.877  0.00  0.00     0.056 C 
BRANCH   7   8
ATOM      8  C1  UNL d   1      -2.715  -2.183  -0.499  0.00  0.00     0.007 C 
ATOM      9  C   UNL d   1      -1.461  -2.512   0.300  0.00  0.00     0.009 C 
ENDBRANCH   7   8
ENDBRANCH   1   7
TORSDOF 2
ENDMDL
