MODEL 1
REMARK minimizedAffinity -3.80390501
REMARK minimizedRMSD -1
REMARK  3 active torsions:
REMARK  status: ('A' for Active; 'I' for Inactive)
REMARK    1  A    between atoms: C3'_2  and  C2'_3 
REMARK    2  A    between atoms: C2'_3  and  C1'_4 
REMARK    3  A    between atoms: C1'_4  and  C1_5 
ROOT
ATOM      1  C1  N4B d   1       0.006  -0.143   0.374  0.00  0.00    -0.075 A 
ATOM      2  C2  N4B d   1       0.732   0.693   1.251  0.00  0.00     0.002 A 
ATOM      3  C3  N4B d   1       0.065   1.538   2.104  0.00  0.00     0.002 A 
ATOM      4  C4  N4B d   1      -1.321   1.577   2.086  0.00  0.00    -0.004 A 
ATOM      5  C5  N4B d   1      -2.015   0.748   1.254  0.00  0.00     0.002 A 
ATOM      6  C6  N4B d   1      -1.358  -0.109   0.394  0.00  0.00     0.002 A 
ENDROOT
BRANCH   1   7
ATOM      7  C1' N4B d   1       0.693  -1.020  -0.637  0.00  0.00     0.057 C 
BRANCH   7   8
ATOM      8  C2' N4B d   1       1.072  -0.180  -1.853  0.00  0.00     0.009 C 
BRANCH   8   9
ATOM      9  C3' N4B d   1       0.216  -0.514  -3.063  0.00  0.00     0.004 C 
ATOM     10  C4' N4B d   1       0.221   0.573  -4.096  0.00  0.00     0.003 C 
ENDBRANCH   8   9
ENDBRANCH   7   8
ENDBRANCH   1   7
TORSDOF 3
ENDMDL
