MODEL 1
REMARK minimizedAffinity 1.87712896
REMARK minimizedRMSD -1
REMARK  3 active torsions:
REMARK  status: ('A' for Active; 'I' for Inactive)
REMARK    1  A    between atoms: C3'_2  and  C2'_3 
REMARK    2  A    between atoms: C2'_3  and  C1'_4 
REMARK    3  A    between atoms: C1'_4  and  C1_5 
ROOT
ATOM      1  C1  N4B d   1       0.542   0.254  -1.027  0.00  0.00    -0.075 A 
ATOM      2  C2  N4B d   1      -0.444  -0.736  -0.825  0.00  0.00     0.002 A 
ATOM      3  C3  N4B d   1      -1.247  -0.688   0.288  0.00  0.00     0.002 A 
ATOM      4  C4  N4B d   1      -1.070   0.325   1.218  0.00  0.00    -0.004 A 
ATOM      5  C5  N4B d   1      -0.132   1.292   1.003  0.00  0.00     0.002 A 
ATOM      6  C6  N4B d   1       0.679   1.259  -0.113  0.00  0.00     0.002 A 
ENDROOT
BRANCH   1   7
ATOM      7  C1' N4B d   1       1.501   0.195  -2.185  0.00  0.00     0.057 C 
BRANCH   7   8
ATOM      8  C2' N4B d   1       1.140   1.285  -3.189  0.00  0.00     0.009 C 
BRANCH   8   9
ATOM      9  C3' N4B d   1       1.284   0.806  -4.624  0.00  0.00     0.004 C 
ATOM     10  C4' N4B d   1       0.176  -0.114  -5.042  0.00  0.00     0.003 C 
ENDBRANCH   8   9
ENDBRANCH   7   8
ENDBRANCH   1   7
TORSDOF 3
ENDMDL
