MODEL 1
REMARK minimizedAffinity -4.53984356
REMARK minimizedRMSD -1
REMARK  3 active torsions:
REMARK  status: ('A' for Active; 'I' for Inactive)
REMARK    1  A    between atoms: C3'_2  and  C2'_3 
REMARK    2  A    between atoms: C2'_3  and  C1'_4 
REMARK    3  A    between atoms: C1'_4  and  C1_5 
ROOT
ATOM      1  C1  N4B d   1      -0.403   0.274   0.435  0.00  0.00    -0.075 A 
ATOM      2  C2  N4B d   1       0.879   0.605   0.927  0.00  0.00     0.002 A 
ATOM      3  C3  N4B d   1       1.007   1.222   2.148  0.00  0.00     0.002 A 
ATOM      4  C4  N4B d   1      -0.128   1.532   2.882  0.00  0.00    -0.004 A 
ATOM      5  C5  N4B d   1      -1.360   1.186   2.411  0.00  0.00     0.002 A 
ATOM      6  C6  N4B d   1      -1.504   0.563   1.188  0.00  0.00     0.002 A 
ENDROOT
BRANCH   1   7
ATOM      7  C1' N4B d   1      -0.599  -0.323  -0.932  0.00  0.00     0.057 C 
BRANCH   7   8
ATOM      8  C2' N4B d   1       0.740  -0.843  -1.448  0.00  0.00     0.009 C 
BRANCH   8   9
ATOM      9  C3' N4B d   1       0.849  -0.731  -2.959  0.00  0.00     0.004 C 
ATOM     10  C4' N4B d   1       1.917   0.227  -3.395  0.00  0.00     0.003 C 
ENDBRANCH   8   9
ENDBRANCH   7   8
ENDBRANCH   1   7
TORSDOF 3
ENDMDL
