MODEL 1
REMARK minimizedAffinity -5.17481279
REMARK minimizedRMSD -1
REMARK  3 active torsions:
REMARK  status: ('A' for Active; 'I' for Inactive)
REMARK    1  A    between atoms: C3'_2  and  C2'_3 
REMARK    2  A    between atoms: C2'_3  and  C1'_4 
REMARK    3  A    between atoms: C1'_4  and  C1_5 
ROOT
ATOM      1  C1  N4B d   1      -0.090  -0.067   0.406  0.00  0.00    -0.075 A 
ATOM      2  C2  N4B d   1      -1.372  -0.104   0.998  0.00  0.00     0.002 A 
ATOM      3  C3  N4B d   1      -1.631   0.641   2.122  0.00  0.00     0.002 A 
ATOM      4  C4  N4B d   1      -0.623   1.413   2.680  0.00  0.00    -0.004 A 
ATOM      5  C5  N4B d   1       0.605   1.463   2.088  0.00  0.00     0.002 A 
ATOM      6  C6  N4B d   1       0.878   0.722   0.956  0.00  0.00     0.002 A 
ENDROOT
BRANCH   1   7
ATOM      7  C1' N4B d   1       0.265  -0.931  -0.773  0.00  0.00     0.057 C 
BRANCH   7   8
ATOM      8  C2' N4B d   1       1.177  -0.147  -1.712  0.00  0.00     0.009 C 
BRANCH   8   9
ATOM      9  C3' N4B d   1       0.746  -0.278  -3.163  0.00  0.00     0.004 C 
ATOM     10  C4' N4B d   1       1.201   0.873  -4.010  0.00  0.00     0.003 C 
ENDBRANCH   8   9
ENDBRANCH   7   8
ENDBRANCH   1   7
TORSDOF 3
ENDMDL
