MODEL 1
REMARK minimizedAffinity -2.73554397
REMARK minimizedRMSD -1
REMARK  3 active torsions:
REMARK  status: ('A' for Active; 'I' for Inactive)
REMARK    1  A    between atoms: C3'_2  and  C2'_3 
REMARK    2  A    between atoms: C2'_3  and  C1'_4 
REMARK    3  A    between atoms: C1'_4  and  C1_5 
ROOT
ATOM      1  C1  N4B d   1      -0.363   0.382   0.274  0.00  0.00    -0.075 A 
ATOM      2  C2  N4B d   1      -1.300   0.035   1.273  0.00  0.00     0.002 A 
ATOM      3  C3  N4B d   1      -1.592   0.924   2.278  0.00  0.00     0.002 A 
ATOM      4  C4  N4B d   1      -0.948   2.152   2.316  0.00  0.00    -0.004 A 
ATOM      5  C5  N4B d   1      -0.064   2.489   1.334  0.00  0.00     0.002 A 
ATOM      6  C6  N4B d   1       0.236   1.607   0.315  0.00  0.00     0.002 A 
ENDROOT
BRANCH   1   7
ATOM      7  C1' N4B d   1       0.052  -0.590  -0.796  0.00  0.00     0.057 C 
BRANCH   7   8
ATOM      8  C2' N4B d   1       0.989   0.113  -1.775  0.00  0.00     0.009 C 
BRANCH   8   9
ATOM      9  C3' N4B d   1       0.612  -0.163  -3.220  0.00  0.00     0.004 C 
ATOM     10  C4' N4B d   1       0.870   1.008  -4.121  0.00  0.00     0.003 C 
ENDBRANCH   8   9
ENDBRANCH   7   8
ENDBRANCH   1   7
TORSDOF 3
ENDMDL
