MODEL 1
REMARK minimizedAffinity -2.38693452
REMARK minimizedRMSD -1
REMARK  3 active torsions:
REMARK  status: ('A' for Active; 'I' for Inactive)
REMARK    1  A    between atoms: C3'_2  and  C2'_3 
REMARK    2  A    between atoms: C2'_3  and  C1'_4 
REMARK    3  A    between atoms: C1'_4  and  C1_5 
ROOT
ATOM      1  C1  N4B d   1      -0.013   1.102   3.788  0.00  0.00    -0.075 A 
ATOM      2  C2  N4B d   1       0.328   0.148   4.772  0.00  0.00     0.002 A 
ATOM      3  C3  N4B d   1      -0.156  -1.134   4.682  0.00  0.00     0.002 A 
ATOM      4  C4  N4B d   1      -0.995  -1.479   3.632  0.00  0.00    -0.004 A 
ATOM      5  C5  N4B d   1      -1.299  -0.558   2.672  0.00  0.00     0.002 A 
ATOM      6  C6  N4B d   1      -0.816   0.733   2.748  0.00  0.00     0.002 A 
ENDROOT
BRANCH   1   7
ATOM      7  C1' N4B d   1       0.422   2.538   3.890  0.00  0.00     0.057 C 
BRANCH   7   8
ATOM      8  C2' N4B d   1       1.274   2.891   2.675  0.00  0.00     0.009 C 
BRANCH   8   9
ATOM      9  C3' N4B d   1       2.721   3.156   3.053  0.00  0.00     0.004 C 
ATOM     10  C4' N4B d   1       3.571   3.526   1.875  0.00  0.00     0.003 C 
ENDBRANCH   8   9
ENDBRANCH   7   8
ENDBRANCH   1   7
TORSDOF 3
ENDMDL
