MODEL 1
REMARK minimizedAffinity 23.397089
REMARK minimizedRMSD -1
REMARK  0 active torsions:
REMARK  status: ('A' for Active; 'I' for Inactive)
ROOT
ATOM      1  N1  IND d   1      -2.726   1.619  -3.564  0.00  0.00    -0.196 N 
ATOM      2  C2  IND d   1      -3.047   2.803  -4.167  0.00  0.00     0.054 A 
ATOM      3  C3  IND d   1      -1.926   3.479  -4.504  0.00  0.00    -0.031 A 
ATOM      4  C4  IND d   1       0.540   2.785  -4.251  0.00  0.00     0.051 A 
ATOM      5  C5  IND d   1       1.335   1.806  -3.724  0.00  0.00    -0.031 A 
ATOM      6  C6  IND d   1       0.807   0.691  -3.107  0.00  0.00     0.015 A 
ATOM      7  C7  IND d   1      -0.543   0.507  -3.003  0.00  0.00    -0.016 A 
ATOM      8  C8  IND d   1      -1.353   1.502  -3.531  0.00  0.00    -0.047 A 
ATOM      9  C9  IND d   1      -0.822   2.657  -4.121  0.00  0.00    -0.096 A 
ATOM     10  HN1 IND d   1      -3.286   1.044  -3.257  0.00  0.00     0.298 HD
ENDROOT
TORSDOF 0
ENDMDL
