MODEL 1
REMARK minimizedAffinity 13.7291574
REMARK minimizedRMSD -1
REMARK  0 active torsions:
REMARK  status: ('A' for Active; 'I' for Inactive)
ROOT
ATOM      1  N1  IND d   1      -2.775   2.090  -3.839  0.00  0.00    -0.196 N 
ATOM      2  C2  IND d   1      -1.833   2.882  -4.435  0.00  0.00     0.054 A 
ATOM      3  C3  IND d   1      -0.614   2.302  -4.359  0.00  0.00    -0.031 A 
ATOM      4  C4  IND d   1       0.049   0.010  -3.390  0.00  0.00     0.051 A 
ATOM      5  C5  IND d   1      -0.459  -1.057  -2.704  0.00  0.00    -0.031 A 
ATOM      6  C6  IND d   1      -1.793  -1.132  -2.357  0.00  0.00     0.015 A 
ATOM      7  C7  IND d   1      -2.674  -0.144  -2.694  0.00  0.00    -0.016 A 
ATOM      8  C8  IND d   1      -2.160   0.944  -3.384  0.00  0.00    -0.047 A 
ATOM      9  C9  IND d   1      -0.800   1.046  -3.702  0.00  0.00    -0.096 A 
ATOM     10  HN1 IND d   1      -3.610   2.277  -3.760  0.00  0.00     0.298 HD
ENDROOT
TORSDOF 0
ENDMDL
