MODEL 1
REMARK minimizedAffinity 24.1275272
REMARK minimizedRMSD -1
REMARK  0 active torsions:
REMARK  status: ('A' for Active; 'I' for Inactive)
ROOT
ATOM      1  N1  IND d   1       4.916   4.978   1.337  0.00  0.00    -0.196 N 
ATOM      2  C2  IND d   1       4.968   5.811   0.254  0.00  0.00     0.054 A 
ATOM      3  C3  IND d   1       4.417   5.213  -0.826  0.00  0.00    -0.031 A 
ATOM      4  C4  IND d   1       3.277   2.913  -1.018  0.00  0.00     0.051 A 
ATOM      5  C5  IND d   1       3.019   1.775  -0.305  0.00  0.00    -0.031 A 
ATOM      6  C6  IND d   1       3.385   1.646   1.020  0.00  0.00     0.015 A 
ATOM      7  C7  IND d   1       4.015   2.658   1.686  0.00  0.00    -0.016 A 
ATOM      8  C8  IND d   1       4.286   3.812   0.964  0.00  0.00    -0.047 A 
ATOM      9  C9  IND d   1       3.954   3.932  -0.392  0.00  0.00    -0.096 A 
ATOM     10  HN1 IND d   1       5.226   5.153   2.120  0.00  0.00     0.298 HD
ENDROOT
TORSDOF 0
ENDMDL
