MODEL 1
REMARK minimizedAffinity 7.84258366
REMARK minimizedRMSD -1
REMARK  0 active torsions:
REMARK  status: ('A' for Active; 'I' for Inactive)
ROOT
ATOM      1  N1  IND d   1       5.214   5.289   2.364  0.00  0.00    -0.196 N 
ATOM      2  C2  IND d   1       5.397   6.000   1.211  0.00  0.00     0.054 A 
ATOM      3  C3  IND d   1       5.001   5.273   0.142  0.00  0.00    -0.031 A 
ATOM      4  C4  IND d   1       3.929   2.933   0.062  0.00  0.00     0.051 A 
ATOM      5  C5  IND d   1       3.595   1.874   0.858  0.00  0.00    -0.031 A 
ATOM      6  C6  IND d   1       3.785   1.900   2.225  0.00  0.00     0.015 A 
ATOM      7  C7  IND d   1       4.308   2.996   2.850  0.00  0.00    -0.016 A 
ATOM      8  C8  IND d   1       4.655   4.071   2.044  0.00  0.00    -0.047 A 
ATOM      9  C9  IND d   1       4.504   4.034   0.652  0.00  0.00    -0.096 A 
ATOM     10  HN1 IND d   1       5.415   5.557   3.156  0.00  0.00     0.298 HD
ENDROOT
TORSDOF 0
ENDMDL
