MODEL 1
REMARK minimizedAffinity 12.7843552
REMARK minimizedRMSD -1
REMARK  0 active torsions:
REMARK  status: ('A' for Active; 'I' for Inactive)
ROOT
ATOM      1  N1  IND d   1      -1.940   2.527  -4.123  0.00  0.00    -0.196 N 
ATOM      2  C2  IND d   1      -0.927   3.240  -4.700  0.00  0.00     0.054 A 
ATOM      3  C3  IND d   1       0.232   2.547  -4.637  0.00  0.00    -0.031 A 
ATOM      4  C4  IND d   1       0.676   0.183  -3.721  0.00  0.00     0.051 A 
ATOM      5  C5  IND d   1       0.069  -0.848  -3.060  0.00  0.00    -0.031 A 
ATOM      6  C6  IND d   1      -1.267  -0.807  -2.715  0.00  0.00     0.015 A 
ATOM      7  C7  IND d   1      -2.051   0.267  -3.029  0.00  0.00    -0.016 A 
ATOM      8  C8  IND d   1      -1.436   1.318  -3.694  0.00  0.00    -0.047 A 
ATOM      9  C9  IND d   1      -0.071   1.300  -4.009  0.00  0.00    -0.096 A 
ATOM     10  HN1 IND d   1      -2.755   2.789  -4.040  0.00  0.00     0.298 HD
ENDROOT
TORSDOF 0
ENDMDL
