MODEL 1
REMARK minimizedAffinity 19.829855
REMARK minimizedRMSD -1
REMARK  0 active torsions:
REMARK  status: ('A' for Active; 'I' for Inactive)
ROOT
ATOM      1  N1  IND d   1      -0.431  -4.959  -0.946  0.00  0.00    -0.196 N 
ATOM      2  C2  IND d   1      -0.312  -4.640   0.378  0.00  0.00     0.054 A 
ATOM      3  C3  IND d   1      -0.597  -3.333   0.574  0.00  0.00    -0.031 A 
ATOM      4  C4  IND d   1      -1.379  -1.558  -1.118  0.00  0.00     0.051 A 
ATOM      5  C5  IND d   1      -1.600  -1.366  -2.453  0.00  0.00    -0.031 A 
ATOM      6  C6  IND d   1      -1.441  -2.382  -3.372  0.00  0.00     0.015 A 
ATOM      7  C7  IND d   1      -1.065  -3.638  -2.987  0.00  0.00    -0.016 A 
ATOM      8  C8  IND d   1      -0.834  -3.836  -1.633  0.00  0.00    -0.047 A 
ATOM      9  C9  IND d   1      -0.952  -2.797  -0.701  0.00  0.00    -0.096 A 
ATOM     10  HN1 IND d   1      -0.279  -5.732  -1.291  0.00  0.00     0.298 HD
ENDROOT
TORSDOF 0
ENDMDL
