MODEL 1
REMARK minimizedAffinity 16.7930355
REMARK minimizedRMSD -1
REMARK  0 active torsions:
REMARK  status: ('A' for Active; 'I' for Inactive)
ROOT
ATOM      1  N1  IND d   1      -3.631   2.362  -5.181  0.00  0.00    -0.196 N 
ATOM      2  C2  IND d   1      -2.614   2.533  -4.284  0.00  0.00     0.054 A 
ATOM      3  C3  IND d   1      -2.650   3.781  -3.764  0.00  0.00    -0.031 A 
ATOM      4  C4  IND d   1      -4.351   5.671  -4.165  0.00  0.00     0.051 A 
ATOM      5  C5  IND d   1      -5.437   5.999  -4.928  0.00  0.00    -0.031 A 
ATOM      6  C6  IND d   1      -5.989   5.113  -5.830  0.00  0.00     0.015 A 
ATOM      7  C7  IND d   1      -5.481   3.856  -5.995  0.00  0.00    -0.016 A 
ATOM      8  C8  IND d   1      -4.374   3.522  -5.228  0.00  0.00    -0.047 A 
ATOM      9  C9  IND d   1      -3.783   4.432  -4.342  0.00  0.00    -0.096 A 
ATOM     10  HN1 IND d   1      -3.782   1.650  -5.639  0.00  0.00     0.298 HD
ENDROOT
TORSDOF 0
ENDMDL
