MODEL 1
REMARK minimizedAffinity 8.56196117
REMARK minimizedRMSD -1
REMARK  0 active torsions:
REMARK  status: ('A' for Active; 'I' for Inactive)
ROOT
ATOM      1  N1  IND d   1      -1.103  -5.455   1.913  0.00  0.00    -0.196 N 
ATOM      2  C2  IND d   1      -0.576  -5.993   0.772  0.00  0.00     0.054 A 
ATOM      3  C3  IND d   1      -0.623  -5.095  -0.237  0.00  0.00    -0.031 A 
ATOM      4  C4  IND d   1      -1.426  -2.649  -0.214  0.00  0.00     0.051 A 
ATOM      5  C5  IND d   1      -2.025  -1.720   0.589  0.00  0.00    -0.031 A 
ATOM      6  C6  IND d   1      -2.352  -1.993   1.902  0.00  0.00     0.015 A 
ATOM      7  C7  IND d   1      -2.080  -3.207   2.466  0.00  0.00    -0.016 A 
ATOM      8  C8  IND d   1      -1.477  -4.155   1.652  0.00  0.00    -0.047 A 
ATOM      9  C9  IND d   1      -1.182  -3.898   0.307  0.00  0.00    -0.096 A 
ATOM     10  HN1 IND d   1      -1.186  -5.860   2.667  0.00  0.00     0.298 HD
ENDROOT
TORSDOF 0
ENDMDL
