MODEL 1
REMARK minimizedAffinity 7.89047384
REMARK minimizedRMSD -1
REMARK  0 active torsions:
REMARK  status: ('A' for Active; 'I' for Inactive)
ROOT
ATOM      1  N1  IND d   1      -5.971   4.827  -5.687  0.00  0.00    -0.196 N 
ATOM      2  C2  IND d   1      -6.000   5.937  -4.889  0.00  0.00     0.054 A 
ATOM      3  C3  IND d   1      -4.885   5.998  -4.128  0.00  0.00    -0.031 A 
ATOM      4  C4  IND d   1      -2.836   4.440  -4.099  0.00  0.00     0.051 A 
ATOM      5  C5  IND d   1      -2.365   3.270  -4.626  0.00  0.00    -0.031 A 
ATOM      6  C6  IND d   1      -3.086   2.546  -5.554  0.00  0.00     0.015 A 
ATOM      7  C7  IND d   1      -4.304   2.973  -6.000  0.00  0.00    -0.016 A 
ATOM      8  C8  IND d   1      -4.788   4.157  -5.462  0.00  0.00    -0.047 A 
ATOM      9  C9  IND d   1      -4.081   4.874  -4.489  0.00  0.00    -0.096 A 
ATOM     10  HN1 IND d   1      -6.588   4.588  -6.236  0.00  0.00     0.298 HD
ENDROOT
TORSDOF 0
ENDMDL
