MODEL 1
REMARK minimizedAffinity 5.86143112
REMARK minimizedRMSD -1
REMARK  0 active torsions:
REMARK  status: ('A' for Active; 'I' for Inactive)
ROOT
ATOM      1  N1  IND d   1       1.452  -3.798   2.594  0.00  0.00    -0.196 N 
ATOM      2  C2  IND d   1       1.603  -4.960   3.299  0.00  0.00     0.054 A 
ATOM      3  C3  IND d   1       0.995  -5.982   2.656  0.00  0.00    -0.031 A 
ATOM      4  C4  IND d   1      -0.216  -5.996   0.384  0.00  0.00     0.051 A 
ATOM      5  C5  IND d   1      -0.640  -5.167  -0.616  0.00  0.00    -0.031 A 
ATOM      6  C6  IND d   1      -0.381  -3.812  -0.598  0.00  0.00     0.015 A 
ATOM      7  C7  IND d   1       0.325  -3.235   0.420  0.00  0.00    -0.016 A 
ATOM      8  C8  IND d   1       0.751  -4.073   1.440  0.00  0.00    -0.047 A 
ATOM      9  C9  IND d   1       0.454  -5.442   1.449  0.00  0.00    -0.096 A 
ATOM     10  HN1 IND d   1       1.746  -3.026   2.831  0.00  0.00     0.298 HD
ENDROOT
TORSDOF 0
ENDMDL
