MODEL 1
REMARK minimizedAffinity 21.8007069
REMARK minimizedRMSD -1
REMARK  0 active torsions:
REMARK  status: ('A' for Active; 'I' for Inactive)
ROOT
ATOM      1  N1  IND d   1       4.504   5.519   1.427  0.00  0.00    -0.196 N 
ATOM      2  C2  IND d   1       4.673   6.000   0.158  0.00  0.00     0.054 A 
ATOM      3  C3  IND d   1       4.492   5.012  -0.747  0.00  0.00    -0.031 A 
ATOM      4  C4  IND d   1       3.812   2.557  -0.375  0.00  0.00     0.051 A 
ATOM      5  C5  IND d   1       3.580   1.642   0.613  0.00  0.00    -0.031 A 
ATOM      6  C6  IND d   1       3.643   1.979   1.950  0.00  0.00     0.015 A 
ATOM      7  C7  IND d   1       3.930   3.254   2.350  0.00  0.00    -0.016 A 
ATOM      8  C8  IND d   1       4.173   4.184   1.349  0.00  0.00    -0.047 A 
ATOM      9  C9  IND d   1       4.153   3.838  -0.008  0.00  0.00    -0.096 A 
ATOM     10  HN1 IND d   1       4.590   5.975   2.151  0.00  0.00     0.298 HD
ENDROOT
TORSDOF 0
ENDMDL
