MODEL 1
REMARK minimizedAffinity 17.8152618
REMARK minimizedRMSD -1
REMARK  0 active torsions:
REMARK  status: ('A' for Active; 'I' for Inactive)
ROOT
ATOM      1  N1  IND d   1       4.480   5.302   1.127  0.00  0.00    -0.196 N 
ATOM      2  C2  IND d   1       4.862   5.999   0.015  0.00  0.00     0.054 A 
ATOM      3  C3  IND d   1       4.538   5.314  -1.104  0.00  0.00    -0.031 A 
ATOM      4  C4  IND d   1       3.287   3.077  -1.347  0.00  0.00     0.051 A 
ATOM      5  C5  IND d   1       2.768   2.047  -0.613  0.00  0.00    -0.031 A 
ATOM      6  C6  IND d   1       2.792   2.051   0.766  0.00  0.00     0.015 A 
ATOM      7  C7  IND d   1       3.327   3.095   1.467  0.00  0.00    -0.016 A 
ATOM      8  C8  IND d   1       3.861   4.139   0.724  0.00  0.00    -0.047 A 
ATOM      9  C9  IND d   1       3.878   4.121  -0.676  0.00  0.00    -0.096 A 
ATOM     10  HN1 IND d   1       4.605   5.549   1.941  0.00  0.00     0.298 HD
ENDROOT
TORSDOF 0
ENDMDL
