MODEL 1
REMARK minimizedAffinity 9.76595211
REMARK minimizedRMSD -1
REMARK  0 active torsions:
REMARK  status: ('A' for Active; 'I' for Inactive)
ROOT
ATOM      1  N1  IND d   1      -1.778  -4.215   2.965  0.00  0.00    -0.196 N 
ATOM      2  C2  IND d   1      -2.625  -3.469   3.735  0.00  0.00     0.054 A 
ATOM      3  C3  IND d   1      -3.032  -2.372   3.059  0.00  0.00    -0.031 A 
ATOM      4  C4  IND d   1      -2.515  -1.655   0.641  0.00  0.00     0.051 A 
ATOM      5  C5  IND d   1      -1.760  -1.996  -0.446  0.00  0.00    -0.031 A 
ATOM      6  C6  IND d   1      -0.958  -3.119  -0.452  0.00  0.00     0.015 A 
ATOM      7  C7  IND d   1      -0.889  -3.952   0.629  0.00  0.00    -0.016 A 
ATOM      8  C8  IND d   1      -1.650  -3.605   1.736  0.00  0.00    -0.047 A 
ATOM      9  C9  IND d   1      -2.433  -2.444   1.764  0.00  0.00    -0.096 A 
ATOM     10  HN1 IND d   1      -1.390  -4.944   3.206  0.00  0.00     0.298 HD
ENDROOT
TORSDOF 0
ENDMDL
