MODEL 1
REMARK minimizedAffinity 11.2985001
REMARK minimizedRMSD -1
REMARK  0 active torsions:
REMARK  status: ('A' for Active; 'I' for Inactive)
ROOT
ATOM      1  N1  IND d   1      -0.849  -2.905  -3.337  0.00  0.00    -0.196 N 
ATOM      2  C2  IND d   1      -1.293  -1.672  -3.729  0.00  0.00     0.054 A 
ATOM      3  C3  IND d   1      -1.803  -0.999  -2.673  0.00  0.00    -0.031 A 
ATOM      4  C4  IND d   1      -1.919  -1.687  -0.195  0.00  0.00     0.051 A 
ATOM      5  C5  IND d   1      -1.671  -2.737   0.644  0.00  0.00    -0.031 A 
ATOM      6  C6  IND d   1      -1.123  -3.919   0.190  0.00  0.00     0.015 A 
ATOM      7  C7  IND d   1      -0.791  -4.092  -1.123  0.00  0.00    -0.016 A 
ATOM      8  C8  IND d   1      -1.047  -3.031  -1.980  0.00  0.00    -0.047 A 
ATOM      9  C9  IND d   1      -1.642  -1.844  -1.533  0.00  0.00    -0.096 A 
ATOM     10  HN1 IND d   1      -0.504  -3.500  -3.852  0.00  0.00     0.298 HD
ENDROOT
TORSDOF 0
ENDMDL
