MODEL 1
REMARK minimizedAffinity 3.9252317
REMARK minimizedRMSD -1
REMARK  0 active torsions:
REMARK  status: ('A' for Active; 'I' for Inactive)
ROOT
ATOM      1  C   UNL d   1      -1.618   5.221  -5.149  0.00  0.00     0.077 C 
ATOM      2  C1  UNL d   1      -3.114   5.264  -5.057  0.00  0.00    -0.074 A 
ATOM      3  C2  UNL d   1      -3.872   5.976  -5.993  0.00  0.00    -0.005 A 
ATOM      4  C3  UNL d   1      -5.264   5.998  -5.900  0.00  0.00     0.006 A 
ATOM      5  C4  UNL d   1      -5.911   5.310  -4.873  0.00  0.00    -0.005 A 
ATOM      6  C5  UNL d   1      -5.170   4.592  -3.929  0.00  0.00    -0.074 A 
ATOM      7  C6  UNL d   1      -5.850   3.838  -2.825  0.00  0.00     0.077 C 
ATOM      8  C7  UNL d   1      -3.772   4.568  -4.033  0.00  0.00    -0.001 A 
ENDROOT
TORSDOF 0
ENDMDL
