MODEL 1
REMARK minimizedAffinity 8.5879221
REMARK minimizedRMSD -1
REMARK  0 active torsions:
REMARK  status: ('A' for Active; 'I' for Inactive)
ROOT
ATOM      1  C   UNL d   1       1.779   2.869  -3.021  0.00  0.00     0.077 C 
ATOM      2  C1  UNL d   1       3.143   3.409  -3.328  0.00  0.00    -0.074 A 
ATOM      3  C2  UNL d   1       3.783   3.103  -4.533  0.00  0.00    -0.005 A 
ATOM      4  C3  UNL d   1       5.049   3.621  -4.809  0.00  0.00     0.006 A 
ATOM      5  C4  UNL d   1       5.686   4.449  -3.884  0.00  0.00    -0.005 A 
ATOM      6  C5  UNL d   1       5.061   4.767  -2.674  0.00  0.00    -0.074 A 
ATOM      7  C6  UNL d   1       5.728   5.663  -1.674  0.00  0.00     0.077 C 
ATOM      8  C7  UNL d   1       3.787   4.248  -2.407  0.00  0.00    -0.001 A 
ENDROOT
TORSDOF 0
ENDMDL
