MODEL 1
REMARK minimizedAffinity 6.01725435
REMARK minimizedRMSD -1
REMARK  0 active torsions:
REMARK  status: ('A' for Active; 'I' for Inactive)
ROOT
ATOM      1  C   UNL d   1      -1.518   5.610  -4.742  0.00  0.00     0.077 C 
ATOM      2  C1  UNL d   1      -3.016   5.663  -4.785  0.00  0.00    -0.074 A 
ATOM      3  C2  UNL d   1      -3.691   5.963  -5.972  0.00  0.00    -0.005 A 
ATOM      4  C3  UNL d   1      -5.085   6.000  -5.999  0.00  0.00     0.006 A 
ATOM      5  C4  UNL d   1      -5.817   5.736  -4.841  0.00  0.00    -0.005 A 
ATOM      6  C5  UNL d   1      -5.160   5.433  -3.644  0.00  0.00    -0.074 A 
ATOM      7  C6  UNL d   1      -5.932   5.137  -2.393  0.00  0.00     0.077 C 
ATOM      8  C7  UNL d   1      -3.759   5.391  -3.627  0.00  0.00    -0.001 A 
ENDROOT
TORSDOF 0
ENDMDL
