MODEL 1
REMARK minimizedAffinity 12.9800272
REMARK minimizedRMSD -1
REMARK  0 active torsions:
REMARK  status: ('A' for Active; 'I' for Inactive)
ROOT
ATOM      1  C   UNL d   1       2.369   1.127   0.784  0.00  0.00     0.077 C 
ATOM      2  C1  UNL d   1       3.638   1.927   0.777  0.00  0.00    -0.074 A 
ATOM      3  C2  UNL d   1       4.266   2.267  -0.426  0.00  0.00    -0.005 A 
ATOM      4  C3  UNL d   1       5.440   3.020  -0.418  0.00  0.00     0.006 A 
ATOM      5  C4  UNL d   1       5.997   3.440   0.790  0.00  0.00    -0.005 A 
ATOM      6  C5  UNL d   1       5.383   3.111   2.003  0.00  0.00    -0.074 A 
ATOM      7  C6  UNL d   1       5.963   3.562   3.310  0.00  0.00     0.077 C 
ATOM      8  C7  UNL d   1       4.199   2.360   1.986  0.00  0.00    -0.001 A 
ENDROOT
TORSDOF 0
ENDMDL
