MODEL 1
REMARK minimizedAffinity 11.6719427
REMARK minimizedRMSD -1
REMARK  0 active torsions:
REMARK  status: ('A' for Active; 'I' for Inactive)
ROOT
ATOM      1  C   UNL d   1      -0.532   4.322  -3.954  0.00  0.00     0.077 C 
ATOM      2  C1  UNL d   1       0.729   3.643  -3.511  0.00  0.00    -0.074 A 
ATOM      3  C2  UNL d   1       1.887   3.695  -4.295  0.00  0.00    -0.005 A 
ATOM      4  C3  UNL d   1       3.055   3.066  -3.866  0.00  0.00     0.006 A 
ATOM      5  C4  UNL d   1       3.079   2.380  -2.651  0.00  0.00    -0.005 A 
ATOM      6  C5  UNL d   1       1.931   2.318  -1.854  0.00  0.00    -0.074 A 
ATOM      7  C6  UNL d   1       1.942   1.593  -0.540  0.00  0.00     0.077 C 
ATOM      8  C7  UNL d   1       0.763   2.958  -2.288  0.00  0.00    -0.001 A 
ENDROOT
TORSDOF 0
ENDMDL
