MODEL 1
REMARK minimizedAffinity 6.67940903
REMARK minimizedRMSD -1
REMARK  0 active torsions:
REMARK  status: ('A' for Active; 'I' for Inactive)
ROOT
ATOM      1  C   UNL d   1      -4.385   4.945  -1.504  0.00  0.00     0.077 C 
ATOM      2  C1  UNL d   1      -2.992   4.956  -2.060  0.00  0.00    -0.074 A 
ATOM      3  C2  UNL d   1      -1.880   4.900  -1.214  0.00  0.00    -0.005 A 
ATOM      4  C3  UNL d   1      -0.590   4.901  -1.746  0.00  0.00     0.006 A 
ATOM      5  C4  UNL d   1      -0.401   4.960  -3.128  0.00  0.00    -0.005 A 
ATOM      6  C5  UNL d   1      -1.501   5.016  -3.989  0.00  0.00    -0.074 A 
ATOM      7  C6  UNL d   1      -1.314   5.069  -5.476  0.00  0.00     0.077 C 
ATOM      8  C7  UNL d   1      -2.793   5.007  -3.447  0.00  0.00    -0.001 A 
ENDROOT
TORSDOF 0
ENDMDL
