MODEL 1
REMARK minimizedAffinity 12.7759972
REMARK minimizedRMSD -1
REMARK  0 active torsions:
REMARK  status: ('A' for Active; 'I' for Inactive)
ROOT
ATOM      1  C   UNL d   1      -5.141  -2.212   2.416  0.00  0.00     0.077 C 
ATOM      2  C1  UNL d   1      -3.727  -1.740   2.581  0.00  0.00    -0.074 A 
ATOM      3  C2  UNL d   1      -2.723  -2.157   1.702  0.00  0.00    -0.005 A 
ATOM      4  C3  UNL d   1      -1.414  -1.702   1.863  0.00  0.00     0.006 A 
ATOM      5  C4  UNL d   1      -1.097  -0.827   2.903  0.00  0.00    -0.005 A 
ATOM      6  C5  UNL d   1      -2.088  -0.399   3.792  0.00  0.00    -0.074 A 
ATOM      7  C6  UNL d   1      -1.767   0.548   4.909  0.00  0.00     0.077 C 
ATOM      8  C7  UNL d   1      -3.403  -0.855   3.619  0.00  0.00    -0.001 A 
ENDROOT
TORSDOF 0
ENDMDL
