MODEL 1
REMARK minimizedAffinity 21.5011749
REMARK minimizedRMSD -1
REMARK  0 active torsions:
REMARK  status: ('A' for Active; 'I' for Inactive)
ROOT
ATOM      1  C   UNL d   1       2.937   0.959  -0.745  0.00  0.00     0.077 C 
ATOM      2  C1  UNL d   1       3.519   2.187  -0.111  0.00  0.00    -0.074 A 
ATOM      3  C2  UNL d   1       3.160   2.564   1.187  0.00  0.00    -0.005 A 
ATOM      4  C3  UNL d   1       3.716   3.704   1.768  0.00  0.00     0.006 A 
ATOM      5  C4  UNL d   1       4.635   4.477   1.057  0.00  0.00    -0.005 A 
ATOM      6  C5  UNL d   1       5.006   4.116  -0.242  0.00  0.00    -0.074 A 
ATOM      7  C6  UNL d   1       6.000   4.930  -1.016  0.00  0.00     0.077 C 
ATOM      8  C7  UNL d   1       4.448   2.965  -0.816  0.00  0.00    -0.001 A 
ENDROOT
TORSDOF 0
ENDMDL
