MODEL 1
REMARK minimizedAffinity 14.6928005
REMARK minimizedRMSD -1
REMARK  0 active torsions:
REMARK  status: ('A' for Active; 'I' for Inactive)
ROOT
ATOM      1  C   UNL d   1       1.661  -1.661   3.822  0.00  0.00     0.077 C 
ATOM      2  C1  UNL d   1       0.426  -1.903   3.006  0.00  0.00    -0.074 A 
ATOM      3  C2  UNL d   1      -0.749  -1.185   3.250  0.00  0.00    -0.005 A 
ATOM      4  C3  UNL d   1      -1.887  -1.415   2.476  0.00  0.00     0.006 A 
ATOM      5  C4  UNL d   1      -1.861  -2.363   1.453  0.00  0.00    -0.005 A 
ATOM      6  C5  UNL d   1      -0.695  -3.090   1.194  0.00  0.00    -0.074 A 
ATOM      7  C6  UNL d   1      -0.647  -4.105   0.091  0.00  0.00     0.077 C 
ATOM      8  C7  UNL d   1       0.446  -2.848   1.971  0.00  0.00    -0.001 A 
ENDROOT
TORSDOF 0
ENDMDL
