MODEL 1
REMARK minimizedAffinity 13.7164354
REMARK minimizedRMSD -1
REMARK  0 active torsions:
REMARK  status: ('A' for Active; 'I' for Inactive)
ROOT
ATOM      1  C   UNL d   1       6.000   5.916  -1.583  0.00  0.00     0.077 C 
ATOM      2  C1  UNL d   1       5.409   5.026  -2.636  0.00  0.00    -0.074 A 
ATOM      3  C2  UNL d   1       6.000   4.918  -3.900  0.00  0.00    -0.005 A 
ATOM      4  C3  UNL d   1       5.445   4.079  -4.866  0.00  0.00     0.006 A 
ATOM      5  C4  UNL d   1       4.296   3.340  -4.579  0.00  0.00    -0.005 A 
ATOM      6  C5  UNL d   1       3.692   3.435  -3.321  0.00  0.00    -0.074 A 
ATOM      7  C6  UNL d   1       2.463   2.641  -2.993  0.00  0.00     0.077 C 
ATOM      8  C7  UNL d   1       4.260   4.275  -2.353  0.00  0.00    -0.001 A 
ENDROOT
TORSDOF 0
ENDMDL
