MODEL 1
REMARK minimizedAffinity 15.1240921
REMARK minimizedRMSD -1
REMARK  0 active torsions:
REMARK  status: ('A' for Active; 'I' for Inactive)
ROOT
ATOM      1  C   UNL d   1       1.915  -1.592   2.266  0.00  0.00     0.077 C 
ATOM      2  C1  UNL d   1       2.463  -2.510   1.215  0.00  0.00    -0.074 A 
ATOM      3  C2  UNL d   1       1.786  -3.682   0.860  0.00  0.00    -0.005 A 
ATOM      4  C3  UNL d   1       2.304  -4.521  -0.126  0.00  0.00     0.006 A 
ATOM      5  C4  UNL d   1       3.501  -4.199  -0.766  0.00  0.00    -0.005 A 
ATOM      6  C5  UNL d   1       4.191  -3.032  -0.425  0.00  0.00    -0.074 A 
ATOM      7  C6  UNL d   1       5.474  -2.665  -1.110  0.00  0.00     0.077 C 
ATOM      8  C7  UNL d   1       3.661  -2.189   0.562  0.00  0.00    -0.001 A 
ENDROOT
TORSDOF 0
ENDMDL
