MODEL 1
REMARK minimizedAffinity 12.5136681
REMARK minimizedRMSD -1
REMARK  0 active torsions:
REMARK  status: ('A' for Active; 'I' for Inactive)
ROOT
ATOM      1  C   UNL d   1       4.098   3.768   0.105  0.00  0.00     0.077 C 
ATOM      2  C1  UNL d   1       4.625   4.343  -1.176  0.00  0.00    -0.074 A 
ATOM      3  C2  UNL d   1       5.510   5.426  -1.167  0.00  0.00    -0.005 A 
ATOM      4  C3  UNL d   1       5.999   5.944  -2.366  0.00  0.00     0.006 A 
ATOM      5  C4  UNL d   1       5.610   5.385  -3.584  0.00  0.00    -0.005 A 
ATOM      6  C5  UNL d   1       4.726   4.301  -3.612  0.00  0.00    -0.074 A 
ATOM      7  C6  UNL d   1       4.305   3.682  -4.912  0.00  0.00     0.077 C 
ATOM      8  C7  UNL d   1       4.244   3.782  -2.403  0.00  0.00    -0.001 A 
ENDROOT
TORSDOF 0
ENDMDL
