MODEL 1
REMARK minimizedAffinity 14.2562761
REMARK minimizedRMSD -1
REMARK  0 active torsions:
REMARK  status: ('A' for Active; 'I' for Inactive)
ROOT
ATOM      1  C   UNL d   1       3.404   0.959  -0.587  0.00  0.00     0.077 C 
ATOM      2  C1  UNL d   1       3.790   2.268   0.035  0.00  0.00    -0.074 A 
ATOM      3  C2  UNL d   1       3.351   2.612   1.318  0.00  0.00    -0.005 A 
ATOM      4  C3  UNL d   1       3.727   3.828   1.886  0.00  0.00     0.006 A 
ATOM      5  C4  UNL d   1       4.543   4.712   1.180  0.00  0.00    -0.005 A 
ATOM      6  C5  UNL d   1       4.992   4.385  -0.104  0.00  0.00    -0.074 A 
ATOM      7  C6  UNL d   1       5.878   5.320  -0.873  0.00  0.00     0.077 C 
ATOM      8  C7  UNL d   1       4.616   3.158  -0.666  0.00  0.00    -0.001 A 
ENDROOT
TORSDOF 0
ENDMDL
