MODEL 1
REMARK minimizedAffinity 12.9890375
REMARK minimizedRMSD -1
REMARK  0 active torsions:
REMARK  status: ('A' for Active; 'I' for Inactive)
ROOT
ATOM      1  C   UNL d   1      -2.587   5.999  -6.000  0.00  0.00     0.077 C 
ATOM      2  C1  UNL d   1      -1.524   5.382  -5.141  0.00  0.00    -0.074 A 
ATOM      3  C2  UNL d   1      -0.539   4.558  -5.696  0.00  0.00    -0.005 A 
ATOM      4  C3  UNL d   1       0.450   4.000  -4.887  0.00  0.00     0.006 A 
ATOM      5  C4  UNL d   1       0.464   4.258  -3.515  0.00  0.00    -0.005 A 
ATOM      6  C5  UNL d   1      -0.512   5.080  -2.942  0.00  0.00    -0.074 A 
ATOM      7  C6  UNL d   1      -0.505   5.376  -1.472  0.00  0.00     0.077 C 
ATOM      8  C7  UNL d   1      -1.498   5.643  -3.764  0.00  0.00    -0.001 A 
ENDROOT
TORSDOF 0
ENDMDL
