MODEL 1
REMARK minimizedAffinity 11.4819469
REMARK minimizedRMSD -1
REMARK  0 active torsions:
REMARK  status: ('A' for Active; 'I' for Inactive)
ROOT
ATOM      1  C   UNL d   1      -3.688   1.849   4.534  0.00  0.00     0.077 C 
ATOM      2  C1  UNL d   1      -3.643   0.825   3.438  0.00  0.00    -0.074 A 
ATOM      3  C2  UNL d   1      -4.744   0.621   2.600  0.00  0.00    -0.005 A 
ATOM      4  C3  UNL d   1      -4.684  -0.328   1.579  0.00  0.00     0.006 A 
ATOM      5  C4  UNL d   1      -3.526  -1.081   1.387  0.00  0.00    -0.005 A 
ATOM      6  C5  UNL d   1      -2.415  -0.890   2.215  0.00  0.00    -0.074 A 
ATOM      7  C6  UNL d   1      -1.158  -1.684   2.016  0.00  0.00     0.077 C 
ATOM      8  C7  UNL d   1      -2.480   0.070   3.234  0.00  0.00    -0.001 A 
ENDROOT
TORSDOF 0
ENDMDL
