MODEL 1
REMARK minimizedAffinity -3.39435959
REMARK minimizedRMSD -1
REMARK  0 active torsions:
REMARK  status: ('A' for Active; 'I' for Inactive)
ROOT
ATOM      1  C   UNL d   1      -1.022   3.809  -0.211  0.00  0.00    -0.002 A 
ATOM      2  C1  UNL d   1      -1.581   3.364   0.979  0.00  0.00     0.010 A 
ATOM      3  C2  UNL d   1      -1.360   2.059   1.423  0.00  0.00     0.041 A 
ATOM      4  C3  UNL d   1      -0.558   1.200   0.645  0.00  0.00    -0.075 A 
ATOM      5  S   UNL d   1      -0.149  -0.438   0.991  0.00  0.00     0.015 SA
ATOM      6  C4  UNL d   1       0.777  -0.586  -0.431  0.00  0.00     0.022 A 
ATOM      7  C5  UNL d   1       0.786   0.577  -1.165  0.00  0.00     0.026 A 
ATOM      8  C6  UNL d   1       0.016   1.626  -0.556  0.00  0.00    -0.082 A 
ATOM      9  C7  UNL d   1      -0.227   2.954  -0.980  0.00  0.00     0.045 A 
ENDROOT
TORSDOF 0
ENDMDL
