MODEL 1
REMARK minimizedAffinity -5.44888306
REMARK minimizedRMSD -1
REMARK  0 active torsions:
REMARK  status: ('A' for Active; 'I' for Inactive)
ROOT
ATOM      1  C   UNL d   1      -1.951   3.640   0.881  0.00  0.00    -0.002 A 
ATOM      2  C1  UNL d   1      -2.484   2.885   1.917  0.00  0.00     0.010 A 
ATOM      3  C2  UNL d   1      -2.117   1.549   2.084  0.00  0.00     0.041 A 
ATOM      4  C3  UNL d   1      -1.195   0.978   1.185  0.00  0.00    -0.075 A 
ATOM      5  S   UNL d   1      -0.598  -0.640   1.196  0.00  0.00     0.015 SA
ATOM      6  C4  UNL d   1       0.379  -0.367  -0.174  0.00  0.00     0.022 A 
ATOM      7  C5  UNL d   1       0.265   0.920  -0.642  0.00  0.00     0.026 A 
ATOM      8  C6  UNL d   1      -0.644   1.717   0.134  0.00  0.00    -0.082 A 
ATOM      9  C7  UNL d   1      -1.037   3.070  -0.009  0.00  0.00     0.045 A 
ENDROOT
TORSDOF 0
ENDMDL
