MODEL 1
REMARK minimizedAffinity -5.4984107
REMARK minimizedRMSD -1
REMARK  0 active torsions:
REMARK  status: ('A' for Active; 'I' for Inactive)
ROOT
ATOM      1  C   UNL d   1      -2.168   3.722   0.025  0.00  0.00    -0.002 A 
ATOM      2  C1  UNL d   1      -1.569   3.474  -1.203  0.00  0.00     0.010 A 
ATOM      3  C2  UNL d   1      -0.803   2.324  -1.400  0.00  0.00     0.041 A 
ATOM      4  C3  UNL d   1      -0.648   1.417  -0.333  0.00  0.00    -0.075 A 
ATOM      5  S   UNL d   1       0.245  -0.058  -0.344  0.00  0.00     0.015 SA
ATOM      6  C4  UNL d   1      -0.148  -0.395   1.280  0.00  0.00     0.022 A 
ATOM      7  C5  UNL d   1      -0.940   0.584   1.832  0.00  0.00     0.026 A 
ATOM      8  C6  UNL d   1      -1.241   1.644   0.912  0.00  0.00    -0.082 A 
ATOM      9  C7  UNL d   1      -2.012   2.820   1.080  0.00  0.00     0.045 A 
ENDROOT
TORSDOF 0
ENDMDL
