MODEL 1
REMARK minimizedAffinity -3.38590145
REMARK minimizedRMSD -1
REMARK  0 active torsions:
REMARK  status: ('A' for Active; 'I' for Inactive)
ROOT
ATOM      1  C   UNL d   1      -0.803   3.466   0.854  0.00  0.00    -0.002 A 
ATOM      2  C1  UNL d   1      -0.049   3.426  -0.310  0.00  0.00     0.010 A 
ATOM      3  C2  UNL d   1       0.465   2.217  -0.782  0.00  0.00     0.041 A 
ATOM      4  C3  UNL d   1       0.203   1.037  -0.059  0.00  0.00    -0.075 A 
ATOM      5  S   UNL d   1       0.729  -0.559  -0.448  0.00  0.00     0.015 SA
ATOM      6  C4  UNL d   1      -0.036  -1.225   0.922  0.00  0.00     0.022 A 
ATOM      7  C5  UNL d   1      -0.681  -0.268   1.669  0.00  0.00     0.026 A 
ATOM      8  C6  UNL d   1      -0.554   1.051   1.116  0.00  0.00    -0.082 A 
ATOM      9  C7  UNL d   1      -1.060   2.293   1.569  0.00  0.00     0.045 A 
ENDROOT
TORSDOF 0
ENDMDL
