MODEL 1
REMARK minimizedAffinity 0.406796902
REMARK minimizedRMSD -1
REMARK  0 active torsions:
REMARK  status: ('A' for Active; 'I' for Inactive)
ROOT
ATOM      1  C   UNL d   1       1.168  -2.997  -2.747  0.00  0.00    -0.002 A 
ATOM      2  C1  UNL d   1       0.191  -3.796  -2.169  0.00  0.00     0.010 A 
ATOM      3  C2  UNL d   1      -0.531  -3.346  -1.061  0.00  0.00     0.041 A 
ATOM      4  C3  UNL d   1      -0.254  -2.067  -0.541  0.00  0.00    -0.075 A 
ATOM      5  S   UNL d   1      -1.012  -1.307   0.808  0.00  0.00     0.015 SA
ATOM      6  C4  UNL d   1      -0.058   0.097   0.648  0.00  0.00     0.022 A 
ATOM      7  C5  UNL d   1       0.823   0.005  -0.403  0.00  0.00     0.026 A 
ATOM      8  C6  UNL d   1       0.724  -1.244  -1.106  0.00  0.00    -0.082 A 
ATOM      9  C7  UNL d   1       1.440  -1.729  -2.228  0.00  0.00     0.045 A 
ENDROOT
TORSDOF 0
ENDMDL
