MODEL 1
REMARK minimizedAffinity -6.06354904
REMARK minimizedRMSD -1
REMARK  0 active torsions:
REMARK  status: ('A' for Active; 'I' for Inactive)
ROOT
ATOM      1  C   UNL d   1      -2.090   3.683   0.737  0.00  0.00    -0.002 A 
ATOM      2  C1  UNL d   1      -1.028   3.667  -0.157  0.00  0.00     0.010 A 
ATOM      3  C2  UNL d   1      -0.226   2.531  -0.287  0.00  0.00     0.041 A 
ATOM      4  C3  UNL d   1      -0.513   1.400   0.502  0.00  0.00    -0.075 A 
ATOM      5  S   UNL d   1       0.332  -0.102   0.511  0.00  0.00     0.015 SA
ATOM      6  C4  UNL d   1      -0.696  -0.759   1.701  0.00  0.00     0.022 A 
ATOM      7  C5  UNL d   1      -1.666   0.133   2.093  0.00  0.00     0.026 A 
ATOM      8  C6  UNL d   1      -1.577   1.392   1.408  0.00  0.00    -0.082 A 
ATOM      9  C7  UNL d   1      -2.371   2.559   1.518  0.00  0.00     0.045 A 
ENDROOT
TORSDOF 0
ENDMDL
