MODEL 1
REMARK minimizedAffinity -5.26801634
REMARK minimizedRMSD -1
REMARK  0 active torsions:
REMARK  status: ('A' for Active; 'I' for Inactive)
ROOT
ATOM      1  C   UNL d   1      -2.730   2.844   1.090  0.00  0.00    -0.002 A 
ATOM      2  C1  UNL d   1      -2.090   3.770   0.278  0.00  0.00     0.010 A 
ATOM      3  C2  UNL d   1      -0.976   3.401  -0.479  0.00  0.00     0.041 A 
ATOM      4  C3  UNL d   1      -0.512   2.073  -0.406  0.00  0.00    -0.075 A 
ATOM      5  S   UNL d   1       0.833   1.394  -1.244  0.00  0.00     0.015 SA
ATOM      6  C4  UNL d   1       0.590  -0.141  -0.544  0.00  0.00     0.022 A 
ATOM      7  C5  UNL d   1      -0.487  -0.153   0.311  0.00  0.00     0.026 A 
ATOM      8  C6  UNL d   1      -1.141   1.122   0.404  0.00  0.00    -0.082 A 
ATOM      9  C7  UNL d   1      -2.267   1.527   1.159  0.00  0.00     0.045 A 
ENDROOT
TORSDOF 0
ENDMDL
