MODEL 1
REMARK minimizedAffinity -2.43967581
REMARK minimizedRMSD -1
REMARK  0 active torsions:
REMARK  status: ('A' for Active; 'I' for Inactive)
ROOT
ATOM      1  C   UNL d   1      -1.849   0.855   2.316  0.00  0.00    -0.002 A 
ATOM      2  C1  UNL d   1      -1.702   2.201   2.012  0.00  0.00     0.010 A 
ATOM      3  C2  UNL d   1      -0.853   2.608   0.980  0.00  0.00     0.041 A 
ATOM      4  C3  UNL d   1      -0.150   1.630   0.250  0.00  0.00    -0.075 A 
ATOM      5  S   UNL d   1       0.943   1.894  -1.056  0.00  0.00     0.015 SA
ATOM      6  C4  UNL d   1       1.240   0.226  -1.243  0.00  0.00     0.022 A 
ATOM      7  C5  UNL d   1       0.530  -0.528  -0.339  0.00  0.00     0.026 A 
ATOM      8  C6  UNL d   1      -0.283   0.268   0.536  0.00  0.00    -0.082 A 
ATOM      9  C7  UNL d   1      -1.150  -0.113   1.589  0.00  0.00     0.045 A 
ENDROOT
TORSDOF 0
ENDMDL
