MODEL 1
REMARK minimizedAffinity -5.58536291
REMARK minimizedRMSD -1
REMARK  0 active torsions:
REMARK  status: ('A' for Active; 'I' for Inactive)
ROOT
ATOM      1  C   UNL d   1      -2.065   3.525   0.533  0.00  0.00    -0.002 A 
ATOM      2  C1  UNL d   1      -2.487   2.325   1.088  0.00  0.00     0.010 A 
ATOM      3  C2  UNL d   1      -1.728   1.164   0.929  0.00  0.00     0.041 A 
ATOM      4  C3  UNL d   1      -0.526   1.230   0.199  0.00  0.00    -0.075 A 
ATOM      5  S   UNL d   1       0.567  -0.064  -0.123  0.00  0.00     0.015 SA
ATOM      6  C4  UNL d   1       1.621   0.945  -1.003  0.00  0.00     0.022 A 
ATOM      7  C5  UNL d   1       1.165   2.241  -1.060  0.00  0.00     0.026 A 
ATOM      8  C6  UNL d   1      -0.079   2.427  -0.368  0.00  0.00    -0.082 A 
ATOM      9  C7  UNL d   1      -0.871   3.587  -0.190  0.00  0.00     0.045 A 
ENDROOT
TORSDOF 0
ENDMDL
