MODEL 1
REMARK minimizedAffinity -6.17917204
REMARK minimizedRMSD -1
REMARK  0 active torsions:
REMARK  status: ('A' for Active; 'I' for Inactive)
ROOT
ATOM      1  C   UNL d   1      -2.087   3.258   1.143  0.00  0.00    -0.002 A 
ATOM      2  C1  UNL d   1      -1.212   3.782   0.202  0.00  0.00     0.010 A 
ATOM      3  C2  UNL d   1      -0.212   2.986  -0.359  0.00  0.00     0.041 A 
ATOM      4  C3  UNL d   1      -0.105   1.640   0.045  0.00  0.00    -0.075 A 
ATOM      5  S   UNL d   1       1.042   0.477  -0.507  0.00  0.00     0.015 SA
ATOM      6  C4  UNL d   1       0.398  -0.743   0.494  0.00  0.00     0.022 A 
ATOM      7  C5  UNL d   1      -0.667  -0.292   1.237  0.00  0.00     0.026 A 
ATOM      8  C6  UNL d   1      -0.974   1.089   0.991  0.00  0.00    -0.082 A 
ATOM      9  C7  UNL d   1      -1.978   1.923   1.541  0.00  0.00     0.045 A 
ENDROOT
TORSDOF 0
ENDMDL
