MODEL 1
REMARK minimizedAffinity -1.60645103
REMARK minimizedRMSD -1
REMARK  1 active torsions:
REMARK  status: ('A' for Active; 'I' for Inactive)
REMARK    1  A    between atoms: C1_2  and  C2_3 
ROOT
ATOM      1  C2  UNL d   1      -0.949   0.413   1.675  0.00  0.00    -0.077 A 
ATOM      2  C3  UNL d   1      -0.425   0.707   0.408  0.00  0.00     0.002 A 
ATOM      3  C4  UNL d   1      -0.845   1.845  -0.283  0.00  0.00     0.002 A 
ATOM      4  C5  UNL d   1      -1.787   2.700   0.286  0.00  0.00    -0.004 A 
ATOM      5  C6  UNL d   1      -2.315   2.414   1.545  0.00  0.00     0.002 A 
ATOM      6  C7  UNL d   1      -1.897   1.277   2.236  0.00  0.00     0.002 A 
ENDROOT
BRANCH   1   7
ATOM      7  C1  UNL d   1      -0.460  -0.788   2.442  0.00  0.00     0.055 C 
ATOM      8  C   UNL d   1      -1.616  -1.544   3.081  0.00  0.00     0.019 C 
ENDBRANCH   1   7
TORSDOF 1
ENDMDL
