MODEL 1
REMARK minimizedAffinity -0.592532516
REMARK minimizedRMSD -1
REMARK  1 active torsions:
REMARK  status: ('A' for Active; 'I' for Inactive)
REMARK    1  A    between atoms: C1_2  and  C2_3 
ROOT
ATOM      1  C2  UNL d   1      -3.207   0.957   0.960  0.00  0.00    -0.077 A 
ATOM      2  C3  UNL d   1      -3.369   2.291   1.361  0.00  0.00     0.002 A 
ATOM      3  C4  UNL d   1      -2.406   2.909   2.161  0.00  0.00     0.002 A 
ATOM      4  C5  UNL d   1      -1.275   2.204   2.564  0.00  0.00    -0.004 A 
ATOM      5  C6  UNL d   1      -1.106   0.876   2.172  0.00  0.00     0.002 A 
ATOM      6  C7  UNL d   1      -2.068   0.256   1.373  0.00  0.00     0.002 A 
ENDROOT
BRANCH   1   7
ATOM      7  C1  UNL d   1      -4.220   0.304   0.056  0.00  0.00     0.055 C 
ATOM      8  C   UNL d   1      -4.481  -1.137   0.469  0.00  0.00     0.019 C 
ENDBRANCH   1   7
TORSDOF 1
ENDMDL
