MODEL 1
REMARK minimizedAffinity -1.64537334
REMARK minimizedRMSD -1
REMARK  1 active torsions:
REMARK  status: ('A' for Active; 'I' for Inactive)
REMARK    1  A    between atoms: C1_2  and  C2_3 
ROOT
ATOM      1  C2  UNL d   1      -0.617   1.193   1.194  0.00  0.00    -0.077 A 
ATOM      2  C3  UNL d   1       0.256   0.222   1.704  0.00  0.00     0.002 A 
ATOM      3  C4  UNL d   1       1.255  -0.325   0.896  0.00  0.00     0.002 A 
ATOM      4  C5  UNL d   1       1.392   0.096  -0.425  0.00  0.00    -0.004 A 
ATOM      5  C6  UNL d   1       0.527   1.059  -0.943  0.00  0.00     0.002 A 
ATOM      6  C7  UNL d   1      -0.472   1.606  -0.137  0.00  0.00     0.002 A 
ENDROOT
BRANCH   1   7
ATOM      7  C1  UNL d   1      -1.663   1.820   2.078  0.00  0.00     0.055 C 
ATOM      8  C   UNL d   1      -2.832   2.352   1.262  0.00  0.00     0.019 C 
ENDBRANCH   1   7
TORSDOF 1
ENDMDL
