MODEL 1
REMARK minimizedAffinity 4.33735323
REMARK minimizedRMSD -1
REMARK  1 active torsions:
REMARK  status: ('A' for Active; 'I' for Inactive)
REMARK    1  A    between atoms: C1_2  and  C2_3 
ROOT
ATOM      1  C2  UNL d   1      -0.972   1.777   0.160  0.00  0.00    -0.077 A 
ATOM      2  C3  UNL d   1      -2.232   2.383   0.275  0.00  0.00     0.002 A 
ATOM      3  C4  UNL d   1      -2.921   2.355   1.489  0.00  0.00     0.002 A 
ATOM      4  C5  UNL d   1      -2.358   1.727   2.597  0.00  0.00    -0.004 A 
ATOM      5  C6  UNL d   1      -1.107   1.120   2.493  0.00  0.00     0.002 A 
ATOM      6  C7  UNL d   1      -0.417   1.146   1.280  0.00  0.00     0.002 A 
ENDROOT
BRANCH   1   7
ATOM      7  C1  UNL d   1      -0.206   1.849  -1.134  0.00  0.00     0.055 C 
ATOM      8  C   UNL d   1       0.810   0.721  -1.239  0.00  0.00     0.019 C 
ENDBRANCH   1   7
TORSDOF 1
ENDMDL
