MODEL 1
REMARK minimizedAffinity 10.852376
REMARK minimizedRMSD -1
REMARK  1 active torsions:
REMARK  status: ('A' for Active; 'I' for Inactive)
REMARK    1  A    between atoms: C1_2  and  C2_3 
ROOT
ATOM      1  C2  UNL d   1      -1.035  -0.620   3.359  0.00  0.00    -0.077 A 
ATOM      2  C3  UNL d   1      -2.023   0.315   3.017  0.00  0.00     0.002 A 
ATOM      3  C4  UNL d   1      -1.670   1.618   2.663  0.00  0.00     0.002 A 
ATOM      4  C5  UNL d   1      -0.330   1.998   2.643  0.00  0.00    -0.004 A 
ATOM      5  C6  UNL d   1       0.660   1.076   2.982  0.00  0.00     0.002 A 
ATOM      6  C7  UNL d   1       0.309  -0.227   3.338  0.00  0.00     0.002 A 
ENDROOT
BRANCH   1   7
ATOM      7  C1  UNL d   1      -1.410  -2.040   3.694  0.00  0.00     0.055 C 
ATOM      8  C   UNL d   1      -0.178  -2.883   3.987  0.00  0.00     0.019 C 
ENDBRANCH   1   7
TORSDOF 1
ENDMDL
