MODEL 1
REMARK minimizedAffinity 8.54480457
REMARK minimizedRMSD -1
REMARK  1 active torsions:
REMARK  status: ('A' for Active; 'I' for Inactive)
REMARK    1  A    between atoms: C1_2  and  C2_3 
ROOT
ATOM      1  C2  UNL d   1       5.450  -3.594  -0.779  0.00  0.00    -0.077 A 
ATOM      2  C3  UNL d   1       5.800  -4.890  -0.375  0.00  0.00     0.002 A 
ATOM      3  C4  UNL d   1       5.336  -6.000  -1.083  0.00  0.00     0.002 A 
ATOM      4  C5  UNL d   1       4.525  -5.825  -2.202  0.00  0.00    -0.004 A 
ATOM      5  C6  UNL d   1       4.170  -4.541  -2.611  0.00  0.00     0.002 A 
ATOM      6  C7  UNL d   1       4.631  -3.430  -1.904  0.00  0.00     0.002 A 
ENDROOT
BRANCH   1   7
ATOM      7  C1  UNL d   1       5.989  -2.393  -0.046  0.00  0.00     0.055 C 
ATOM      8  C   UNL d   1       5.994  -2.621   1.459  0.00  0.00     0.019 C 
ENDBRANCH   1   7
TORSDOF 1
ENDMDL
