MODEL 1
REMARK minimizedAffinity 6.59127426
REMARK minimizedRMSD -1
REMARK  1 active torsions:
REMARK  status: ('A' for Active; 'I' for Inactive)
REMARK    1  A    between atoms: C1_2  and  C2_3 
ROOT
ATOM      1  C2  UNL d   1      -1.110   1.630  -0.928  0.00  0.00    -0.077 A 
ATOM      2  C3  UNL d   1      -2.031   0.845  -1.637  0.00  0.00     0.002 A 
ATOM      3  C4  UNL d   1      -1.587  -0.089  -2.575  0.00  0.00     0.002 A 
ATOM      4  C5  UNL d   1      -0.223  -0.250  -2.809  0.00  0.00    -0.004 A 
ATOM      5  C6  UNL d   1       0.700   0.528  -2.111  0.00  0.00     0.002 A 
ATOM      6  C7  UNL d   1       0.258   1.463  -1.174  0.00  0.00     0.002 A 
ENDROOT
BRANCH   1   7
ATOM      7  C1  UNL d   1      -1.585   2.604   0.119  0.00  0.00     0.055 C 
ATOM      8  C   UNL d   1      -1.995   1.886   1.397  0.00  0.00     0.019 C 
ENDBRANCH   1   7
TORSDOF 1
ENDMDL
