MODEL 1
REMARK minimizedAffinity 6.75959826
REMARK minimizedRMSD -1
REMARK  1 active torsions:
REMARK  status: ('A' for Active; 'I' for Inactive)
REMARK    1  A    between atoms: C1_2  and  C2_3 
ROOT
ATOM      1  C2  UNL d   1      -0.596   2.112   2.448  0.00  0.00    -0.077 A 
ATOM      2  C3  UNL d   1      -1.672   1.251   2.702  0.00  0.00     0.002 A 
ATOM      3  C4  UNL d   1      -2.872   1.394   2.001  0.00  0.00     0.002 A 
ATOM      4  C5  UNL d   1      -3.004   2.393   1.040  0.00  0.00    -0.004 A 
ATOM      5  C6  UNL d   1      -1.940   3.256   0.781  0.00  0.00     0.002 A 
ATOM      6  C7  UNL d   1      -0.741   3.116   1.481  0.00  0.00     0.002 A 
ENDROOT
BRANCH   1   7
ATOM      7  C1  UNL d   1       0.715   1.929   3.167  0.00  0.00     0.055 C 
ATOM      8  C   UNL d   1       1.370   0.606   2.797  0.00  0.00     0.019 C 
ENDBRANCH   1   7
TORSDOF 1
ENDMDL
