MODEL 1
REMARK minimizedAffinity -1.32219982
REMARK minimizedRMSD -1
REMARK  1 active torsions:
REMARK  status: ('A' for Active; 'I' for Inactive)
REMARK    1  A    between atoms: C1_2  and  C2_3 
ROOT
ATOM      1  C2  UNL d   1      -1.820   0.871   2.201  0.00  0.00    -0.077 A 
ATOM      2  C3  UNL d   1      -0.418   0.860   2.224  0.00  0.00     0.002 A 
ATOM      3  C4  UNL d   1       0.270  -0.204   2.811  0.00  0.00     0.002 A 
ATOM      4  C5  UNL d   1      -0.434  -1.266   3.375  0.00  0.00    -0.004 A 
ATOM      5  C6  UNL d   1      -1.828  -1.263   3.358  0.00  0.00     0.002 A 
ATOM      6  C7  UNL d   1      -2.518  -0.200   2.773  0.00  0.00     0.002 A 
ENDROOT
BRANCH   1   7
ATOM      7  C1  UNL d   1      -2.563   1.993   1.524  0.00  0.00     0.055 C 
ATOM      8  C   UNL d   1      -1.721   2.636   0.433  0.00  0.00     0.019 C 
ENDBRANCH   1   7
TORSDOF 1
ENDMDL
