MODEL 1
REMARK minimizedAffinity 8.41914272
REMARK minimizedRMSD -1
REMARK  1 active torsions:
REMARK  status: ('A' for Active; 'I' for Inactive)
REMARK    1  A    between atoms: C1_2  and  C2_3 
ROOT
ATOM      1  C2  UNL d   1      -0.456   2.404   2.305  0.00  0.00    -0.077 A 
ATOM      2  C3  UNL d   1      -1.102   3.077   1.259  0.00  0.00     0.002 A 
ATOM      3  C4  UNL d   1      -2.397   2.717   0.881  0.00  0.00     0.002 A 
ATOM      4  C5  UNL d   1      -3.057   1.686   1.546  0.00  0.00    -0.004 A 
ATOM      5  C6  UNL d   1      -2.422   1.009   2.586  0.00  0.00     0.002 A 
ATOM      6  C7  UNL d   1      -1.127   1.367   2.965  0.00  0.00     0.002 A 
ENDROOT
BRANCH   1   7
ATOM      7  C1  UNL d   1       0.922   2.824   2.747  0.00  0.00     0.055 C 
ATOM      8  C   UNL d   1       1.322   4.154   2.124  0.00  0.00     0.019 C 
ENDBRANCH   1   7
TORSDOF 1
ENDMDL
