MODEL 1
REMARK minimizedAffinity 0.405124098
REMARK minimizedRMSD -1
REMARK  1 active torsions:
REMARK  status: ('A' for Active; 'I' for Inactive)
REMARK    1  A    between atoms: C1_2  and  C2_3 
ROOT
ATOM      1  C2  UNL d   1       3.546  -3.470   0.783  0.00  0.00    -0.077 A 
ATOM      2  C3  UNL d   1       3.500  -2.081   0.966  0.00  0.00     0.002 A 
ATOM      3  C4  UNL d   1       4.680  -1.337   1.031  0.00  0.00     0.002 A 
ATOM      4  C5  UNL d   1       5.914  -1.973   0.909  0.00  0.00    -0.004 A 
ATOM      5  C6  UNL d   1       5.970  -3.355   0.728  0.00  0.00     0.002 A 
ATOM      6  C7  UNL d   1       4.792  -4.100   0.664  0.00  0.00     0.002 A 
ENDROOT
BRANCH   1   7
ATOM      7  C1  UNL d   1       2.273  -4.267   0.663  0.00  0.00     0.055 C 
ATOM      8  C   UNL d   1       1.789  -4.324  -0.778  0.00  0.00     0.019 C 
ENDBRANCH   1   7
TORSDOF 1
ENDMDL
