MODEL 1
REMARK minimizedAffinity 6.02565622
REMARK minimizedRMSD -1
REMARK  1 active torsions:
REMARK  status: ('A' for Active; 'I' for Inactive)
REMARK    1  A    between atoms: C1_2  and  C2_3 
ROOT
ATOM      1  C2  UNL d   1      -3.718  -3.378   4.622  0.00  0.00    -0.077 A 
ATOM      2  C3  UNL d   1      -4.862  -2.584   4.783  0.00  0.00     0.002 A 
ATOM      3  C4  UNL d   1      -5.998  -3.100   5.409  0.00  0.00     0.002 A 
ATOM      4  C5  UNL d   1      -5.999  -4.410   5.883  0.00  0.00    -0.004 A 
ATOM      5  C6  UNL d   1      -4.867  -5.209   5.726  0.00  0.00     0.002 A 
ATOM      6  C7  UNL d   1      -3.731  -4.694   5.099  0.00  0.00     0.002 A 
ENDROOT
BRANCH   1   7
ATOM      7  C1  UNL d   1      -2.475  -2.807   3.991  0.00  0.00     0.055 C 
ATOM      8  C   UNL d   1      -2.658  -1.338   3.638  0.00  0.00     0.019 C 
ENDBRANCH   1   7
TORSDOF 1
ENDMDL
