MODEL 1
REMARK minimizedAffinity -5.77983999
REMARK minimizedRMSD -1
REMARK  0 active torsions:
REMARK  status: ('A' for Active; 'I' for Inactive)
ROOT
ATOM      1  N1  IND d   1       0.693   0.303  -0.837  0.00  0.00    -0.196 N 
ATOM      2  C2  IND d   1      -0.172   1.315  -0.528  0.00  0.00     0.054 A 
ATOM      3  C3  IND d   1      -0.428   1.326   0.800  0.00  0.00    -0.031 A 
ATOM      4  C4  IND d   1       0.542  -0.160   2.665  0.00  0.00     0.051 A 
ATOM      5  C5  IND d   1       1.344  -1.248   2.867  0.00  0.00    -0.031 A 
ATOM      6  C6  IND d   1       1.985  -1.886   1.825  0.00  0.00     0.015 A 
ATOM      7  C7  IND d   1       1.856  -1.450   0.537  0.00  0.00    -0.016 A 
ATOM      8  C8  IND d   1       1.037  -0.350   0.326  0.00  0.00    -0.047 A 
ATOM      9  C9  IND d   1       0.350   0.275   1.375  0.00  0.00    -0.096 A 
ATOM     10  HN1 IND d   1       0.975   0.107  -1.625  0.00  0.00     0.298 HD
ENDROOT
TORSDOF 0
ENDMDL
