MODEL 1
REMARK minimizedAffinity -3.7195189
REMARK minimizedRMSD -1
REMARK  0 active torsions:
REMARK  status: ('A' for Active; 'I' for Inactive)
ROOT
ATOM      1  N1  IND d   1      -0.382   0.861   0.671  0.00  0.00    -0.196 N 
ATOM      2  C2  IND d   1      -0.830  -0.316   0.138  0.00  0.00     0.054 A 
ATOM      3  C3  IND d   1      -1.121  -0.158  -1.172  0.00  0.00    -0.031 A 
ATOM      4  C4  IND d   1      -0.841   1.916  -2.672  0.00  0.00     0.051 A 
ATOM      5  C5  IND d   1      -0.501   3.239  -2.628  0.00  0.00    -0.031 A 
ATOM      6  C6  IND d   1      -0.094   3.848  -1.459  0.00  0.00     0.015 A 
ATOM      7  C7  IND d   1       0.001   3.152  -0.288  0.00  0.00    -0.016 A 
ATOM      8  C8  IND d   1      -0.350   1.810  -0.327  0.00  0.00    -0.047 A 
ATOM      9  C9  IND d   1      -0.805   1.196  -1.501  0.00  0.00    -0.096 A 
ATOM     10  HN1 IND d   1      -0.158   0.987   1.492  0.00  0.00     0.298 HD
ENDROOT
TORSDOF 0
ENDMDL
