MODEL 1
REMARK minimizedAffinity 1.03119063
REMARK minimizedRMSD -1
REMARK  0 active torsions:
REMARK  status: ('A' for Active; 'I' for Inactive)
ROOT
ATOM      1  N1  IND d   1       0.143   2.389  -2.434  0.00  0.00    -0.196 N 
ATOM      2  C2  IND d   1      -1.066   2.542  -3.053  0.00  0.00     0.054 A 
ATOM      3  C3  IND d   1      -1.963   1.659  -2.559  0.00  0.00    -0.031 A 
ATOM      4  C4  IND d   1      -1.692  -0.059  -0.661  0.00  0.00     0.051 A 
ATOM      5  C5  IND d   1      -0.759  -0.593   0.183  0.00  0.00    -0.031 A 
ATOM      6  C6  IND d   1       0.548  -0.150   0.200  0.00  0.00     0.015 A 
ATOM      7  C7  IND d   1       0.970   0.856  -0.622  0.00  0.00    -0.016 A 
ATOM      8  C8  IND d   1       0.027   1.396  -1.485  0.00  0.00    -0.047 A 
ATOM      9  C9  IND d   1      -1.290   0.922  -1.537  0.00  0.00    -0.096 A 
ATOM     10  HN1 IND d   1       0.856   2.837  -2.607  0.00  0.00     0.298 HD
ENDROOT
TORSDOF 0
ENDMDL
