MODEL 1
REMARK minimizedAffinity -3.20764923
REMARK minimizedRMSD -1
REMARK  0 active torsions:
REMARK  status: ('A' for Active; 'I' for Inactive)
ROOT
ATOM      1  N1  IND d   1      -0.954  -0.190   1.924  0.00  0.00    -0.196 N 
ATOM      2  C2  IND d   1      -0.301  -1.024   2.789  0.00  0.00     0.054 A 
ATOM      3  C3  IND d   1       0.738  -1.625   2.169  0.00  0.00    -0.031 A 
ATOM      4  C4  IND d   1       1.613  -1.313  -0.232  0.00  0.00     0.051 A 
ATOM      5  C5  IND d   1       1.324  -0.684  -1.410  0.00  0.00    -0.031 A 
ATOM      6  C6  IND d   1       0.241   0.161  -1.540  0.00  0.00     0.015 A 
ATOM      7  C7  IND d   1      -0.591   0.418  -0.487  0.00  0.00    -0.016 A 
ATOM      8  C8  IND d   1      -0.305  -0.224   0.709  0.00  0.00    -0.047 A 
ATOM      9  C9  IND d   1       0.769  -1.116   0.835  0.00  0.00    -0.096 A 
ATOM     10  HN1 IND d   1      -1.652   0.276   2.108  0.00  0.00     0.298 HD
ENDROOT
TORSDOF 0
ENDMDL
