MODEL 1
REMARK minimizedAffinity -4.66624498
REMARK minimizedRMSD -1
REMARK  0 active torsions:
REMARK  status: ('A' for Active; 'I' for Inactive)
ROOT
ATOM      1  N1  IND d   1      -1.180   0.325  -0.204  0.00  0.00    -0.196 N 
ATOM      2  C2  IND d   1      -0.626   0.270  -1.453  0.00  0.00     0.054 A 
ATOM      3  C3  IND d   1       0.707   0.061  -1.367  0.00  0.00    -0.031 A 
ATOM      4  C4  IND d   1       2.173  -0.319   0.715  0.00  0.00     0.051 A 
ATOM      5  C5  IND d   1       2.124  -0.322   2.081  0.00  0.00    -0.031 A 
ATOM      6  C6  IND d   1       0.947  -0.107   2.768  0.00  0.00     0.015 A 
ATOM      7  C7  IND d   1      -0.232   0.108   2.113  0.00  0.00    -0.016 A 
ATOM      8  C8  IND d   1      -0.185   0.118   0.726  0.00  0.00    -0.047 A 
ATOM      9  C9  IND d   1       1.014  -0.057   0.023  0.00  0.00    -0.096 A 
ATOM     10  HN1 IND d   1      -2.010   0.466  -0.030  0.00  0.00     0.298 HD
ENDROOT
TORSDOF 0
ENDMDL
