MODEL 1
REMARK minimizedAffinity -2.04582715
REMARK minimizedRMSD -1
REMARK  0 active torsions:
REMARK  status: ('A' for Active; 'I' for Inactive)
ROOT
ATOM      1  N1  IND d   1      -0.381   1.790  -1.019  0.00  0.00    -0.196 N 
ATOM      2  C2  IND d   1      -0.332   0.883  -2.041  0.00  0.00     0.054 A 
ATOM      3  C3  IND d   1      -0.272  -0.375  -1.550  0.00  0.00    -0.031 A 
ATOM      4  C4  IND d   1      -0.348  -1.183   0.893  0.00  0.00     0.051 A 
ATOM      5  C5  IND d   1      -0.355  -0.723   2.180  0.00  0.00    -0.031 A 
ATOM      6  C6  IND d   1      -0.374   0.626   2.472  0.00  0.00     0.015 A 
ATOM      7  C7  IND d   1      -0.399   1.568   1.484  0.00  0.00    -0.016 A 
ATOM      8  C8  IND d   1      -0.385   1.105   0.176  0.00  0.00    -0.047 A 
ATOM      9  C9  IND d   1      -0.322  -0.262  -0.127  0.00  0.00    -0.096 A 
ATOM     10  HN1 IND d   1      -0.406   2.645  -1.108  0.00  0.00     0.298 HD
ENDROOT
TORSDOF 0
ENDMDL
