MODEL 1
REMARK minimizedAffinity -4.69664574
REMARK minimizedRMSD -1
REMARK  0 active torsions:
REMARK  status: ('A' for Active; 'I' for Inactive)
ROOT
ATOM      1  N1  IND d   1      -0.257  -0.151  -0.814  0.00  0.00    -0.196 N 
ATOM      2  C2  IND d   1      -1.564   0.042  -0.463  0.00  0.00     0.054 A 
ATOM      3  C3  IND d   1      -1.791  -0.430   0.783  0.00  0.00    -0.031 A 
ATOM      4  C4  IND d   1      -0.140  -1.467   2.465  0.00  0.00     0.051 A 
ATOM      5  C5  IND d   1       1.156  -1.883   2.585  0.00  0.00    -0.031 A 
ATOM      6  C6  IND d   1       2.067  -1.738   1.558  0.00  0.00     0.015 A 
ATOM      7  C7  IND d   1       1.716  -1.158   0.372  0.00  0.00    -0.016 A 
ATOM      8  C8  IND d   1       0.399  -0.741   0.244  0.00  0.00    -0.047 A 
ATOM      9  C9  IND d   1      -0.540  -0.924   1.267  0.00  0.00    -0.096 A 
ATOM     10  HN1 IND d   1       0.096   0.060  -1.569  0.00  0.00     0.298 HD
ENDROOT
TORSDOF 0
ENDMDL
