MODEL 1
REMARK minimizedAffinity -4.28415728
REMARK minimizedRMSD -1
REMARK  0 active torsions:
REMARK  status: ('A' for Active; 'I' for Inactive)
ROOT
ATOM      1  N1  IND d   1       0.199   0.307  -0.979  0.00  0.00    -0.196 N 
ATOM      2  C2  IND d   1      -1.139   0.032  -1.035  0.00  0.00     0.054 A 
ATOM      3  C3  IND d   1      -1.547  -0.558   0.111  0.00  0.00    -0.031 A 
ATOM      4  C4  IND d   1      -0.210  -1.073   2.250  0.00  0.00     0.051 A 
ATOM      5  C5  IND d   1       1.055  -1.037   2.765  0.00  0.00    -0.031 A 
ATOM      6  C6  IND d   1       2.121  -0.539   2.044  0.00  0.00     0.015 A 
ATOM      7  C7  IND d   1       1.958  -0.045   0.780  0.00  0.00    -0.016 A 
ATOM      8  C8  IND d   1       0.676  -0.087   0.252  0.00  0.00    -0.047 A 
ATOM      9  C9  IND d   1      -0.402  -0.630   0.963  0.00  0.00    -0.096 A 
ATOM     10  HN1 IND d   1       0.664   0.665  -1.607  0.00  0.00     0.298 HD
ENDROOT
TORSDOF 0
ENDMDL
