MODEL 1
REMARK minimizedAffinity 3.53675222
REMARK minimizedRMSD -1
REMARK  0 active torsions:
REMARK  status: ('A' for Active; 'I' for Inactive)
ROOT
ATOM      1  C   UNL d   1       4.762  -4.980  -4.073  0.00  0.00     0.172 C 
ATOM      2  N   UNL d   1       4.116  -4.799  -2.794  0.00  0.00    -0.070 N 
ATOM      3  C1  UNL d   1       3.063  -5.534  -2.321  0.00  0.00    -0.004 A 
ATOM      4  C2  UNL d   1       2.740  -5.053  -1.070  0.00  0.00    -0.047 A 
ATOM      5  C3  UNL d   1       3.631  -3.992  -0.783  0.00  0.00    -0.047 A 
ATOM      6  C4  UNL d   1       4.472  -3.856  -1.867  0.00  0.00    -0.004 A 
ENDROOT
TORSDOF 0
ENDMDL
