MODEL 1
REMARK minimizedAffinity 1.27642369
REMARK minimizedRMSD -1
REMARK  0 active torsions:
REMARK  status: ('A' for Active; 'I' for Inactive)
ROOT
ATOM      1  C   UNL d   1       2.396  -1.711  -1.096  0.00  0.00     0.172 C 
ATOM      2  N   UNL d   1       3.780  -2.122  -1.071  0.00  0.00    -0.070 N 
ATOM      3  C1  UNL d   1       4.228  -3.416  -1.034  0.00  0.00    -0.004 A 
ATOM      4  C2  UNL d   1       5.605  -3.385  -1.022  0.00  0.00    -0.047 A 
ATOM      5  C3  UNL d   1       5.999  -2.027  -1.050  0.00  0.00    -0.047 A 
ATOM      6  C4  UNL d   1       4.849  -1.266  -1.081  0.00  0.00    -0.004 A 
ENDROOT
TORSDOF 0
ENDMDL
