MODEL 1
REMARK minimizedAffinity 1.98064256
REMARK minimizedRMSD -1
REMARK  0 active torsions:
REMARK  status: ('A' for Active; 'I' for Inactive)
ROOT
ATOM      1  C   UNL d   1       0.267   4.441   0.205  0.00  0.00     0.172 C 
ATOM      2  N   UNL d   1       0.431   3.703   1.436  0.00  0.00    -0.070 N 
ATOM      3  C1  UNL d   1      -0.467   2.810   1.956  0.00  0.00    -0.004 A 
ATOM      4  C2  UNL d   1       0.057   2.323   3.134  0.00  0.00    -0.047 A 
ATOM      5  C3  UNL d   1       1.313   2.945   3.329  0.00  0.00    -0.047 A 
ATOM      6  C4  UNL d   1       1.520   3.795   2.262  0.00  0.00    -0.004 A 
ENDROOT
TORSDOF 0
ENDMDL
