MODEL 1
REMARK minimizedAffinity 3.87240601
REMARK minimizedRMSD -1
REMARK  0 active torsions:
REMARK  status: ('A' for Active; 'I' for Inactive)
ROOT
ATOM      1  C   UNL d   1      -0.731   1.748  -0.850  0.00  0.00     0.172 C 
ATOM      2  N   UNL d   1      -0.944   0.374  -1.240  0.00  0.00    -0.070 N 
ATOM      3  C1  UNL d   1      -2.144  -0.286  -1.218  0.00  0.00    -0.004 A 
ATOM      4  C2  UNL d   1      -1.927  -1.572  -1.662  0.00  0.00    -0.047 A 
ATOM      5  C3  UNL d   1      -0.549  -1.690  -1.961  0.00  0.00    -0.047 A 
ATOM      6  C4  UNL d   1       0.036  -0.471  -1.690  0.00  0.00    -0.004 A 
ENDROOT
TORSDOF 0
ENDMDL
