MODEL 1
REMARK minimizedAffinity 0.565645516
REMARK minimizedRMSD -1
REMARK  0 active torsions:
REMARK  status: ('A' for Active; 'I' for Inactive)
ROOT
ATOM      1  C   UNL d   1      -0.308   2.072   2.800  0.00  0.00     0.172 C 
ATOM      2  N   UNL d   1      -0.126   2.535   1.444  0.00  0.00    -0.070 N 
ATOM      3  C1  UNL d   1      -0.371   1.805   0.311  0.00  0.00    -0.004 A 
ATOM      4  C2  UNL d   1      -0.076   2.600  -0.775  0.00  0.00    -0.047 A 
ATOM      5  C3  UNL d   1       0.363   3.850  -0.278  0.00  0.00    -0.047 A 
ATOM      6  C4  UNL d   1       0.322   3.783   1.098  0.00  0.00    -0.004 A 
ENDROOT
TORSDOF 0
ENDMDL
