MODEL 1
REMARK minimizedAffinity 5.70962811
REMARK minimizedRMSD -1
REMARK  0 active torsions:
REMARK  status: ('A' for Active; 'I' for Inactive)
ROOT
ATOM      1  C   UNL d   1      -0.397  -1.080  -1.840  0.00  0.00     0.172 C 
ATOM      2  N   UNL d   1      -1.724  -0.619  -1.506  0.00  0.00    -0.070 N 
ATOM      3  C1  UNL d   1      -2.114   0.690  -1.410  0.00  0.00    -0.004 A 
ATOM      4  C2  UNL d   1      -3.450   0.710  -1.075  0.00  0.00    -0.047 A 
ATOM      5  C3  UNL d   1      -3.878  -0.635  -0.964  0.00  0.00    -0.047 A 
ATOM      6  C4  UNL d   1      -2.790  -1.436  -1.237  0.00  0.00    -0.004 A 
ENDROOT
TORSDOF 0
ENDMDL
