MODEL 1
REMARK minimizedAffinity 1.23392737
REMARK minimizedRMSD -1
REMARK  0 active torsions:
REMARK  status: ('A' for Active; 'I' for Inactive)
ROOT
ATOM      1  C   UNL d   1      -0.172   2.517  -0.658  0.00  0.00     0.172 C 
ATOM      2  N   UNL d   1      -0.810   1.235  -0.842  0.00  0.00    -0.070 N 
ATOM      3  C1  UNL d   1      -0.166   0.038  -1.005  0.00  0.00    -0.004 A 
ATOM      4  C2  UNL d   1      -1.124  -0.941  -1.149  0.00  0.00    -0.047 A 
ATOM      5  C3  UNL d   1      -2.389  -0.311  -1.071  0.00  0.00    -0.047 A 
ATOM      6  C4  UNL d   1      -2.165   1.036  -0.881  0.00  0.00    -0.004 A 
ENDROOT
TORSDOF 0
ENDMDL
