MODEL 1
REMARK minimizedAffinity -0.0898208991
REMARK minimizedRMSD -1
REMARK  0 active torsions:
REMARK  status: ('A' for Active; 'I' for Inactive)
ROOT
ATOM      1  C1  BNZ d   1       3.360  -1.371   0.430  0.00  0.00     0.000 A 
ATOM      2  C2  BNZ d   1       3.125  -1.422   1.778  0.00  0.00     0.000 A 
ATOM      3  C3  BNZ d   1       2.036  -2.082   2.274  0.00  0.00     0.000 A 
ATOM      4  C4  BNZ d   1       1.162  -2.655   1.421  0.00  0.00     0.000 A 
ATOM      5  C5  BNZ d   1       1.380  -2.604   0.059  0.00  0.00     0.000 A 
ATOM      6  C6  BNZ d   1       2.499  -1.972  -0.435  0.00  0.00     0.000 A 
ENDROOT
TORSDOF 0
ENDMDL
