MODEL 1
REMARK minimizedAffinity 0.729665637
REMARK minimizedRMSD -1
REMARK  0 active torsions:
REMARK  status: ('A' for Active; 'I' for Inactive)
ROOT
ATOM      1  C1  BNZ d   1       1.121   1.501   0.011  0.00  0.00     0.000 A 
ATOM      2  C2  BNZ d   1       0.223   0.809   0.779  0.00  0.00     0.000 A 
ATOM      3  C3  BNZ d   1      -0.534   1.449   1.720  0.00  0.00     0.000 A 
ATOM      4  C4  BNZ d   1      -0.362   2.772   1.920  0.00  0.00     0.000 A 
ATOM      5  C5  BNZ d   1       0.546   3.482   1.161  0.00  0.00     0.000 A 
ATOM      6  C6  BNZ d   1       1.278   2.841   0.187  0.00  0.00     0.000 A 
ENDROOT
TORSDOF 0
ENDMDL
