MODEL 1
REMARK minimizedAffinity 0.645904362
REMARK minimizedRMSD -1
REMARK  0 active torsions:
REMARK  status: ('A' for Active; 'I' for Inactive)
ROOT
ATOM      1  C1  BNZ d   1       2.940  -2.183   0.473  0.00  0.00     0.000 A 
ATOM      2  C2  BNZ d   1       1.876  -2.795  -0.135  0.00  0.00     0.000 A 
ATOM      3  C3  BNZ d   1       0.932  -2.062  -0.798  0.00  0.00     0.000 A 
ATOM      4  C4  BNZ d   1       1.030  -0.717  -0.817  0.00  0.00     0.000 A 
ATOM      5  C5  BNZ d   1       2.091  -0.085  -0.200  0.00  0.00     0.000 A 
ATOM      6  C6  BNZ d   1       3.061  -0.828   0.432  0.00  0.00     0.000 A 
ENDROOT
TORSDOF 0
ENDMDL
