MODEL 1
REMARK minimizedAffinity 2.87969756
REMARK minimizedRMSD -1
REMARK  0 active torsions:
REMARK  status: ('A' for Active; 'I' for Inactive)
ROOT
ATOM      1  C1  BNZ d   1       1.119   0.339  -0.018  0.00  0.00     0.000 A 
ATOM      2  C2  BNZ d   1       2.453   0.297   0.288  0.00  0.00     0.000 A 
ATOM      3  C3  BNZ d   1       3.172  -0.854   0.125  0.00  0.00     0.000 A 
ATOM      4  C4  BNZ d   1       2.549  -1.970  -0.306  0.00  0.00     0.000 A 
ATOM      5  C5  BNZ d   1       1.202  -1.945  -0.611  0.00  0.00     0.000 A 
ATOM      6  C6  BNZ d   1       0.490  -0.775  -0.482  0.00  0.00     0.000 A 
ENDROOT
TORSDOF 0
ENDMDL
