MODEL 1
REMARK minimizedAffinity 1.82182825
REMARK minimizedRMSD -1
REMARK  0 active torsions:
REMARK  status: ('A' for Active; 'I' for Inactive)
ROOT
ATOM      1  C1  BNZ d   1      -0.172   2.074   0.275  0.00  0.00     0.000 A 
ATOM      2  C2  BNZ d   1      -1.517   2.125   0.527  0.00  0.00     0.000 A 
ATOM      3  C3  BNZ d   1      -2.004   1.881   1.781  0.00  0.00     0.000 A 
ATOM      4  C4  BNZ d   1      -1.150   1.549   2.770  0.00  0.00     0.000 A 
ATOM      5  C5  BNZ d   1       0.208   1.484   2.530  0.00  0.00     0.000 A 
ATOM      6  C6  BNZ d   1       0.698   1.768   1.276  0.00  0.00     0.000 A 
ENDROOT
TORSDOF 0
ENDMDL
