MODEL 1
REMARK minimizedAffinity -1.21982098
REMARK minimizedRMSD -1
REMARK  0 active torsions:
REMARK  status: ('A' for Active; 'I' for Inactive)
ROOT
ATOM      1  C1  BNZ d   1       5.994   5.218   0.888  0.00  0.00     0.000 A 
ATOM      2  C2  BNZ d   1       5.983   3.852   0.783  0.00  0.00     0.000 A 
ATOM      3  C3  BNZ d   1       5.990   3.244  -0.441  0.00  0.00     0.000 A 
ATOM      4  C4  BNZ d   1       5.966   4.001  -1.558  0.00  0.00     0.000 A 
ATOM      5  C5  BNZ d   1       5.967   5.378  -1.469  0.00  0.00     0.000 A 
ATOM      6  C6  BNZ d   1       6.000   5.987  -0.235  0.00  0.00     0.000 A 
ENDROOT
TORSDOF 0
ENDMDL
