MODEL 1
REMARK minimizedAffinity -2.55987835
REMARK minimizedRMSD -1
REMARK  0 active torsions:
REMARK  status: ('A' for Active; 'I' for Inactive)
ROOT
ATOM      1  C1  BNZ d   1       0.726   0.180  -0.494  0.00  0.00     0.000 A 
ATOM      2  C2  BNZ d   1       1.990  -0.337  -0.393  0.00  0.00     0.000 A 
ATOM      3  C3  BNZ d   1       2.238  -1.644  -0.709  0.00  0.00     0.000 A 
ATOM      4  C4  BNZ d   1       1.218  -2.441  -1.086  0.00  0.00     0.000 A 
ATOM      5  C5  BNZ d   1      -0.064  -1.936  -1.183  0.00  0.00     0.000 A 
ATOM      6  C6  BNZ d   1      -0.304  -0.611  -0.902  0.00  0.00     0.000 A 
ENDROOT
TORSDOF 0
ENDMDL
