MODEL 1
REMARK minimizedAffinity 6.33710194
REMARK minimizedRMSD -1
REMARK  0 active torsions:
REMARK  status: ('A' for Active; 'I' for Inactive)
ROOT
ATOM      1  C1  BNZ d   1       0.181  -2.680  -1.516  0.00  0.00     0.000 A 
ATOM      2  C2  BNZ d   1       1.226  -2.348  -0.695  0.00  0.00     0.000 A 
ATOM      3  C3  BNZ d   1       1.313  -1.101  -0.142  0.00  0.00     0.000 A 
ATOM      4  C4  BNZ d   1       0.378  -0.177  -0.441  0.00  0.00     0.000 A 
ATOM      5  C5  BNZ d   1      -0.676  -0.493  -1.274  0.00  0.00     0.000 A 
ATOM      6  C6  BNZ d   1      -0.781  -1.761  -1.799  0.00  0.00     0.000 A 
ENDROOT
TORSDOF 0
ENDMDL
