MODEL 1
REMARK minimizedAffinity 4.99196386
REMARK minimizedRMSD -1
REMARK  3 active torsions:
REMARK  status: ('A' for Active; 'I' for Inactive)
REMARK    1  A    between atoms: C3'_2  and  C2'_3 
REMARK    2  A    between atoms: C2'_3  and  C1'_4 
REMARK    3  A    between atoms: C1'_4  and  C1_5 
ROOT
ATOM      1  C1  N4B d   1      -5.278   2.605  -2.120  0.00  0.00    -0.075 A 
ATOM      2  C2  N4B d   1      -4.481   1.634  -2.766  0.00  0.00     0.002 A 
ATOM      3  C3  N4B d   1      -4.448   1.576  -4.138  0.00  0.00     0.002 A 
ATOM      4  C4  N4B d   1      -5.213   2.462  -4.881  0.00  0.00    -0.004 A 
ATOM      5  C5  N4B d   1      -5.959   3.414  -4.249  0.00  0.00     0.002 A 
ATOM      6  C6  N4B d   1      -6.000   3.486  -2.871  0.00  0.00     0.002 A 
ENDROOT
BRANCH   1   7
ATOM      7  C1' N4B d   1      -5.413   2.652  -0.622  0.00  0.00     0.057 C 
BRANCH   7   8
ATOM      8  C2' N4B d   1      -4.053   2.964  -0.006  0.00  0.00     0.009 C 
BRANCH   8   9
ATOM      9  C3' N4B d   1      -3.880   2.304   1.352  0.00  0.00     0.004 C 
ATOM     10  C4' N4B d   1      -2.664   1.430   1.422  0.00  0.00     0.003 C 
ENDBRANCH   8   9
ENDBRANCH   7   8
ENDBRANCH   1   7
TORSDOF 3
ENDMDL
