MODEL 1
REMARK minimizedAffinity 0.9907161
REMARK minimizedRMSD -1
REMARK  3 active torsions:
REMARK  status: ('A' for Active; 'I' for Inactive)
REMARK    1  A    between atoms: C3'_2  and  C2'_3 
REMARK    2  A    between atoms: C2'_3  and  C1'_4 
REMARK    3  A    between atoms: C1'_4  and  C1_5 
ROOT
ATOM      1  C1  N4B d   1       2.081   1.273   1.036  0.00  0.00    -0.075 A 
ATOM      2  C2  N4B d   1       0.846   1.676   1.588  0.00  0.00     0.002 A 
ATOM      3  C3  N4B d   1       0.291   2.879   1.226  0.00  0.00     0.002 A 
ATOM      4  C4  N4B d   1       0.961   3.701   0.332  0.00  0.00    -0.004 A 
ATOM      5  C5  N4B d   1       2.141   3.293  -0.217  0.00  0.00     0.002 A 
ATOM      6  C6  N4B d   1       2.708   2.085   0.135  0.00  0.00     0.002 A 
ENDROOT
BRANCH   1   7
ATOM      7  C1' N4B d   1       2.768   0.006   1.466  0.00  0.00     0.057 C 
BRANCH   7   8
ATOM      8  C2' N4B d   1       1.786  -0.852   2.259  0.00  0.00     0.009 C 
BRANCH   8   9
ATOM      9  C3' N4B d   1       2.210  -1.008   3.709  0.00  0.00     0.004 C 
ATOM     10  C4' N4B d   1       3.024  -2.245   3.945  0.00  0.00     0.003 C 
ENDBRANCH   8   9
ENDBRANCH   7   8
ENDBRANCH   1   7
TORSDOF 3
ENDMDL
