MODEL 1
REMARK minimizedAffinity 9.37313938
REMARK minimizedRMSD -1
REMARK  3 active torsions:
REMARK  status: ('A' for Active; 'I' for Inactive)
REMARK    1  A    between atoms: C3'_2  and  C2'_3 
REMARK    2  A    between atoms: C2'_3  and  C1'_4 
REMARK    3  A    between atoms: C1'_4  and  C1_5 
ROOT
ATOM      1  C1  N4B d   1       3.006  -0.290   1.826  0.00  0.00    -0.075 A 
ATOM      2  C2  N4B d   1       4.205  -0.922   2.224  0.00  0.00     0.002 A 
ATOM      3  C3  N4B d   1       4.222  -1.724   3.338  0.00  0.00     0.002 A 
ATOM      4  C4  N4B d   1       3.061  -1.894   4.078  0.00  0.00    -0.004 A 
ATOM      5  C5  N4B d   1       1.901  -1.301   3.674  0.00  0.00     0.002 A 
ATOM      6  C6  N4B d   1       1.869  -0.495   2.553  0.00  0.00     0.002 A 
ENDROOT
BRANCH   1   7
ATOM      7  C1' N4B d   1       2.959   0.665   0.665  0.00  0.00     0.057 C 
BRANCH   7   8
ATOM      8  C2' N4B d   1       2.193   1.918   1.078  0.00  0.00     0.009 C 
BRANCH   8   9
ATOM      9  C3' N4B d   1       2.316   3.025   0.045  0.00  0.00     0.004 C 
ATOM     10  C4' N4B d   1       1.196   4.020   0.124  0.00  0.00     0.003 C 
ENDBRANCH   8   9
ENDBRANCH   7   8
ENDBRANCH   1   7
TORSDOF 3
ENDMDL
