MODEL 1
REMARK minimizedAffinity 6.76120663
REMARK minimizedRMSD -1
REMARK  3 active torsions:
REMARK  status: ('A' for Active; 'I' for Inactive)
REMARK    1  A    between atoms: C3'_2  and  C2'_3 
REMARK    2  A    between atoms: C2'_3  and  C1'_4 
REMARK    3  A    between atoms: C1'_4  and  C1_5 
ROOT
ATOM      1  C1  N4B d   1      -4.917   2.622  -1.685  0.00  0.00    -0.075 A 
ATOM      2  C2  N4B d   1      -5.929   3.317  -2.383  0.00  0.00     0.002 A 
ATOM      3  C3  N4B d   1      -5.999   3.234  -3.752  0.00  0.00     0.002 A 
ATOM      4  C4  N4B d   1      -5.062   2.481  -4.443  0.00  0.00    -0.004 A 
ATOM      5  C5  N4B d   1      -4.103   1.792  -3.760  0.00  0.00     0.002 A 
ATOM      6  C6  N4B d   1      -4.022   1.863  -2.383  0.00  0.00     0.002 A 
ENDROOT
BRANCH   1   7
ATOM      7  C1' N4B d   1      -4.747   2.750  -0.196  0.00  0.00     0.057 C 
BRANCH   7   8
ATOM      8  C2' N4B d   1      -3.263   2.662   0.148  0.00  0.00     0.009 C 
BRANCH   8   9
ATOM      9  C3' N4B d   1      -3.011   1.774   1.354  0.00  0.00     0.004 C 
ATOM     10  C4' N4B d   1      -2.043   0.665   1.067  0.00  0.00     0.003 C 
ENDBRANCH   8   9
ENDBRANCH   7   8
ENDBRANCH   1   7
TORSDOF 3
ENDMDL
