MODEL 1
REMARK minimizedAffinity -3.9255631
REMARK minimizedRMSD -1
REMARK  0 active torsions:
REMARK  status: ('A' for Active; 'I' for Inactive)
ROOT
ATOM      1  C   UNL d   1       1.250  -2.245   1.506  0.00  0.00     0.124 A 
ATOM      2  C1  UNL d   1       1.984  -1.448   0.639  0.00  0.00     0.062 A 
ATOM      3  C2  UNL d   1       1.475  -0.226   0.210  0.00  0.00     0.162 A 
ATOM      4  C3  UNL d   1       0.224   0.209   0.649  0.00  0.00    -0.034 A 
ATOM      5  C4  UNL d   1      -0.509  -0.599   1.521  0.00  0.00     0.162 A 
ATOM      6  C5  UNL d   1       0.004  -1.820   1.946  0.00  0.00     0.062 A 
ATOM      7  F   UNL d   1      -0.707  -2.588   2.784  0.00  0.00    -0.097 F 
ATOM      8  F1  UNL d   1      -1.715  -0.212   1.962  0.00  0.00    -0.096 F 
ATOM      9  I   UNL d   1      -0.541   2.036   0.011  0.00  0.00    -0.060 I 
ATOM     10  F2  UNL d   1       2.207   0.524  -0.628  0.00  0.00    -0.096 F 
ATOM     11  F3  UNL d   1       3.188  -1.857   0.212  0.00  0.00    -0.097 F 
ATOM     12  F4  UNL d   1       1.742  -3.421   1.916  0.00  0.00    -0.092 F 
ENDROOT
TORSDOF 0
ENDMDL
