MODEL 1
REMARK minimizedAffinity -4.01986408
REMARK minimizedRMSD -1
REMARK  0 active torsions:
REMARK  status: ('A' for Active; 'I' for Inactive)
ROOT
ATOM      1  C   UNL d   1       0.739  -1.811   2.054  0.00  0.00     0.124 A 
ATOM      2  C1  UNL d   1       1.415  -1.424   0.905  0.00  0.00     0.062 A 
ATOM      3  C2  UNL d   1       0.862  -0.471   0.056  0.00  0.00     0.162 A 
ATOM      4  C3  UNL d   1      -0.374   0.104   0.352  0.00  0.00    -0.034 A 
ATOM      5  C4  UNL d   1      -1.048  -0.291   1.509  0.00  0.00     0.162 A 
ATOM      6  C5  UNL d   1      -0.491  -1.245   2.355  0.00  0.00     0.062 A 
ATOM      7  F   UNL d   1      -1.145  -1.618   3.465  0.00  0.00    -0.097 F 
ATOM      8  F1  UNL d   1      -2.239   0.240   1.825  0.00  0.00    -0.096 F 
ATOM      9  I   UNL d   1      -1.205   1.530  -0.915  0.00  0.00    -0.060 I 
ATOM     10  F2  UNL d   1       1.537  -0.115  -1.048  0.00  0.00    -0.096 F 
ATOM     11  F3  UNL d   1       2.604  -1.971   0.612  0.00  0.00    -0.097 F 
ATOM     12  F4  UNL d   1       1.274  -2.730   2.869  0.00  0.00    -0.092 F 
ENDROOT
TORSDOF 0
ENDMDL
