MODEL 1
REMARK minimizedAffinity -4.33109236
REMARK minimizedRMSD -1
REMARK  0 active torsions:
REMARK  status: ('A' for Active; 'I' for Inactive)
ROOT
ATOM      1  C   UNL d   1       0.778  -2.368   1.989  0.00  0.00     0.124 A 
ATOM      2  C1  UNL d   1       1.501  -1.919   0.893  0.00  0.00     0.062 A 
ATOM      3  C2  UNL d   1       1.035  -0.846   0.139  0.00  0.00     0.162 A 
ATOM      4  C3  UNL d   1      -0.161  -0.213   0.480  0.00  0.00    -0.034 A 
ATOM      5  C4  UNL d   1      -0.883  -0.672   1.583  0.00  0.00     0.162 A 
ATOM      6  C5  UNL d   1      -0.413  -1.745   2.333  0.00  0.00     0.062 A 
ATOM      7  F   UNL d   1      -1.113  -2.177   3.392  0.00  0.00    -0.097 F 
ATOM      8  F1  UNL d   1      -2.037  -0.086   1.938  0.00  0.00    -0.096 F 
ATOM      9  I   UNL d   1      -0.861   1.392  -0.645  0.00  0.00    -0.060 I 
ATOM     10  F2  UNL d   1       1.755  -0.433  -0.915  0.00  0.00    -0.096 F 
ATOM     11  F3  UNL d   1       2.652  -2.521   0.559  0.00  0.00    -0.097 F 
ATOM     12  F4  UNL d   1       1.228  -3.402   2.712  0.00  0.00    -0.092 F 
ENDROOT
TORSDOF 0
ENDMDL
