MODEL 1
REMARK minimizedAffinity -4.12845612
REMARK minimizedRMSD -1
REMARK  0 active torsions:
REMARK  status: ('A' for Active; 'I' for Inactive)
ROOT
ATOM      1  C   UNL d   1       0.928  -2.108   2.115  0.00  0.00     0.124 A 
ATOM      2  C1  UNL d   1      -0.312  -1.607   2.485  0.00  0.00     0.062 A 
ATOM      3  C2  UNL d   1      -0.894  -0.571   1.760  0.00  0.00     0.162 A 
ATOM      4  C3  UNL d   1      -0.236  -0.030   0.655  0.00  0.00    -0.034 A 
ATOM      5  C4  UNL d   1       1.012  -0.538   0.290  0.00  0.00     0.162 A 
ATOM      6  C5  UNL d   1       1.589  -1.573   1.018  0.00  0.00     0.062 A 
ATOM      7  F   UNL d   1       2.787  -2.056   0.659  0.00  0.00    -0.097 F 
ATOM      8  F1  UNL d   1       1.672  -0.040  -0.766  0.00  0.00    -0.096 F 
ATOM      9  I   UNL d   1      -1.102   1.520  -0.432  0.00  0.00    -0.060 I 
ATOM     10  F2  UNL d   1      -2.093  -0.107   2.140  0.00  0.00    -0.096 F 
ATOM     11  F3  UNL d   1      -0.953  -2.122   3.545  0.00  0.00    -0.097 F 
ATOM     12  F4  UNL d   1       1.485  -3.104   2.815  0.00  0.00    -0.092 F 
ENDROOT
TORSDOF 0
ENDMDL
