MODEL 1
REMARK minimizedAffinity -1.69108415
REMARK minimizedRMSD -1
REMARK  0 active torsions:
REMARK  status: ('A' for Active; 'I' for Inactive)
ROOT
ATOM      1  C   UNL d   1       0.747  -2.455   1.758  0.00  0.00     0.124 A 
ATOM      2  C1  UNL d   1       1.599  -1.699   0.965  0.00  0.00     0.062 A 
ATOM      3  C2  UNL d   1       1.146  -0.523   0.374  0.00  0.00     0.162 A 
ATOM      4  C3  UNL d   1      -0.166  -0.094   0.575  0.00  0.00    -0.034 A 
ATOM      5  C4  UNL d   1      -1.017  -0.860   1.373  0.00  0.00     0.162 A 
ATOM      6  C5  UNL d   1      -0.560  -2.035   1.962  0.00  0.00     0.062 A 
ATOM      7  F   UNL d   1      -1.385  -2.763   2.728  0.00  0.00    -0.097 F 
ATOM      8  F1  UNL d   1      -2.285  -0.477   1.588  0.00  0.00    -0.096 F 
ATOM      9  I   UNL d   1      -0.847   1.664  -0.307  0.00  0.00    -0.060 I 
ATOM     10  F2  UNL d   1       1.991   0.187  -0.388  0.00  0.00    -0.096 F 
ATOM     11  F3  UNL d   1       2.862  -2.103   0.766  0.00  0.00    -0.097 F 
ATOM     12  F4  UNL d   1       1.185  -3.586   2.325  0.00  0.00    -0.092 F 
ENDROOT
TORSDOF 0
ENDMDL
