MODEL 1
REMARK minimizedAffinity -4.46144629
REMARK minimizedRMSD -1
REMARK  0 active torsions:
REMARK  status: ('A' for Active; 'I' for Inactive)
ROOT
ATOM      1  C   UNL d   1       0.682  -2.504   1.740  0.00  0.00     0.124 A 
ATOM      2  C1  UNL d   1       1.345  -1.974   0.642  0.00  0.00     0.062 A 
ATOM      3  C2  UNL d   1       0.907  -0.785   0.066  0.00  0.00     0.162 A 
ATOM      4  C3  UNL d   1      -0.200  -0.117   0.588  0.00  0.00    -0.034 A 
ATOM      5  C4  UNL d   1      -0.863  -0.656   1.692  0.00  0.00     0.162 A 
ATOM      6  C5  UNL d   1      -0.421  -1.845   2.264  0.00  0.00     0.062 A 
ATOM      7  F   UNL d   1      -1.063  -2.355   3.325  0.00  0.00    -0.097 F 
ATOM      8  F1  UNL d   1      -1.931  -0.039   2.220  0.00  0.00    -0.096 F 
ATOM      9  I   UNL d   1      -0.859   1.662  -0.269  0.00  0.00    -0.060 I 
ATOM     10  F2  UNL d   1       1.567  -0.296  -0.994  0.00  0.00    -0.096 F 
ATOM     11  F3  UNL d   1       2.410  -2.610   0.133  0.00  0.00    -0.097 F 
ATOM     12  F4  UNL d   1       1.105  -3.649   2.291  0.00  0.00    -0.092 F 
ENDROOT
TORSDOF 0
ENDMDL
