MODEL 1
REMARK minimizedAffinity -4.50612879
REMARK minimizedRMSD -1
REMARK  0 active torsions:
REMARK  status: ('A' for Active; 'I' for Inactive)
ROOT
ATOM      1  C   UNL d   1       0.893  -2.489   1.926  0.00  0.00     0.124 A 
ATOM      2  C1  UNL d   1      -0.344  -1.987   2.307  0.00  0.00     0.062 A 
ATOM      3  C2  UNL d   1      -0.918  -0.932   1.603  0.00  0.00     0.162 A 
ATOM      4  C3  UNL d   1      -0.256  -0.372   0.511  0.00  0.00    -0.034 A 
ATOM      5  C4  UNL d   1       0.988  -0.881   0.134  0.00  0.00     0.162 A 
ATOM      6  C5  UNL d   1       1.557  -1.936   0.840  0.00  0.00     0.062 A 
ATOM      7  F   UNL d   1       2.752  -2.420   0.470  0.00  0.00    -0.097 F 
ATOM      8  F1  UNL d   1       1.651  -0.366  -0.912  0.00  0.00    -0.096 F 
ATOM      9  I   UNL d   1      -1.111   1.206  -0.543  0.00  0.00    -0.060 I 
ATOM     10  F2  UNL d   1      -2.114  -0.467   1.994  0.00  0.00    -0.096 F 
ATOM     11  F3  UNL d   1      -0.988  -2.519   3.356  0.00  0.00    -0.097 F 
ATOM     12  F4  UNL d   1       1.443  -3.504   2.605  0.00  0.00    -0.092 F 
ENDROOT
TORSDOF 0
ENDMDL
