MODEL 1
REMARK minimizedAffinity 0.097843647
REMARK minimizedRMSD -1
REMARK  0 active torsions:
REMARK  status: ('A' for Active; 'I' for Inactive)
ROOT
ATOM      1  C   UNL d   1       0.572  -2.322   1.519  0.00  0.00     0.124 A 
ATOM      2  C1  UNL d   1      -0.657  -1.722   1.758  0.00  0.00     0.062 A 
ATOM      3  C2  UNL d   1      -0.972  -0.508   1.154  0.00  0.00     0.162 A 
ATOM      4  C3  UNL d   1      -0.058   0.113   0.303  0.00  0.00    -0.034 A 
ATOM      5  C4  UNL d   1       1.176  -0.496   0.068  0.00  0.00     0.162 A 
ATOM      6  C5  UNL d   1       1.487  -1.709   0.675  0.00  0.00     0.062 A 
ATOM      7  F   UNL d   1       2.674  -2.288   0.443  0.00  0.00    -0.097 F 
ATOM      8  F1  UNL d   1       2.079   0.073  -0.744  0.00  0.00    -0.096 F 
ATOM      9  I   UNL d   1      -0.526   1.927  -0.603  0.00  0.00    -0.060 I 
ATOM     10  F2  UNL d   1      -2.167   0.049   1.402  0.00  0.00    -0.096 F 
ATOM     11  F3  UNL d   1      -1.542  -2.311   2.574  0.00  0.00    -0.097 F 
ATOM     12  F4  UNL d   1       0.873  -3.489   2.103  0.00  0.00    -0.092 F 
ENDROOT
TORSDOF 0
ENDMDL
