MODEL 1
REMARK minimizedAffinity -5.42149544
REMARK minimizedRMSD -1
REMARK  0 active torsions:
REMARK  status: ('A' for Active; 'I' for Inactive)
ROOT
ATOM      1  C   UNL d   1       1.032  -2.243   1.792  0.00  0.00     0.124 A 
ATOM      2  C1  UNL d   1      -0.313  -1.951   1.976  0.00  0.00     0.062 A 
ATOM      3  C2  UNL d   1      -0.930  -0.976   1.198  0.00  0.00     0.162 A 
ATOM      4  C3  UNL d   1      -0.204  -0.286   0.228  0.00  0.00    -0.034 A 
ATOM      5  C4  UNL d   1       1.149  -0.584   0.049  0.00  0.00     0.162 A 
ATOM      6  C5  UNL d   1       1.761  -1.560   0.829  0.00  0.00     0.062 A 
ATOM      7  F   UNL d   1       3.060  -1.840   0.650  0.00  0.00    -0.097 F 
ATOM      8  F1  UNL d   1       1.877   0.061  -0.874  0.00  0.00    -0.096 F 
ATOM      9  I   UNL d   1      -1.123   1.173  -0.937  0.00  0.00    -0.060 I 
ATOM     10  F2  UNL d   1      -2.230  -0.715   1.398  0.00  0.00    -0.096 F 
ATOM     11  F3  UNL d   1      -1.019  -2.610   2.906  0.00  0.00    -0.097 F 
ATOM     12  F4  UNL d   1       1.624  -3.181   2.543  0.00  0.00    -0.092 F 
ENDROOT
TORSDOF 0
ENDMDL
