MODEL 1
REMARK minimizedAffinity -5.43719339
REMARK minimizedRMSD -1
REMARK  0 active torsions:
REMARK  status: ('A' for Active; 'I' for Inactive)
ROOT
ATOM      1  C   UNL d   1       0.939  -1.666   1.937  0.00  0.00     0.124 A 
ATOM      2  C1  UNL d   1      -0.302  -1.137   2.267  0.00  0.00     0.062 A 
ATOM      3  C2  UNL d   1      -0.884  -0.162   1.463  0.00  0.00     0.162 A 
ATOM      4  C3  UNL d   1      -0.226   0.290   0.318  0.00  0.00    -0.034 A 
ATOM      5  C4  UNL d   1       1.021  -0.245  -0.007  0.00  0.00     0.162 A 
ATOM      6  C5  UNL d   1       1.598  -1.220   0.801  0.00  0.00     0.062 A 
ATOM      7  F   UNL d   1       2.797  -1.729   0.480  0.00  0.00    -0.097 F 
ATOM      8  F1  UNL d   1       1.680   0.167  -1.100  0.00  0.00    -0.096 F 
ATOM      9  I   UNL d   1      -1.093   1.748  -0.887  0.00  0.00    -0.060 I 
ATOM     10  F2  UNL d   1      -2.083   0.331   1.806  0.00  0.00    -0.096 F 
ATOM     11  F3  UNL d   1      -0.941  -1.566   3.365  0.00  0.00    -0.097 F 
ATOM     12  F4  UNL d   1       1.497  -2.603   2.714  0.00  0.00    -0.092 F 
ENDROOT
TORSDOF 0
ENDMDL
