MODEL 1
REMARK minimizedAffinity -5.18090773
REMARK minimizedRMSD -1
REMARK  0 active torsions:
REMARK  status: ('A' for Active; 'I' for Inactive)
ROOT
ATOM      1  C   UNL d   1       0.882  -1.467   2.033  0.00  0.00     0.124 A 
ATOM      2  C1  UNL d   1      -0.260  -0.752   2.366  0.00  0.00     0.062 A 
ATOM      3  C2  UNL d   1      -0.844   0.106   1.438  0.00  0.00     0.162 A 
ATOM      4  C3  UNL d   1      -0.288   0.252   0.168  0.00  0.00    -0.034 A 
ATOM      5  C4  UNL d   1       0.861  -0.470  -0.159  0.00  0.00     0.162 A 
ATOM      6  C5  UNL d   1       1.441  -1.326   0.771  0.00  0.00     0.062 A 
ATOM      7  F   UNL d   1       2.544  -2.016   0.448  0.00  0.00    -0.097 F 
ATOM      8  F1  UNL d   1       1.422  -0.353  -1.372  0.00  0.00    -0.096 F 
ATOM      9  I   UNL d   1      -1.158   1.533  -1.223  0.00  0.00    -0.060 I 
ATOM     10  F2  UNL d   1      -1.947   0.785   1.787  0.00  0.00    -0.096 F 
ATOM     11  F3  UNL d   1      -0.802  -0.886   3.585  0.00  0.00    -0.097 F 
ATOM     12  F4  UNL d   1       1.442  -2.291   2.929  0.00  0.00    -0.092 F 
ENDROOT
TORSDOF 0
ENDMDL
