MODEL 1
REMARK minimizedAffinity -4.57442474
REMARK minimizedRMSD -1
REMARK  0 active torsions:
REMARK  status: ('A' for Active; 'I' for Inactive)
ROOT
ATOM      1  C   UNL d   1       1.278  -1.700   1.966  0.00  0.00     0.124 A 
ATOM      2  C1  UNL d   1      -0.020  -1.298   2.250  0.00  0.00     0.062 A 
ATOM      3  C2  UNL d   1      -0.649  -0.349   1.450  0.00  0.00     0.162 A 
ATOM      4  C3  UNL d   1       0.018   0.206   0.358  0.00  0.00    -0.034 A 
ATOM      5  C4  UNL d   1       1.324  -0.203   0.080  0.00  0.00     0.162 A 
ATOM      6  C5  UNL d   1       1.949  -1.152   0.882  0.00  0.00     0.062 A 
ATOM      7  F   UNL d   1       3.203  -1.539   0.606  0.00  0.00    -0.097 F 
ATOM      8  F1  UNL d   1       1.995   0.310  -0.962  0.00  0.00    -0.096 F 
ATOM      9  I   UNL d   1      -0.919   1.626  -0.840  0.00  0.00    -0.060 I 
ATOM     10  F2  UNL d   1      -1.904   0.021   1.748  0.00  0.00    -0.096 F 
ATOM     11  F3  UNL d   1      -0.669  -1.826   3.297  0.00  0.00    -0.097 F 
ATOM     12  F4  UNL d   1       1.882  -2.613   2.738  0.00  0.00    -0.092 F 
ENDROOT
TORSDOF 0
ENDMDL
