MODEL 1
REMARK minimizedAffinity -4.51305199
REMARK minimizedRMSD -1
REMARK  0 active torsions:
REMARK  status: ('A' for Active; 'I' for Inactive)
ROOT
ATOM      1  C   UNL d   1       1.023  -2.272   1.854  0.00  0.00     0.124 A 
ATOM      2  C1  UNL d   1      -0.251  -1.838   2.195  0.00  0.00     0.062 A 
ATOM      3  C2  UNL d   1      -0.815  -0.745   1.543  0.00  0.00     0.162 A 
ATOM      4  C3  UNL d   1      -0.106  -0.078   0.544  0.00  0.00    -0.034 A 
ATOM      5  C4  UNL d   1       1.175  -0.520   0.208  0.00  0.00     0.162 A 
ATOM      6  C5  UNL d   1       1.735  -1.612   0.862  0.00  0.00     0.062 A 
ATOM      7  F   UNL d   1       2.965  -2.030   0.532  0.00  0.00    -0.097 F 
ATOM      8  F1  UNL d   1       1.884   0.098  -0.748  0.00  0.00    -0.096 F 
ATOM      9  I   UNL d   1      -0.947   1.556  -0.433  0.00  0.00    -0.060 I 
ATOM     10  F2  UNL d   1      -2.048  -0.348   1.892  0.00  0.00    -0.096 F 
ATOM     11  F3  UNL d   1      -0.939  -2.473   3.154  0.00  0.00    -0.097 F 
ATOM     12  F4  UNL d   1       1.565  -3.323   2.483  0.00  0.00    -0.092 F 
ENDROOT
TORSDOF 0
ENDMDL
