MODEL 1
REMARK minimizedAffinity 1.4769268
REMARK minimizedRMSD -1
REMARK  0 active torsions:
REMARK  status: ('A' for Active; 'I' for Inactive)
ROOT
ATOM      1  C4' PXY d   1       0.068  -1.657  -0.086  0.00  0.00     0.077 C 
ATOM      2  C1' PXY d   1       4.342   2.217  -0.461  0.00  0.00     0.077 C 
ATOM      3  C1  PXY d   1       3.217   1.207  -0.352  0.00  0.00    -0.082 A 
ATOM      4  C2  PXY d   1       3.347   0.019  -0.920  0.00  0.00     0.003 A 
ATOM      5  C3  PXY d   1       2.326  -0.895  -0.859  0.00  0.00     0.003 A 
ATOM      6  C4  PXY d   1       1.182  -0.610  -0.163  0.00  0.00    -0.082 A 
ATOM      7  C5  PXY d   1       1.046   0.596   0.429  0.00  0.00     0.003 A 
ATOM      8  C6  PXY d   1       2.077   1.525   0.320  0.00  0.00     0.003 A 
ENDROOT
TORSDOF 0
ENDMDL
