MODEL 1
REMARK minimizedAffinity 6.17213869
REMARK minimizedRMSD -1
REMARK  0 active torsions:
REMARK  status: ('A' for Active; 'I' for Inactive)
ROOT
ATOM      1  C4' PXY d   1       2.031  -2.232  -0.598  0.00  0.00     0.077 C 
ATOM      2  C1' PXY d   1       3.899   2.443   2.242  0.00  0.00     0.077 C 
ATOM      3  C1  PXY d   1       3.420   1.210   1.502  0.00  0.00    -0.082 A 
ATOM      4  C2  PXY d   1       2.626   1.345   0.452  0.00  0.00     0.003 A 
ATOM      5  C3  PXY d   1       2.157   0.239  -0.210  0.00  0.00     0.003 A 
ATOM      6  C4  PXY d   1       2.547  -1.015   0.174  0.00  0.00    -0.082 A 
ATOM      7  C5  PXY d   1       3.366  -1.161   1.238  0.00  0.00     0.003 A 
ATOM      8  C6  PXY d   1       3.798  -0.028   1.921  0.00  0.00     0.003 A 
ENDROOT
TORSDOF 0
ENDMDL
