MODEL 1
REMARK minimizedAffinity 3.68327856
REMARK minimizedRMSD -1
REMARK  0 active torsions:
REMARK  status: ('A' for Active; 'I' for Inactive)
ROOT
ATOM      1  C4' PXY d   1       2.913  -1.440  -0.127  0.00  0.00     0.077 C 
ATOM      2  C1' PXY d   1       1.163   4.020   0.609  0.00  0.00     0.077 C 
ATOM      3  C1  PXY d   1       1.634   2.592   0.412  0.00  0.00    -0.082 A 
ATOM      4  C2  PXY d   1       0.748   1.638   0.178  0.00  0.00     0.003 A 
ATOM      5  C3  PXY d   1       1.153   0.337   0.029  0.00  0.00     0.003 A 
ATOM      6  C4  PXY d   1       2.484   0.017   0.069  0.00  0.00    -0.082 A 
ATOM      7  C5  PXY d   1       3.395   0.986   0.297  0.00  0.00     0.003 A 
ATOM      8  C6  PXY d   1       2.960   2.295   0.486  0.00  0.00     0.003 A 
ENDROOT
TORSDOF 0
ENDMDL
