MODEL 1
REMARK minimizedAffinity 3.98125219
REMARK minimizedRMSD -1
REMARK  0 active torsions:
REMARK  status: ('A' for Active; 'I' for Inactive)
ROOT
ATOM      1  C4' PXY d   1       4.888   1.481  -0.264  0.00  0.00     0.077 C 
ATOM      2  C1' PXY d   1       0.837  -2.640  -0.403  0.00  0.00     0.077 C 
ATOM      3  C1  PXY d   1       1.890  -1.550  -0.366  0.00  0.00    -0.082 A 
ATOM      4  C2  PXY d   1       3.099  -1.793  -0.845  0.00  0.00     0.003 A 
ATOM      5  C3  PXY d   1       4.073  -0.829  -0.790  0.00  0.00     0.003 A 
ATOM      6  C4  PXY d   1       3.791   0.413  -0.289  0.00  0.00    -0.082 A 
ATOM      7  C5  PXY d   1       2.556   0.672   0.191  0.00  0.00     0.003 A 
ATOM      8  C6  PXY d   1       1.594  -0.333   0.164  0.00  0.00     0.003 A 
ENDROOT
TORSDOF 0
ENDMDL
