MODEL 1
REMARK minimizedAffinity 7.69687748
REMARK minimizedRMSD -1
REMARK  0 active torsions:
REMARK  status: ('A' for Active; 'I' for Inactive)
ROOT
ATOM      1  C4' PXY d   1       3.092  -2.244  -2.439  0.00  0.00     0.077 C 
ATOM      2  C1' PXY d   1       0.279   1.062   1.379  0.00  0.00     0.077 C 
ATOM      3  C1  PXY d   1       1.028   0.198   0.383  0.00  0.00    -0.082 A 
ATOM      4  C2  PXY d   1       0.468  -0.096  -0.779  0.00  0.00     0.003 A 
ATOM      5  C3  PXY d   1       1.118  -0.902  -1.678  0.00  0.00     0.003 A 
ATOM      6  C4  PXY d   1       2.377  -1.368  -1.407  0.00  0.00    -0.082 A 
ATOM      7  C5  PXY d   1       2.959  -1.063  -0.228  0.00  0.00     0.003 A 
ATOM      8  C6  PXY d   1       2.266  -0.277   0.688  0.00  0.00     0.003 A 
ENDROOT
TORSDOF 0
ENDMDL
