MODEL 1
REMARK minimizedAffinity 2.90124345
REMARK minimizedRMSD -1
REMARK  0 active torsions:
REMARK  status: ('A' for Active; 'I' for Inactive)
ROOT
ATOM      1  C4' PXY d   1       3.019   3.796   0.290  0.00  0.00     0.077 C 
ATOM      2  C1' PXY d   1       2.895  -1.976   0.010  0.00  0.00     0.077 C 
ATOM      3  C1  PXY d   1       2.914  -0.462   0.085  0.00  0.00    -0.082 A 
ATOM      4  C2  PXY d   1       3.896   0.209  -0.495  0.00  0.00     0.003 A 
ATOM      5  C3  PXY d   1       3.946   1.576  -0.410  0.00  0.00     0.003 A 
ATOM      6  C4  PXY d   1       2.954   2.267   0.232  0.00  0.00    -0.082 A 
ATOM      7  C5  PXY d   1       1.943   1.590   0.817  0.00  0.00     0.003 A 
ATOM      8  C6  PXY d   1       1.932   0.200   0.754  0.00  0.00     0.003 A 
ENDROOT
TORSDOF 0
ENDMDL
