MODEL 1
REMARK minimizedAffinity 6.52353334
REMARK minimizedRMSD -1
REMARK  0 active torsions:
REMARK  status: ('A' for Active; 'I' for Inactive)
ROOT
ATOM      1  C4' PXY d   1       5.319  -0.779   2.007  0.00  0.00     0.077 C 
ATOM      2  C1' PXY d   1       0.758   2.073  -0.110  0.00  0.00     0.077 C 
ATOM      3  C1  PXY d   1       1.948   1.313   0.442  0.00  0.00    -0.082 A 
ATOM      4  C2  PXY d   1       2.752   1.902   1.313  0.00  0.00     0.003 A 
ATOM      5  C3  PXY d   1       3.851   1.241   1.799  0.00  0.00     0.003 A 
ATOM      6  C4  PXY d   1       4.100  -0.054   1.430  0.00  0.00    -0.082 A 
ATOM      7  C5  PXY d   1       3.278  -0.665   0.550  0.00  0.00     0.003 A 
ATOM      8  C6  PXY d   1       2.191   0.037   0.038  0.00  0.00     0.003 A 
ENDROOT
TORSDOF 0
ENDMDL
