MODEL 1
REMARK minimizedAffinity 1.99673057
REMARK minimizedRMSD -1
REMARK  0 active torsions:
REMARK  status: ('A' for Active; 'I' for Inactive)
ROOT
ATOM      1  C4' PXY d   1       3.964   3.353   0.428  0.00  0.00     0.077 C 
ATOM      2  C1' PXY d   1       2.322  -2.189   0.506  0.00  0.00     0.077 C 
ATOM      3  C1  PXY d   1       2.741  -0.732   0.480  0.00  0.00    -0.082 A 
ATOM      4  C2  PXY d   1       4.027  -0.422   0.485  0.00  0.00     0.003 A 
ATOM      5  C3  PXY d   1       4.424   0.891   0.494  0.00  0.00     0.003 A 
ATOM      6  C4  PXY d   1       3.495   1.896   0.444  0.00  0.00    -0.082 A 
ATOM      7  C5  PXY d   1       2.181   1.587   0.428  0.00  0.00     0.003 A 
ATOM      8  C6  PXY d   1       1.799   0.249   0.460  0.00  0.00     0.003 A 
ENDROOT
TORSDOF 0
ENDMDL
