MODEL 1
REMARK minimizedAffinity -0.271431953
REMARK minimizedRMSD -1
REMARK  0 active torsions:
REMARK  status: ('A' for Active; 'I' for Inactive)
ROOT
ATOM      1  C4' PXY d   1       2.660  -2.524  -0.387  0.00  0.00     0.077 C 
ATOM      2  C1' PXY d   1       3.236   3.205   0.124  0.00  0.00     0.077 C 
ATOM      3  C1  PXY d   1       3.090   1.703  -0.022  0.00  0.00    -0.082 A 
ATOM      4  C2  PXY d   1       2.189   1.060   0.702  0.00  0.00     0.003 A 
ATOM      5  C3  PXY d   1       2.065  -0.302   0.606  0.00  0.00     0.003 A 
ATOM      6  C4  PXY d   1       2.836  -1.007  -0.279  0.00  0.00    -0.082 A 
ATOM      7  C5  PXY d   1       3.750  -0.356  -1.030  0.00  0.00     0.003 A 
ATOM      8  C6  PXY d   1       3.888   1.021  -0.887  0.00  0.00     0.003 A 
ENDROOT
TORSDOF 0
ENDMDL
