MODEL 1
REMARK minimizedAffinity 5.40012789
REMARK minimizedRMSD -1
REMARK  0 active torsions:
REMARK  status: ('A' for Active; 'I' for Inactive)
ROOT
ATOM      1  C4' PXY d   1       3.932   0.480  -0.007  0.00  0.00     0.077 C 
ATOM      2  C1' PXY d   1       0.041  -3.781  -0.354  0.00  0.00     0.077 C 
ATOM      3  C1  PXY d   1       1.057  -2.660  -0.252  0.00  0.00    -0.082 A 
ATOM      4  C2  PXY d   1       1.637  -2.202  -1.349  0.00  0.00     0.003 A 
ATOM      5  C3  PXY d   1       2.581  -1.210  -1.271  0.00  0.00     0.003 A 
ATOM      6  C4  PXY d   1       2.895  -0.645  -0.064  0.00  0.00    -0.082 A 
ATOM      7  C5  PXY d   1       2.299  -1.100   1.059  0.00  0.00     0.003 A 
ATOM      8  C6  PXY d   1       1.374  -2.135   0.963  0.00  0.00     0.003 A 
ENDROOT
TORSDOF 0
ENDMDL
