MODEL 1
REMARK minimizedAffinity -0.714768589
REMARK minimizedRMSD -1
REMARK  0 active torsions:
REMARK  status: ('A' for Active; 'I' for Inactive)
ROOT
ATOM      1  C4' PXY d   1      -0.711   0.760   2.589  0.00  0.00     0.077 C 
ATOM      2  C1' PXY d   1       3.803   1.780  -0.876  0.00  0.00     0.077 C 
ATOM      3  C1  PXY d   1       2.614   1.524   0.030  0.00  0.00    -0.082 A 
ATOM      4  C2  PXY d   1       2.709   0.623   0.994  0.00  0.00     0.003 A 
ATOM      5  C3  PXY d   1       1.634   0.357   1.802  0.00  0.00     0.003 A 
ATOM      6  C4  PXY d   1       0.467   1.058   1.656  0.00  0.00    -0.082 A 
ATOM      7  C5  PXY d   1       0.366   1.986   0.681  0.00  0.00     0.003 A 
ATOM      8  C6  PXY d   1       1.455   2.212  -0.155  0.00  0.00     0.003 A 
ENDROOT
TORSDOF 0
ENDMDL
