MODEL 1
REMARK minimizedAffinity -0.00191598525
REMARK minimizedRMSD -1
REMARK  0 active torsions:
REMARK  status: ('A' for Active; 'I' for Inactive)
ROOT
ATOM      1  C4' PXY d   1       0.539  -4.467  -1.205  0.00  0.00     0.077 C 
ATOM      2  C1' PXY d   1       3.550   0.252   0.237  0.00  0.00     0.077 C 
ATOM      3  C1  PXY d   1       2.754  -0.979  -0.149  0.00  0.00    -0.082 A 
ATOM      4  C2  PXY d   1       2.631  -1.976   0.711  0.00  0.00     0.003 A 
ATOM      5  C3  PXY d   1       1.941  -3.110   0.366  0.00  0.00     0.003 A 
ATOM      6  C4  PXY d   1       1.326  -3.201  -0.853  0.00  0.00    -0.082 A 
ATOM      7  C5  PXY d   1       1.437  -2.183  -1.733  0.00  0.00     0.003 A 
ATOM      8  C6  PXY d   1       2.176  -1.059  -1.379  0.00  0.00     0.003 A 
ENDROOT
TORSDOF 0
ENDMDL
