MODEL 1
REMARK minimizedAffinity -5.05058813
REMARK minimizedRMSD -1
REMARK  0 active torsions:
REMARK  status: ('A' for Active; 'I' for Inactive)
ROOT
ATOM      1  C1  DEN d   1       1.946   1.597   0.145  0.00  0.00     0.130 A 
ATOM      2  C2  DEN d   1       3.308   1.713  -0.368  0.00  0.00    -0.031 A 
ATOM      3  C3  DEN d   1       3.788   0.357  -0.703  0.00  0.00     0.027 A 
ATOM      4  C4  DEN d   1       2.558  -1.899  -0.482  0.00  0.00     0.027 A 
ATOM      5  C5  DEN d   1       1.386  -2.505  -0.085  0.00  0.00    -0.003 A 
ATOM      6  C6  DEN d   1       0.340  -1.796   0.444  0.00  0.00     0.001 A 
ATOM      7  C7  DEN d   1       0.428  -0.433   0.548  0.00  0.00     0.017 A 
ATOM      8  C8  DEN d   1       1.609   0.184   0.157  0.00  0.00    -0.094 A 
ATOM      9  C9  DEN d   1       2.650  -0.549  -0.387  0.00  0.00    -0.072 A 
ENDROOT
TORSDOF 0
ENDMDL
