MODEL 1
REMARK minimizedAffinity -2.75521588
REMARK minimizedRMSD -1
REMARK  0 active torsions:
REMARK  status: ('A' for Active; 'I' for Inactive)
ROOT
ATOM      1  C1  DEN d   1      -0.056   0.920  -0.432  0.00  0.00     0.130 A 
ATOM      2  C2  DEN d   1      -0.022   1.979   0.573  0.00  0.00    -0.031 A 
ATOM      3  C3  DEN d   1       1.144   1.741   1.448  0.00  0.00     0.027 A 
ATOM      4  C4  DEN d   1       2.892  -0.153   1.342  0.00  0.00     0.027 A 
ATOM      5  C5  DEN d   1       3.271  -1.294   0.669  0.00  0.00    -0.003 A 
ATOM      6  C6  DEN d   1       2.555  -1.792  -0.387  0.00  0.00     0.001 A 
ATOM      7  C7  DEN d   1       1.446  -1.121  -0.831  0.00  0.00     0.017 A 
ATOM      8  C8  DEN d   1       1.053   0.025  -0.154  0.00  0.00    -0.094 A 
ATOM      9  C9  DEN d   1       1.797   0.519   0.904  0.00  0.00    -0.072 A 
ENDROOT
TORSDOF 0
ENDMDL
