MODEL 1
REMARK minimizedAffinity -3.84043097
REMARK minimizedRMSD -1
REMARK  0 active torsions:
REMARK  status: ('A' for Active; 'I' for Inactive)
ROOT
ATOM      1  C1  DEN d   1       0.024  -0.969  -1.530  0.00  0.00     0.130 A 
ATOM      2  C2  DEN d   1      -0.787   0.244  -1.470  0.00  0.00    -0.031 A 
ATOM      3  C3  DEN d   1      -0.248   1.101  -0.395  0.00  0.00     0.027 A 
ATOM      4  C4  DEN d   1       1.757   0.673   1.171  0.00  0.00     0.027 A 
ATOM      5  C5  DEN d   1       2.747  -0.223   1.506  0.00  0.00    -0.003 A 
ATOM      6  C6  DEN d   1       2.878  -1.435   0.881  0.00  0.00     0.001 A 
ATOM      7  C7  DEN d   1       2.031  -1.766  -0.143  0.00  0.00     0.017 A 
ATOM      8  C8  DEN d   1       1.025  -0.870  -0.482  0.00  0.00    -0.094 A 
ATOM      9  C9  DEN d   1       0.917   0.355   0.153  0.00  0.00    -0.072 A 
ENDROOT
TORSDOF 0
ENDMDL
