MODEL 1
REMARK minimizedAffinity -4.55867195
REMARK minimizedRMSD -1
REMARK  0 active torsions:
REMARK  status: ('A' for Active; 'I' for Inactive)
ROOT
ATOM      1  C1  DEN d   1      -0.427   0.582  -0.388  0.00  0.00     0.130 A 
ATOM      2  C2  DEN d   1      -0.743   0.065  -1.717  0.00  0.00    -0.031 A 
ATOM      3  C3  DEN d   1       0.271  -0.951  -2.064  0.00  0.00     0.027 A 
ATOM      4  C4  DEN d   1       2.286  -1.772  -0.678  0.00  0.00     0.027 A 
ATOM      5  C5  DEN d   1       2.970  -1.618   0.507  0.00  0.00    -0.003 A 
ATOM      6  C6  DEN d   1       2.594  -0.704   1.455  0.00  0.00     0.001 A 
ATOM      7  C7  DEN d   1       1.475   0.061   1.253  0.00  0.00     0.017 A 
ATOM      8  C8  DEN d   1       0.784  -0.083   0.057  0.00  0.00    -0.094 A 
ATOM      9  C9  DEN d   1       1.174  -1.021  -0.883  0.00  0.00    -0.072 A 
ENDROOT
TORSDOF 0
ENDMDL
