MODEL 1
REMARK minimizedAffinity -0.113943994
REMARK minimizedRMSD -1
REMARK  0 active torsions:
REMARK  status: ('A' for Active; 'I' for Inactive)
ROOT
ATOM      1  C1  DEN d   1      -0.404   1.180  -1.085  0.00  0.00     0.130 A 
ATOM      2  C2  DEN d   1      -1.101  -0.103  -1.109  0.00  0.00    -0.031 A 
ATOM      3  C3  DEN d   1      -0.494  -0.973  -0.082  0.00  0.00     0.027 A 
ATOM      4  C4  DEN d   1       1.445  -0.459   1.539  0.00  0.00     0.027 A 
ATOM      5  C5  DEN d   1       2.362   0.493   1.926  0.00  0.00    -0.003 A 
ATOM      6  C6  DEN d   1       2.443   1.718   1.319  0.00  0.00     0.001 A 
ATOM      7  C7  DEN d   1       1.562   2.041   0.321  0.00  0.00     0.017 A 
ATOM      8  C8  DEN d   1       0.640   1.083  -0.080  0.00  0.00    -0.094 A 
ATOM      9  C9  DEN d   1       0.566  -0.145   0.554  0.00  0.00    -0.072 A 
ENDROOT
TORSDOF 0
ENDMDL
