MODEL 1
REMARK minimizedAffinity 2.16734505
REMARK minimizedRMSD -1
REMARK  0 active torsions:
REMARK  status: ('A' for Active; 'I' for Inactive)
ROOT
ATOM      1  C1  DEN d   1       0.391  -1.967  -2.112  0.00  0.00     0.130 A 
ATOM      2  C2  DEN d   1      -0.961  -1.443  -2.285  0.00  0.00    -0.031 A 
ATOM      3  C3  DEN d   1      -1.247  -0.537  -1.154  0.00  0.00     0.027 A 
ATOM      4  C4  DEN d   1       0.265   0.105   0.834  0.00  0.00     0.027 A 
ATOM      5  C5  DEN d   1       1.496  -0.095   1.418  0.00  0.00    -0.003 A 
ATOM      6  C6  DEN d   1       2.425  -0.952   0.890  0.00  0.00     0.001 A 
ATOM      7  C7  DEN d   1       2.154  -1.608  -0.282  0.00  0.00     0.017 A 
ATOM      8  C8  DEN d   1       0.912  -1.416  -0.873  0.00  0.00    -0.094 A 
ATOM      9  C9  DEN d   1      -0.008  -0.536  -0.330  0.00  0.00    -0.072 A 
ENDROOT
TORSDOF 0
ENDMDL
