MODEL 1
REMARK minimizedAffinity -4.72734165
REMARK minimizedRMSD -1
REMARK  0 active torsions:
REMARK  status: ('A' for Active; 'I' for Inactive)
ROOT
ATOM      1  C1  DEN d   1      -0.254   0.922  -0.305  0.00  0.00     0.130 A 
ATOM      2  C2  DEN d   1      -0.868   0.211  -1.423  0.00  0.00    -0.031 A 
ATOM      3  C3  DEN d   1      -0.051  -0.986  -1.708  0.00  0.00     0.027 A 
ATOM      4  C4  DEN d   1       2.093  -1.805  -0.531  0.00  0.00     0.027 A 
ATOM      5  C5  DEN d   1       3.002  -1.526   0.466  0.00  0.00    -0.003 A 
ATOM      6  C6  DEN d   1       2.910  -0.405   1.246  0.00  0.00     0.001 A 
ATOM      7  C7  DEN d   1       1.860   0.458   1.073  0.00  0.00     0.017 A 
ATOM      8  C8  DEN d   1       0.944   0.189   0.065  0.00  0.00    -0.094 A 
ATOM      9  C9  DEN d   1       1.047  -0.957  -0.705  0.00  0.00    -0.072 A 
ENDROOT
TORSDOF 0
ENDMDL
