MODEL 1
REMARK minimizedAffinity -3.63889813
REMARK minimizedRMSD -1
REMARK  0 active torsions:
REMARK  status: ('A' for Active; 'I' for Inactive)
ROOT
ATOM      1  C1  DEN d   1       0.433  -1.784  -1.038  0.00  0.00     0.130 A 
ATOM      2  C2  DEN d   1      -0.722  -0.935  -0.758  0.00  0.00    -0.031 A 
ATOM      3  C3  DEN d   1      -0.257   0.218   0.039  0.00  0.00     0.027 A 
ATOM      4  C4  DEN d   1       2.125   0.771   0.857  0.00  0.00     0.027 A 
ATOM      5  C5  DEN d   1       3.434   0.341   0.876  0.00  0.00    -0.003 A 
ATOM      6  C6  DEN d   1       3.824  -0.835   0.292  0.00  0.00     0.001 A 
ATOM      7  C7  DEN d   1       2.904  -1.600  -0.375  0.00  0.00     0.017 A 
ATOM      8  C8  DEN d   1       1.582  -1.177  -0.392  0.00  0.00    -0.094 A 
ATOM      9  C9  DEN d   1       1.209   0.022   0.194  0.00  0.00    -0.072 A 
ENDROOT
TORSDOF 0
ENDMDL
