MODEL 1
REMARK minimizedAffinity 2.34020948
REMARK minimizedRMSD -1
REMARK  0 active torsions:
REMARK  status: ('A' for Active; 'I' for Inactive)
ROOT
ATOM      1  C1  DEN d   1      -0.355   0.765   1.214  0.00  0.00     0.130 A 
ATOM      2  C2  DEN d   1       0.071   0.115  -0.022  0.00  0.00    -0.031 A 
ATOM      3  C3  DEN d   1      -1.139  -0.302  -0.759  0.00  0.00     0.027 A 
ATOM      4  C4  DEN d   1      -3.617  -0.002  -0.111  0.00  0.00     0.027 A 
ATOM      5  C5  DEN d   1      -4.475   0.482   0.852  0.00  0.00    -0.003 A 
ATOM      6  C6  DEN d   1      -4.023   1.058   2.010  0.00  0.00     0.001 A 
ATOM      7  C7  DEN d   1      -2.676   1.207   2.213  0.00  0.00     0.017 A 
ATOM      8  C8  DEN d   1      -1.805   0.715   1.250  0.00  0.00    -0.094 A 
ATOM      9  C9  DEN d   1      -2.282   0.146   0.081  0.00  0.00    -0.072 A 
ENDROOT
TORSDOF 0
ENDMDL
