MODEL 1
REMARK minimizedAffinity -5.77706194
REMARK minimizedRMSD -1
REMARK  0 active torsions:
REMARK  status: ('A' for Active; 'I' for Inactive)
ROOT
ATOM      1  C1  DEN d   1       0.593  -2.803  -1.283  0.00  0.00     0.130 A 
ATOM      2  C2  DEN d   1      -0.337  -2.194  -2.230  0.00  0.00    -0.031 A 
ATOM      3  C3  DEN d   1      -0.282  -0.730  -2.047  0.00  0.00     0.027 A 
ATOM      4  C4  DEN d   1       1.149   0.647  -0.401  0.00  0.00     0.027 A 
ATOM      5  C5  DEN d   1       2.082   0.571   0.610  0.00  0.00    -0.003 A 
ATOM      6  C6  DEN d   1       2.554  -0.625   1.081  0.00  0.00     0.001 A 
ATOM      7  C7  DEN d   1       2.129  -1.795   0.508  0.00  0.00     0.017 A 
ATOM      8  C8  DEN d   1       1.183  -1.728  -0.506  0.00  0.00    -0.094 A 
ATOM      9  C9  DEN d   1       0.727  -0.508  -0.976  0.00  0.00    -0.072 A 
ENDROOT
TORSDOF 0
ENDMDL
