MODEL 1
REMARK minimizedAffinity -0.572701335
REMARK minimizedRMSD -1
REMARK  0 active torsions:
REMARK  status: ('A' for Active; 'I' for Inactive)
ROOT
ATOM      1  C1  DEN d   1       1.712   1.121   1.273  0.00  0.00     0.130 A 
ATOM      2  C2  DEN d   1       2.684   0.129   1.724  0.00  0.00    -0.031 A 
ATOM      3  C3  DEN d   1       2.357  -1.158   1.078  0.00  0.00     0.027 A 
ATOM      4  C4  DEN d   1       0.454  -1.707  -0.574  0.00  0.00     0.027 A 
ATOM      5  C5  DEN d   1      -0.633  -1.192  -1.246  0.00  0.00    -0.003 A 
ATOM      6  C6  DEN d   1      -1.031   0.111  -1.101  0.00  0.00     0.001 A 
ATOM      7  C7  DEN d   1      -0.311   0.955  -0.298  0.00  0.00     0.017 A 
ATOM      8  C8  DEN d   1       0.782   0.441   0.389  0.00  0.00    -0.094 A 
ATOM      9  C9  DEN d   1       1.176  -0.875   0.219  0.00  0.00    -0.072 A 
ENDROOT
TORSDOF 0
ENDMDL
