MODEL 1
REMARK minimizedAffinity -0.560057282
REMARK minimizedRMSD -1
REMARK  0 active torsions:
REMARK  status: ('A' for Active; 'I' for Inactive)
ROOT
ATOM      1  C1  DEN d   1       0.285   0.024  -1.301  0.00  0.00     0.130 A 
ATOM      2  C2  DEN d   1       0.418  -1.371  -1.715  0.00  0.00    -0.031 A 
ATOM      3  C3  DEN d   1       1.463  -1.997  -0.881  0.00  0.00     0.027 A 
ATOM      4  C4  DEN d   1       2.879  -0.950   1.004  0.00  0.00     0.027 A 
ATOM      5  C5  DEN d   1       3.133   0.207   1.706  0.00  0.00    -0.003 A 
ATOM      6  C6  DEN d   1       2.485   1.383   1.436  0.00  0.00     0.001 A 
ATOM      7  C7  DEN d   1       1.517   1.417   0.466  0.00  0.00     0.017 A 
ATOM      8  C8  DEN d   1       1.261   0.256  -0.252  0.00  0.00    -0.094 A 
ATOM      9  C9  DEN d   1       1.919  -0.925   0.045  0.00  0.00    -0.072 A 
ENDROOT
TORSDOF 0
ENDMDL
