MODEL 1
REMARK minimizedAffinity -3.11500454
REMARK minimizedRMSD -1
REMARK  1 active torsions:
REMARK  status: ('A' for Active; 'I' for Inactive)
REMARK    1  A    between atoms: C3_4  and  O_7 
ROOT
ATOM      1  C   UNL d   1      -1.023   0.666  -0.497  0.00  0.00    -0.033 A 
ATOM      2  C1  UNL d   1      -0.303   1.855  -0.633  0.00  0.00     0.039 A 
ATOM      3  C2  UNL d   1       1.047   1.900  -0.278  0.00  0.00    -0.080 A 
ATOM      4  C3  UNL d   1       1.664   0.752   0.211  0.00  0.00     0.150 A 
ATOM      5  C4  UNL d   1       0.953  -0.436   0.346  0.00  0.00    -0.007 A 
ATOM      6  C5  UNL d   1      -0.394  -0.480  -0.008  0.00  0.00     0.039 A 
ENDROOT
BRANCH   4   7
ATOM      7  O   UNL d   1       2.977   0.749   0.575  0.00  0.00    -0.526 OA
ATOM      8  H5  UNL d   1       3.332   1.646   0.455  0.00  0.00     0.418 HD
ENDBRANCH   4   7
TORSDOF 1
ENDMDL
