MODEL 1
REMARK minimizedAffinity -2.69729877
REMARK minimizedRMSD -1
REMARK  1 active torsions:
REMARK  status: ('A' for Active; 'I' for Inactive)
REMARK    1  A    between atoms: C3_4  and  O_7 
ROOT
ATOM      1  C   UNL d   1      -1.439   0.020   0.039  0.00  0.00    -0.033 A 
ATOM      2  C1  UNL d   1      -0.501  -0.926   0.458  0.00  0.00     0.039 A 
ATOM      3  C2  UNL d   1       0.843  -0.570   0.586  0.00  0.00    -0.080 A 
ATOM      4  C3  UNL d   1       1.235   0.734   0.295  0.00  0.00     0.150 A 
ATOM      5  C4  UNL d   1       0.306   1.682  -0.119  0.00  0.00    -0.007 A 
ATOM      6  C5  UNL d   1      -1.036   1.324  -0.248  0.00  0.00     0.039 A 
ENDROOT
BRANCH   4   7
ATOM      7  O   UNL d   1       2.536   1.127   0.401  0.00  0.00    -0.526 OA
ATOM      8  H5  UNL d   1       3.069   0.359   0.669  0.00  0.00     0.418 HD
ENDBRANCH   4   7
TORSDOF 1
ENDMDL
