MODEL 1
REMARK minimizedAffinity -5.29030371
REMARK minimizedRMSD -1
REMARK  1 active torsions:
REMARK  status: ('A' for Active; 'I' for Inactive)
REMARK    1  A    between atoms: C3_4  and  O_7 
ROOT
ATOM      1  C   UNL d   1      -0.039   0.012   0.832  0.00  0.00    -0.033 A 
ATOM      2  C1  UNL d   1       0.472  -1.241   1.174  0.00  0.00     0.039 A 
ATOM      3  C2  UNL d   1       1.837  -1.501   1.039  0.00  0.00    -0.080 A 
ATOM      4  C3  UNL d   1       2.679  -0.501   0.562  0.00  0.00     0.150 A 
ATOM      5  C4  UNL d   1       2.178   0.751   0.222  0.00  0.00    -0.007 A 
ATOM      6  C5  UNL d   1       0.814   1.009   0.357  0.00  0.00     0.039 A 
ENDROOT
BRANCH   4   7
ATOM      7  O   UNL d   1       4.018  -0.710   0.408  0.00  0.00    -0.526 OA
ATOM      8  H5  UNL d   1       4.216  -1.628   0.654  0.00  0.00     0.418 HD
ENDBRANCH   4   7
TORSDOF 1
ENDMDL
