MODEL 1
REMARK minimizedAffinity -5.60341787
REMARK minimizedRMSD -1
REMARK  1 active torsions:
REMARK  status: ('A' for Active; 'I' for Inactive)
REMARK    1  A    between atoms: C3_4  and  O_7 
ROOT
ATOM      1  C   UNL d   1      -0.436  -1.162   0.610  0.00  0.00    -0.033 A 
ATOM      2  C1  UNL d   1       0.011   0.014   0.004  0.00  0.00     0.039 A 
ATOM      3  C2  UNL d   1       1.363   0.358   0.056  0.00  0.00    -0.080 A 
ATOM      4  C3  UNL d   1       2.257  -0.482   0.714  0.00  0.00     0.150 A 
ATOM      5  C4  UNL d   1       1.820  -1.658   1.316  0.00  0.00    -0.007 A 
ATOM      6  C5  UNL d   1       0.469  -1.999   1.264  0.00  0.00     0.039 A 
ENDROOT
BRANCH   4   7
ATOM      7  O   UNL d   1       3.586  -0.187   0.794  0.00  0.00    -0.526 OA
ATOM      8  H5  UNL d   1       3.737   0.669   0.359  0.00  0.00     0.418 HD
ENDBRANCH   4   7
TORSDOF 1
ENDMDL
