MODEL 1
REMARK minimizedAffinity -5.30092287
REMARK minimizedRMSD -1
REMARK  1 active torsions:
REMARK  status: ('A' for Active; 'I' for Inactive)
REMARK    1  A    between atoms: C3_4  and  O_7 
ROOT
ATOM      1  C   UNL d   1       3.498  -1.180   1.461  0.00  0.00    -0.033 A 
ATOM      2  C1  UNL d   1       2.366  -1.886   1.872  0.00  0.00     0.039 A 
ATOM      3  C2  UNL d   1       1.100  -1.499   1.426  0.00  0.00    -0.080 A 
ATOM      4  C3  UNL d   1       0.981  -0.408   0.570  0.00  0.00     0.150 A 
ATOM      5  C4  UNL d   1       2.106   0.297   0.153  0.00  0.00    -0.007 A 
ATOM      6  C5  UNL d   1       3.368  -0.090   0.600  0.00  0.00     0.039 A 
ENDROOT
BRANCH   4   7
ATOM      7  O   UNL d   1      -0.233   0.010   0.112  0.00  0.00    -0.526 OA
ATOM      8  H5  UNL d   1      -0.920  -0.553   0.506  0.00  0.00     0.418 HD
ENDBRANCH   4   7
TORSDOF 1
ENDMDL
