MODEL 1
REMARK minimizedAffinity -4.84833479
REMARK minimizedRMSD -1
REMARK  1 active torsions:
REMARK  status: ('A' for Active; 'I' for Inactive)
REMARK    1  A    between atoms: C3_4  and  O_7 
ROOT
ATOM      1  C   UNL d   1       2.650  -0.755   1.288  0.00  0.00    -0.033 A 
ATOM      2  C1  UNL d   1       2.241   0.498   0.827  0.00  0.00     0.039 A 
ATOM      3  C2  UNL d   1       0.935   0.683   0.367  0.00  0.00    -0.080 A 
ATOM      4  C3  UNL d   1       0.050  -0.392   0.375  0.00  0.00     0.150 A 
ATOM      5  C4  UNL d   1       0.450  -1.642   0.836  0.00  0.00    -0.007 A 
ATOM      6  C5  UNL d   1       1.754  -1.824   1.294  0.00  0.00     0.039 A 
ENDROOT
BRANCH   4   7
ATOM      7  O   UNL d   1      -1.232  -0.261  -0.069  0.00  0.00    -0.526 OA
ATOM      8  H5  UNL d   1      -1.358   0.649  -0.384  0.00  0.00     0.418 HD
ENDBRANCH   4   7
TORSDOF 1
ENDMDL
