MODEL 1
REMARK minimizedAffinity -5.38390875
REMARK minimizedRMSD -1
REMARK  1 active torsions:
REMARK  status: ('A' for Active; 'I' for Inactive)
REMARK    1  A    between atoms: C3_4  and  O_7 
ROOT
ATOM      1  C   UNL d   1      -0.123   0.678   0.186  0.00  0.00    -0.033 A 
ATOM      2  C1  UNL d   1       1.001   1.384   0.619  0.00  0.00     0.039 A 
ATOM      3  C2  UNL d   1       2.137   0.695   1.050  0.00  0.00    -0.080 A 
ATOM      4  C3  UNL d   1       2.136  -0.697   1.042  0.00  0.00     0.150 A 
ATOM      5  C4  UNL d   1       1.021  -1.407   0.608  0.00  0.00    -0.007 A 
ATOM      6  C5  UNL d   1      -0.113  -0.717   0.179  0.00  0.00     0.039 A 
ENDROOT
BRANCH   4   7
ATOM      7  O   UNL d   1       3.219  -1.413   1.458  0.00  0.00    -0.526 OA
ATOM      8  H5  UNL d   1       3.903  -0.791   1.757  0.00  0.00     0.418 HD
ENDBRANCH   4   7
TORSDOF 1
ENDMDL
