MODEL 1
REMARK minimizedAffinity -5.52981424
REMARK minimizedRMSD -1
REMARK  1 active torsions:
REMARK  status: ('A' for Active; 'I' for Inactive)
REMARK    1  A    between atoms: C3_4  and  O_7 
ROOT
ATOM      1  C   UNL d   1       2.690  -0.493   1.221  0.00  0.00    -0.033 A 
ATOM      2  C1  UNL d   1       1.868  -1.591   1.483  0.00  0.00     0.039 A 
ATOM      3  C2  UNL d   1       0.527  -1.568   1.096  0.00  0.00    -0.080 A 
ATOM      4  C3  UNL d   1       0.021  -0.445   0.448  0.00  0.00     0.150 A 
ATOM      5  C4  UNL d   1       0.836   0.650   0.180  0.00  0.00    -0.007 A 
ATOM      6  C5  UNL d   1       2.175   0.627   0.568  0.00  0.00     0.039 A 
ENDROOT
BRANCH   4   7
ATOM      7  O   UNL d   1      -1.283  -0.375   0.055  0.00  0.00    -0.526 OA
ATOM      8  H5  UNL d   1      -1.731  -1.191   0.332  0.00  0.00     0.418 HD
ENDBRANCH   4   7
TORSDOF 1
ENDMDL
