MODEL 1
REMARK minimizedAffinity -2.99988079
REMARK minimizedRMSD -1
REMARK  1 active torsions:
REMARK  status: ('A' for Active; 'I' for Inactive)
REMARK    1  A    between atoms: C3_4  and  O_7 
ROOT
ATOM      1  C   UNL d   1      -0.065   0.856  -0.641  0.00  0.00    -0.033 A 
ATOM      2  C1  UNL d   1      -1.203   0.155  -1.042  0.00  0.00     0.039 A 
ATOM      3  C2  UNL d   1      -1.678  -0.909  -0.272  0.00  0.00    -0.080 A 
ATOM      4  C3  UNL d   1      -1.006  -1.260   0.896  0.00  0.00     0.150 A 
ATOM      5  C4  UNL d   1       0.127  -0.563   1.303  0.00  0.00    -0.007 A 
ATOM      6  C5  UNL d   1       0.599   0.498   0.532  0.00  0.00     0.039 A 
ENDROOT
BRANCH   4   7
ATOM      7  O   UNL d   1      -1.428  -2.294   1.677  0.00  0.00    -0.526 OA
ATOM      8  H5  UNL d   1      -2.204  -2.700   1.257  0.00  0.00     0.418 HD
ENDBRANCH   4   7
TORSDOF 1
ENDMDL
