MODEL 1
REMARK minimizedAffinity -5.08691216
REMARK minimizedRMSD -1
REMARK  1 active torsions:
REMARK  status: ('A' for Active; 'I' for Inactive)
REMARK    1  A    between atoms: C3_4  and  O_7 
ROOT
ATOM      1  C   UNL d   1       3.333  -1.069   2.368  0.00  0.00    -0.033 A 
ATOM      2  C1  UNL d   1       2.339  -2.042   2.485  0.00  0.00     0.039 A 
ATOM      3  C2  UNL d   1       1.131  -1.895   1.800  0.00  0.00    -0.080 A 
ATOM      4  C3  UNL d   1       0.931  -0.772   1.002  0.00  0.00     0.150 A 
ATOM      5  C4  UNL d   1       1.919   0.200   0.878  0.00  0.00    -0.007 A 
ATOM      6  C5  UNL d   1       3.124   0.051   1.564  0.00  0.00     0.039 A 
ENDROOT
BRANCH   4   7
ATOM      7  O   UNL d   1      -0.233  -0.582   0.318  0.00  0.00    -0.526 OA
ATOM      8  H5  UNL d   1      -0.833  -1.319   0.522  0.00  0.00     0.418 HD
ENDBRANCH   4   7
TORSDOF 1
ENDMDL
