MODEL 1
REMARK minimizedAffinity 15.139389
REMARK minimizedRMSD -1
REMARK  0 active torsions:
REMARK  status: ('A' for Active; 'I' for Inactive)
ROOT
ATOM      1  N1  IND d   1       0.097   1.885  -1.104  0.00  0.00    -0.196 N 
ATOM      2  C2  IND d   1      -0.551   2.840  -0.371  0.00  0.00     0.054 A 
ATOM      3  C3  IND d   1      -1.728   2.362   0.090  0.00  0.00    -0.031 A 
ATOM      4  C4  IND d   1      -2.744   0.009  -0.152  0.00  0.00     0.051 A 
ATOM      5  C5  IND d   1      -2.540  -1.195  -0.765  0.00  0.00    -0.031 A 
ATOM      6  C6  IND d   1      -1.422  -1.440  -1.537  0.00  0.00     0.015 A 
ATOM      7  C7  IND d   1      -0.457  -0.489  -1.715  0.00  0.00    -0.016 A 
ATOM      8  C8  IND d   1      -0.665   0.737  -1.099  0.00  0.00    -0.047 A 
ATOM      9  C9  IND d   1      -1.818   1.005  -0.350  0.00  0.00    -0.096 A 
ATOM     10  HN1 IND d   1       0.852   1.985  -1.502  0.00  0.00     0.298 HD
ENDROOT
TORSDOF 0
ENDMDL
