MODEL 1
REMARK minimizedAffinity 9.36766434
REMARK minimizedRMSD -1
REMARK  0 active torsions:
REMARK  status: ('A' for Active; 'I' for Inactive)
ROOT
ATOM      1  N1  IND d   1      -1.384   3.847  -1.912  0.00  0.00    -0.196 N 
ATOM      2  C2  IND d   1      -0.291   4.102  -1.132  0.00  0.00     0.054 A 
ATOM      3  C3  IND d   1       0.018   3.018  -0.386  0.00  0.00    -0.031 A 
ATOM      4  C4  IND d   1      -1.072   0.686  -0.361  0.00  0.00     0.051 A 
ATOM      5  C5  IND d   1      -2.125  -0.017  -0.876  0.00  0.00    -0.031 A 
ATOM      6  C6  IND d   1      -3.002   0.544  -1.783  0.00  0.00     0.015 A 
ATOM      7  C7  IND d   1      -2.850   1.829  -2.219  0.00  0.00    -0.016 A 
ATOM      8  C8  IND d   1      -1.785   2.548  -1.693  0.00  0.00    -0.047 A 
ATOM      9  C9  IND d   1      -0.918   1.998  -0.741  0.00  0.00    -0.096 A 
ATOM     10  HN1 IND d   1      -1.758   4.405  -2.449  0.00  0.00     0.298 HD
ENDROOT
TORSDOF 0
ENDMDL
