MODEL 1
REMARK minimizedAffinity 11.4637346
REMARK minimizedRMSD -1
REMARK  0 active torsions:
REMARK  status: ('A' for Active; 'I' for Inactive)
ROOT
ATOM      1  N1  IND d   1       3.779  -1.504  -2.756  0.00  0.00    -0.196 N 
ATOM      2  C2  IND d   1       4.779  -1.880  -3.609  0.00  0.00     0.054 A 
ATOM      3  C3  IND d   1       5.561  -2.820  -3.033  0.00  0.00    -0.031 A 
ATOM      4  C4  IND d   1       5.325  -3.962  -0.738  0.00  0.00     0.051 A 
ATOM      5  C5  IND d   1       4.588  -3.925   0.413  0.00  0.00    -0.031 A 
ATOM      6  C6  IND d   1       3.520  -3.064   0.568  0.00  0.00     0.015 A 
ATOM      7  C7  IND d   1       3.142  -2.212  -0.431  0.00  0.00    -0.016 A 
ATOM      8  C8  IND d   1       3.892  -2.241  -1.598  0.00  0.00    -0.047 A 
ATOM      9  C9  IND d   1       5.002  -3.083  -1.745  0.00  0.00    -0.096 A 
ATOM     10  HN1 IND d   1       3.181  -0.908  -2.916  0.00  0.00     0.298 HD
ENDROOT
TORSDOF 0
ENDMDL
