MODEL 1
REMARK minimizedAffinity 0.64288342
REMARK minimizedRMSD -1
REMARK  0 active torsions:
REMARK  status: ('A' for Active; 'I' for Inactive)
ROOT
ATOM      1  N1  IND d   1       4.270  -5.282  -3.256  0.00  0.00    -0.196 N 
ATOM      2  C2  IND d   1       3.311  -4.785  -4.095  0.00  0.00     0.054 A 
ATOM      3  C3  IND d   1       2.913  -3.561  -3.683  0.00  0.00    -0.031 A 
ATOM      4  C4  IND d   1       3.773  -2.138  -1.717  0.00  0.00     0.051 A 
ATOM      5  C5  IND d   1       4.618  -2.183  -0.643  0.00  0.00    -0.031 A 
ATOM      6  C6  IND d   1       5.408  -3.283  -0.383  0.00  0.00     0.015 A 
ATOM      7  C7  IND d   1       5.391  -4.381  -1.195  0.00  0.00    -0.016 A 
ATOM      8  C8  IND d   1       4.529  -4.343  -2.282  0.00  0.00    -0.047 A 
ATOM      9  C9  IND d   1       3.693  -3.245  -2.528  0.00  0.00    -0.096 A 
ATOM     10  HN1 IND d   1       4.647  -6.051  -3.325  0.00  0.00     0.298 HD
ENDROOT
TORSDOF 0
ENDMDL
