MODEL 1
REMARK minimizedAffinity 6.33474541
REMARK minimizedRMSD -1
REMARK  0 active torsions:
REMARK  status: ('A' for Active; 'I' for Inactive)
ROOT
ATOM      1  N1  IND d   1       1.547   3.841   0.222  0.00  0.00    -0.196 N 
ATOM      2  C2  IND d   1       0.416   3.828  -0.546  0.00  0.00     0.054 A 
ATOM      3  C3  IND d   1      -0.602   3.244   0.125  0.00  0.00    -0.031 A 
ATOM      4  C4  IND d   1      -0.664   2.331   2.531  0.00  0.00     0.051 A 
ATOM      5  C5  IND d   1       0.136   2.090   3.613  0.00  0.00    -0.031 A 
ATOM      6  C6  IND d   1       1.474   2.430   3.621  0.00  0.00     0.015 A 
ATOM      7  C7  IND d   1       2.061   3.036   2.546  0.00  0.00    -0.016 A 
ATOM      8  C8  IND d   1       1.253   3.276   1.444  0.00  0.00    -0.047 A 
ATOM      9  C9  IND d   1      -0.094   2.895   1.414  0.00  0.00    -0.096 A 
ATOM     10  HN1 IND d   1       2.312   4.151  -0.017  0.00  0.00     0.298 HD
ENDROOT
TORSDOF 0
ENDMDL
