MODEL 1
REMARK minimizedAffinity 5.50095224
REMARK minimizedRMSD -1
REMARK  0 active torsions:
REMARK  status: ('A' for Active; 'I' for Inactive)
ROOT
ATOM      1  N1  IND d   1      -0.330   2.211  -1.872  0.00  0.00    -0.196 N 
ATOM      2  C2  IND d   1      -0.055   1.754  -0.614  0.00  0.00     0.054 A 
ATOM      3  C3  IND d   1      -0.274   2.728   0.298  0.00  0.00    -0.031 A 
ATOM      4  C4  IND d   1      -1.182   5.113  -0.041  0.00  0.00     0.051 A 
ATOM      5  C5  IND d   1      -1.542   5.999  -1.017  0.00  0.00    -0.031 A 
ATOM      6  C6  IND d   1      -1.519   5.661  -2.354  0.00  0.00     0.015 A 
ATOM      7  C7  IND d   1      -1.144   4.414  -2.767  0.00  0.00    -0.016 A 
ATOM      8  C8  IND d   1      -0.771   3.513  -1.780  0.00  0.00    -0.047 A 
ATOM      9  C9  IND d   1      -0.751   3.864  -0.424  0.00  0.00    -0.096 A 
ATOM     10  HN1 IND d   1      -0.243   1.761  -2.600  0.00  0.00     0.298 HD
ENDROOT
TORSDOF 0
ENDMDL
