MODEL 1
REMARK minimizedAffinity 5.18050814
REMARK minimizedRMSD -1
REMARK  0 active torsions:
REMARK  status: ('A' for Active; 'I' for Inactive)
ROOT
ATOM      1  N1  IND d   1       2.219  -4.960  -2.991  0.00  0.00    -0.196 N 
ATOM      2  C2  IND d   1       1.787  -5.999  -2.215  0.00  0.00     0.054 A 
ATOM      3  C3  IND d   1       2.364  -5.944  -0.993  0.00  0.00    -0.031 A 
ATOM      4  C4  IND d   1       3.967  -4.181  -0.018  0.00  0.00     0.051 A 
ATOM      5  C5  IND d   1       4.676  -3.065  -0.360  0.00  0.00    -0.031 A 
ATOM      6  C6  IND d   1       4.600  -2.510  -1.621  0.00  0.00     0.015 A 
ATOM      7  C7  IND d   1       3.798  -3.047  -2.588  0.00  0.00    -0.016 A 
ATOM      8  C8  IND d   1       3.081  -4.185  -2.247  0.00  0.00    -0.047 A 
ATOM      9  C9  IND d   1       3.188  -4.777  -0.982  0.00  0.00    -0.096 A 
ATOM     10  HN1 IND d   1       1.991  -4.815  -3.807  0.00  0.00     0.298 HD
ENDROOT
TORSDOF 0
ENDMDL
