MODEL 1
REMARK minimizedAffinity 2.08819437
REMARK minimizedRMSD -1
REMARK  0 active torsions:
REMARK  status: ('A' for Active; 'I' for Inactive)
ROOT
ATOM      1  N1  IND d   1       0.784  -0.066   0.986  0.00  0.00    -0.196 N 
ATOM      2  C2  IND d   1       0.911  -0.679  -0.229  0.00  0.00     0.054 A 
ATOM      3  C3  IND d   1       0.012  -0.176  -1.105  0.00  0.00    -0.031 A 
ATOM      4  C4  IND d   1      -1.693   1.726  -0.789  0.00  0.00     0.051 A 
ATOM      5  C5  IND d   1      -2.205   2.567   0.159  0.00  0.00    -0.031 A 
ATOM      6  C6  IND d   1      -1.735   2.575   1.457  0.00  0.00     0.015 A 
ATOM      7  C7  IND d   1      -0.724   1.747   1.854  0.00  0.00    -0.016 A 
ATOM      8  C8  IND d   1      -0.206   0.887   0.895  0.00  0.00    -0.047 A 
ATOM      9  C9  IND d   1      -0.708   0.844  -0.412  0.00  0.00    -0.096 A 
ATOM     10  HN1 IND d   1       1.246  -0.246   1.689  0.00  0.00     0.298 HD
ENDROOT
TORSDOF 0
ENDMDL
