MODEL 1
REMARK minimizedAffinity -3.80088258
REMARK minimizedRMSD -1
REMARK  0 active torsions:
REMARK  status: ('A' for Active; 'I' for Inactive)
ROOT
ATOM      1  N1  IND d   1      -1.479   2.071  -0.276  0.00  0.00    -0.196 N 
ATOM      2  C2  IND d   1      -2.208   2.004   0.878  0.00  0.00     0.054 A 
ATOM      3  C3  IND d   1      -1.814   0.946   1.623  0.00  0.00    -0.031 A 
ATOM      4  C4  IND d   1       0.077  -0.745   1.188  0.00  0.00     0.051 A 
ATOM      5  C5  IND d   1       0.999  -1.113   0.247  0.00  0.00    -0.031 A 
ATOM      6  C6  IND d   1       1.146  -0.422  -0.938  0.00  0.00     0.015 A 
ATOM      7  C7  IND d   1       0.382   0.674  -1.224  0.00  0.00    -0.016 A 
ATOM      8  C8  IND d   1      -0.560   1.046  -0.274  0.00  0.00    -0.047 A 
ATOM      9  C9  IND d   1      -0.743   0.323   0.912  0.00  0.00    -0.096 A 
ATOM     10  HN1 IND d   1      -1.578   2.656  -0.898  0.00  0.00     0.298 HD
ENDROOT
TORSDOF 0
ENDMDL
