MODEL 1
REMARK minimizedAffinity 0.544517934
REMARK minimizedRMSD -1
REMARK  0 active torsions:
REMARK  status: ('A' for Active; 'I' for Inactive)
ROOT
ATOM      1  N1  IND d   1       0.068   1.376   0.517  0.00  0.00    -0.196 N 
ATOM      2  C2  IND d   1      -0.857   0.865   1.383  0.00  0.00     0.054 A 
ATOM      3  C3  IND d   1      -0.942  -0.477   1.244  0.00  0.00    -0.031 A 
ATOM      4  C4  IND d   1       0.417  -2.053  -0.271  0.00  0.00     0.051 A 
ATOM      5  C5  IND d   1       1.354  -2.048  -1.266  0.00  0.00    -0.031 A 
ATOM      6  C6  IND d   1       1.924  -0.878  -1.725  0.00  0.00     0.015 A 
ATOM      7  C7  IND d   1       1.584   0.335  -1.196  0.00  0.00    -0.016 A 
ATOM      8  C8  IND d   1       0.628   0.334  -0.190  0.00  0.00    -0.047 A 
ATOM      9  C9  IND d   1       0.016  -0.846   0.250  0.00  0.00    -0.096 A 
ATOM     10  HN1 IND d   1       0.267   2.208   0.428  0.00  0.00     0.298 HD
ENDROOT
TORSDOF 0
ENDMDL
