MODEL 1
REMARK minimizedAffinity -5.08556843
REMARK minimizedRMSD -1
REMARK  0 active torsions:
REMARK  status: ('A' for Active; 'I' for Inactive)
ROOT
ATOM      1  N1  IND d   1       0.303  -0.005  -1.122  0.00  0.00    -0.196 N 
ATOM      2  C2  IND d   1       0.880  -0.922  -0.289  0.00  0.00     0.054 A 
ATOM      3  C3  IND d   1       0.394  -0.790   0.966  0.00  0.00    -0.031 A 
ATOM      4  C4  IND d   1      -1.430   0.796   1.854  0.00  0.00     0.051 A 
ATOM      5  C5  IND d   1      -2.226   1.841   1.477  0.00  0.00    -0.031 A 
ATOM      6  C6  IND d   1      -2.221   2.332   0.187  0.00  0.00     0.015 A 
ATOM      7  C7  IND d   1      -1.426   1.787  -0.780  0.00  0.00    -0.016 A 
ATOM      8  C8  IND d   1      -0.611   0.730  -0.399  0.00  0.00    -0.047 A 
ATOM      9  C9  IND d   1      -0.580   0.255   0.918  0.00  0.00    -0.096 A 
ATOM     10  HN1 IND d   1       0.480   0.096  -1.957  0.00  0.00     0.298 HD
ENDROOT
TORSDOF 0
ENDMDL
