MODEL 1
REMARK minimizedAffinity -1.93097913
REMARK minimizedRMSD -1
REMARK  0 active torsions:
REMARK  status: ('A' for Active; 'I' for Inactive)
ROOT
ATOM      1  N1  IND d   1       0.270  -0.779  -0.054  0.00  0.00    -0.196 N 
ATOM      2  C2  IND d   1       0.706  -0.485  -1.316  0.00  0.00     0.054 A 
ATOM      3  C3  IND d   1       0.174   0.685  -1.736  0.00  0.00    -0.031 A 
ATOM      4  C4  IND d   1      -1.352   2.333  -0.479  0.00  0.00     0.051 A 
ATOM      5  C5  IND d   1      -2.049   2.481   0.688  0.00  0.00    -0.031 A 
ATOM      6  C6  IND d   1      -2.004   1.532   1.688  0.00  0.00     0.015 A 
ATOM      7  C7  IND d   1      -1.250   0.399   1.563  0.00  0.00    -0.016 A 
ATOM      8  C8  IND d   1      -0.547   0.243   0.377  0.00  0.00    -0.047 A 
ATOM      9  C9  IND d   1      -0.622   1.182  -0.660  0.00  0.00    -0.096 A 
ATOM     10  HN1 IND d   1       0.472  -1.484   0.395  0.00  0.00     0.298 HD
ENDROOT
TORSDOF 0
ENDMDL
