MODEL 1
REMARK minimizedAffinity -1.52868378
REMARK minimizedRMSD -1
REMARK  0 active torsions:
REMARK  status: ('A' for Active; 'I' for Inactive)
ROOT
ATOM      1  N1  IND d   1      -0.459  -3.466  -1.179  0.00  0.00    -0.196 N 
ATOM      2  C2  IND d   1      -0.491  -3.451  -2.545  0.00  0.00     0.054 A 
ATOM      3  C3  IND d   1      -0.231  -2.207  -3.008  0.00  0.00    -0.031 A 
ATOM      4  C4  IND d   1       0.375  -0.071  -1.705  0.00  0.00     0.051 A 
ATOM      5  C5  IND d   1       0.492   0.419  -0.435  0.00  0.00    -0.031 A 
ATOM      6  C6  IND d   1       0.297  -0.378   0.675  0.00  0.00     0.015 A 
ATOM      7  C7  IND d   1      -0.013  -1.703   0.555  0.00  0.00    -0.016 A 
ATOM      8  C8  IND d   1      -0.140  -2.202  -0.733  0.00  0.00    -0.047 A 
ATOM      9  C9  IND d   1       0.015  -1.389  -1.863  0.00  0.00    -0.096 A 
ATOM     10  HN1 IND d   1      -0.613  -4.150  -0.681  0.00  0.00     0.298 HD
ENDROOT
TORSDOF 0
ENDMDL
