MODEL 1
REMARK minimizedAffinity -5.43989086
REMARK minimizedRMSD -1
REMARK  0 active torsions:
REMARK  status: ('A' for Active; 'I' for Inactive)
ROOT
ATOM      1  N1  IND d   1      -1.220   1.438   2.392  0.00  0.00    -0.196 N 
ATOM      2  C2  IND d   1      -1.920   2.335   1.634  0.00  0.00     0.054 A 
ATOM      3  C3  IND d   1      -1.681   2.127   0.319  0.00  0.00    -0.031 A 
ATOM      4  C4  IND d   1      -0.255   0.309  -0.816  0.00  0.00     0.051 A 
ATOM      5  C5  IND d   1       0.605  -0.716  -0.538  0.00  0.00    -0.031 A 
ATOM      6  C6  IND d   1       0.905  -1.084   0.758  0.00  0.00     0.015 A 
ATOM      7  C7  IND d   1       0.344  -0.446   1.828  0.00  0.00    -0.016 A 
ATOM      8  C8  IND d   1      -0.524   0.600   1.549  0.00  0.00    -0.047 A 
ATOM      9  C9  IND d   1      -0.799   1.006   0.237  0.00  0.00    -0.096 A 
ATOM     10  HN1 IND d   1      -1.214   1.404   3.251  0.00  0.00     0.298 HD
ENDROOT
TORSDOF 0
ENDMDL
