MODEL 1
REMARK minimizedAffinity -4.40963697
REMARK minimizedRMSD -1
REMARK  0 active torsions:
REMARK  status: ('A' for Active; 'I' for Inactive)
ROOT
ATOM      1  N1  IND d   1       0.569   0.998  -1.035  0.00  0.00    -0.196 N 
ATOM      2  C2  IND d   1       1.286  -0.166  -1.047  0.00  0.00     0.054 A 
ATOM      3  C3  IND d   1       0.974  -0.922   0.030  0.00  0.00    -0.031 A 
ATOM      4  C4  IND d   1      -0.759  -0.490   1.884  0.00  0.00     0.051 A 
ATOM      5  C5  IND d   1      -1.633   0.455   2.343  0.00  0.00    -0.031 A 
ATOM      6  C6  IND d   1      -1.824   1.653   1.684  0.00  0.00     0.015 A 
ATOM      7  C7  IND d   1      -1.153   1.946   0.531  0.00  0.00    -0.016 A 
ATOM      8  C8  IND d   1      -0.259   0.991   0.066  0.00  0.00    -0.047 A 
ATOM      9  C9  IND d   1      -0.030  -0.208   0.753  0.00  0.00    -0.096 A 
ATOM     10  HN1 IND d   1       0.625   1.628  -1.617  0.00  0.00     0.298 HD
ENDROOT
TORSDOF 0
ENDMDL
