MODEL 1
REMARK minimizedAffinity -2.99754786
REMARK minimizedRMSD -1
REMARK  0 active torsions:
REMARK  status: ('A' for Active; 'I' for Inactive)
ROOT
ATOM      1  N1  IND d   1       1.004   0.312  -0.909  0.00  0.00    -0.196 N 
ATOM      2  C2  IND d   1       1.164  -0.935  -0.371  0.00  0.00     0.054 A 
ATOM      3  C3  IND d   1       0.333  -1.102   0.683  0.00  0.00    -0.031 A 
ATOM      4  C4  IND d   1      -1.444   0.498   1.635  0.00  0.00     0.051 A 
ATOM      5  C5  IND d   1      -1.934   1.767   1.501  0.00  0.00    -0.031 A 
ATOM      6  C6  IND d   1      -1.462   2.632   0.535  0.00  0.00     0.015 A 
ATOM      7  C7  IND d   1      -0.486   2.255  -0.344  0.00  0.00    -0.016 A 
ATOM      8  C8  IND d   1       0.019   0.970  -0.205  0.00  0.00    -0.047 A 
ATOM      9  C9  IND d   1      -0.426   0.102   0.800  0.00  0.00    -0.096 A 
ATOM     10  HN1 IND d   1       1.445   0.631  -1.574  0.00  0.00     0.298 HD
ENDROOT
TORSDOF 0
ENDMDL
