MODEL 1
REMARK minimizedAffinity -1.80734408
REMARK minimizedRMSD -1
REMARK  0 active torsions:
REMARK  status: ('A' for Active; 'I' for Inactive)
ROOT
ATOM      1  N1  IND d   1       0.987   0.123  -1.511  0.00  0.00    -0.196 N 
ATOM      2  C2  IND d   1       1.452  -0.956  -0.812  0.00  0.00     0.054 A 
ATOM      3  C3  IND d   1       0.799  -1.069   0.367  0.00  0.00    -0.031 A 
ATOM      4  C4  IND d   1      -1.135   0.345   1.308  0.00  0.00     0.051 A 
ATOM      5  C5  IND d   1      -1.878   1.462   1.049  0.00  0.00    -0.031 A 
ATOM      6  C6  IND d   1      -1.702   2.203  -0.102  0.00  0.00     0.015 A 
ATOM      7  C7  IND d   1      -0.781   1.847  -1.045  0.00  0.00    -0.016 A 
ATOM      8  C8  IND d   1      -0.020   0.717  -0.782  0.00  0.00    -0.047 A 
ATOM      9  C9  IND d   1      -0.164  -0.015   0.404  0.00  0.00    -0.096 A 
ATOM     10  HN1 IND d   1       1.275   0.387  -2.277  0.00  0.00     0.298 HD
ENDROOT
TORSDOF 0
ENDMDL
