MODEL 1
REMARK minimizedAffinity -2.71918845
REMARK minimizedRMSD -1
REMARK  0 active torsions:
REMARK  status: ('A' for Active; 'I' for Inactive)
ROOT
ATOM      1  N1  IND d   1      -1.696   2.116   0.055  0.00  0.00    -0.196 N 
ATOM      2  C2  IND d   1      -2.463   2.202   1.184  0.00  0.00     0.054 A 
ATOM      3  C3  IND d   1      -2.249   1.131   1.981  0.00  0.00    -0.031 A 
ATOM      4  C4  IND d   1      -0.610  -0.831   1.678  0.00  0.00     0.051 A 
ATOM      5  C5  IND d   1       0.278  -1.366   0.787  0.00  0.00    -0.031 A 
ATOM      6  C6  IND d   1       0.561  -0.753  -0.417  0.00  0.00     0.015 A 
ATOM      7  C7  IND d   1      -0.028   0.428  -0.771  0.00  0.00    -0.016 A 
ATOM      8  C8  IND d   1      -0.935   0.970   0.129  0.00  0.00    -0.047 A 
ATOM      9  C9  IND d   1      -1.258   0.331   1.333  0.00  0.00    -0.096 A 
ATOM     10  HN1 IND d   1      -1.690   2.683  -0.591  0.00  0.00     0.298 HD
ENDROOT
TORSDOF 0
ENDMDL
