MODEL 1
REMARK minimizedAffinity -3.74790311
REMARK minimizedRMSD -1
REMARK  0 active torsions:
REMARK  status: ('A' for Active; 'I' for Inactive)
ROOT
ATOM      1  N1  IND d   1       0.534   0.440  -0.524  0.00  0.00    -0.196 N 
ATOM      2  C2  IND d   1       0.369  -0.745   0.137  0.00  0.00     0.054 A 
ATOM      3  C3  IND d   1      -0.509  -0.599   1.154  0.00  0.00    -0.031 A 
ATOM      4  C4  IND d   1      -1.874   1.470   1.851  0.00  0.00     0.051 A 
ATOM      5  C5  IND d   1      -2.036   2.798   1.571  0.00  0.00    -0.031 A 
ATOM      6  C6  IND d   1      -1.339   3.419   0.555  0.00  0.00     0.015 A 
ATOM      7  C7  IND d   1      -0.457   2.730  -0.228  0.00  0.00    -0.016 A 
ATOM      8  C8  IND d   1      -0.284   1.384   0.058  0.00  0.00    -0.047 A 
ATOM      9  C9  IND d   1      -0.957   0.758   1.115  0.00  0.00    -0.096 A 
ATOM     10  HN1 IND d   1       1.059   0.573  -1.191  0.00  0.00     0.298 HD
ENDROOT
TORSDOF 0
ENDMDL
