MODEL 1
REMARK minimizedAffinity -6.14358139
REMARK minimizedRMSD -1
REMARK  0 active torsions:
REMARK  status: ('A' for Active; 'I' for Inactive)
ROOT
ATOM      1  N1  IND d   1      -1.004   1.875   1.793  0.00  0.00    -0.196 N 
ATOM      2  C2  IND d   1      -1.413   3.053   1.231  0.00  0.00     0.054 A 
ATOM      3  C3  IND d   1      -0.982   3.138  -0.048  0.00  0.00    -0.031 A 
ATOM      4  C4  IND d   1       0.320   1.419  -1.453  0.00  0.00     0.051 A 
ATOM      5  C5  IND d   1       0.948   0.208  -1.363  0.00  0.00    -0.031 A 
ATOM      6  C6  IND d   1       0.954  -0.525  -0.194  0.00  0.00     0.015 A 
ATOM      7  C7  IND d   1       0.321  -0.078   0.931  0.00  0.00    -0.016 A 
ATOM      8  C8  IND d   1      -0.311   1.155   0.845  0.00  0.00    -0.047 A 
ATOM      9  C9  IND d   1      -0.285   1.923  -0.326  0.00  0.00    -0.096 A 
ATOM     10  HN1 IND d   1      -1.155   1.627   2.602  0.00  0.00     0.298 HD
ENDROOT
TORSDOF 0
ENDMDL
