MODEL 1
REMARK minimizedAffinity -2.36024237
REMARK minimizedRMSD -1
REMARK  0 active torsions:
REMARK  status: ('A' for Active; 'I' for Inactive)
ROOT
ATOM      1  N1  IND d   1       0.033   0.372  -1.167  0.00  0.00    -0.196 N 
ATOM      2  C2  IND d   1       0.699  -0.819  -1.091  0.00  0.00     0.054 A 
ATOM      3  C3  IND d   1       0.800  -1.221   0.196  0.00  0.00    -0.031 A 
ATOM      4  C4  IND d   1      -0.143  -0.129   2.328  0.00  0.00     0.051 A 
ATOM      5  C5  IND d   1      -0.793   0.989   2.768  0.00  0.00    -0.031 A 
ATOM      6  C6  IND d   1      -1.212   1.978   1.902  0.00  0.00     0.015 A 
ATOM      7  C7  IND d   1      -1.006   1.879   0.555  0.00  0.00    -0.016 A 
ATOM      8  C8  IND d   1      -0.340   0.748   0.105  0.00  0.00    -0.047 A 
ATOM      9  C9  IND d   1       0.125  -0.239   0.984  0.00  0.00    -0.096 A 
ATOM     10  HN1 IND d   1      -0.127   0.812  -1.888  0.00  0.00     0.298 HD
ENDROOT
TORSDOF 0
ENDMDL
