MODEL 1
REMARK minimizedAffinity -3.41167259
REMARK minimizedRMSD -1
REMARK  0 active torsions:
REMARK  status: ('A' for Active; 'I' for Inactive)
ROOT
ATOM      1  N1  IND d   1       0.799  -0.354   1.272  0.00  0.00    -0.196 N 
ATOM      2  C2  IND d   1       1.087  -0.739  -0.007  0.00  0.00     0.054 A 
ATOM      3  C3  IND d   1       0.289  -0.091  -0.885  0.00  0.00    -0.031 A 
ATOM      4  C4  IND d   1      -1.489   1.719  -0.450  0.00  0.00     0.051 A 
ATOM      5  C5  IND d   1      -2.134   2.375   0.561  0.00  0.00    -0.031 A 
ATOM      6  C6  IND d   1      -1.825   2.153   1.887  0.00  0.00     0.015 A 
ATOM      7  C7  IND d   1      -0.849   1.270   2.253  0.00  0.00    -0.016 A 
ATOM      8  C8  IND d   1      -0.197   0.597   1.230  0.00  0.00    -0.047 A 
ATOM      9  C9  IND d   1      -0.535   0.787  -0.116  0.00  0.00    -0.096 A 
ATOM     10  HN1 IND d   1       1.176  -0.654   1.984  0.00  0.00     0.298 HD
ENDROOT
TORSDOF 0
ENDMDL
