MODEL 1
REMARK minimizedAffinity -4.0381093
REMARK minimizedRMSD -1
REMARK  0 active torsions:
REMARK  status: ('A' for Active; 'I' for Inactive)
ROOT
ATOM      1  N1  IND d   1       0.338  -0.271  -0.930  0.00  0.00    -0.196 N 
ATOM      2  C2  IND d   1       0.949  -1.166  -0.097  0.00  0.00     0.054 A 
ATOM      3  C3  IND d   1       0.585  -0.939   1.186  0.00  0.00    -0.031 A 
ATOM      4  C4  IND d   1      -1.078   0.783   2.133  0.00  0.00     0.051 A 
ATOM      5  C5  IND d   1      -1.859   1.842   1.764  0.00  0.00    -0.031 A 
ATOM      6  C6  IND d   1      -1.951   2.258   0.452  0.00  0.00     0.015 A 
ATOM      7  C7  IND d   1      -1.272   1.620  -0.547  0.00  0.00    -0.016 A 
ATOM      8  C8  IND d   1      -0.473   0.548  -0.175  0.00  0.00    -0.047 A 
ATOM      9  C9  IND d   1      -0.342   0.148   1.161  0.00  0.00    -0.096 A 
ATOM     10  HN1 IND d   1       0.443  -0.227  -1.782  0.00  0.00     0.298 HD
ENDROOT
TORSDOF 0
ENDMDL
