MODEL 1
REMARK minimizedAffinity 17.1878719
REMARK minimizedRMSD -1
REMARK  0 active torsions:
REMARK  status: ('A' for Active; 'I' for Inactive)
ROOT
ATOM      1  C   UNL d   1      -1.272  -0.985  -2.964  0.00  0.00     0.077 C 
ATOM      2  C1  UNL d   1      -1.566   0.407  -3.440  0.00  0.00    -0.074 A 
ATOM      3  C2  UNL d   1      -2.867   0.919  -3.403  0.00  0.00    -0.005 A 
ATOM      4  C3  UNL d   1      -3.123   2.219  -3.840  0.00  0.00     0.006 A 
ATOM      5  C4  UNL d   1      -2.084   3.018  -4.317  0.00  0.00    -0.005 A 
ATOM      6  C5  UNL d   1      -0.776   2.523  -4.360  0.00  0.00    -0.074 A 
ATOM      7  C6  UNL d   1       0.354   3.373  -4.860  0.00  0.00     0.077 C 
ATOM      8  C7  UNL d   1      -0.525   1.219  -3.913  0.00  0.00    -0.001 A 
ENDROOT
TORSDOF 0
ENDMDL
