MODEL 1
REMARK minimizedAffinity 12.5387077
REMARK minimizedRMSD -1
REMARK  0 active torsions:
REMARK  status: ('A' for Active; 'I' for Inactive)
ROOT
ATOM      1  C   UNL d   1       2.569   1.316  -1.498  0.00  0.00     0.077 C 
ATOM      2  C1  UNL d   1       3.770   2.215  -1.481  0.00  0.00    -0.074 A 
ATOM      3  C2  UNL d   1       4.885   1.940  -2.279  0.00  0.00    -0.005 A 
ATOM      4  C3  UNL d   1       5.990   2.791  -2.260  0.00  0.00     0.006 A 
ATOM      5  C4  UNL d   1       5.991   3.923  -1.444  0.00  0.00    -0.005 A 
ATOM      6  C5  UNL d   1       4.885   4.215  -0.640  0.00  0.00    -0.074 A 
ATOM      7  C6  UNL d   1       4.866   5.433   0.235  0.00  0.00     0.077 C 
ATOM      8  C7  UNL d   1       3.775   3.359  -0.670  0.00  0.00    -0.001 A 
ENDROOT
TORSDOF 0
ENDMDL
