MODEL 1
REMARK minimizedAffinity 10.5161247
REMARK minimizedRMSD -1
REMARK  0 active torsions:
REMARK  status: ('A' for Active; 'I' for Inactive)
ROOT
ATOM      1  C   UNL d   1       3.354   2.256  -0.537  0.00  0.00     0.077 C 
ATOM      2  C1  UNL d   1       3.955   3.382   0.250  0.00  0.00    -0.074 A 
ATOM      3  C2  UNL d   1       4.346   4.569  -0.378  0.00  0.00    -0.005 A 
ATOM      4  C3  UNL d   1       4.896   5.611   0.368  0.00  0.00     0.006 A 
ATOM      5  C4  UNL d   1       5.059   5.478   1.747  0.00  0.00    -0.005 A 
ATOM      6  C5  UNL d   1       4.673   4.299   2.393  0.00  0.00    -0.074 A 
ATOM      7  C6  UNL d   1       4.833   4.143   3.876  0.00  0.00     0.077 C 
ATOM      8  C7  UNL d   1       4.116   3.258   1.637  0.00  0.00    -0.001 A 
ENDROOT
TORSDOF 0
ENDMDL
