MODEL 1
REMARK minimizedAffinity 4.14778757
REMARK minimizedRMSD -1
REMARK  0 active torsions:
REMARK  status: ('A' for Active; 'I' for Inactive)
ROOT
ATOM      1  C   UNL d   1       3.089   3.961   5.975  0.00  0.00     0.077 C 
ATOM      2  C1  UNL d   1       3.886   2.863   5.335  0.00  0.00    -0.074 A 
ATOM      3  C2  UNL d   1       5.273   2.791   5.502  0.00  0.00    -0.005 A 
ATOM      4  C3  UNL d   1       6.000   1.759   4.908  0.00  0.00     0.006 A 
ATOM      5  C4  UNL d   1       5.349   0.790   4.144  0.00  0.00    -0.005 A 
ATOM      6  C5  UNL d   1       3.962   0.845   3.968  0.00  0.00    -0.074 A 
ATOM      7  C6  UNL d   1       3.246  -0.194   3.158  0.00  0.00     0.077 C 
ATOM      8  C7  UNL d   1       3.238   1.881   4.573  0.00  0.00    -0.001 A 
ENDROOT
TORSDOF 0
ENDMDL
