MODEL 1
REMARK minimizedAffinity 6.13639307
REMARK minimizedRMSD -1
REMARK  0 active torsions:
REMARK  status: ('A' for Active; 'I' for Inactive)
ROOT
ATOM      1  C   UNL d   1      -0.196  -6.000   1.596  0.00  0.00     0.077 C 
ATOM      2  C1  UNL d   1      -0.906  -4.683   1.493  0.00  0.00    -0.074 A 
ATOM      3  C2  UNL d   1      -0.747  -3.867   0.368  0.00  0.00    -0.005 A 
ATOM      4  C3  UNL d   1      -1.422  -2.649   0.282  0.00  0.00     0.006 A 
ATOM      5  C4  UNL d   1      -2.260  -2.235   1.318  0.00  0.00    -0.005 A 
ATOM      6  C5  UNL d   1      -2.431  -3.038   2.450  0.00  0.00    -0.074 A 
ATOM      7  C6  UNL d   1      -3.336  -2.613   3.568  0.00  0.00     0.077 C 
ATOM      8  C7  UNL d   1      -1.756  -4.264   2.526  0.00  0.00    -0.001 A 
ENDROOT
TORSDOF 0
ENDMDL
