MODEL 1
REMARK minimizedAffinity 10.8548841
REMARK minimizedRMSD -1
REMARK  0 active torsions:
REMARK  status: ('A' for Active; 'I' for Inactive)
ROOT
ATOM      1  C   UNL d   1      -2.839  -2.556   0.679  0.00  0.00     0.077 C 
ATOM      2  C1  UNL d   1      -2.673  -1.593  -0.459  0.00  0.00    -0.074 A 
ATOM      3  C2  UNL d   1      -3.678  -0.674  -0.775  0.00  0.00    -0.005 A 
ATOM      4  C3  UNL d   1      -3.506   0.222  -1.830  0.00  0.00     0.006 A 
ATOM      5  C4  UNL d   1      -2.328   0.207  -2.578  0.00  0.00    -0.005 A 
ATOM      6  C5  UNL d   1      -1.312  -0.704  -2.277  0.00  0.00    -0.074 A 
ATOM      7  C6  UNL d   1      -0.036  -0.727  -3.065  0.00  0.00     0.077 C 
ATOM      8  C7  UNL d   1      -1.490  -1.597  -1.210  0.00  0.00    -0.001 A 
ENDROOT
TORSDOF 0
ENDMDL
