MODEL 1
REMARK minimizedAffinity 9.25927925
REMARK minimizedRMSD -1
REMARK  0 active torsions:
REMARK  status: ('A' for Active; 'I' for Inactive)
ROOT
ATOM      1  C   UNL d   1      -2.624   2.446  -3.794  0.00  0.00     0.077 C 
ATOM      2  C1  UNL d   1      -3.470   3.684  -3.759  0.00  0.00    -0.074 A 
ATOM      3  C2  UNL d   1      -3.422   4.556  -2.667  0.00  0.00    -0.005 A 
ATOM      4  C3  UNL d   1      -4.208   5.709  -2.653  0.00  0.00     0.006 A 
ATOM      5  C4  UNL d   1      -5.048   6.000  -3.728  0.00  0.00    -0.005 A 
ATOM      6  C5  UNL d   1      -5.109   5.139  -4.829  0.00  0.00    -0.074 A 
ATOM      7  C6  UNL d   1      -5.999   5.442  -5.997  0.00  0.00     0.077 C 
ATOM      8  C7  UNL d   1      -4.311   3.987  -4.839  0.00  0.00    -0.001 A 
ENDROOT
TORSDOF 0
ENDMDL
