MODEL 1
REMARK minimizedAffinity 23.2124557
REMARK minimizedRMSD -1
REMARK  0 active torsions:
REMARK  status: ('A' for Active; 'I' for Inactive)
ROOT
ATOM      1  C   UNL d   1      -5.996   5.946  -5.857  0.00  0.00     0.077 C 
ATOM      2  C1  UNL d   1      -5.097   5.349  -4.815  0.00  0.00    -0.074 A 
ATOM      3  C2  UNL d   1      -4.879   6.000  -3.596  0.00  0.00    -0.005 A 
ATOM      4  C3  UNL d   1      -4.047   5.428  -2.633  0.00  0.00     0.006 A 
ATOM      5  C4  UNL d   1      -3.427   4.203  -2.878  0.00  0.00    -0.005 A 
ATOM      6  C5  UNL d   1      -3.634   3.538  -4.091  0.00  0.00    -0.074 A 
ATOM      7  C6  UNL d   1      -2.982   2.215  -4.367  0.00  0.00     0.077 C 
ATOM      8  C7  UNL d   1      -4.476   4.115  -5.051  0.00  0.00    -0.001 A 
ENDROOT
TORSDOF 0
ENDMDL
