MODEL 1
REMARK minimizedAffinity 12.5591364
REMARK minimizedRMSD -1
REMARK  0 active torsions:
REMARK  status: ('A' for Active; 'I' for Inactive)
ROOT
ATOM      1  C   UNL d   1      -6.000   3.095  -5.997  0.00  0.00     0.077 C 
ATOM      2  C1  UNL d   1      -4.811   3.884  -5.534  0.00  0.00    -0.074 A 
ATOM      3  C2  UNL d   1      -4.859   5.280  -5.464  0.00  0.00    -0.005 A 
ATOM      4  C3  UNL d   1      -3.749   6.000  -5.022  0.00  0.00     0.006 A 
ATOM      5  C4  UNL d   1      -2.582   5.332  -4.646  0.00  0.00    -0.005 A 
ATOM      6  C5  UNL d   1      -2.517   3.937  -4.708  0.00  0.00    -0.074 A 
ATOM      7  C6  UNL d   1      -1.275   3.203  -4.299  0.00  0.00     0.077 C 
ATOM      8  C7  UNL d   1      -3.639   3.220  -5.147  0.00  0.00    -0.001 A 
ENDROOT
TORSDOF 0
ENDMDL
