MODEL 1
REMARK minimizedAffinity 6.89841366
REMARK minimizedRMSD -1
REMARK  0 active torsions:
REMARK  status: ('A' for Active; 'I' for Inactive)
ROOT
ATOM      1  C   UNL d   1      -2.607  -0.269  -2.581  0.00  0.00     0.077 C 
ATOM      2  C1  UNL d   1      -2.013  -1.358  -1.738  0.00  0.00    -0.074 A 
ATOM      3  C2  UNL d   1      -1.110  -2.277  -2.283  0.00  0.00    -0.005 A 
ATOM      4  C3  UNL d   1      -0.558  -3.278  -1.484  0.00  0.00     0.006 A 
ATOM      5  C4  UNL d   1      -0.903  -3.372  -0.135  0.00  0.00    -0.005 A 
ATOM      6  C5  UNL d   1      -1.804  -2.461   0.427  0.00  0.00    -0.074 A 
ATOM      7  C6  UNL d   1      -2.178  -2.542   1.877  0.00  0.00     0.077 C 
ATOM      8  C7  UNL d   1      -2.349  -1.453  -0.380  0.00  0.00    -0.001 A 
ENDROOT
TORSDOF 0
ENDMDL
