MODEL 1
REMARK minimizedAffinity 9.33173847
REMARK minimizedRMSD -1
REMARK  0 active torsions:
REMARK  status: ('A' for Active; 'I' for Inactive)
ROOT
ATOM      1  C   UNL d   1       0.386  -5.986   1.893  0.00  0.00     0.077 C 
ATOM      2  C1  UNL d   1      -0.192  -5.323   0.678  0.00  0.00    -0.074 A 
ATOM      3  C2  UNL d   1      -0.265  -6.000  -0.544  0.00  0.00    -0.005 A 
ATOM      4  C3  UNL d   1      -0.814  -5.374  -1.663  0.00  0.00     0.006 A 
ATOM      5  C4  UNL d   1      -1.295  -4.067  -1.571  0.00  0.00    -0.005 A 
ATOM      6  C5  UNL d   1      -1.231  -3.375  -0.358  0.00  0.00    -0.074 A 
ATOM      7  C6  UNL d   1      -1.752  -1.973  -0.240  0.00  0.00     0.077 C 
ATOM      8  C7  UNL d   1      -0.684  -4.013   0.764  0.00  0.00    -0.001 A 
ENDROOT
TORSDOF 0
ENDMDL
