MODEL 1
REMARK minimizedAffinity 9.40917492
REMARK minimizedRMSD -1
REMARK  0 active torsions:
REMARK  status: ('A' for Active; 'I' for Inactive)
ROOT
ATOM      1  C   UNL d   1       0.711   3.371  -5.125  0.00  0.00     0.077 C 
ATOM      2  C1  UNL d   1      -0.745   3.015  -5.077  0.00  0.00    -0.074 A 
ATOM      3  C2  UNL d   1      -1.648   3.553  -5.999  0.00  0.00    -0.005 A 
ATOM      4  C3  UNL d   1      -2.997   3.204  -5.948  0.00  0.00     0.006 A 
ATOM      5  C4  UNL d   1      -3.457   2.316  -4.975  0.00  0.00    -0.005 A 
ATOM      6  C5  UNL d   1      -2.569   1.767  -4.045  0.00  0.00    -0.074 A 
ATOM      7  C6  UNL d   1      -3.045   0.802  -2.999  0.00  0.00     0.077 C 
ATOM      8  C7  UNL d   1      -1.213   2.116  -4.108  0.00  0.00    -0.001 A 
ENDROOT
TORSDOF 0
ENDMDL
