MODEL 1
REMARK minimizedAffinity 15.2666349
REMARK minimizedRMSD -1
REMARK  0 active torsions:
REMARK  status: ('A' for Active; 'I' for Inactive)
ROOT
ATOM      1  C   UNL d   1       3.323   2.925   0.534  0.00  0.00     0.077 C 
ATOM      2  C1  UNL d   1       2.669   2.031  -0.477  0.00  0.00    -0.074 A 
ATOM      3  C2  UNL d   1       2.665   0.642  -0.312  0.00  0.00    -0.005 A 
ATOM      4  C3  UNL d   1       2.044  -0.176  -1.256  0.00  0.00     0.006 A 
ATOM      5  C4  UNL d   1       1.423   0.385  -2.372  0.00  0.00    -0.005 A 
ATOM      6  C5  UNL d   1       1.416   1.771  -2.553  0.00  0.00    -0.074 A 
ATOM      7  C6  UNL d   1       0.743   2.391  -3.742  0.00  0.00     0.077 C 
ATOM      8  C7  UNL d   1       2.036   2.587  -1.597  0.00  0.00    -0.001 A 
ENDROOT
TORSDOF 0
ENDMDL
