MODEL 1
REMARK minimizedAffinity 9.52124786
REMARK minimizedRMSD -1
REMARK  0 active torsions:
REMARK  status: ('A' for Active; 'I' for Inactive)
ROOT
ATOM      1  C   UNL d   1      -0.520  -4.882   1.275  0.00  0.00     0.077 C 
ATOM      2  C1  UNL d   1      -1.430  -3.697   1.148  0.00  0.00    -0.074 A 
ATOM      3  C2  UNL d   1      -0.979  -2.502   0.578  0.00  0.00    -0.005 A 
ATOM      4  C3  UNL d   1      -1.840  -1.411   0.458  0.00  0.00     0.006 A 
ATOM      5  C4  UNL d   1      -3.159  -1.504   0.905  0.00  0.00    -0.005 A 
ATOM      6  C5  UNL d   1      -3.628  -2.691   1.476  0.00  0.00    -0.074 A 
ATOM      7  C6  UNL d   1      -5.045  -2.811   1.953  0.00  0.00     0.077 C 
ATOM      8  C7  UNL d   1      -2.759  -3.785   1.588  0.00  0.00    -0.001 A 
ENDROOT
TORSDOF 0
ENDMDL
