MODEL 1
REMARK minimizedAffinity 12.9024467
REMARK minimizedRMSD -1
REMARK  0 active torsions:
REMARK  status: ('A' for Active; 'I' for Inactive)
ROOT
ATOM      1  C   UNL d   1      -5.900   3.594   5.999  0.00  0.00     0.077 C 
ATOM      2  C1  UNL d   1      -5.095   2.329   5.990  0.00  0.00    -0.074 A 
ATOM      3  C2  UNL d   1      -3.697   2.368   5.992  0.00  0.00    -0.005 A 
ATOM      4  C3  UNL d   1      -2.961   1.183   5.993  0.00  0.00     0.006 A 
ATOM      5  C4  UNL d   1      -3.614  -0.050   5.992  0.00  0.00    -0.005 A 
ATOM      6  C5  UNL d   1      -5.011  -0.108   5.990  0.00  0.00    -0.074 A 
ATOM      7  C6  UNL d   1      -5.729  -1.425   5.999  0.00  0.00     0.077 C 
ATOM      8  C7  UNL d   1      -5.744   1.087   5.996  0.00  0.00    -0.001 A 
ENDROOT
TORSDOF 0
ENDMDL
