MODEL 1
REMARK minimizedAffinity 11.4175501
REMARK minimizedRMSD -1
REMARK  0 active torsions:
REMARK  status: ('A' for Active; 'I' for Inactive)
ROOT
ATOM      1  C   UNL d   1      -3.610   2.417   5.991  0.00  0.00     0.077 C 
ATOM      2  C1  UNL d   1      -3.551   0.924   5.862  0.00  0.00    -0.074 A 
ATOM      3  C2  UNL d   1      -4.706   0.179   5.605  0.00  0.00    -0.005 A 
ATOM      4  C3  UNL d   1      -4.633  -1.209   5.478  0.00  0.00     0.006 A 
ATOM      5  C4  UNL d   1      -3.408  -1.863   5.607  0.00  0.00    -0.005 A 
ATOM      6  C5  UNL d   1      -2.242  -1.134   5.864  0.00  0.00    -0.074 A 
ATOM      7  C6  UNL d   1      -0.915  -1.821   5.995  0.00  0.00     0.077 C 
ATOM      8  C7  UNL d   1      -2.322   0.260   5.983  0.00  0.00    -0.001 A 
ENDROOT
TORSDOF 0
ENDMDL
