MODEL 1
REMARK minimizedAffinity 1.303864
REMARK minimizedRMSD -1
REMARK  2 active torsions:
REMARK  status: ('A' for Active; 'I' for Inactive)
REMARK    1  A    between atoms: C2'_3  and  C1'_4 
REMARK    2  A    between atoms: C1'_4  and  C1_5 
ROOT
ATOM      1  C1  I4B d   1       2.665   1.345   5.488  0.00  0.00    -0.075 A 
ATOM      2  C2  I4B d   1       1.623   2.077   6.000  0.00  0.00     0.003 A 
ATOM      3  C3  I4B d   1       1.657   3.492   5.956  0.00  0.00     0.002 A 
ATOM      4  C4  I4B d   1       2.767   4.130   5.442  0.00  0.00    -0.004 A 
ATOM      5  C5  I4B d   1       3.813   3.385   4.903  0.00  0.00     0.002 A 
ATOM      6  C6  I4B d   1       3.756   1.984   4.915  0.00  0.00     0.003 A 
ENDROOT
BRANCH   1   7
ATOM      7  C1' I4B d   1       2.611  -0.147   5.581  0.00  0.00     0.060 C 
BRANCH   7   8
ATOM      8  C2' I4B d   1       1.824  -0.660   4.392  0.00  0.00    -0.013 C 
ATOM      9  C4' I4B d   1       2.673  -0.691   3.148  0.00  0.00     0.013 C 
ATOM     10  C3' I4B d   1       1.311  -2.028   4.731  0.00  0.00     0.013 C 
ENDBRANCH   7   8
ENDBRANCH   1   7
TORSDOF 2
ENDMDL
