MODEL 1
REMARK minimizedAffinity -1.83675051
REMARK minimizedRMSD -1
REMARK  2 active torsions:
REMARK  status: ('A' for Active; 'I' for Inactive)
REMARK    1  A    between atoms: C2'_3  and  C1'_4 
REMARK    2  A    between atoms: C1'_4  and  C1_5 
ROOT
ATOM      1  C1  I4B d   1       1.048  -3.814   4.991  0.00  0.00    -0.075 A 
ATOM      2  C2  I4B d   1       1.120  -4.821   5.921  0.00  0.00     0.003 A 
ATOM      3  C3  I4B d   1       0.094  -5.794   5.998  0.00  0.00     0.002 A 
ATOM      4  C4  I4B d   1      -1.002  -5.693   5.165  0.00  0.00    -0.004 A 
ATOM      5  C5  I4B d   1      -1.061  -4.685   4.207  0.00  0.00     0.002 A 
ATOM      6  C6  I4B d   1      -0.024  -3.746   4.111  0.00  0.00     0.003 A 
ENDROOT
BRANCH   1   7
ATOM      7  C1' I4B d   1       2.133  -2.784   4.959  0.00  0.00     0.060 C 
BRANCH   7   8
ATOM      8  C2' I4B d   1       1.528  -1.484   4.470  0.00  0.00    -0.013 C 
ATOM      9  C4' I4B d   1       1.917  -0.333   5.361  0.00  0.00     0.013 C 
ATOM     10  C3' I4B d   1       1.990  -1.258   3.062  0.00  0.00     0.013 C 
ENDBRANCH   7   8
ENDBRANCH   1   7
TORSDOF 2
ENDMDL
