MODEL 1
REMARK minimizedAffinity 16.1562881
REMARK minimizedRMSD -1
REMARK  2 active torsions:
REMARK  status: ('A' for Active; 'I' for Inactive)
REMARK    1  A    between atoms: C2'_3  and  C1'_4 
REMARK    2  A    between atoms: C1'_4  and  C1_5 
ROOT
ATOM      1  C1  I4B d   1       1.670   3.304   5.999  0.00  0.00    -0.075 A 
ATOM      2  C2  I4B d   1       2.636   4.278   5.993  0.00  0.00     0.003 A 
ATOM      3  C3  I4B d   1       2.270   5.646   5.966  0.00  0.00     0.002 A 
ATOM      4  C4  I4B d   1       0.936   5.991   5.895  0.00  0.00    -0.004 A 
ATOM      5  C5  I4B d   1      -0.044   5.002   5.924  0.00  0.00     0.002 A 
ATOM      6  C6  I4B d   1       0.325   3.650   5.989  0.00  0.00     0.003 A 
ENDROOT
BRANCH   1   7
ATOM      7  C1' I4B d   1       2.093   1.869   5.995  0.00  0.00     0.060 C 
BRANCH   7   8
ATOM      8  C2' I4B d   1       3.573   1.820   5.676  0.00  0.00    -0.013 C 
ATOM      9  C4' I4B d   1       4.153   0.466   5.991  0.00  0.00     0.013 C 
ATOM     10  C3' I4B d   1       3.746   2.159   4.226  0.00  0.00     0.013 C 
ENDBRANCH   7   8
ENDBRANCH   1   7
TORSDOF 2
ENDMDL
