MODEL 1
REMARK minimizedAffinity -4.52587843
REMARK minimizedRMSD -1
REMARK  0 active torsions:
REMARK  status: ('A' for Active; 'I' for Inactive)
ROOT
ATOM      1  C   UNL d   1       2.998  -0.985   1.136  0.00  0.00    -0.002 A 
ATOM      2  C1  UNL d   1       2.093  -1.943   0.702  0.00  0.00     0.010 A 
ATOM      3  C2  UNL d   1       0.897  -1.563   0.089  0.00  0.00     0.041 A 
ATOM      4  C3  UNL d   1       0.625  -0.192  -0.084  0.00  0.00    -0.075 A 
ATOM      5  S   UNL d   1      -0.775   0.507  -0.809  0.00  0.00     0.015 SA
ATOM      6  C4  UNL d   1      -0.203   2.093  -0.561  0.00  0.00     0.022 A 
ATOM      7  C5  UNL d   1       1.024   2.108   0.059  0.00  0.00     0.026 A 
ATOM      8  C6  UNL d   1       1.521   0.791   0.344  0.00  0.00    -0.082 A 
ATOM      9  C7  UNL d   1       2.725   0.375   0.962  0.00  0.00     0.045 A 
ENDROOT
TORSDOF 0
ENDMDL
