MODEL 1
REMARK minimizedAffinity -1.65295219
REMARK minimizedRMSD -1
REMARK  0 active torsions:
REMARK  status: ('A' for Active; 'I' for Inactive)
ROOT
ATOM      1  C   UNL d   1       2.128  -1.687   0.574  0.00  0.00    -0.002 A 
ATOM      2  C1  UNL d   1       2.494  -0.622   1.384  0.00  0.00     0.010 A 
ATOM      3  C2  UNL d   1       1.683   0.511   1.477  0.00  0.00     0.041 A 
ATOM      4  C3  UNL d   1       0.486   0.555   0.735  0.00  0.00    -0.075 A 
ATOM      5  S   UNL d   1      -0.665   1.838   0.692  0.00  0.00     0.015 SA
ATOM      6  C4  UNL d   1      -1.668   1.002  -0.402  0.00  0.00     0.022 A 
ATOM      7  C5  UNL d   1      -1.153  -0.228  -0.738  0.00  0.00     0.026 A 
ATOM      8  C6  UNL d   1       0.096  -0.506  -0.088  0.00  0.00    -0.082 A 
ATOM      9  C7  UNL d   1       0.940  -1.640  -0.161  0.00  0.00     0.045 A 
ENDROOT
TORSDOF 0
ENDMDL
