MODEL 1
REMARK minimizedAffinity -2.74359679
REMARK minimizedRMSD -1
REMARK  0 active torsions:
REMARK  status: ('A' for Active; 'I' for Inactive)
ROOT
ATOM      1  C   UNL d   1      -0.049   1.995  -0.895  0.00  0.00    -0.002 A 
ATOM      2  C1  UNL d   1       1.158   2.254  -0.261  0.00  0.00     0.010 A 
ATOM      3  C2  UNL d   1       1.934   1.209   0.243  0.00  0.00     0.041 A 
ATOM      4  C3  UNL d   1       1.474  -0.114   0.096  0.00  0.00    -0.075 A 
ATOM      5  S   UNL d   1       2.257  -1.553   0.634  0.00  0.00     0.015 SA
ATOM      6  C4  UNL d   1       1.008  -2.546   0.033  0.00  0.00     0.022 A 
ATOM      7  C5  UNL d   1       0.010  -1.814  -0.566  0.00  0.00     0.026 A 
ATOM      8  C6  UNL d   1       0.262  -0.401  -0.540  0.00  0.00    -0.082 A 
ATOM      9  C7  UNL d   1      -0.502   0.681  -1.039  0.00  0.00     0.045 A 
ENDROOT
TORSDOF 0
ENDMDL
