MODEL 1
REMARK minimizedAffinity -0.828580558
REMARK minimizedRMSD -1
REMARK  0 active torsions:
REMARK  status: ('A' for Active; 'I' for Inactive)
ROOT
ATOM      1  C   UNL d   1       2.833  -1.858   0.559  0.00  0.00    -0.002 A 
ATOM      2  C1  UNL d   1       2.538  -1.033   1.634  0.00  0.00     0.010 A 
ATOM      3  C2  UNL d   1       1.430  -0.184   1.595  0.00  0.00     0.041 A 
ATOM      4  C3  UNL d   1       0.615  -0.179   0.446  0.00  0.00    -0.075 A 
ATOM      5  S   UNL d   1      -0.793   0.777   0.175  0.00  0.00     0.015 SA
ATOM      6  C4  UNL d   1      -1.037   0.112  -1.375  0.00  0.00     0.022 A 
ATOM      7  C5  UNL d   1      -0.076  -0.818  -1.694  0.00  0.00     0.026 A 
ATOM      8  C6  UNL d   1       0.892  -1.002  -0.649  0.00  0.00    -0.082 A 
ATOM      9  C7  UNL d   1       2.022  -1.851  -0.580  0.00  0.00     0.045 A 
ENDROOT
TORSDOF 0
ENDMDL
