MODEL 1
REMARK minimizedAffinity -1.19020188
REMARK minimizedRMSD -1
REMARK  0 active torsions:
REMARK  status: ('A' for Active; 'I' for Inactive)
ROOT
ATOM      1  C   UNL d   1       3.091  -1.729   0.136  0.00  0.00    -0.002 A 
ATOM      2  C1  UNL d   1       2.700  -1.705   1.468  0.00  0.00     0.010 A 
ATOM      3  C2  UNL d   1       1.474  -1.149   1.838  0.00  0.00     0.041 A 
ATOM      4  C3  UNL d   1       0.639  -0.614   0.838  0.00  0.00    -0.075 A 
ATOM      5  S   UNL d   1      -0.907   0.117   1.056  0.00  0.00     0.015 SA
ATOM      6  C4  UNL d   1      -1.086   0.414  -0.612  0.00  0.00     0.022 A 
ATOM      7  C5  UNL d   1      -0.002  -0.027  -1.333  0.00  0.00     0.026 A 
ATOM      8  C6  UNL d   1       1.010  -0.628  -0.510  0.00  0.00    -0.082 A 
ATOM      9  C7  UNL d   1       2.259  -1.197  -0.853  0.00  0.00     0.045 A 
ENDROOT
TORSDOF 0
ENDMDL
