MODEL 1
REMARK minimizedAffinity -2.54832816
REMARK minimizedRMSD -1
REMARK  0 active torsions:
REMARK  status: ('A' for Active; 'I' for Inactive)
ROOT
ATOM      1  C   UNL d   1      -3.752   0.983   0.401  0.00  0.00    -0.002 A 
ATOM      2  C1  UNL d   1      -3.140   1.823   1.320  0.00  0.00     0.010 A 
ATOM      3  C2  UNL d   1      -1.757   1.781   1.511  0.00  0.00     0.041 A 
ATOM      4  C3  UNL d   1      -0.992   0.873   0.753  0.00  0.00    -0.075 A 
ATOM      5  S   UNL d   1       0.716   0.645   0.816  0.00  0.00     0.015 SA
ATOM      6  C4  UNL d   1       0.673  -0.571  -0.377  0.00  0.00     0.022 A 
ATOM      7  C5  UNL d   1      -0.605  -0.811  -0.824  0.00  0.00     0.026 A 
ATOM      8  C6  UNL d   1      -1.586   0.017  -0.180  0.00  0.00    -0.082 A 
ATOM      9  C7  UNL d   1      -2.990   0.084  -0.350  0.00  0.00     0.045 A 
ENDROOT
TORSDOF 0
ENDMDL
