MODEL 1
REMARK minimizedAffinity -3.7810154
REMARK minimizedRMSD -1
REMARK  0 active torsions:
REMARK  status: ('A' for Active; 'I' for Inactive)
ROOT
ATOM      1  O1  BZF d   1       0.898   1.347  -0.983  0.00  0.00    -0.204 OA
ATOM      2  C2  BZF d   1      -0.219   1.238  -0.177  0.00  0.00     0.174 A 
ATOM      3  C3  BZF d   1      -0.498  -0.056   0.081  0.00  0.00    -0.012 A 
ATOM      4  C3A BZF d   1       0.562  -0.799  -0.530  0.00  0.00    -0.107 A 
ATOM      5  C4  BZF d   1       0.852  -2.131  -0.606  0.00  0.00     0.055 A 
ATOM      6  C5  BZF d   1       1.923  -2.532  -1.341  0.00  0.00    -0.016 A 
ATOM      7  C6  BZF d   1       2.720  -1.631  -2.015  0.00  0.00     0.022 A 
ATOM      8  C7  BZF d   1       2.474  -0.299  -1.965  0.00  0.00     0.029 A 
ATOM      9  C7A BZF d   1       1.413   0.113  -1.197  0.00  0.00     0.058 A 
ENDROOT
TORSDOF 0
ENDMDL
