MODEL 1
REMARK minimizedAffinity -1.1681
REMARK minimizedRMSD -1
REMARK  0 active torsions:
REMARK  status: ('A' for Active; 'I' for Inactive)
ROOT
ATOM      1  O1  BZF d   1      -1.146   0.853   1.050  0.00  0.00    -0.204 OA
ATOM      2  C2  BZF d   1      -1.184  -0.279   1.842  0.00  0.00     0.174 A 
ATOM      3  C3  BZF d   1      -0.289  -1.192   1.414  0.00  0.00    -0.012 A 
ATOM      4  C3A BZF d   1       0.413  -0.557   0.341  0.00  0.00    -0.107 A 
ATOM      5  C4  BZF d   1       1.434  -0.951  -0.477  0.00  0.00     0.055 A 
ATOM      6  C5  BZF d   1       1.840  -0.120  -1.473  0.00  0.00    -0.016 A 
ATOM      7  C6  BZF d   1       1.246   1.107  -1.683  0.00  0.00     0.022 A 
ATOM      8  C7  BZF d   1       0.234   1.543  -0.894  0.00  0.00     0.029 A 
ATOM      9  C7A BZF d   1      -0.157   0.720   0.134  0.00  0.00     0.058 A 
ENDROOT
TORSDOF 0
ENDMDL
