MODEL 1
REMARK minimizedAffinity -1.37340915
REMARK minimizedRMSD -1
REMARK  0 active torsions:
REMARK  status: ('A' for Active; 'I' for Inactive)
ROOT
ATOM      1  O1  BZF d   1      -0.715  -0.696   1.274  0.00  0.00    -0.204 OA
ATOM      2  C2  BZF d   1      -1.337   0.378   1.881  0.00  0.00     0.174 A 
ATOM      3  C3  BZF d   1      -0.957   1.537   1.307  0.00  0.00    -0.012 A 
ATOM      4  C3A BZF d   1      -0.110   1.159   0.218  0.00  0.00    -0.107 A 
ATOM      5  C4  BZF d   1       0.564   1.865  -0.737  0.00  0.00     0.055 A 
ATOM      6  C5  BZF d   1       1.362   1.198  -1.612  0.00  0.00    -0.016 A 
ATOM      7  C6  BZF d   1       1.513  -0.172  -1.558  0.00  0.00     0.022 A 
ATOM      8  C7  BZF d   1       0.860  -0.916  -0.631  0.00  0.00     0.029 A 
ATOM      9  C7A BZF d   1       0.028  -0.249   0.233  0.00  0.00     0.058 A 
ENDROOT
TORSDOF 0
ENDMDL
