MODEL 1
REMARK minimizedAffinity -2.85880876
REMARK minimizedRMSD -1
REMARK  0 active torsions:
REMARK  status: ('A' for Active; 'I' for Inactive)
ROOT
ATOM      1  O1  BZF d   1      -0.735  -0.621   1.896  0.00  0.00    -0.204 OA
ATOM      2  C2  BZF d   1      -1.990  -0.102   2.150  0.00  0.00     0.174 A 
ATOM      3  C3  BZF d   1      -2.269   0.911   1.304  0.00  0.00    -0.012 A 
ATOM      4  C3A BZF d   1      -1.153   0.973   0.411  0.00  0.00    -0.107 A 
ATOM      5  C4  BZF d   1      -0.851   1.765  -0.660  0.00  0.00     0.055 A 
ATOM      6  C5  BZF d   1       0.353   1.616  -1.272  0.00  0.00    -0.016 A 
ATOM      7  C6  BZF d   1       1.280   0.691  -0.837  0.00  0.00     0.022 A 
ATOM      8  C7  BZF d   1       1.023  -0.120   0.217  0.00  0.00     0.029 A 
ATOM      9  C7A BZF d   1      -0.206   0.005   0.817  0.00  0.00     0.058 A 
ENDROOT
TORSDOF 0
ENDMDL
