MODEL 1
REMARK minimizedAffinity -4.92232752
REMARK minimizedRMSD -1
REMARK  0 active torsions:
REMARK  status: ('A' for Active; 'I' for Inactive)
ROOT
ATOM      1  O1  BZF d   1       0.107  -1.299   0.697  0.00  0.00    -0.204 OA
ATOM      2  C2  BZF d   1       0.026  -0.130   1.430  0.00  0.00     0.174 A 
ATOM      3  C3  BZF d   1       0.647   0.881   0.789  0.00  0.00    -0.012 A 
ATOM      4  C3A BZF d   1       1.068   0.331  -0.463  0.00  0.00    -0.107 A 
ATOM      5  C4  BZF d   1       1.725   0.848  -1.542  0.00  0.00     0.055 A 
ATOM      6  C5  BZF d   1       2.049   0.026  -2.574  0.00  0.00    -0.016 A 
ATOM      7  C6  BZF d   1       1.736  -1.317  -2.559  0.00  0.00     0.022 A 
ATOM      8  C7  BZF d   1       1.080  -1.875  -1.512  0.00  0.00     0.029 A 
ATOM      9  C7A BZF d   1       0.722  -1.040  -0.482  0.00  0.00     0.058 A 
ENDROOT
TORSDOF 0
ENDMDL
