MODEL 1
REMARK minimizedAffinity -1.33616531
REMARK minimizedRMSD -1
REMARK  0 active torsions:
REMARK  status: ('A' for Active; 'I' for Inactive)
ROOT
ATOM      1  O1  BZF d   1      -0.272  -0.701  -0.253  0.00  0.00    -0.204 OA
ATOM      2  C2  BZF d   1       0.855   0.001   0.125  0.00  0.00     0.174 A 
ATOM      3  C3  BZF d   1       0.579   0.833   1.150  0.00  0.00    -0.012 A 
ATOM      4  C3A BZF d   1      -0.786   0.571   1.490  0.00  0.00    -0.107 A 
ATOM      5  C4  BZF d   1      -1.630   1.073   2.439  0.00  0.00     0.055 A 
ATOM      6  C5  BZF d   1      -2.924   0.657   2.458  0.00  0.00    -0.016 A 
ATOM      7  C6  BZF d   1      -3.408  -0.253   1.541  0.00  0.00     0.022 A 
ATOM      8  C7  BZF d   1      -2.607  -0.782   0.584  0.00  0.00     0.029 A 
ATOM      9  C7A BZF d   1      -1.291  -0.389   0.583  0.00  0.00     0.058 A 
ENDROOT
TORSDOF 0
ENDMDL
