MODEL 1
REMARK minimizedAffinity -2.35755968
REMARK minimizedRMSD -1
REMARK  0 active torsions:
REMARK  status: ('A' for Active; 'I' for Inactive)
ROOT
ATOM      1  O1  BZF d   1      -0.006  -1.378   0.831  0.00  0.00    -0.204 OA
ATOM      2  C2  BZF d   1      -0.943  -0.510   1.359  0.00  0.00     0.174 A 
ATOM      3  C3  BZF d   1      -0.729   0.748   0.922  0.00  0.00    -0.012 A 
ATOM      4  C3A BZF d   1       0.356   0.646  -0.004  0.00  0.00    -0.107 A 
ATOM      5  C4  BZF d   1       1.017   1.554  -0.781  0.00  0.00     0.055 A 
ATOM      6  C5  BZF d   1       2.080   1.143  -1.520  0.00  0.00    -0.016 A 
ATOM      7  C6  BZF d   1       2.513  -0.167  -1.503  0.00  0.00     0.022 A 
ATOM      8  C7  BZF d   1       1.887  -1.106  -0.752  0.00  0.00     0.029 A 
ATOM      9  C7A BZF d   1       0.791  -0.700  -0.029  0.00  0.00     0.058 A 
ENDROOT
TORSDOF 0
ENDMDL
