MODEL 1
REMARK minimizedAffinity -3.69027543
REMARK minimizedRMSD -1
REMARK  0 active torsions:
REMARK  status: ('A' for Active; 'I' for Inactive)
ROOT
ATOM      1  O1  BZF d   1      -0.080  -0.989   0.329  0.00  0.00    -0.204 OA
ATOM      2  C2  BZF d   1      -0.263   0.379   0.379  0.00  0.00     0.174 A 
ATOM      3  C3  BZF d   1       0.638   1.011  -0.401  0.00  0.00    -0.012 A 
ATOM      4  C3A BZF d   1       1.374  -0.032  -1.046  0.00  0.00    -0.107 A 
ATOM      5  C4  BZF d   1       2.396  -0.038  -1.952  0.00  0.00     0.055 A 
ATOM      6  C5  BZF d   1       2.941  -1.226  -2.326  0.00  0.00    -0.016 A 
ATOM      7  C6  BZF d   1       2.493  -2.424  -1.809  0.00  0.00     0.022 A 
ATOM      8  C7  BZF d   1       1.479  -2.469  -0.911  0.00  0.00     0.029 A 
ATOM      9  C7A BZF d   1       0.905  -1.273  -0.557  0.00  0.00     0.058 A 
ENDROOT
TORSDOF 0
ENDMDL
