MODEL 1
REMARK minimizedAffinity -2.54588962
REMARK minimizedRMSD -1
REMARK  0 active torsions:
REMARK  status: ('A' for Active; 'I' for Inactive)
ROOT
ATOM      1  O1  BZF d   1      -1.127   0.749  -0.967  0.00  0.00    -0.204 OA
ATOM      2  C2  BZF d   1       0.164   0.496  -0.546  0.00  0.00     0.174 A 
ATOM      3  C3  BZF d   1       0.223   0.428   0.800  0.00  0.00    -0.012 A 
ATOM      4  C3A BZF d   1      -1.131   0.562   1.243  0.00  0.00    -0.107 A 
ATOM      5  C4  BZF d   1      -1.720   0.558   2.476  0.00  0.00     0.055 A 
ATOM      6  C5  BZF d   1      -3.056   0.785   2.569  0.00  0.00    -0.016 A 
ATOM      7  C6  BZF d   1      -3.832   1.025   1.454  0.00  0.00     0.022 A 
ATOM      8  C7  BZF d   1      -3.294   1.033   0.210  0.00  0.00     0.029 A 
ATOM      9  C7A BZF d   1      -1.949   0.771   0.109  0.00  0.00     0.058 A 
ENDROOT
TORSDOF 0
ENDMDL
