MODEL 1
REMARK minimizedAffinity -4.19202709
REMARK minimizedRMSD -1
REMARK  0 active torsions:
REMARK  status: ('A' for Active; 'I' for Inactive)
ROOT
ATOM      1  O1  BZF d   1       1.298  -2.436  -0.880  0.00  0.00    -0.204 OA
ATOM      2  C2  BZF d   1       2.336  -2.710  -1.749  0.00  0.00     0.174 A 
ATOM      3  C3  BZF d   1       2.772  -1.581  -2.345  0.00  0.00    -0.012 A 
ATOM      4  C3A BZF d   1       2.016  -0.524  -1.747  0.00  0.00    -0.107 A 
ATOM      5  C4  BZF d   1       2.005   0.832  -1.912  0.00  0.00     0.055 A 
ATOM      6  C5  BZF d   1       1.094   1.573  -1.228  0.00  0.00    -0.016 A 
ATOM      7  C6  BZF d   1       0.178   0.992  -0.376  0.00  0.00     0.022 A 
ATOM      8  C7  BZF d   1       0.154  -0.349  -0.176  0.00  0.00     0.029 A 
ATOM      9  C7A BZF d   1       1.094  -1.097  -0.841  0.00  0.00     0.058 A 
ENDROOT
TORSDOF 0
ENDMDL
