MODEL 1
REMARK minimizedAffinity -3.39652634
REMARK minimizedRMSD -1
REMARK  0 active torsions:
REMARK  status: ('A' for Active; 'I' for Inactive)
ROOT
ATOM      1  O1  BZF d   1      -3.373   1.794   0.898  0.00  0.00    -0.204 OA
ATOM      2  C2  BZF d   1      -3.765   0.744   1.706  0.00  0.00     0.174 A 
ATOM      3  C3  BZF d   1      -2.835  -0.232   1.706  0.00  0.00    -0.012 A 
ATOM      4  C3A BZF d   1      -1.755   0.277   0.917  0.00  0.00    -0.107 A 
ATOM      5  C4  BZF d   1      -0.535  -0.224   0.561  0.00  0.00     0.055 A 
ATOM      6  C5  BZF d   1       0.254   0.495  -0.279  0.00  0.00    -0.016 A 
ATOM      7  C6  BZF d   1      -0.146   1.715  -0.785  0.00  0.00     0.022 A 
ATOM      8  C7  BZF d   1      -1.345   2.255  -0.456  0.00  0.00     0.029 A 
ATOM      9  C7A BZF d   1      -2.131   1.545   0.419  0.00  0.00     0.058 A 
ENDROOT
TORSDOF 0
ENDMDL
