MODEL 1
REMARK minimizedAffinity -1.92274749
REMARK minimizedRMSD -1
REMARK  0 active torsions:
REMARK  status: ('A' for Active; 'I' for Inactive)
ROOT
ATOM      1  O1  BZF d   1      -2.701   2.151   0.559  0.00  0.00    -0.204 OA
ATOM      2  C2  BZF d   1      -3.485   1.557   1.529  0.00  0.00     0.174 A 
ATOM      3  C3  BZF d   1      -2.955   0.380   1.918  0.00  0.00    -0.012 A 
ATOM      4  C3A BZF d   1      -1.716   0.272   1.209  0.00  0.00    -0.107 A 
ATOM      5  C4  BZF d   1      -0.727  -0.668   1.186  0.00  0.00     0.055 A 
ATOM      6  C5  BZF d   1       0.317  -0.508   0.330  0.00  0.00    -0.016 A 
ATOM      7  C6  BZF d   1       0.399   0.577  -0.519  0.00  0.00     0.022 A 
ATOM      8  C7  BZF d   1      -0.556   1.538  -0.528  0.00  0.00     0.029 A 
ATOM      9  C7A BZF d   1      -1.594   1.396   0.359  0.00  0.00     0.058 A 
ENDROOT
TORSDOF 0
ENDMDL
