MODEL 1
REMARK minimizedAffinity -3.55483103
REMARK minimizedRMSD -1
REMARK  0 active torsions:
REMARK  status: ('A' for Active; 'I' for Inactive)
ROOT
ATOM      1  O1  BZF d   1       0.733  -2.128  -0.315  0.00  0.00    -0.204 OA
ATOM      2  C2  BZF d   1       1.640  -2.830  -1.086  0.00  0.00     0.174 A 
ATOM      3  C3  BZF d   1       2.414  -1.988  -1.801  0.00  0.00    -0.012 A 
ATOM      4  C3A BZF d   1       2.024  -0.675  -1.385  0.00  0.00    -0.107 A 
ATOM      5  C4  BZF d   1       2.442   0.580  -1.725  0.00  0.00     0.055 A 
ATOM      6  C5  BZF d   1       1.805   1.655  -1.190  0.00  0.00    -0.016 A 
ATOM      7  C6  BZF d   1       0.746   1.512  -0.319  0.00  0.00     0.022 A 
ATOM      8  C7  BZF d   1       0.299   0.287   0.052  0.00  0.00     0.029 A 
ATOM      9  C7A BZF d   1       0.961  -0.801  -0.461  0.00  0.00     0.058 A 
ENDROOT
TORSDOF 0
ENDMDL
