MODEL 1
REMARK minimizedAffinity -2.11442924
REMARK minimizedRMSD -1
REMARK  0 active torsions:
REMARK  status: ('A' for Active; 'I' for Inactive)
ROOT
ATOM      1  O1  BZF d   1      -0.554  -0.974   1.104  0.00  0.00    -0.204 OA
ATOM      2  C2  BZF d   1      -1.727  -0.261   1.264  0.00  0.00     0.174 A 
ATOM      3  C3  BZF d   1      -1.711   0.860   0.514  0.00  0.00    -0.012 A 
ATOM      4  C3A BZF d   1      -0.488   0.800  -0.227  0.00  0.00    -0.107 A 
ATOM      5  C4  BZF d   1       0.088   1.619  -1.155  0.00  0.00     0.055 A 
ATOM      6  C5  BZF d   1       1.322   1.310  -1.632  0.00  0.00    -0.016 A 
ATOM      7  C6  BZF d   1       2.010   0.196  -1.200  0.00  0.00     0.022 A 
ATOM      8  C7  BZF d   1       1.478  -0.649  -0.284  0.00  0.00     0.029 A 
ATOM      9  C7A BZF d   1       0.216  -0.358   0.176  0.00  0.00     0.058 A 
ENDROOT
TORSDOF 0
ENDMDL
