MODEL 1
REMARK minimizedAffinity -0.834071815
REMARK minimizedRMSD -1
REMARK  0 active torsions:
REMARK  status: ('A' for Active; 'I' for Inactive)
ROOT
ATOM      1  O1  BZF d   1       0.406  -0.185   0.515  0.00  0.00    -0.204 OA
ATOM      2  C2  BZF d   1       0.687   0.776  -0.438  0.00  0.00     0.174 A 
ATOM      3  C3  BZF d   1      -0.325   1.662  -0.537  0.00  0.00    -0.012 A 
ATOM      4  C3A BZF d   1      -1.259   1.281   0.478  0.00  0.00    -0.107 A 
ATOM      5  C4  BZF d   1      -2.459   1.788   0.887  0.00  0.00     0.055 A 
ATOM      6  C5  BZF d   1      -3.154   1.138   1.858  0.00  0.00    -0.016 A 
ATOM      7  C6  BZF d   1      -2.681  -0.020   2.438  0.00  0.00     0.022 A 
ATOM      8  C7  BZF d   1      -1.493  -0.558   2.069  0.00  0.00     0.029 A 
ATOM      9  C7A BZF d   1      -0.773   0.114   1.111  0.00  0.00     0.058 A 
ENDROOT
TORSDOF 0
ENDMDL
