MODEL 1
REMARK minimizedAffinity -3.27601314
REMARK minimizedRMSD -1
REMARK  0 active torsions:
REMARK  status: ('A' for Active; 'I' for Inactive)
ROOT
ATOM      1  O1  BZF d   1      -3.219   1.632   0.597  0.00  0.00    -0.204 OA
ATOM      2  C2  BZF d   1      -3.584   0.779   1.621  0.00  0.00     0.174 A 
ATOM      3  C3  BZF d   1      -2.557  -0.024   1.964  0.00  0.00    -0.012 A 
ATOM      4  C3A BZF d   1      -1.454   0.412   1.163  0.00  0.00    -0.107 A 
ATOM      5  C4  BZF d   1      -0.152   0.013   1.061  0.00  0.00     0.055 A 
ATOM      6  C5  BZF d   1       0.646   0.597   0.129  0.00  0.00    -0.016 A 
ATOM      7  C6  BZF d   1       0.175   1.578  -0.719  0.00  0.00     0.022 A 
ATOM      8  C7  BZF d   1      -1.107   2.010  -0.652  0.00  0.00     0.029 A 
ATOM      9  C7A BZF d   1      -1.908   1.445   0.311  0.00  0.00     0.058 A 
ENDROOT
TORSDOF 0
ENDMDL
