MODEL 1
REMARK minimizedAffinity 12.1368742
REMARK minimizedRMSD -1
REMARK  1 active torsions:
REMARK  status: ('A' for Active; 'I' for Inactive)
REMARK    1  A    between atoms: N_2  and  C1_3 
ROOT
ATOM      1  C1  UNL d   1       2.452  -0.327   1.981  0.00  0.00     0.143 A 
ATOM      2  C2  UNL d   1       3.286   0.626   1.386  0.00  0.00    -0.057 A 
ATOM      3  C3  UNL d   1       3.425   1.909   1.929  0.00  0.00     0.033 A 
ATOM      4  C4  UNL d   1       2.709   2.272   3.065  0.00  0.00    -0.042 A 
ATOM      5  C5  UNL d   1       1.856   1.348   3.659  0.00  0.00     0.033 A 
ATOM      6  C6  UNL d   1       1.726   0.067   3.115  0.00  0.00    -0.057 A 
ENDROOT
BRANCH   1   7
ATOM      7  N   UNL d   1       2.196  -1.586   1.433  0.00  0.00    -0.732 N 
ATOM      8  C   UNL d   1       0.853  -1.961   1.045  0.00  0.00     0.284 C 
ATOM      9  H3  UNL d   1       2.915  -1.877   0.775  0.00  0.00     0.395 HD
ENDBRANCH   1   7
TORSDOF 1
ENDMDL
