MODEL 1
REMARK minimizedAffinity 2.13101602
REMARK minimizedRMSD -1
REMARK  1 active torsions:
REMARK  status: ('A' for Active; 'I' for Inactive)
REMARK    1  A    between atoms: N_2  and  C1_3 
ROOT
ATOM      1  C1  UNL d   1       3.314   0.182   1.390  0.00  0.00     0.143 A 
ATOM      2  C2  UNL d   1       3.031   0.627   2.686  0.00  0.00    -0.057 A 
ATOM      3  C3  UNL d   1       1.984   1.523   2.934  0.00  0.00     0.033 A 
ATOM      4  C4  UNL d   1       1.217   2.014   1.882  0.00  0.00    -0.042 A 
ATOM      5  C5  UNL d   1       1.496   1.605   0.583  0.00  0.00     0.033 A 
ATOM      6  C6  UNL d   1       2.539   0.705   0.343  0.00  0.00    -0.057 A 
ENDROOT
BRANCH   1   7
ATOM      7  N   UNL d   1       4.403  -0.631   1.067  0.00  0.00    -0.732 N 
ATOM      8  C   UNL d   1       4.765  -1.748   1.912  0.00  0.00     0.284 C 
ATOM      9  H3  UNL d   1       4.458  -0.828   0.070  0.00  0.00     0.395 HD
ENDBRANCH   1   7
TORSDOF 1
ENDMDL
