MODEL 1
REMARK minimizedAffinity 6.1091013
REMARK minimizedRMSD -1
REMARK  1 active torsions:
REMARK  status: ('A' for Active; 'I' for Inactive)
REMARK    1  A    between atoms: N_2  and  C1_3 
ROOT
ATOM      1  C1  UNL d   1       2.183  -5.976  -2.098  0.00  0.00     0.143 A 
ATOM      2  C2  UNL d   1       3.324  -5.908  -1.290  0.00  0.00    -0.057 A 
ATOM      3  C3  UNL d   1       3.226  -5.912   0.106  0.00  0.00     0.033 A 
ATOM      4  C4  UNL d   1       1.980  -5.955   0.722  0.00  0.00    -0.042 A 
ATOM      5  C5  UNL d   1       0.831  -5.997  -0.060  0.00  0.00     0.033 A 
ATOM      6  C6  UNL d   1       0.936  -5.999  -1.454  0.00  0.00    -0.057 A 
ENDROOT
BRANCH   1   7
ATOM      7  N   UNL d   1       2.209  -5.876  -3.491  0.00  0.00    -0.732 N 
ATOM      8  C   UNL d   1       3.255  -5.129  -4.157  0.00  0.00     0.284 C 
ATOM      9  H3  UNL d   1       1.969  -6.753  -3.947  0.00  0.00     0.395 HD
ENDBRANCH   1   7
TORSDOF 1
ENDMDL
