MODEL 1
REMARK minimizedAffinity 8.19393539
REMARK minimizedRMSD -1
REMARK  1 active torsions:
REMARK  status: ('A' for Active; 'I' for Inactive)
REMARK    1  A    between atoms: N_2  and  C1_3 
ROOT
ATOM      1  C1  UNL d   1      -3.914   2.046  -3.602  0.00  0.00     0.143 A 
ATOM      2  C2  UNL d   1      -3.478   2.042  -2.273  0.00  0.00    -0.057 A 
ATOM      3  C3  UNL d   1      -2.663   1.016  -1.779  0.00  0.00     0.033 A 
ATOM      4  C4  UNL d   1      -2.291  -0.042  -2.602  0.00  0.00    -0.042 A 
ATOM      5  C5  UNL d   1      -2.732  -0.071  -3.920  0.00  0.00     0.033 A 
ATOM      6  C6  UNL d   1      -3.541   0.960  -4.409  0.00  0.00    -0.057 A 
ENDROOT
BRANCH   1   7
ATOM      7  N   UNL d   1      -4.806   2.985  -4.125  0.00  0.00    -0.732 N 
ATOM      8  C   UNL d   1      -5.997   3.358  -3.393  0.00  0.00     0.284 C 
ATOM      9  H3  UNL d   1      -4.331   3.767  -4.571  0.00  0.00     0.395 HD
ENDBRANCH   1   7
TORSDOF 1
ENDMDL
