MODEL 1
REMARK minimizedAffinity 0.300004065
REMARK minimizedRMSD -1
REMARK  1 active torsions:
REMARK  status: ('A' for Active; 'I' for Inactive)
REMARK    1  A    between atoms: N_2  and  C1_3 
ROOT
ATOM      1  C1  UNL d   1       2.486  -5.927  -3.539  0.00  0.00     0.143 A 
ATOM      2  C2  UNL d   1       3.469  -5.890  -2.544  0.00  0.00    -0.057 A 
ATOM      3  C3  UNL d   1       3.130  -5.934  -1.187  0.00  0.00     0.033 A 
ATOM      4  C4  UNL d   1       1.795  -5.986  -0.798  0.00  0.00    -0.042 A 
ATOM      5  C5  UNL d   1       0.800  -5.998  -1.769  0.00  0.00     0.033 A 
ATOM      6  C6  UNL d   1       1.146  -5.961  -3.124  0.00  0.00    -0.057 A 
ENDROOT
BRANCH   1   7
ATOM      7  N   UNL d   1       2.754  -5.787  -4.903  0.00  0.00    -0.732 N 
ATOM      8  C   UNL d   1       4.090  -6.000  -5.418  0.00  0.00     0.284 C 
ATOM      9  H3  UNL d   1       2.017  -6.177  -5.486  0.00  0.00     0.395 HD
ENDBRANCH   1   7
TORSDOF 1
ENDMDL
