MODEL 1
REMARK minimizedAffinity 0.990264893
REMARK minimizedRMSD -1
REMARK  1 active torsions:
REMARK  status: ('A' for Active; 'I' for Inactive)
REMARK    1  A    between atoms: N_2  and  C1_3 
ROOT
ATOM      1  C1  UNL d   1       4.560  -4.922   1.880  0.00  0.00     0.143 A 
ATOM      2  C2  UNL d   1       5.768  -4.220   1.806  0.00  0.00    -0.057 A 
ATOM      3  C3  UNL d   1       6.000  -3.088   2.597  0.00  0.00     0.033 A 
ATOM      4  C4  UNL d   1       5.012  -2.619   3.457  0.00  0.00    -0.042 A 
ATOM      5  C5  UNL d   1       3.794  -3.286   3.528  0.00  0.00     0.033 A 
ATOM      6  C6  UNL d   1       3.572  -4.420   2.741  0.00  0.00    -0.057 A 
ENDROOT
BRANCH   1   7
ATOM      7  N   UNL d   1       4.232  -5.995   1.048  0.00  0.00    -0.732 N 
ATOM      8  C   UNL d   1       2.990  -6.000   0.305  0.00  0.00     0.284 C 
ATOM      9  H3  UNL d   1       5.033  -6.338   0.522  0.00  0.00     0.395 HD
ENDBRANCH   1   7
TORSDOF 1
ENDMDL
