MODEL 1
REMARK minimizedAffinity 1.54190183
REMARK minimizedRMSD -1
REMARK  1 active torsions:
REMARK  status: ('A' for Active; 'I' for Inactive)
REMARK    1  A    between atoms: N_2  and  C1_3 
ROOT
ATOM      1  C1  UNL d   1       5.137  -5.924  -3.462  0.00  0.00     0.143 A 
ATOM      2  C2  UNL d   1       3.744  -5.964  -3.334  0.00  0.00    -0.057 A 
ATOM      3  C3  UNL d   1       3.131  -5.987  -2.076  0.00  0.00     0.033 A 
ATOM      4  C4  UNL d   1       3.903  -5.999  -0.919  0.00  0.00    -0.042 A 
ATOM      5  C5  UNL d   1       5.290  -5.985  -1.022  0.00  0.00     0.033 A 
ATOM      6  C6  UNL d   1       5.896  -5.956  -2.282  0.00  0.00    -0.057 A 
ENDROOT
BRANCH   1   7
ATOM      7  N   UNL d   1       5.809  -6.000  -4.685  0.00  0.00    -0.732 N 
ATOM      8  C   UNL d   1       5.079  -5.925  -5.932  0.00  0.00     0.284 C 
ATOM      9  H3  UNL d   1       6.681  -5.477  -4.682  0.00  0.00     0.395 HD
ENDBRANCH   1   7
TORSDOF 1
ENDMDL
