MODEL 1
REMARK minimizedAffinity 0.354971319
REMARK minimizedRMSD -1
REMARK  1 active torsions:
REMARK  status: ('A' for Active; 'I' for Inactive)
REMARK    1  A    between atoms: N_2  and  C1_3 
ROOT
ATOM      1  C1  UNL d   1       2.179  -5.875  -0.960  0.00  0.00     0.143 A 
ATOM      2  C2  UNL d   1       0.797  -5.999  -1.139  0.00  0.00    -0.057 A 
ATOM      3  C3  UNL d   1      -0.079  -5.993  -0.047  0.00  0.00     0.033 A 
ATOM      4  C4  UNL d   1       0.415  -5.891   1.249  0.00  0.00    -0.042 A 
ATOM      5  C5  UNL d   1       1.787  -5.792   1.452  0.00  0.00     0.033 A 
ATOM      6  C6  UNL d   1       2.657  -5.792   0.357  0.00  0.00    -0.057 A 
ENDROOT
BRANCH   1   7
ATOM      7  N   UNL d   1       3.110  -5.974  -1.998  0.00  0.00    -0.732 N 
ATOM      8  C   UNL d   1       2.675  -5.995  -3.378  0.00  0.00     0.284 C 
ATOM      9  H3  UNL d   1       3.938  -5.407  -1.832  0.00  0.00     0.395 HD
ENDBRANCH   1   7
TORSDOF 1
ENDMDL
