MODEL 1
REMARK minimizedAffinity 2.28405905
REMARK minimizedRMSD -1
REMARK  1 active torsions:
REMARK  status: ('A' for Active; 'I' for Inactive)
REMARK    1  A    between atoms: C3_4  and  O_7 
ROOT
ATOM      1  C   UNL d   1      -5.949  -5.799   3.178  0.00  0.00    -0.033 A 
ATOM      2  C1  UNL d   1      -5.981  -5.996   4.560  0.00  0.00     0.039 A 
ATOM      3  C2  UNL d   1      -6.000  -4.899   5.423  0.00  0.00    -0.080 A 
ATOM      4  C3  UNL d   1      -5.987  -3.612   4.892  0.00  0.00     0.150 A 
ATOM      5  C4  UNL d   1      -5.958  -3.408   3.516  0.00  0.00    -0.007 A 
ATOM      6  C5  UNL d   1      -5.939  -4.505   2.656  0.00  0.00     0.039 A 
ENDROOT
BRANCH   4   7
ATOM      7  O   UNL d   1      -5.999  -2.510   5.695  0.00  0.00    -0.526 OA
ATOM      8  H5  UNL d   1      -5.990  -2.804   6.621  0.00  0.00     0.418 HD
ENDBRANCH   4   7
TORSDOF 1
ENDMDL
