MODEL 1
REMARK minimizedAffinity 6.19499302
REMARK minimizedRMSD -1
REMARK  1 active torsions:
REMARK  status: ('A' for Active; 'I' for Inactive)
REMARK    1  A    between atoms: C3_4  and  O_7 
ROOT
ATOM      1  C   UNL d   1      -2.163  -1.001   1.112  0.00  0.00    -0.033 A 
ATOM      2  C1  UNL d   1      -3.250  -0.176   0.814  0.00  0.00     0.039 A 
ATOM      3  C2  UNL d   1      -3.561   0.900   1.647  0.00  0.00    -0.080 A 
ATOM      4  C3  UNL d   1      -2.778   1.141   2.773  0.00  0.00     0.150 A 
ATOM      5  C4  UNL d   1      -1.692   0.326   3.074  0.00  0.00    -0.007 A 
ATOM      6  C5  UNL d   1      -1.383  -0.749   2.241  0.00  0.00     0.039 A 
ENDROOT
BRANCH   4   7
ATOM      7  O   UNL d   1      -3.046   2.177   3.618  0.00  0.00    -0.526 OA
ATOM      8  H5  UNL d   1      -3.841   2.636   3.301  0.00  0.00     0.418 HD
ENDBRANCH   4   7
TORSDOF 1
ENDMDL
