MODEL 1
REMARK minimizedAffinity 0.224945232
REMARK minimizedRMSD -1
REMARK  1 active torsions:
REMARK  status: ('A' for Active; 'I' for Inactive)
REMARK    1  A    between atoms: C3_4  and  O_7 
ROOT
ATOM      1  C   UNL d   1      -5.858  -3.858   2.276  0.00  0.00    -0.033 A 
ATOM      2  C1  UNL d   1      -5.899  -5.253   2.232  0.00  0.00     0.039 A 
ATOM      3  C2  UNL d   1      -5.941  -5.989   3.418  0.00  0.00    -0.080 A 
ATOM      4  C3  UNL d   1      -5.943  -5.319   4.638  0.00  0.00     0.150 A 
ATOM      5  C4  UNL d   1      -5.906  -3.930   4.689  0.00  0.00    -0.007 A 
ATOM      6  C5  UNL d   1      -5.863  -3.196   3.504  0.00  0.00     0.039 A 
ENDROOT
BRANCH   4   7
ATOM      7  O   UNL d   1      -5.978  -5.995   5.822  0.00  0.00    -0.526 OA
ATOM      8  H5  UNL d   1      -5.972  -6.948   5.633  0.00  0.00     0.418 HD
ENDBRANCH   4   7
TORSDOF 1
ENDMDL
