MODEL 1
REMARK minimizedAffinity 1.89533865
REMARK minimizedRMSD -1
REMARK  1 active torsions:
REMARK  status: ('A' for Active; 'I' for Inactive)
REMARK    1  A    between atoms: C3_4  and  O_7 
ROOT
ATOM      1  C   UNL d   1      -5.995  -6.000   4.377  0.00  0.00    -0.033 A 
ATOM      2  C1  UNL d   1      -5.866  -5.731   3.013  0.00  0.00     0.039 A 
ATOM      3  C2  UNL d   1      -5.745  -4.414   2.568  0.00  0.00    -0.080 A 
ATOM      4  C3  UNL d   1      -5.754  -3.375   3.495  0.00  0.00     0.150 A 
ATOM      5  C4  UNL d   1      -5.878  -3.636   4.856  0.00  0.00    -0.007 A 
ATOM      6  C5  UNL d   1      -6.000  -4.952   5.299  0.00  0.00     0.039 A 
ENDROOT
BRANCH   4   7
ATOM      7  O   UNL d   1      -5.644  -2.073   3.107  0.00  0.00    -0.526 OA
ATOM      8  H5  UNL d   1      -5.594  -2.044   2.137  0.00  0.00     0.418 HD
ENDBRANCH   4   7
TORSDOF 1
ENDMDL
