MODEL 1
REMARK minimizedAffinity 3.80026555
REMARK minimizedRMSD -1
REMARK  1 active torsions:
REMARK  status: ('A' for Active; 'I' for Inactive)
REMARK    1  A    between atoms: C3_4  and  O_7 
ROOT
ATOM      1  C   UNL d   1      -0.293  -1.282   1.960  0.00  0.00    -0.033 A 
ATOM      2  C1  UNL d   1      -1.627  -0.963   1.697  0.00  0.00     0.039 A 
ATOM      3  C2  UNL d   1      -2.484  -1.926   1.162  0.00  0.00    -0.080 A 
ATOM      4  C3  UNL d   1      -1.997  -3.202   0.895  0.00  0.00     0.150 A 
ATOM      5  C4  UNL d   1      -0.670  -3.528   1.158  0.00  0.00    -0.007 A 
ATOM      6  C5  UNL d   1       0.185  -2.565   1.692  0.00  0.00     0.039 A 
ENDROOT
BRANCH   4   7
ATOM      7  O   UNL d   1      -2.795  -4.174   0.368  0.00  0.00    -0.526 OA
ATOM      8  H5  UNL d   1      -3.677  -3.797   0.212  0.00  0.00     0.418 HD
ENDBRANCH   4   7
TORSDOF 1
ENDMDL
