MODEL 1
REMARK minimizedAffinity 3.27562308
REMARK minimizedRMSD -1
REMARK  1 active torsions:
REMARK  status: ('A' for Active; 'I' for Inactive)
REMARK    1  A    between atoms: C3_4  and  O_7 
ROOT
ATOM      1  C   UNL d   1       0.961   3.297  -1.288  0.00  0.00    -0.033 A 
ATOM      2  C1  UNL d   1       1.056   4.295  -2.260  0.00  0.00     0.039 A 
ATOM      3  C2  UNL d   1       2.101   4.274  -3.186  0.00  0.00    -0.080 A 
ATOM      4  C3  UNL d   1       3.043   3.250  -3.129  0.00  0.00     0.150 A 
ATOM      5  C4  UNL d   1       2.953   2.251  -2.165  0.00  0.00    -0.007 A 
ATOM      6  C5  UNL d   1       1.909   2.275  -1.242  0.00  0.00     0.039 A 
ENDROOT
BRANCH   4   7
ATOM      7  O   UNL d   1       4.083   3.190  -4.008  0.00  0.00    -0.526 OA
ATOM      8  H5  UNL d   1       4.034   3.961  -4.597  0.00  0.00     0.418 HD
ENDBRANCH   4   7
TORSDOF 1
ENDMDL
