MODEL 1
REMARK minimizedAffinity 0.0415857062
REMARK minimizedRMSD -1
REMARK  1 active torsions:
REMARK  status: ('A' for Active; 'I' for Inactive)
REMARK    1  A    between atoms: C3_4  and  O_7 
ROOT
ATOM      1  C   UNL d   1      -2.910  -0.098   3.029  0.00  0.00    -0.033 A 
ATOM      2  C1  UNL d   1      -2.865   0.535   4.273  0.00  0.00     0.039 A 
ATOM      3  C2  UNL d   1      -3.756   0.160   5.281  0.00  0.00    -0.080 A 
ATOM      4  C3  UNL d   1      -4.683  -0.849   5.033  0.00  0.00     0.150 A 
ATOM      5  C4  UNL d   1      -4.730  -1.486   3.797  0.00  0.00    -0.007 A 
ATOM      6  C5  UNL d   1      -3.841  -1.109   2.792  0.00  0.00     0.039 A 
ENDROOT
BRANCH   4   7
ATOM      7  O   UNL d   1      -5.575  -1.246   5.984  0.00  0.00    -0.526 OA
ATOM      8  H5  UNL d   1      -5.445  -0.698   6.776  0.00  0.00     0.418 HD
ENDBRANCH   4   7
TORSDOF 1
ENDMDL
