MODEL 1
REMARK minimizedAffinity -1.72659099
REMARK minimizedRMSD -1
REMARK  1 active torsions:
REMARK  status: ('A' for Active; 'I' for Inactive)
REMARK    1  A    between atoms: C3_4  and  O_7 
ROOT
ATOM      1  C   UNL d   1      -2.959   0.076   1.202  0.00  0.00    -0.033 A 
ATOM      2  C1  UNL d   1      -3.391   0.894   2.248  0.00  0.00     0.039 A 
ATOM      3  C2  UNL d   1      -2.736   0.859   3.481  0.00  0.00    -0.080 A 
ATOM      4  C3  UNL d   1      -1.651   0.004   3.654  0.00  0.00     0.150 A 
ATOM      5  C4  UNL d   1      -1.213  -0.811   2.615  0.00  0.00    -0.007 A 
ATOM      6  C5  UNL d   1      -1.869  -0.775   1.385  0.00  0.00     0.039 A 
ENDROOT
BRANCH   4   7
ATOM      7  O   UNL d   1      -0.983  -0.068   4.840  0.00  0.00    -0.526 OA
ATOM      8  H5  UNL d   1      -1.415   0.529   5.473  0.00  0.00     0.418 HD
ENDBRANCH   4   7
TORSDOF 1
ENDMDL
