MODEL 1
REMARK minimizedAffinity 6.65443659
REMARK minimizedRMSD -1
REMARK  1 active torsions:
REMARK  status: ('A' for Active; 'I' for Inactive)
REMARK    1  A    between atoms: C3_4  and  O_7 
ROOT
ATOM      1  C   UNL d   1      -1.306  -0.613   2.328  0.00  0.00    -0.033 A 
ATOM      2  C1  UNL d   1      -1.887   0.450   3.022  0.00  0.00     0.039 A 
ATOM      3  C2  UNL d   1      -3.074   1.021   2.560  0.00  0.00    -0.080 A 
ATOM      4  C3  UNL d   1      -3.670   0.521   1.406  0.00  0.00     0.150 A 
ATOM      5  C4  UNL d   1      -3.099  -0.541   0.712  0.00  0.00    -0.007 A 
ATOM      6  C5  UNL d   1      -1.913  -1.109   1.174  0.00  0.00     0.039 A 
ENDROOT
BRANCH   4   7
ATOM      7  O   UNL d   1      -4.827   1.049   0.915  0.00  0.00    -0.526 OA
ATOM      8  H5  UNL d   1      -5.090   1.794   1.481  0.00  0.00     0.418 HD
ENDBRANCH   4   7
TORSDOF 1
ENDMDL
