MODEL 1
REMARK minimizedAffinity 4.16677904
REMARK minimizedRMSD -1
REMARK  1 active torsions:
REMARK  status: ('A' for Active; 'I' for Inactive)
REMARK    1  A    between atoms: C3_4  and  O_7 
ROOT
ATOM      1  C   UNL d   1       3.747   2.217  -0.714  0.00  0.00    -0.033 A 
ATOM      2  C1  UNL d   1       2.959   2.141   0.436  0.00  0.00     0.039 A 
ATOM      3  C2  UNL d   1       3.342   2.823   1.593  0.00  0.00    -0.080 A 
ATOM      4  C3  UNL d   1       4.513   3.575   1.586  0.00  0.00     0.150 A 
ATOM      5  C4  UNL d   1       5.301   3.658   0.443  0.00  0.00    -0.007 A 
ATOM      6  C5  UNL d   1       4.917   2.976  -0.711  0.00  0.00     0.039 A 
ENDROOT
BRANCH   4   7
ATOM      7  O   UNL d   1       4.930   4.254   2.693  0.00  0.00    -0.526 OA
ATOM      8  H5  UNL d   1       4.302   4.081   3.414  0.00  0.00     0.418 HD
ENDBRANCH   4   7
TORSDOF 1
ENDMDL
