MODEL 1
REMARK minimizedAffinity -1.08619773
REMARK minimizedRMSD -1
REMARK  1 active torsions:
REMARK  status: ('A' for Active; 'I' for Inactive)
REMARK    1  A    between atoms: C3_4  and  O_7 
ROOT
ATOM      1  C   UNL d   1      -1.357  -2.347   1.978  0.00  0.00    -0.033 A 
ATOM      2  C1  UNL d   1      -0.596  -1.584   2.867  0.00  0.00     0.039 A 
ATOM      3  C2  UNL d   1      -1.048  -0.328   3.275  0.00  0.00    -0.080 A 
ATOM      4  C3  UNL d   1      -2.260   0.154   2.788  0.00  0.00     0.150 A 
ATOM      5  C4  UNL d   1      -3.025  -0.602   1.905  0.00  0.00    -0.007 A 
ATOM      6  C5  UNL d   1      -2.571  -1.857   1.499  0.00  0.00     0.039 A 
ENDROOT
BRANCH   4   7
ATOM      7  O   UNL d   1      -2.740   1.376   3.153  0.00  0.00    -0.526 OA
ATOM      8  H5  UNL d   1      -2.093   1.797   3.744  0.00  0.00     0.418 HD
ENDBRANCH   4   7
TORSDOF 1
ENDMDL
