MODEL 1
REMARK minimizedAffinity 5.26191425
REMARK minimizedRMSD -1
REMARK  1 active torsions:
REMARK  status: ('A' for Active; 'I' for Inactive)
REMARK    1  A    between atoms: C3_4  and  O_7 
ROOT
ATOM      1  C   UNL d   1      -5.499  -4.380   5.950  0.00  0.00    -0.033 A 
ATOM      2  C1  UNL d   1      -5.994  -5.593   5.468  0.00  0.00     0.039 A 
ATOM      3  C2  UNL d   1      -5.986  -5.858   4.097  0.00  0.00    -0.080 A 
ATOM      4  C3  UNL d   1      -5.479  -4.903   3.220  0.00  0.00     0.150 A 
ATOM      5  C4  UNL d   1      -4.981  -3.693   3.694  0.00  0.00    -0.007 A 
ATOM      6  C5  UNL d   1      -4.991  -3.431   5.063  0.00  0.00     0.039 A 
ENDROOT
BRANCH   4   7
ATOM      7  O   UNL d   1      -5.455  -5.114   1.874  0.00  0.00    -0.526 OA
ATOM      8  H5  UNL d   1      -5.857  -5.979   1.690  0.00  0.00     0.418 HD
ENDBRANCH   4   7
TORSDOF 1
ENDMDL
