MODEL 1
REMARK minimizedAffinity 7.50643492
REMARK minimizedRMSD -1
REMARK  1 active torsions:
REMARK  status: ('A' for Active; 'I' for Inactive)
REMARK    1  A    between atoms: C3_4  and  O_7 
ROOT
ATOM      1  C   UNL d   1       4.989   4.758  -5.476  0.00  0.00    -0.033 A 
ATOM      2  C1  UNL d   1       3.767   5.108  -4.899  0.00  0.00     0.039 A 
ATOM      3  C2  UNL d   1       3.112   4.213  -4.051  0.00  0.00    -0.080 A 
ATOM      4  C3  UNL d   1       3.688   2.974  -3.788  0.00  0.00     0.150 A 
ATOM      5  C4  UNL d   1       4.908   2.620  -4.357  0.00  0.00    -0.007 A 
ATOM      6  C5  UNL d   1       5.560   3.515  -5.204  0.00  0.00     0.039 A 
ENDROOT
BRANCH   4   7
ATOM      7  O   UNL d   1       3.084   2.065  -2.971  0.00  0.00    -0.526 OA
ATOM      8  H5  UNL d   1       2.236   2.435  -2.674  0.00  0.00     0.418 HD
ENDBRANCH   4   7
TORSDOF 1
ENDMDL
