MODEL 1
REMARK minimizedAffinity 6.27683544
REMARK minimizedRMSD -1
REMARK  1 active torsions:
REMARK  status: ('A' for Active; 'I' for Inactive)
REMARK    1  A    between atoms: C3_4  and  O_7 
ROOT
ATOM      1  C   UNL d   1      -1.275  -2.668   1.549  0.00  0.00    -0.033 A 
ATOM      2  C1  UNL d   1      -0.332  -1.808   2.114  0.00  0.00     0.039 A 
ATOM      3  C2  UNL d   1      -0.724  -0.556   2.593  0.00  0.00    -0.080 A 
ATOM      4  C3  UNL d   1      -2.060  -0.178   2.502  0.00  0.00     0.150 A 
ATOM      5  C4  UNL d   1      -3.006  -1.031   1.944  0.00  0.00    -0.007 A 
ATOM      6  C5  UNL d   1      -2.613  -2.280   1.465  0.00  0.00     0.039 A 
ENDROOT
BRANCH   4   7
ATOM      7  O   UNL d   1      -2.490   1.036   2.952  0.00  0.00    -0.526 OA
ATOM      8  H5  UNL d   1      -1.722   1.529   3.285  0.00  0.00     0.418 HD
ENDBRANCH   4   7
TORSDOF 1
ENDMDL
