MODEL 1
REMARK minimizedAffinity 8.27747536
REMARK minimizedRMSD -1
REMARK  1 active torsions:
REMARK  status: ('A' for Active; 'I' for Inactive)
REMARK    1  A    between atoms: C3_4  and  O_7 
ROOT
ATOM      1  C   UNL d   1      -4.920  -4.722   5.975  0.00  0.00    -0.033 A 
ATOM      2  C1  UNL d   1      -4.335  -3.896   5.013  0.00  0.00     0.039 A 
ATOM      3  C2  UNL d   1      -4.577  -4.122   3.656  0.00  0.00    -0.080 A 
ATOM      4  C3  UNL d   1      -5.405  -5.174   3.276  0.00  0.00     0.150 A 
ATOM      5  C4  UNL d   1      -5.994  -5.999   4.229  0.00  0.00    -0.007 A 
ATOM      6  C5  UNL d   1      -5.750  -5.773   5.583  0.00  0.00     0.039 A 
ENDROOT
BRANCH   4   7
ATOM      7  O   UNL d   1      -5.666  -5.436   1.964  0.00  0.00    -0.526 OA
ATOM      8  H5  UNL d   1      -5.169  -4.804   1.418  0.00  0.00     0.418 HD
ENDBRANCH   4   7
TORSDOF 1
ENDMDL
