MODEL 1
REMARK minimizedAffinity 8.29121017
REMARK minimizedRMSD -1
REMARK  1 active torsions:
REMARK  status: ('A' for Active; 'I' for Inactive)
REMARK    1  A    between atoms: C3_4  and  O_7 
ROOT
ATOM      1  C   UNL d   1      -2.334  -0.532   0.910  0.00  0.00    -0.033 A 
ATOM      2  C1  UNL d   1      -2.029  -1.673   1.654  0.00  0.00     0.039 A 
ATOM      3  C2  UNL d   1      -1.887  -1.587   3.040  0.00  0.00    -0.080 A 
ATOM      4  C3  UNL d   1      -2.053  -0.356   3.669  0.00  0.00     0.150 A 
ATOM      5  C4  UNL d   1      -2.361   0.784   2.934  0.00  0.00    -0.007 A 
ATOM      6  C5  UNL d   1      -2.502   0.696   1.550  0.00  0.00     0.039 A 
ENDROOT
BRANCH   4   7
ATOM      7  O   UNL d   1      -1.920  -0.223   5.019  0.00  0.00    -0.526 OA
ATOM      8  H5  UNL d   1      -1.678  -1.087   5.392  0.00  0.00     0.418 HD
ENDBRANCH   4   7
TORSDOF 1
ENDMDL
