MODEL 1
REMARK minimizedAffinity 1.85266531
REMARK minimizedRMSD -1
REMARK  1 active torsions:
REMARK  status: ('A' for Active; 'I' for Inactive)
REMARK    1  A    between atoms: C3_4  and  O_7 
ROOT
ATOM      1  C   UNL d   1      -5.669  -4.989   6.000  0.00  0.00    -0.033 A 
ATOM      2  C1  UNL d   1      -4.771  -3.984   5.634  0.00  0.00     0.039 A 
ATOM      3  C2  UNL d   1      -4.198  -3.987   4.361  0.00  0.00    -0.080 A 
ATOM      4  C3  UNL d   1      -4.532  -4.998   3.464  0.00  0.00     0.150 A 
ATOM      5  C4  UNL d   1      -5.429  -6.000   3.820  0.00  0.00    -0.007 A 
ATOM      6  C5  UNL d   1      -5.999  -5.996   5.092  0.00  0.00     0.039 A 
ENDROOT
BRANCH   4   7
ATOM      7  O   UNL d   1      -3.995  -5.046   2.212  0.00  0.00    -0.526 OA
ATOM      8  H5  UNL d   1      -3.371  -4.307   2.116  0.00  0.00     0.418 HD
ENDBRANCH   4   7
TORSDOF 1
ENDMDL
