MODEL 1
REMARK minimizedAffinity 7.14277363
REMARK minimizedRMSD -1
REMARK  1 active torsions:
REMARK  status: ('A' for Active; 'I' for Inactive)
REMARK    1  A    between atoms: C3_4  and  O_7 
ROOT
ATOM      1  C   UNL d   1      -4.704  -4.243   2.449  0.00  0.00    -0.033 A 
ATOM      2  C1  UNL d   1      -5.524  -5.371   2.390  0.00  0.00     0.039 A 
ATOM      3  C2  UNL d   1      -5.970  -5.975   3.567  0.00  0.00    -0.080 A 
ATOM      4  C3  UNL d   1      -5.590  -5.441   4.796  0.00  0.00     0.150 A 
ATOM      5  C4  UNL d   1      -4.776  -4.315   4.862  0.00  0.00    -0.007 A 
ATOM      6  C5  UNL d   1      -4.331  -3.713   3.685  0.00  0.00     0.039 A 
ENDROOT
BRANCH   4   7
ATOM      7  O   UNL d   1      -5.996  -5.998   5.971  0.00  0.00    -0.526 OA
ATOM      8  H5  UNL d   1      -6.528  -6.786   5.771  0.00  0.00     0.418 HD
ENDBRANCH   4   7
TORSDOF 1
ENDMDL
