MODEL 1
REMARK minimizedAffinity 8.51355457
REMARK minimizedRMSD -1
REMARK  2 active torsions:
REMARK  status: ('A' for Active; 'I' for Inactive)
REMARK    1  A    between atoms: C1_2  and  C2_3 
REMARK    2  A    between atoms: C2_3  and  C3_4 
ROOT
ATOM      1  C3  UNL d   1      -1.405  -4.027  -5.936  0.00  0.00    -0.075 A 
ATOM      2  C4  UNL d   1      -1.591  -5.414  -5.854  0.00  0.00     0.002 A 
ATOM      3  C5  UNL d   1      -2.876  -5.957  -5.846  0.00  0.00     0.002 A 
ATOM      4  C6  UNL d   1      -3.989  -5.121  -5.909  0.00  0.00    -0.004 A 
ATOM      5  C7  UNL d   1      -3.816  -3.741  -5.974  0.00  0.00     0.002 A 
ATOM      6  C8  UNL d   1      -2.531  -3.195  -5.987  0.00  0.00     0.002 A 
ENDROOT
BRANCH   1   7
ATOM      7  C2  UNL d   1      -0.016  -3.434  -5.976  0.00  0.00     0.056 C 
BRANCH   7   8
ATOM      8  C1  UNL d   1       0.936  -4.005  -4.919  0.00  0.00     0.007 C 
ATOM      9  C   UNL d   1       2.155  -4.693  -5.519  0.00  0.00     0.009 C 
ENDBRANCH   7   8
ENDBRANCH   1   7
TORSDOF 2
ENDMDL
