MODEL 1
REMARK minimizedAffinity 9.12741756
REMARK minimizedRMSD -1
REMARK  2 active torsions:
REMARK  status: ('A' for Active; 'I' for Inactive)
REMARK    1  A    between atoms: C1_2  and  C2_3 
REMARK    2  A    between atoms: C2_3  and  C3_4 
ROOT
ATOM      1  C3  UNL d   1      -1.370   3.236  -2.522  0.00  0.00    -0.075 A 
ATOM      2  C4  UNL d   1      -1.596   4.442  -3.202  0.00  0.00     0.002 A 
ATOM      3  C5  UNL d   1      -2.735   4.608  -3.990  0.00  0.00     0.002 A 
ATOM      4  C6  UNL d   1      -3.656   3.571  -4.117  0.00  0.00    -0.004 A 
ATOM      5  C7  UNL d   1      -3.433   2.363  -3.460  0.00  0.00     0.002 A 
ATOM      6  C8  UNL d   1      -2.297   2.195  -2.667  0.00  0.00     0.002 A 
ENDROOT
BRANCH   1   7
ATOM      7  C2  UNL d   1      -0.155   3.060  -1.644  0.00  0.00     0.056 C 
BRANCH   7   8
ATOM      8  C1  UNL d   1      -0.418   3.314  -0.156  0.00  0.00     0.007 C 
ATOM      9  C   UNL d   1      -0.657   2.036   0.638  0.00  0.00     0.009 C 
ENDBRANCH   7   8
ENDBRANCH   1   7
TORSDOF 2
ENDMDL
