MODEL 1
REMARK minimizedAffinity 6.09088039
REMARK minimizedRMSD -1
REMARK  2 active torsions:
REMARK  status: ('A' for Active; 'I' for Inactive)
REMARK    1  A    between atoms: C1_2  and  C2_3 
REMARK    2  A    between atoms: C2_3  and  C3_4 
ROOT
ATOM      1  C3  UNL d   1       4.577  -3.486  -0.749  0.00  0.00    -0.075 A 
ATOM      2  C4  UNL d   1       4.457  -2.138  -1.114  0.00  0.00     0.002 A 
ATOM      3  C5  UNL d   1       3.332  -1.401  -0.744  0.00  0.00     0.002 A 
ATOM      4  C6  UNL d   1       2.310  -2.004  -0.015  0.00  0.00    -0.004 A 
ATOM      5  C7  UNL d   1       2.411  -3.347   0.339  0.00  0.00     0.002 A 
ATOM      6  C8  UNL d   1       3.537  -4.086  -0.026  0.00  0.00     0.002 A 
ENDROOT
BRANCH   1   7
ATOM      7  C2  UNL d   1       5.806  -4.281  -1.122  0.00  0.00     0.056 C 
BRANCH   7   8
ATOM      8  C1  UNL d   1       5.735  -5.760  -0.727  0.00  0.00     0.007 C 
ATOM      9  C   UNL d   1       6.000  -5.999   0.754  0.00  0.00     0.009 C 
ENDBRANCH   7   8
ENDBRANCH   1   7
TORSDOF 2
ENDMDL
