MODEL 1
REMARK minimizedAffinity 9.73740673
REMARK minimizedRMSD -1
REMARK  2 active torsions:
REMARK  status: ('A' for Active; 'I' for Inactive)
REMARK    1  A    between atoms: C1_2  and  C2_3 
REMARK    2  A    between atoms: C2_3  and  C3_4 
ROOT
ATOM      1  C3  UNL d   1      -2.973   2.297  -2.805  0.00  0.00    -0.075 A 
ATOM      2  C4  UNL d   1      -1.636   2.345  -2.383  0.00  0.00     0.002 A 
ATOM      3  C5  UNL d   1      -0.887   3.512  -2.532  0.00  0.00     0.002 A 
ATOM      4  C6  UNL d   1      -1.460   4.641  -3.114  0.00  0.00    -0.004 A 
ATOM      5  C7  UNL d   1      -2.782   4.600  -3.552  0.00  0.00     0.002 A 
ATOM      6  C8  UNL d   1      -3.535   3.435  -3.399  0.00  0.00     0.002 A 
ENDROOT
BRANCH   1   7
ATOM      7  C2  UNL d   1      -3.798   1.046  -2.619  0.00  0.00     0.056 C 
BRANCH   7   8
ATOM      8  C1  UNL d   1      -4.631   1.034  -1.333  0.00  0.00     0.007 C 
ATOM      9  C   UNL d   1      -3.919   0.369  -0.163  0.00  0.00     0.009 C 
ENDBRANCH   7   8
ENDBRANCH   1   7
TORSDOF 2
ENDMDL
