MODEL 1
REMARK minimizedAffinity 0.947956622
REMARK minimizedRMSD -1
REMARK  2 active torsions:
REMARK  status: ('A' for Active; 'I' for Inactive)
REMARK    1  A    between atoms: C1_2  and  C2_3 
REMARK    2  A    between atoms: C2_3  and  C3_4 
ROOT
ATOM      1  C3  UNL d   1      -5.068  -0.692   2.620  0.00  0.00    -0.075 A 
ATOM      2  C4  UNL d   1      -4.134  -1.737   2.663  0.00  0.00     0.002 A 
ATOM      3  C5  UNL d   1      -4.144  -2.653   3.716  0.00  0.00     0.002 A 
ATOM      4  C6  UNL d   1      -5.078  -2.529   4.742  0.00  0.00    -0.004 A 
ATOM      5  C7  UNL d   1      -6.000  -1.485   4.718  0.00  0.00     0.002 A 
ATOM      6  C8  UNL d   1      -5.996  -0.570   3.663  0.00  0.00     0.002 A 
ENDROOT
BRANCH   1   7
ATOM      7  C2  UNL d   1      -5.082   0.284   1.468  0.00  0.00     0.056 C 
BRANCH   7   8
ATOM      8  C1  UNL d   1      -4.035  -0.009   0.389  0.00  0.00     0.007 C 
ATOM      9  C   UNL d   1      -4.494   0.370  -1.013  0.00  0.00     0.009 C 
ENDBRANCH   7   8
ENDBRANCH   1   7
TORSDOF 2
ENDMDL
