MODEL 1
REMARK minimizedAffinity 6.92379141
REMARK minimizedRMSD -1
REMARK  2 active torsions:
REMARK  status: ('A' for Active; 'I' for Inactive)
REMARK    1  A    between atoms: C1_2  and  C2_3 
REMARK    2  A    between atoms: C2_3  and  C3_4 
ROOT
ATOM      1  C3  UNL d   1      -3.440  -4.584  -5.307  0.00  0.00    -0.075 A 
ATOM      2  C4  UNL d   1      -2.575  -5.443  -6.000  0.00  0.00     0.002 A 
ATOM      3  C5  UNL d   1      -1.422  -5.933  -5.386  0.00  0.00     0.002 A 
ATOM      4  C6  UNL d   1      -1.114  -5.563  -4.078  0.00  0.00    -0.004 A 
ATOM      5  C7  UNL d   1      -1.958  -4.697  -3.386  0.00  0.00     0.002 A 
ATOM      6  C8  UNL d   1      -3.115  -4.209  -3.996  0.00  0.00     0.002 A 
ENDROOT
BRANCH   1   7
ATOM      7  C2  UNL d   1      -4.705  -4.074  -5.955  0.00  0.00     0.056 C 
BRANCH   7   8
ATOM      8  C1  UNL d   1      -5.935  -4.952  -5.699  0.00  0.00     0.007 C 
ATOM      9  C   UNL d   1      -5.737  -5.946  -4.562  0.00  0.00     0.009 C 
ENDBRANCH   7   8
ENDBRANCH   1   7
TORSDOF 2
ENDMDL
