MODEL 1
REMARK minimizedAffinity 5.37861013
REMARK minimizedRMSD -1
REMARK  2 active torsions:
REMARK  status: ('A' for Active; 'I' for Inactive)
REMARK    1  A    between atoms: C1_2  and  C2_3 
REMARK    2  A    between atoms: C2_3  and  C3_4 
ROOT
ATOM      1  C3  UNL d   1      -2.718   5.236  -4.393  0.00  0.00    -0.075 A 
ATOM      2  C4  UNL d   1      -1.851   5.618  -3.359  0.00  0.00     0.002 A 
ATOM      3  C5  UNL d   1      -0.535   5.988  -3.638  0.00  0.00     0.002 A 
ATOM      4  C6  UNL d   1      -0.067   5.971  -4.950  0.00  0.00    -0.004 A 
ATOM      5  C7  UNL d   1      -0.914   5.577  -5.983  0.00  0.00     0.002 A 
ATOM      6  C8  UNL d   1      -2.233   5.210  -5.707  0.00  0.00     0.002 A 
ENDROOT
BRANCH   1   7
ATOM      7  C2  UNL d   1      -4.152   4.862  -4.101  0.00  0.00     0.056 C 
BRANCH   7   8
ATOM      8  C1  UNL d   1      -4.924   4.350  -5.321  0.00  0.00     0.007 C 
ATOM      9  C   UNL d   1      -4.563   2.920  -5.703  0.00  0.00     0.009 C 
ENDBRANCH   7   8
ENDBRANCH   1   7
TORSDOF 2
ENDMDL
