MODEL 1
REMARK minimizedAffinity -4.4389925
REMARK minimizedRMSD -1
REMARK  0 active torsions:
REMARK  status: ('A' for Active; 'I' for Inactive)
ROOT
ATOM      1  O1  BZF d   1       0.765   0.679  -1.437  0.00  0.00    -0.204 OA
ATOM      2  C2  BZF d   1       0.371  -0.565  -0.982  0.00  0.00     0.174 A 
ATOM      3  C3  BZF d   1      -0.388  -0.450   0.127  0.00  0.00    -0.012 A 
ATOM      4  C3A BZF d   1      -0.550   0.958   0.328  0.00  0.00    -0.107 A 
ATOM      5  C4  BZF d   1      -1.216   1.703   1.258  0.00  0.00     0.055 A 
ATOM      6  C5  BZF d   1      -1.114   3.057   1.216  0.00  0.00    -0.016 A 
ATOM      7  C6  BZF d   1      -0.353   3.699   0.261  0.00  0.00     0.022 A 
ATOM      8  C7  BZF d   1       0.322   3.002  -0.686  0.00  0.00     0.029 A 
ATOM      9  C7A BZF d   1       0.195   1.635  -0.666  0.00  0.00     0.058 A 
ENDROOT
TORSDOF 0
ENDMDL
