MODEL 1
REMARK minimizedAffinity -4.47927523
REMARK minimizedRMSD -1
REMARK  0 active torsions:
REMARK  status: ('A' for Active; 'I' for Inactive)
ROOT
ATOM      1  O1  BZF d   1      -0.687   3.056   0.417  0.00  0.00    -0.204 OA
ATOM      2  C2  BZF d   1       0.390   3.646  -0.217  0.00  0.00     0.174 A 
ATOM      3  C3  BZF d   1       1.275   2.713  -0.625  0.00  0.00    -0.012 A 
ATOM      4  C3A BZF d   1       0.671   1.456  -0.303  0.00  0.00    -0.107 A 
ATOM      5  C4  BZF d   1       1.057   0.158  -0.477  0.00  0.00     0.055 A 
ATOM      6  C5  BZF d   1       0.272  -0.836   0.015  0.00  0.00    -0.016 A 
ATOM      7  C6  BZF d   1      -0.900  -0.568   0.690  0.00  0.00     0.022 A 
ATOM      8  C7  BZF d   1      -1.327   0.704   0.883  0.00  0.00     0.029 A 
ATOM      9  C7A BZF d   1      -0.553   1.709   0.358  0.00  0.00     0.058 A 
ENDROOT
TORSDOF 0
ENDMDL
