MODEL 1
REMARK minimizedAffinity -0.804577589
REMARK minimizedRMSD -1
REMARK  0 active torsions:
REMARK  status: ('A' for Active; 'I' for Inactive)
ROOT
ATOM      1  O1  BZF d   1       0.637  -0.469   0.610  0.00  0.00    -0.204 OA
ATOM      2  C2  BZF d   1       1.864  -0.235   0.019  0.00  0.00     0.174 A 
ATOM      3  C3  BZF d   1       1.921   1.015  -0.485  0.00  0.00    -0.012 A 
ATOM      4  C3A BZF d   1       0.684   1.629  -0.110  0.00  0.00    -0.107 A 
ATOM      5  C4  BZF d   1       0.156   2.873  -0.307  0.00  0.00     0.055 A 
ATOM      6  C5  BZF d   1      -1.107   3.130   0.124  0.00  0.00    -0.016 A 
ATOM      7  C6  BZF d   1      -1.871   2.166   0.749  0.00  0.00     0.022 A 
ATOM      8  C7  BZF d   1      -1.388   0.919   0.971  0.00  0.00     0.029 A 
ATOM      9  C7A BZF d   1      -0.100   0.666   0.567  0.00  0.00     0.058 A 
ENDROOT
TORSDOF 0
ENDMDL
