MODEL 1
REMARK minimizedAffinity -3.67030883
REMARK minimizedRMSD -1
REMARK  0 active torsions:
REMARK  status: ('A' for Active; 'I' for Inactive)
ROOT
ATOM      1  O1  BZF d   1      -1.350   1.243   0.441  0.00  0.00    -0.204 OA
ATOM      2  C2  BZF d   1      -0.960   2.566   0.511  0.00  0.00     0.174 A 
ATOM      3  C3  BZF d   1       0.383   2.668   0.560  0.00  0.00    -0.012 A 
ATOM      4  C3A BZF d   1       0.867   1.328   0.425  0.00  0.00    -0.107 A 
ATOM      5  C4  BZF d   1       2.118   0.781   0.384  0.00  0.00     0.055 A 
ATOM      6  C5  BZF d   1       2.246  -0.570   0.318  0.00  0.00    -0.016 A 
ATOM      7  C6  BZF d   1       1.147  -1.403   0.296  0.00  0.00     0.022 A 
ATOM      8  C7  BZF d   1      -0.114  -0.907   0.329  0.00  0.00     0.029 A 
ATOM      9  C7A BZF d   1      -0.247   0.460   0.363  0.00  0.00     0.058 A 
ENDROOT
TORSDOF 0
ENDMDL
