MODEL 1
REMARK minimizedAffinity -2.34120083
REMARK minimizedRMSD -1
REMARK  0 active torsions:
REMARK  status: ('A' for Active; 'I' for Inactive)
ROOT
ATOM      1  O1  BZF d   1      -1.544   0.412   0.798  0.00  0.00    -0.204 OA
ATOM      2  C2  BZF d   1      -1.504   1.784   0.953  0.00  0.00     0.174 A 
ATOM      3  C3  BZF d   1      -0.287   2.267   0.630  0.00  0.00    -0.012 A 
ATOM      4  C3A BZF d   1       0.454   1.137   0.160  0.00  0.00    -0.107 A 
ATOM      5  C4  BZF d   1       1.722   0.979  -0.320  0.00  0.00     0.055 A 
ATOM      6  C5  BZF d   1       2.163  -0.270  -0.624  0.00  0.00    -0.016 A 
ATOM      7  C6  BZF d   1       1.365  -1.382  -0.457  0.00  0.00     0.022 A 
ATOM      8  C7  BZF d   1       0.097  -1.276   0.011  0.00  0.00     0.029 A 
ATOM      9  C7A BZF d   1      -0.362  -0.011   0.289  0.00  0.00     0.058 A 
ENDROOT
TORSDOF 0
ENDMDL
