MODEL 1
REMARK minimizedAffinity -3.78008938
REMARK minimizedRMSD -1
REMARK  0 active torsions:
REMARK  status: ('A' for Active; 'I' for Inactive)
ROOT
ATOM      1  O1  BZF d   1       0.788  -0.623  -0.992  0.00  0.00    -0.204 OA
ATOM      2  C2  BZF d   1       0.208  -1.778  -0.505  0.00  0.00     0.174 A 
ATOM      3  C3  BZF d   1      -0.706  -1.491   0.444  0.00  0.00    -0.012 A 
ATOM      4  C3A BZF d   1      -0.762  -0.062   0.493  0.00  0.00    -0.107 A 
ATOM      5  C4  BZF d   1      -1.495   0.825   1.229  0.00  0.00     0.055 A 
ATOM      6  C5  BZF d   1      -1.258   2.155   1.088  0.00  0.00    -0.016 A 
ATOM      7  C6  BZF d   1      -0.293   2.633   0.225  0.00  0.00     0.022 A 
ATOM      8  C7  BZF d   1       0.455   1.793  -0.530  0.00  0.00     0.029 A 
ATOM      9  C7A BZF d   1       0.196   0.449  -0.414  0.00  0.00     0.058 A 
ENDROOT
TORSDOF 0
ENDMDL
