MODEL 1
REMARK minimizedAffinity -2.42477703
REMARK minimizedRMSD -1
REMARK  0 active torsions:
REMARK  status: ('A' for Active; 'I' for Inactive)
ROOT
ATOM      1  O1  BZF d   1      -1.833  -6.000  -1.461  0.00  0.00    -0.204 OA
ATOM      2  C2  BZF d   1      -2.796  -5.319  -0.741  0.00  0.00     0.174 A 
ATOM      3  C3  BZF d   1      -2.659  -3.987  -0.900  0.00  0.00    -0.012 A 
ATOM      4  C3A BZF d   1      -1.598  -3.827  -1.846  0.00  0.00    -0.107 A 
ATOM      5  C4  BZF d   1      -1.008  -2.738  -2.420  0.00  0.00     0.055 A 
ATOM      6  C5  BZF d   1       0.053  -2.922  -3.249  0.00  0.00    -0.016 A 
ATOM      7  C6  BZF d   1       0.551  -4.179  -3.523  0.00  0.00     0.022 A 
ATOM      8  C7  BZF d   1      -0.005  -5.290  -2.982  0.00  0.00     0.029 A 
ATOM      9  C7A BZF d   1      -1.097  -5.110  -2.169  0.00  0.00     0.058 A 
ENDROOT
TORSDOF 0
ENDMDL
