MODEL 1
REMARK minimizedAffinity 11.2017975
REMARK minimizedRMSD -1
REMARK  0 active torsions:
REMARK  status: ('A' for Active; 'I' for Inactive)
ROOT
ATOM      1  O1  BZF d   1       5.433   2.588  -6.000  0.00  0.00    -0.204 OA
ATOM      2  C2  BZF d   1       5.999   3.811  -5.695  0.00  0.00     0.174 A 
ATOM      3  C3  BZF d   1       5.197   4.517  -4.872  0.00  0.00    -0.012 A 
ATOM      4  C3A BZF d   1       4.102   3.647  -4.575  0.00  0.00    -0.107 A 
ATOM      5  C4  BZF d   1       2.986   3.773  -3.797  0.00  0.00     0.055 A 
ATOM      6  C5  BZF d   1       2.076   2.764  -3.779  0.00  0.00    -0.016 A 
ATOM      7  C6  BZF d   1       2.246   1.619  -4.529  0.00  0.00     0.022 A 
ATOM      8  C7  BZF d   1       3.339   1.446  -5.312  0.00  0.00     0.029 A 
ATOM      9  C7A BZF d   1       4.277   2.449  -5.307  0.00  0.00     0.058 A 
ENDROOT
TORSDOF 0
ENDMDL
