MODEL 1
REMARK minimizedAffinity -0.842750371
REMARK minimizedRMSD -1
REMARK  0 active torsions:
REMARK  status: ('A' for Active; 'I' for Inactive)
ROOT
ATOM      1  O1  BZF d   1       3.601   4.879  -3.380  0.00  0.00    -0.204 OA
ATOM      2  C2  BZF d   1       2.254   4.806  -3.677  0.00  0.00     0.174 A 
ATOM      3  C3  BZF d   1       2.034   3.954  -4.698  0.00  0.00    -0.012 A 
ATOM      4  C3A BZF d   1       3.314   3.392  -5.001  0.00  0.00    -0.107 A 
ATOM      5  C4  BZF d   1       3.743   2.469  -5.912  0.00  0.00     0.055 A 
ATOM      6  C5  BZF d   1       5.071   2.195  -6.000  0.00  0.00    -0.016 A 
ATOM      7  C6  BZF d   1       5.998   2.828  -5.198  0.00  0.00     0.022 A 
ATOM      8  C7  BZF d   1       5.620   3.747  -4.276  0.00  0.00     0.029 A 
ATOM      9  C7A BZF d   1       4.275   4.002  -4.162  0.00  0.00     0.058 A 
ENDROOT
TORSDOF 0
ENDMDL
