MODEL 1
REMARK minimizedAffinity -3.38892531
REMARK minimizedRMSD -1
REMARK  0 active torsions:
REMARK  status: ('A' for Active; 'I' for Inactive)
ROOT
ATOM      1  O1  BZF d   1       0.955   0.005  -1.033  0.00  0.00    -0.204 OA
ATOM      2  C2  BZF d   1       0.327  -1.176  -0.686  0.00  0.00     0.174 A 
ATOM      3  C3  BZF d   1      -0.675  -0.946   0.187  0.00  0.00    -0.012 A 
ATOM      4  C3A BZF d   1      -0.733   0.477   0.327  0.00  0.00    -0.107 A 
ATOM      5  C4  BZF d   1      -1.534   1.317   1.046  0.00  0.00     0.055 A 
ATOM      6  C5  BZF d   1      -1.282   2.653   1.020  0.00  0.00    -0.016 A 
ATOM      7  C6  BZF d   1      -0.237   3.180   0.291  0.00  0.00     0.022 A 
ATOM      8  C7  BZF d   1       0.581   2.387  -0.442  0.00  0.00     0.029 A 
ATOM      9  C7A BZF d   1       0.309   1.040  -0.444  0.00  0.00     0.058 A 
ENDROOT
TORSDOF 0
ENDMDL
