MODEL 1
REMARK minimizedAffinity -2.91298795
REMARK minimizedRMSD -1
REMARK  0 active torsions:
REMARK  status: ('A' for Active; 'I' for Inactive)
ROOT
ATOM      1  O1  BZF d   1       0.993  -0.735  -0.714  0.00  0.00    -0.204 OA
ATOM      2  C2  BZF d   1       0.229  -1.844  -0.407  0.00  0.00     0.174 A 
ATOM      3  C3  BZF d   1      -0.902  -1.483   0.235  0.00  0.00    -0.012 A 
ATOM      4  C3A BZF d   1      -0.884  -0.052   0.252  0.00  0.00    -0.107 A 
ATOM      5  C4  BZF d   1      -1.744   0.891   0.736  0.00  0.00     0.055 A 
ATOM      6  C5  BZF d   1      -1.398   2.203   0.658  0.00  0.00    -0.016 A 
ATOM      7  C6  BZF d   1      -0.199   2.606   0.108  0.00  0.00     0.022 A 
ATOM      8  C7  BZF d   1       0.685   1.707  -0.390  0.00  0.00     0.029 A 
ATOM      9  C7A BZF d   1       0.323   0.382  -0.342  0.00  0.00     0.058 A 
ENDROOT
TORSDOF 0
ENDMDL
