MODEL 1
REMARK minimizedAffinity -2.65177965
REMARK minimizedRMSD -1
REMARK  0 active torsions:
REMARK  status: ('A' for Active; 'I' for Inactive)
ROOT
ATOM      1  O1  BZF d   1      -0.837  -1.481   0.048  0.00  0.00    -0.204 OA
ATOM      2  C2  BZF d   1       0.172  -2.424   0.084  0.00  0.00     0.174 A 
ATOM      3  C3  BZF d   1       1.377  -1.843  -0.084  0.00  0.00    -0.012 A 
ATOM      4  C3A BZF d   1       1.112  -0.438  -0.141  0.00  0.00    -0.107 A 
ATOM      5  C4  BZF d   1       1.908   0.663  -0.281  0.00  0.00     0.055 A 
ATOM      6  C5  BZF d   1       1.330   1.889  -0.373  0.00  0.00    -0.016 A 
ATOM      7  C6  BZF d   1      -0.040   2.051  -0.335  0.00  0.00     0.022 A 
ATOM      8  C7  BZF d   1      -0.870   0.989  -0.192  0.00  0.00     0.029 A 
ATOM      9  C7A BZF d   1      -0.287  -0.248  -0.065  0.00  0.00     0.058 A 
ENDROOT
TORSDOF 0
ENDMDL
