MODEL 1
REMARK minimizedAffinity -3.62519097
REMARK minimizedRMSD -1
REMARK  0 active torsions:
REMARK  status: ('A' for Active; 'I' for Inactive)
ROOT
ATOM      1  O1  BZF d   1      -1.037  -2.041  -2.334  0.00  0.00    -0.204 OA
ATOM      2  C2  BZF d   1      -1.066  -3.420  -2.265  0.00  0.00     0.174 A 
ATOM      3  C3  BZF d   1      -0.264  -3.866  -1.277  0.00  0.00    -0.012 A 
ATOM      4  C3A BZF d   1       0.231  -2.689  -0.633  0.00  0.00    -0.107 A 
ATOM      5  C4  BZF d   1       1.062  -2.479   0.431  0.00  0.00     0.055 A 
ATOM      6  C5  BZF d   1       1.404  -1.205   0.760  0.00  0.00    -0.016 A 
ATOM      7  C6  BZF d   1       0.938  -0.120   0.047  0.00  0.00     0.022 A 
ATOM      8  C7  BZF d   1       0.107  -0.279  -1.013  0.00  0.00     0.029 A 
ATOM      9  C7A BZF d   1      -0.266  -1.562  -1.328  0.00  0.00     0.058 A 
ENDROOT
TORSDOF 0
ENDMDL
