MODEL 1
REMARK minimizedAffinity -3.38006592
REMARK minimizedRMSD -1
REMARK  0 active torsions:
REMARK  status: ('A' for Active; 'I' for Inactive)
ROOT
ATOM      1  O1  BZF d   1       0.683   0.207   0.506  0.00  0.00    -0.204 OA
ATOM      2  C2  BZF d   1       0.195  -1.043   0.178  0.00  0.00     0.174 A 
ATOM      3  C3  BZF d   1      -1.154  -1.053   0.210  0.00  0.00    -0.012 A 
ATOM      4  C3A BZF d   1      -1.534   0.297   0.490  0.00  0.00    -0.107 A 
ATOM      5  C4  BZF d   1      -2.739   0.923   0.631  0.00  0.00     0.055 A 
ATOM      6  C5  BZF d   1      -2.764   2.237   0.977  0.00  0.00    -0.016 A 
ATOM      7  C6  BZF d   1      -1.605   2.953   1.194  0.00  0.00     0.022 A 
ATOM      8  C7  BZF d   1      -0.386   2.377   1.062  0.00  0.00     0.029 A 
ATOM      9  C7A BZF d   1      -0.357   1.057   0.680  0.00  0.00     0.058 A 
ENDROOT
TORSDOF 0
ENDMDL
