MODEL 1
REMARK minimizedAffinity -4.09814739
REMARK minimizedRMSD -1
REMARK  0 active torsions:
REMARK  status: ('A' for Active; 'I' for Inactive)
ROOT
ATOM      1  O1  BZF d   1       1.297  -0.943  -0.084  0.00  0.00    -0.204 OA
ATOM      2  C2  BZF d   1       0.333  -1.917  -0.255  0.00  0.00     0.174 A 
ATOM      3  C3  BZF d   1      -0.904  -1.387  -0.170  0.00  0.00    -0.012 A 
ATOM      4  C3A BZF d   1      -0.700   0.022  -0.023  0.00  0.00    -0.107 A 
ATOM      5  C4  BZF d   1      -1.548   1.086   0.096  0.00  0.00     0.055 A 
ATOM      6  C5  BZF d   1      -1.028   2.325   0.298  0.00  0.00    -0.016 A 
ATOM      7  C6  BZF d   1       0.332   2.536   0.391  0.00  0.00     0.022 A 
ATOM      8  C7  BZF d   1       1.213   1.512   0.274  0.00  0.00     0.029 A 
ATOM      9  C7A BZF d   1       0.692   0.263   0.037  0.00  0.00     0.058 A 
ENDROOT
TORSDOF 0
ENDMDL
