MODEL 1
REMARK minimizedAffinity -0.598648846
REMARK minimizedRMSD -1
REMARK  0 active torsions:
REMARK  status: ('A' for Active; 'I' for Inactive)
ROOT
ATOM      1  O1  BZF d   1       0.793  -1.125   0.551  0.00  0.00    -0.204 OA
ATOM      2  C2  BZF d   1      -0.230  -0.198   0.578  0.00  0.00     0.174 A 
ATOM      3  C3  BZF d   1      -1.133  -0.452  -0.391  0.00  0.00    -0.012 A 
ATOM      4  C3A BZF d   1      -0.691  -1.666  -1.007  0.00  0.00    -0.107 A 
ATOM      5  C4  BZF d   1      -1.180  -2.435  -2.024  0.00  0.00     0.055 A 
ATOM      6  C5  BZF d   1      -0.471  -3.520  -2.432  0.00  0.00    -0.016 A 
ATOM      7  C6  BZF d   1       0.733  -3.861  -1.851  0.00  0.00     0.022 A 
ATOM      8  C7  BZF d   1       1.256  -3.132  -0.835  0.00  0.00     0.029 A 
ATOM      9  C7A BZF d   1       0.525  -2.054  -0.398  0.00  0.00     0.058 A 
ENDROOT
TORSDOF 0
ENDMDL
