MODEL 1
REMARK minimizedAffinity -3.38611174
REMARK minimizedRMSD -1
REMARK  0 active torsions:
REMARK  status: ('A' for Active; 'I' for Inactive)
ROOT
ATOM      1  O1  BZF d   1       2.507   0.862  -0.457  0.00  0.00    -0.204 OA
ATOM      2  C2  BZF d   1       2.209   2.208  -0.542  0.00  0.00     0.174 A 
ATOM      3  C3  BZF d   1       0.889   2.418  -0.362  0.00  0.00    -0.012 A 
ATOM      4  C3A BZF d   1       0.341   1.131  -0.059  0.00  0.00    -0.107 A 
ATOM      5  C4  BZF d   1      -0.918   0.692   0.234  0.00  0.00     0.055 A 
ATOM      6  C5  BZF d   1      -1.130  -0.639   0.407  0.00  0.00    -0.016 A 
ATOM      7  C6  BZF d   1      -0.108  -1.558   0.290  0.00  0.00     0.022 A 
ATOM      8  C7  BZF d   1       1.159  -1.170   0.006  0.00  0.00     0.029 A 
ATOM      9  C7A BZF d   1       1.382   0.178  -0.138  0.00  0.00     0.058 A 
ENDROOT
TORSDOF 0
ENDMDL
