MODEL 1
REMARK minimizedAffinity -3.37138867
REMARK minimizedRMSD -1
REMARK  0 active torsions:
REMARK  status: ('A' for Active; 'I' for Inactive)
ROOT
ATOM      1  O1  BZF d   1      -0.865  -0.327   0.932  0.00  0.00    -0.204 OA
ATOM      2  C2  BZF d   1      -0.217  -1.286   0.178  0.00  0.00     0.174 A 
ATOM      3  C3  BZF d   1       0.578  -0.711  -0.747  0.00  0.00    -0.012 A 
ATOM      4  C3A BZF d   1       0.487   0.695  -0.499  0.00  0.00    -0.107 A 
ATOM      5  C4  BZF d   1       1.062   1.790  -1.079  0.00  0.00     0.055 A 
ATOM      6  C5  BZF d   1       0.707   3.029  -0.647  0.00  0.00    -0.016 A 
ATOM      7  C6  BZF d   1      -0.222   3.210   0.357  0.00  0.00     0.022 A 
ATOM      8  C7  BZF d   1      -0.815   2.154   0.965  0.00  0.00     0.029 A 
ATOM      9  C7A BZF d   1      -0.434   0.900   0.554  0.00  0.00     0.058 A 
ENDROOT
TORSDOF 0
ENDMDL
