MODEL 1
REMARK minimizedAffinity -3.98282576
REMARK minimizedRMSD -1
REMARK  0 active torsions:
REMARK  status: ('A' for Active; 'I' for Inactive)
ROOT
ATOM      1  C   UNL d   1      -2.623   2.221   2.927  0.00  0.00     0.078 C 
ATOM      2  C1  UNL d   1      -1.503   1.568   2.172  0.00  0.00    -0.077 A 
ATOM      3  C2  UNL d   1      -0.483   2.332   1.593  0.00  0.00    -0.001 A 
ATOM      4  C3  UNL d   1       0.548   1.712   0.885  0.00  0.00     0.003 A 
ATOM      5  C4  UNL d   1       0.567   0.325   0.749  0.00  0.00    -0.005 A 
ATOM      6  C5  UNL d   1      -0.445  -0.443   1.320  0.00  0.00     0.003 A 
ATOM      7  C6  UNL d   1      -1.476   0.176   2.029  0.00  0.00    -0.001 A 
ENDROOT
TORSDOF 0
ENDMDL
