MODEL 1
REMARK minimizedAffinity 1.65383291
REMARK minimizedRMSD -1
REMARK  0 active torsions:
REMARK  status: ('A' for Active; 'I' for Inactive)
ROOT
ATOM      1  C   UNL d   1      -0.753   2.254   1.313  0.00  0.00     0.078 C 
ATOM      2  C1  UNL d   1      -1.792   1.494   2.081  0.00  0.00    -0.077 A 
ATOM      3  C2  UNL d   1      -1.708   0.104   2.227  0.00  0.00    -0.001 A 
ATOM      4  C3  UNL d   1      -2.687  -0.592   2.937  0.00  0.00     0.003 A 
ATOM      5  C4  UNL d   1      -3.760   0.093   3.505  0.00  0.00    -0.005 A 
ATOM      6  C5  UNL d   1      -3.853   1.476   3.363  0.00  0.00     0.003 A 
ATOM      7  C6  UNL d   1      -2.874   2.174   2.654  0.00  0.00    -0.001 A 
ENDROOT
TORSDOF 0
ENDMDL
