MODEL 1
REMARK minimizedAffinity -1.03651071
REMARK minimizedRMSD -1
REMARK  0 active torsions:
REMARK  status: ('A' for Active; 'I' for Inactive)
ROOT
ATOM      1  C   UNL d   1      -3.310   2.025   2.911  0.00  0.00     0.078 C 
ATOM      2  C1  UNL d   1      -2.099   1.479   2.216  0.00  0.00    -0.077 A 
ATOM      3  C2  UNL d   1      -1.977   0.111   1.946  0.00  0.00    -0.001 A 
ATOM      4  C3  UNL d   1      -0.840  -0.384   1.306  0.00  0.00     0.003 A 
ATOM      5  C4  UNL d   1       0.186   0.482   0.932  0.00  0.00    -0.005 A 
ATOM      6  C5  UNL d   1       0.074   1.845   1.198  0.00  0.00     0.003 A 
ATOM      7  C6  UNL d   1      -1.062   2.342   1.838  0.00  0.00    -0.001 A 
ENDROOT
TORSDOF 0
ENDMDL
