MODEL 1
REMARK minimizedAffinity -5.65703487
REMARK minimizedRMSD -1
REMARK  0 active torsions:
REMARK  status: ('A' for Active; 'I' for Inactive)
ROOT
ATOM      1  C   UNL d   1      -1.131  -1.203   1.268  0.00  0.00     0.078 C 
ATOM      2  C1  UNL d   1      -0.629   0.210   1.282  0.00  0.00    -0.077 A 
ATOM      3  C2  UNL d   1      -1.280   1.199   2.029  0.00  0.00    -0.001 A 
ATOM      4  C3  UNL d   1      -0.807   2.512   2.026  0.00  0.00     0.003 A 
ATOM      5  C4  UNL d   1       0.319   2.848   1.277  0.00  0.00    -0.005 A 
ATOM      6  C5  UNL d   1       0.972   1.871   0.529  0.00  0.00     0.003 A 
ATOM      7  C6  UNL d   1       0.501   0.558   0.531  0.00  0.00    -0.001 A 
ENDROOT
TORSDOF 0
ENDMDL
