MODEL 1
REMARK minimizedAffinity 3.78407359
REMARK minimizedRMSD -1
REMARK  0 active torsions:
REMARK  status: ('A' for Active; 'I' for Inactive)
ROOT
ATOM      1  C   UNL d   1      -3.522   2.358   3.242  0.00  0.00     0.078 C 
ATOM      2  C1  UNL d   1      -2.337   1.865   2.465  0.00  0.00    -0.077 A 
ATOM      3  C2  UNL d   1      -2.212   0.514   2.121  0.00  0.00    -0.001 A 
ATOM      4  C3  UNL d   1      -1.099   0.068   1.406  0.00  0.00     0.003 A 
ATOM      5  C4  UNL d   1      -0.103   0.966   1.030  0.00  0.00    -0.005 A 
ATOM      6  C5  UNL d   1      -0.218   2.313   1.371  0.00  0.00     0.003 A 
ATOM      7  C6  UNL d   1      -1.330   2.760   2.086  0.00  0.00    -0.001 A 
ENDROOT
TORSDOF 0
ENDMDL
