MODEL 1
REMARK minimizedAffinity 5.5605154
REMARK minimizedRMSD -1
REMARK  0 active torsions:
REMARK  status: ('A' for Active; 'I' for Inactive)
ROOT
ATOM      1  C   UNL d   1      -1.786   2.660   2.127  0.00  0.00     0.078 C 
ATOM      2  C1  UNL d   1      -2.853   1.844   2.794  0.00  0.00    -0.077 A 
ATOM      3  C2  UNL d   1      -2.878   0.449   2.670  0.00  0.00    -0.001 A 
ATOM      4  C3  UNL d   1      -3.882  -0.296   3.288  0.00  0.00     0.003 A 
ATOM      5  C4  UNL d   1      -4.871   0.343   4.034  0.00  0.00    -0.005 A 
ATOM      6  C5  UNL d   1      -4.856   1.731   4.160  0.00  0.00     0.003 A 
ATOM      7  C6  UNL d   1      -3.852   2.478   3.543  0.00  0.00    -0.001 A 
ENDROOT
TORSDOF 0
ENDMDL
