MODEL 1
REMARK minimizedAffinity -1.05049086
REMARK minimizedRMSD -1
REMARK  0 active torsions:
REMARK  status: ('A' for Active; 'I' for Inactive)
ROOT
ATOM      1  C   UNL d   1      -2.376   2.396   2.977  0.00  0.00     0.078 C 
ATOM      2  C1  UNL d   1      -1.405   1.674   2.091  0.00  0.00    -0.077 A 
ATOM      3  C2  UNL d   1      -0.737   2.342   1.057  0.00  0.00    -0.001 A 
ATOM      4  C3  UNL d   1       0.157   1.654   0.234  0.00  0.00     0.003 A 
ATOM      5  C4  UNL d   1       0.390   0.296   0.436  0.00  0.00    -0.005 A 
ATOM      6  C5  UNL d   1      -0.271  -0.378   1.461  0.00  0.00     0.003 A 
ATOM      7  C6  UNL d   1      -1.165   0.307   2.285  0.00  0.00    -0.001 A 
ENDROOT
TORSDOF 0
ENDMDL
