MODEL 1
REMARK minimizedAffinity -0.436988443
REMARK minimizedRMSD -1
REMARK  0 active torsions:
REMARK  status: ('A' for Active; 'I' for Inactive)
ROOT
ATOM      1  C   UNL d   1      -2.403   2.779   2.237  0.00  0.00     0.078 C 
ATOM      2  C1  UNL d   1      -1.344   1.798   1.831  0.00  0.00    -0.077 A 
ATOM      3  C2  UNL d   1      -1.463   0.438   2.143  0.00  0.00    -0.001 A 
ATOM      4  C3  UNL d   1      -0.464  -0.462   1.768  0.00  0.00     0.003 A 
ATOM      5  C4  UNL d   1       0.661  -0.013   1.080  0.00  0.00    -0.005 A 
ATOM      6  C5  UNL d   1       0.789   1.339   0.767  0.00  0.00     0.003 A 
ATOM      7  C6  UNL d   1      -0.208   2.241   1.141  0.00  0.00    -0.001 A 
ENDROOT
TORSDOF 0
ENDMDL
