MODEL 1
REMARK minimizedAffinity -6.4525156
REMARK minimizedRMSD -1
REMARK  0 active torsions:
REMARK  status: ('A' for Active; 'I' for Inactive)
ROOT
ATOM      1  C   UNL d   1       1.638   0.727   0.684  0.00  0.00     0.078 C 
ATOM      2  C1  UNL d   1       0.177   0.709   1.020  0.00  0.00    -0.077 A 
ATOM      3  C2  UNL d   1      -0.516  -0.500   1.163  0.00  0.00    -0.001 A 
ATOM      4  C3  UNL d   1      -1.878  -0.501   1.466  0.00  0.00     0.003 A 
ATOM      5  C4  UNL d   1      -2.560   0.703   1.627  0.00  0.00    -0.005 A 
ATOM      6  C5  UNL d   1      -1.880   1.911   1.485  0.00  0.00     0.003 A 
ATOM      7  C6  UNL d   1      -0.518   1.914   1.182  0.00  0.00    -0.001 A 
ENDROOT
TORSDOF 0
ENDMDL
