MODEL 1
REMARK minimizedAffinity -3.31227732
REMARK minimizedRMSD -1
REMARK  0 active torsions:
REMARK  status: ('A' for Active; 'I' for Inactive)
ROOT
ATOM      1  C   UNL d   1      -2.157   2.378   2.806  0.00  0.00     0.078 C 
ATOM      2  C1  UNL d   1      -1.051   1.714   2.043  0.00  0.00    -0.077 A 
ATOM      3  C2  UNL d   1      -1.293   0.575   1.265  0.00  0.00    -0.001 A 
ATOM      4  C3  UNL d   1      -0.252  -0.039   0.568  0.00  0.00     0.003 A 
ATOM      5  C4  UNL d   1       1.040   0.478   0.642  0.00  0.00    -0.005 A 
ATOM      6  C5  UNL d   1       1.292   1.610   1.415  0.00  0.00     0.003 A 
ATOM      7  C6  UNL d   1       0.251   2.225   2.113  0.00  0.00    -0.001 A 
ENDROOT
TORSDOF 0
ENDMDL
