MODEL 1
REMARK minimizedAffinity 4.43315506
REMARK minimizedRMSD -1
REMARK  0 active torsions:
REMARK  status: ('A' for Active; 'I' for Inactive)
ROOT
ATOM      1  C   UNL d   1      -4.070  -4.953  -0.438  0.00  0.00     0.078 C 
ATOM      2  C1  UNL d   1      -3.960  -3.661  -1.192  0.00  0.00    -0.077 A 
ATOM      3  C2  UNL d   1      -3.972  -2.432  -0.522  0.00  0.00    -0.001 A 
ATOM      4  C3  UNL d   1      -3.879  -1.237  -1.237  0.00  0.00     0.003 A 
ATOM      5  C4  UNL d   1      -3.774  -1.259  -2.626  0.00  0.00    -0.005 A 
ATOM      6  C5  UNL d   1      -3.763  -2.477  -3.302  0.00  0.00     0.003 A 
ATOM      7  C6  UNL d   1      -3.856  -3.673  -2.589  0.00  0.00    -0.001 A 
ENDROOT
TORSDOF 0
ENDMDL
