MODEL 1
REMARK minimizedAffinity -3.97261643
REMARK minimizedRMSD -1
REMARK  0 active torsions:
REMARK  status: ('A' for Active; 'I' for Inactive)
ROOT
ATOM      1  C   UNL d   1       1.588   3.496   0.420  0.00  0.00     0.078 C 
ATOM      2  C1  UNL d   1       0.468   2.581   0.816  0.00  0.00    -0.077 A 
ATOM      3  C2  UNL d   1      -0.810   3.082   1.090  0.00  0.00    -0.001 A 
ATOM      4  C3  UNL d   1      -1.841   2.220   1.467  0.00  0.00     0.003 A 
ATOM      5  C4  UNL d   1      -1.603   0.851   1.575  0.00  0.00    -0.005 A 
ATOM      6  C5  UNL d   1      -0.334   0.343   1.307  0.00  0.00     0.003 A 
ATOM      7  C6  UNL d   1       0.698   1.204   0.930  0.00  0.00    -0.001 A 
ENDROOT
TORSDOF 0
ENDMDL
