MODEL 1
REMARK minimizedAffinity -5.25388527
REMARK minimizedRMSD -1
REMARK  0 active torsions:
REMARK  status: ('A' for Active; 'I' for Inactive)
ROOT
ATOM      1  C   UNL d   1       2.126   0.400   0.095  0.00  0.00     0.078 C 
ATOM      2  C1  UNL d   1       0.811   0.584   0.792  0.00  0.00    -0.077 A 
ATOM      3  C2  UNL d   1      -0.007  -0.513   1.089  0.00  0.00    -0.001 A 
ATOM      4  C3  UNL d   1      -1.233  -0.325   1.730  0.00  0.00     0.003 A 
ATOM      5  C4  UNL d   1      -1.652   0.957   2.077  0.00  0.00    -0.005 A 
ATOM      6  C5  UNL d   1      -0.846   2.055   1.784  0.00  0.00     0.003 A 
ATOM      7  C6  UNL d   1       0.380   1.870   1.143  0.00  0.00    -0.001 A 
ENDROOT
TORSDOF 0
ENDMDL
