MODEL 1
REMARK minimizedAffinity -0.189533129
REMARK minimizedRMSD -1
REMARK  0 active torsions:
REMARK  status: ('A' for Active; 'I' for Inactive)
ROOT
ATOM      1  C   UNL d   1      -2.974  -2.366  -3.121  0.00  0.00     0.078 C 
ATOM      2  C1  UNL d   1      -3.246  -3.478  -2.152  0.00  0.00    -0.077 A 
ATOM      3  C2  UNL d   1      -2.809  -4.783  -2.410  0.00  0.00    -0.001 A 
ATOM      4  C3  UNL d   1      -3.077  -5.810  -1.504  0.00  0.00     0.003 A 
ATOM      5  C4  UNL d   1      -3.785  -5.543  -0.333  0.00  0.00    -0.005 A 
ATOM      6  C5  UNL d   1      -4.225  -4.248  -0.068  0.00  0.00     0.003 A 
ATOM      7  C6  UNL d   1      -3.958  -3.220  -0.974  0.00  0.00    -0.001 A 
ENDROOT
TORSDOF 0
ENDMDL
