MODEL 1
REMARK minimizedAffinity -3.15013218
REMARK minimizedRMSD -1
REMARK  0 active torsions:
REMARK  status: ('A' for Active; 'I' for Inactive)
ROOT
ATOM      1  C   UNL d   1      -1.919   3.171   1.649  0.00  0.00     0.078 C 
ATOM      2  C1  UNL d   1      -1.073   1.934   1.601  0.00  0.00    -0.077 A 
ATOM      3  C2  UNL d   1       0.290   2.005   1.288  0.00  0.00    -0.001 A 
ATOM      4  C3  UNL d   1       1.064   0.844   1.237  0.00  0.00     0.003 A 
ATOM      5  C4  UNL d   1       0.483  -0.396   1.497  0.00  0.00    -0.005 A 
ATOM      6  C5  UNL d   1      -0.873  -0.476   1.806  0.00  0.00     0.003 A 
ATOM      7  C6  UNL d   1      -1.648   0.683   1.858  0.00  0.00    -0.001 A 
ENDROOT
TORSDOF 0
ENDMDL
