MODEL 1
REMARK minimizedAffinity -2.13377881
REMARK minimizedRMSD -1
REMARK  0 active torsions:
REMARK  status: ('A' for Active; 'I' for Inactive)
ROOT
ATOM      1  C   UNL d   1       1.611  -0.747  -0.825  0.00  0.00     0.078 C 
ATOM      2  C1  UNL d   1       0.733  -0.728   0.390  0.00  0.00    -0.077 A 
ATOM      3  C2  UNL d   1       1.205  -1.179   1.628  0.00  0.00    -0.001 A 
ATOM      4  C3  UNL d   1       0.373  -1.165   2.749  0.00  0.00     0.003 A 
ATOM      5  C4  UNL d   1      -0.937  -0.700   2.642  0.00  0.00    -0.005 A 
ATOM      6  C5  UNL d   1      -1.416  -0.251   1.413  0.00  0.00     0.003 A 
ATOM      7  C6  UNL d   1      -0.586  -0.265   0.291  0.00  0.00    -0.001 A 
ENDROOT
TORSDOF 0
ENDMDL
