MODEL 1
REMARK minimizedAffinity -2.86978388
REMARK minimizedRMSD -1
REMARK  0 active torsions:
REMARK  status: ('A' for Active; 'I' for Inactive)
ROOT
ATOM      1  C   UNL d   1      -1.954   3.883  -2.839  0.00  0.00     0.078 C 
ATOM      2  C1  UNL d   1      -1.222   2.584  -2.675  0.00  0.00    -0.077 A 
ATOM      3  C2  UNL d   1      -1.467   1.753  -1.576  0.00  0.00    -0.001 A 
ATOM      4  C3  UNL d   1      -0.772   0.551  -1.431  0.00  0.00     0.003 A 
ATOM      5  C4  UNL d   1       0.174   0.171  -2.382  0.00  0.00    -0.005 A 
ATOM      6  C5  UNL d   1       0.425   0.993  -3.478  0.00  0.00     0.003 A 
ATOM      7  C6  UNL d   1      -0.269   2.195  -3.624  0.00  0.00    -0.001 A 
ENDROOT
TORSDOF 0
ENDMDL
