MODEL 1
REMARK minimizedAffinity 0.558154285
REMARK minimizedRMSD -1
REMARK  0 active torsions:
REMARK  status: ('A' for Active; 'I' for Inactive)
ROOT
ATOM      1  C   UNL d   1      -0.661  -1.588   3.289  0.00  0.00     0.078 C 
ATOM      2  C1  UNL d   1       0.563  -1.147   2.545  0.00  0.00    -0.077 A 
ATOM      3  C2  UNL d   1       1.637  -0.547   3.213  0.00  0.00    -0.001 A 
ATOM      4  C3  UNL d   1       2.766  -0.132   2.506  0.00  0.00     0.003 A 
ATOM      5  C4  UNL d   1       2.832  -0.312   1.126  0.00  0.00    -0.005 A 
ATOM      6  C5  UNL d   1       1.768  -0.906   0.451  0.00  0.00     0.003 A 
ATOM      7  C6  UNL d   1       0.637  -1.321   1.157  0.00  0.00    -0.001 A 
ENDROOT
TORSDOF 0
ENDMDL
