MODEL 1
REMARK minimizedAffinity -5.48052311
REMARK minimizedRMSD -1
REMARK  0 active torsions:
REMARK  status: ('A' for Active; 'I' for Inactive)
ROOT
ATOM      1  C   UNL d   1      -4.470   3.009  -2.869  0.00  0.00     0.078 C 
ATOM      2  C1  UNL d   1      -3.048   2.537  -2.808  0.00  0.00    -0.077 A 
ATOM      3  C2  UNL d   1      -2.660   1.533  -1.913  0.00  0.00    -0.001 A 
ATOM      4  C3  UNL d   1      -1.331   1.110  -1.860  0.00  0.00     0.003 A 
ATOM      5  C4  UNL d   1      -0.379   1.687  -2.699  0.00  0.00    -0.005 A 
ATOM      6  C5  UNL d   1      -0.756   2.688  -3.591  0.00  0.00     0.003 A 
ATOM      7  C6  UNL d   1      -2.084   3.113  -3.645  0.00  0.00    -0.001 A 
ENDROOT
TORSDOF 0
ENDMDL
