MODEL 1
REMARK minimizedAffinity -3.52989769
REMARK minimizedRMSD -1
REMARK  0 active torsions:
REMARK  status: ('A' for Active; 'I' for Inactive)
ROOT
ATOM      1  C   UNL d   1      -0.222   0.403   0.260  0.00  0.00     0.078 C 
ATOM      2  C1  UNL d   1      -0.486   1.252  -0.948  0.00  0.00    -0.077 A 
ATOM      3  C2  UNL d   1       0.226   2.437  -1.166  0.00  0.00    -0.001 A 
ATOM      4  C3  UNL d   1      -0.037   3.222  -2.290  0.00  0.00     0.003 A 
ATOM      5  C4  UNL d   1      -1.014   2.831  -3.203  0.00  0.00    -0.005 A 
ATOM      6  C5  UNL d   1      -1.729   1.654  -2.993  0.00  0.00     0.003 A 
ATOM      7  C6  UNL d   1      -1.468   0.868  -1.870  0.00  0.00    -0.001 A 
ENDROOT
TORSDOF 0
ENDMDL
