MODEL 1
REMARK minimizedAffinity -3.10471988
REMARK minimizedRMSD -1
REMARK  0 active torsions:
REMARK  status: ('A' for Active; 'I' for Inactive)
ROOT
ATOM      1  C   UNL d   1      -0.932   0.436  -1.101  0.00  0.00     0.078 C 
ATOM      2  C1  UNL d   1      -0.180  -0.382  -0.095  0.00  0.00    -0.077 A 
ATOM      3  C2  UNL d   1       0.942  -1.132  -0.468  0.00  0.00    -0.001 A 
ATOM      4  C3  UNL d   1       1.627  -1.896   0.478  0.00  0.00     0.003 A 
ATOM      5  C4  UNL d   1       1.197  -1.919   1.803  0.00  0.00    -0.005 A 
ATOM      6  C5  UNL d   1       0.080  -1.178   2.184  0.00  0.00     0.003 A 
ATOM      7  C6  UNL d   1      -0.606  -0.413   1.239  0.00  0.00    -0.001 A 
ENDROOT
TORSDOF 0
ENDMDL
