MODEL 1
REMARK minimizedAffinity -3.05760717
REMARK minimizedRMSD -1
REMARK  0 active torsions:
REMARK  status: ('A' for Active; 'I' for Inactive)
ROOT
ATOM      1  C   UNL d   1      -0.360   0.546  -1.203  0.00  0.00     0.078 C 
ATOM      2  C1  UNL d   1      -0.192  -0.137   0.122  0.00  0.00    -0.077 A 
ATOM      3  C2  UNL d   1      -0.900   0.294   1.250  0.00  0.00    -0.001 A 
ATOM      4  C3  UNL d   1      -0.726  -0.345   2.479  0.00  0.00     0.003 A 
ATOM      5  C4  UNL d   1       0.156  -1.417   2.591  0.00  0.00    -0.005 A 
ATOM      6  C5  UNL d   1       0.867  -1.852   1.474  0.00  0.00     0.003 A 
ATOM      7  C6  UNL d   1       0.694  -1.214   0.245  0.00  0.00    -0.001 A 
ENDROOT
TORSDOF 0
ENDMDL
