MODEL 1
REMARK minimizedAffinity -1.62880635
REMARK minimizedRMSD -1
REMARK  0 active torsions:
REMARK  status: ('A' for Active; 'I' for Inactive)
ROOT
ATOM      1  C   UNL d   1      -3.840   3.755  -2.362  0.00  0.00     0.078 C 
ATOM      2  C1  UNL d   1      -2.491   3.106  -2.452  0.00  0.00    -0.077 A 
ATOM      3  C2  UNL d   1      -2.327   1.744  -2.171  0.00  0.00    -0.001 A 
ATOM      4  C3  UNL d   1      -1.064   1.155  -2.249  0.00  0.00     0.003 A 
ATOM      5  C4  UNL d   1       0.044   1.920  -2.606  0.00  0.00    -0.005 A 
ATOM      6  C5  UNL d   1      -0.109   3.276  -2.885  0.00  0.00     0.003 A 
ATOM      7  C6  UNL d   1      -1.371   3.867  -2.808  0.00  0.00    -0.001 A 
ENDROOT
TORSDOF 0
ENDMDL
