MODEL 1
REMARK minimizedAffinity -1.50493526
REMARK minimizedRMSD -1
REMARK  0 active torsions:
REMARK  status: ('A' for Active; 'I' for Inactive)
ROOT
ATOM      1  C   UNL d   1       2.170  -1.747  -0.128  0.00  0.00     0.078 C 
ATOM      2  C1  UNL d   1       1.070  -1.105   0.663  0.00  0.00    -0.077 A 
ATOM      3  C2  UNL d   1       0.242  -0.133   0.089  0.00  0.00    -0.001 A 
ATOM      4  C3  UNL d   1      -0.772   0.464   0.841  0.00  0.00     0.003 A 
ATOM      5  C4  UNL d   1      -0.965   0.097   2.171  0.00  0.00    -0.005 A 
ATOM      6  C5  UNL d   1      -0.144  -0.868   2.751  0.00  0.00     0.003 A 
ATOM      7  C6  UNL d   1       0.869  -1.466   2.001  0.00  0.00    -0.001 A 
ENDROOT
TORSDOF 0
ENDMDL
