MODEL 1
REMARK minimizedAffinity -3.63910556
REMARK minimizedRMSD -1
REMARK  0 active torsions:
REMARK  status: ('A' for Active; 'I' for Inactive)
ROOT
ATOM      1  C   UNL d   1       2.393  -2.211  -0.395  0.00  0.00     0.078 C 
ATOM      2  C1  UNL d   1       1.358  -1.663   0.542  0.00  0.00    -0.077 A 
ATOM      3  C2  UNL d   1       0.496  -0.635   0.142  0.00  0.00    -0.001 A 
ATOM      4  C3  UNL d   1      -0.456  -0.127   1.028  0.00  0.00     0.003 A 
ATOM      5  C4  UNL d   1      -0.554  -0.641   2.319  0.00  0.00    -0.005 A 
ATOM      6  C5  UNL d   1       0.301  -1.663   2.727  0.00  0.00     0.003 A 
ATOM      7  C6  UNL d   1       1.254  -2.172   1.843  0.00  0.00    -0.001 A 
ENDROOT
TORSDOF 0
ENDMDL
