MODEL 1
REMARK minimizedAffinity -4.64413977
REMARK minimizedRMSD -1
REMARK  1 active torsions:
REMARK  status: ('A' for Active; 'I' for Inactive)
REMARK    1  A    between atoms: C1_2  and  C2_3 
ROOT
ATOM      1  C2  UNL d   1       1.125   3.635  -0.417  0.00  0.00    -0.077 A 
ATOM      2  C3  UNL d   1       1.396   2.872  -1.562  0.00  0.00     0.002 A 
ATOM      3  C4  UNL d   1       1.419   1.478  -1.493  0.00  0.00     0.002 A 
ATOM      4  C5  UNL d   1       1.168   0.835  -0.283  0.00  0.00    -0.004 A 
ATOM      5  C6  UNL d   1       0.899   1.584   0.862  0.00  0.00     0.002 A 
ATOM      6  C7  UNL d   1       0.877   2.978   0.795  0.00  0.00     0.002 A 
ENDROOT
BRANCH   1   7
ATOM      7  C1  UNL d   1       1.051   5.137  -0.501  0.00  0.00     0.055 C 
ATOM      8  C   UNL d   1       2.331   5.723  -1.079  0.00  0.00     0.019 C 
ENDBRANCH   1   7
TORSDOF 1
ENDMDL
