MODEL 1
REMARK minimizedAffinity -4.31333065
REMARK minimizedRMSD -1
REMARK  1 active torsions:
REMARK  status: ('A' for Active; 'I' for Inactive)
REMARK    1  A    between atoms: C1_2  and  C2_3 
ROOT
ATOM      1  C2  UNL d   1       1.261   3.357  -0.465  0.00  0.00    -0.077 A 
ATOM      2  C3  UNL d   1       1.250   2.522  -1.591  0.00  0.00     0.002 A 
ATOM      3  C4  UNL d   1       1.267   1.134  -1.443  0.00  0.00     0.002 A 
ATOM      4  C5  UNL d   1       1.290   0.569  -0.170  0.00  0.00    -0.004 A 
ATOM      5  C6  UNL d   1       1.303   1.390   0.957  0.00  0.00     0.002 A 
ATOM      6  C7  UNL d   1       1.288   2.777   0.810  0.00  0.00     0.002 A 
ENDROOT
BRANCH   1   7
ATOM      7  C1  UNL d   1       1.194   4.853  -0.622  0.00  0.00     0.055 C 
ATOM      8  C   UNL d   1       2.558   5.436  -0.961  0.00  0.00     0.019 C 
ENDBRANCH   1   7
TORSDOF 1
ENDMDL
