MODEL 1
REMARK minimizedAffinity -1.37456
REMARK minimizedRMSD -1
REMARK  1 active torsions:
REMARK  status: ('A' for Active; 'I' for Inactive)
REMARK    1  A    between atoms: C1_2  and  C2_3 
ROOT
ATOM      1  C2  UNL d   1       1.235   3.762  -0.501  0.00  0.00    -0.077 A 
ATOM      2  C3  UNL d   1       1.318   3.214  -1.789  0.00  0.00     0.002 A 
ATOM      3  C4  UNL d   1       1.043   1.862  -2.001  0.00  0.00     0.002 A 
ATOM      4  C5  UNL d   1       0.680   1.047  -0.930  0.00  0.00    -0.004 A 
ATOM      5  C6  UNL d   1       0.597   1.582   0.355  0.00  0.00     0.002 A 
ATOM      6  C7  UNL d   1       0.872   2.933   0.568  0.00  0.00     0.002 A 
ENDROOT
BRANCH   1   7
ATOM      7  C1  UNL d   1       1.483   5.231  -0.279  0.00  0.00     0.055 C 
ATOM      8  C   UNL d   1       2.444   5.793  -1.317  0.00  0.00     0.019 C 
ENDBRANCH   1   7
TORSDOF 1
ENDMDL
