MODEL 1
REMARK minimizedAffinity 1.63666737
REMARK minimizedRMSD -1
REMARK  1 active torsions:
REMARK  status: ('A' for Active; 'I' for Inactive)
REMARK    1  A    between atoms: C1_2  and  C2_3 
ROOT
ATOM      1  C2  UNL d   1       1.220   2.488  -1.235  0.00  0.00    -0.077 A 
ATOM      2  C3  UNL d   1       1.277   2.614   0.160  0.00  0.00     0.002 A 
ATOM      3  C4  UNL d   1       1.174   1.486   0.976  0.00  0.00     0.002 A 
ATOM      4  C5  UNL d   1       1.017   0.224   0.407  0.00  0.00    -0.004 A 
ATOM      5  C6  UNL d   1       0.956   0.088  -0.980  0.00  0.00     0.002 A 
ATOM      6  C7  UNL d   1       1.058   1.215  -1.797  0.00  0.00     0.002 A 
ENDROOT
BRANCH   1   7
ATOM      7  C1  UNL d   1       1.380   3.697  -2.119  0.00  0.00     0.055 C 
ATOM      8  C   UNL d   1       1.870   4.900  -1.326  0.00  0.00     0.019 C 
ENDBRANCH   1   7
TORSDOF 1
ENDMDL
