MODEL 1
REMARK minimizedAffinity -1.88518584
REMARK minimizedRMSD -1
REMARK  1 active torsions:
REMARK  status: ('A' for Active; 'I' for Inactive)
REMARK    1  A    between atoms: C1_2  and  C2_3 
ROOT
ATOM      1  C2  UNL d   1       1.393   0.835  -0.629  0.00  0.00    -0.077 A 
ATOM      2  C3  UNL d   1       1.690   1.522  -1.814  0.00  0.00     0.002 A 
ATOM      3  C4  UNL d   1       1.499   2.903  -1.896  0.00  0.00     0.002 A 
ATOM      4  C5  UNL d   1       1.014   3.608  -0.796  0.00  0.00    -0.004 A 
ATOM      5  C6  UNL d   1       0.714   2.933   0.386  0.00  0.00     0.002 A 
ATOM      6  C7  UNL d   1       0.904   1.553   0.470  0.00  0.00     0.002 A 
ENDROOT
BRANCH   1   7
ATOM      7  C1  UNL d   1       1.645  -0.647  -0.522  0.00  0.00     0.055 C 
ATOM      8  C   UNL d   1       0.366  -1.442  -0.737  0.00  0.00     0.019 C 
ENDBRANCH   1   7
TORSDOF 1
ENDMDL
