MODEL 1
REMARK minimizedAffinity 0.634295106
REMARK minimizedRMSD -1
REMARK  1 active torsions:
REMARK  status: ('A' for Active; 'I' for Inactive)
REMARK    1  A    between atoms: C1_2  and  C2_3 
ROOT
ATOM      1  C2  UNL d   1       1.203  -1.411  -1.145  0.00  0.00    -0.077 A 
ATOM      2  C3  UNL d   1       0.378  -1.717  -2.237  0.00  0.00     0.002 A 
ATOM      3  C4  UNL d   1      -0.335  -2.917  -2.269  0.00  0.00     0.002 A 
ATOM      4  C5  UNL d   1      -0.234  -3.818  -1.211  0.00  0.00    -0.004 A 
ATOM      5  C6  UNL d   1       0.585  -3.524  -0.122  0.00  0.00     0.002 A 
ATOM      6  C7  UNL d   1       1.300  -2.326  -0.089  0.00  0.00     0.002 A 
ENDROOT
BRANCH   1   7
ATOM      7  C1  UNL d   1       1.935  -0.096  -1.086  0.00  0.00     0.055 C 
ATOM      8  C   UNL d   1       1.021   1.063  -1.458  0.00  0.00     0.019 C 
ENDBRANCH   1   7
TORSDOF 1
ENDMDL
