MODEL 1
REMARK minimizedAffinity -3.20344305
REMARK minimizedRMSD -1
REMARK  1 active torsions:
REMARK  status: ('A' for Active; 'I' for Inactive)
REMARK    1  A    between atoms: C1_2  and  C2_3 
ROOT
ATOM      1  C2  UNL d   1       1.523   2.915  -1.128  0.00  0.00    -0.077 A 
ATOM      2  C3  UNL d   1       1.538   2.669   0.252  0.00  0.00     0.002 A 
ATOM      3  C4  UNL d   1       1.140   1.429   0.754  0.00  0.00     0.002 A 
ATOM      4  C5  UNL d   1       0.728   0.423  -0.118  0.00  0.00    -0.004 A 
ATOM      5  C6  UNL d   1       0.707   0.658  -1.492  0.00  0.00     0.002 A 
ATOM      6  C7  UNL d   1       1.103   1.897  -1.995  0.00  0.00     0.002 A 
ENDROOT
BRANCH   1   7
ATOM      7  C1  UNL d   1       1.998   4.235  -1.674  0.00  0.00     0.055 C 
ATOM      8  C   UNL d   1       2.159   5.267  -0.567  0.00  0.00     0.019 C 
ENDBRANCH   1   7
TORSDOF 1
ENDMDL
