MODEL 1
REMARK minimizedAffinity -2.37241602
REMARK minimizedRMSD -1
REMARK  1 active torsions:
REMARK  status: ('A' for Active; 'I' for Inactive)
REMARK    1  A    between atoms: C1_2  and  C2_3 
ROOT
ATOM      1  C2  UNL d   1       1.484   3.306  -1.305  0.00  0.00    -0.077 A 
ATOM      2  C3  UNL d   1       1.579   2.894   0.031  0.00  0.00     0.002 A 
ATOM      3  C4  UNL d   1       1.189   1.606   0.403  0.00  0.00     0.002 A 
ATOM      4  C5  UNL d   1       0.706   0.718  -0.556  0.00  0.00    -0.004 A 
ATOM      5  C6  UNL d   1       0.606   1.119  -1.888  0.00  0.00     0.002 A 
ATOM      6  C7  UNL d   1       0.993   2.407  -2.261  0.00  0.00     0.002 A 
ENDROOT
BRANCH   1   7
ATOM      7  C1  UNL d   1       1.949   4.678  -1.717  0.00  0.00     0.055 C 
ATOM      8  C   UNL d   1       2.106   5.594  -0.512  0.00  0.00     0.019 C 
ENDBRANCH   1   7
TORSDOF 1
ENDMDL
