MODEL 1
REMARK minimizedAffinity -2.26072335
REMARK minimizedRMSD -1
REMARK  1 active torsions:
REMARK  status: ('A' for Active; 'I' for Inactive)
REMARK    1  A    between atoms: C1_2  and  C2_3 
ROOT
ATOM      1  C2  UNL d   1       1.992   2.495  -1.060  0.00  0.00    -0.077 A 
ATOM      2  C3  UNL d   1       1.983   2.501   0.342  0.00  0.00     0.002 A 
ATOM      3  C4  UNL d   1       1.484   1.405   1.049  0.00  0.00     0.002 A 
ATOM      4  C5  UNL d   1       0.995   0.295   0.364  0.00  0.00    -0.004 A 
ATOM      5  C6  UNL d   1       0.997   0.281  -1.030  0.00  0.00     0.002 A 
ATOM      6  C7  UNL d   1       1.494   1.376  -1.739  0.00  0.00     0.002 A 
ENDROOT
BRANCH   1   7
ATOM      7  C1  UNL d   1       2.575   3.655  -1.824  0.00  0.00     0.055 C 
ATOM      8  C   UNL d   1       2.492   4.945  -1.020  0.00  0.00     0.019 C 
ENDBRANCH   1   7
TORSDOF 1
ENDMDL
