MODEL 1
REMARK minimizedAffinity -5.67750978
REMARK minimizedRMSD -1
REMARK  1 active torsions:
REMARK  status: ('A' for Active; 'I' for Inactive)
REMARK    1  A    between atoms: C1_2  and  C2_3 
ROOT
ATOM      1  C2  UNL d   1       1.113   0.969  -0.844  0.00  0.00    -0.077 A 
ATOM      2  C3  UNL d   1       1.286   2.264  -1.353  0.00  0.00     0.002 A 
ATOM      3  C4  UNL d   1       1.206   3.372  -0.506  0.00  0.00     0.002 A 
ATOM      4  C5  UNL d   1       0.956   3.195   0.853  0.00  0.00    -0.004 A 
ATOM      5  C6  UNL d   1       0.780   1.912   1.368  0.00  0.00     0.002 A 
ATOM      6  C7  UNL d   1       0.859   0.804   0.523  0.00  0.00     0.002 A 
ENDROOT
BRANCH   1   7
ATOM      7  C1  UNL d   1       1.248  -0.230  -1.746  0.00  0.00     0.055 C 
ATOM      8  C   UNL d   1       1.757  -1.443  -0.982  0.00  0.00     0.019 C 
ENDBRANCH   1   7
TORSDOF 1
ENDMDL
