MODEL 1
REMARK minimizedAffinity -3.38349867
REMARK minimizedRMSD -1
REMARK  1 active torsions:
REMARK  status: ('A' for Active; 'I' for Inactive)
REMARK    1  A    between atoms: C1_2  and  C2_3 
ROOT
ATOM      1  C2  UNL d   1       1.515   3.938  -0.737  0.00  0.00    -0.077 A 
ATOM      2  C3  UNL d   1       1.562   3.398  -2.030  0.00  0.00     0.002 A 
ATOM      3  C4  UNL d   1       1.301   2.042  -2.239  0.00  0.00     0.002 A 
ATOM      4  C5  UNL d   1       0.988   1.217  -1.161  0.00  0.00    -0.004 A 
ATOM      5  C6  UNL d   1       0.941   1.744   0.129  0.00  0.00     0.002 A 
ATOM      6  C7  UNL d   1       1.202   3.098   0.340  0.00  0.00     0.002 A 
ENDROOT
BRANCH   1   7
ATOM      7  C1  UNL d   1       1.747   5.410  -0.515  0.00  0.00     0.055 C 
ATOM      8  C   UNL d   1       2.634   6.000  -1.602  0.00  0.00     0.019 C 
ENDBRANCH   1   7
TORSDOF 1
ENDMDL
