MODEL 1
REMARK minimizedAffinity 3.00324345
REMARK minimizedRMSD -1
REMARK  0 active torsions:
REMARK  status: ('A' for Active; 'I' for Inactive)
ROOT
ATOM      1  C2' OXE d   1       4.483   4.098   3.965  0.00  0.00     0.078 C 
ATOM      2  C1' OXE d   1       3.979   5.970   5.996  0.00  0.00     0.078 C 
ATOM      3  C1  OXE d   1       2.815   5.521   5.148  0.00  0.00    -0.078 A 
ATOM      4  C2  OXE d   1       3.079   4.641   4.127  0.00  0.00    -0.078 A 
ATOM      5  C3  OXE d   1       2.033   4.153   3.349  0.00  0.00     0.003 A 
ATOM      6  C4  OXE d   1       0.739   4.668   3.498  0.00  0.00    -0.002 A 
ATOM      7  C5  OXE d   1       0.456   5.595   4.506  0.00  0.00    -0.002 A 
ATOM      8  C6  OXE d   1       1.472   5.999   5.365  0.00  0.00     0.003 A 
ENDROOT
TORSDOF 0
ENDMDL
