MODEL 1
REMARK minimizedAffinity 7.33178568
REMARK minimizedRMSD -1
REMARK  0 active torsions:
REMARK  status: ('A' for Active; 'I' for Inactive)
ROOT
ATOM      1  C2' OXE d   1       5.923  -2.086   5.653  0.00  0.00     0.078 C 
ATOM      2  C1' OXE d   1       3.644  -2.301   4.028  0.00  0.00     0.078 C 
ATOM      3  C1  OXE d   1       4.213  -3.569   4.614  0.00  0.00    -0.078 A 
ATOM      4  C2  OXE d   1       5.355  -3.460   5.370  0.00  0.00    -0.078 A 
ATOM      5  C3  OXE d   1       5.890  -4.591   5.979  0.00  0.00     0.003 A 
ATOM      6  C4  OXE d   1       5.365  -5.860   5.703  0.00  0.00    -0.002 A 
ATOM      7  C5  OXE d   1       4.225  -5.998   4.904  0.00  0.00    -0.002 A 
ATOM      8  C6  OXE d   1       3.613  -4.861   4.387  0.00  0.00     0.003 A 
ENDROOT
TORSDOF 0
ENDMDL
