MODEL 1
REMARK minimizedAffinity -3.11203456
REMARK minimizedRMSD -1
REMARK  0 active torsions:
REMARK  status: ('A' for Active; 'I' for Inactive)
ROOT
ATOM      1  C2' OXE d   1      -3.098   1.386  -5.046  0.00  0.00     0.078 C 
ATOM      2  C1' OXE d   1      -3.831  -1.320  -4.894  0.00  0.00     0.078 C 
ATOM      3  C1  OXE d   1      -2.870  -0.792  -3.858  0.00  0.00    -0.078 A 
ATOM      4  C2  OXE d   1      -2.481   0.522  -3.968  0.00  0.00    -0.078 A 
ATOM      5  C3  OXE d   1      -1.639   1.074  -3.007  0.00  0.00     0.003 A 
ATOM      6  C4  OXE d   1      -1.064   0.265  -2.019  0.00  0.00    -0.002 A 
ATOM      7  C5  OXE d   1      -1.417  -1.085  -1.913  0.00  0.00    -0.002 A 
ATOM      8  C6  OXE d   1      -2.349  -1.617  -2.797  0.00  0.00     0.003 A 
ENDROOT
TORSDOF 0
ENDMDL
