MODEL 1
REMARK minimizedAffinity 6.39571238
REMARK minimizedRMSD -1
REMARK  0 active torsions:
REMARK  status: ('A' for Active; 'I' for Inactive)
ROOT
ATOM      1  C2' OXE d   1       0.676  -1.276   1.691  0.00  0.00     0.078 C 
ATOM      2  C1' OXE d   1      -1.976  -1.759   0.907  0.00  0.00     0.078 C 
ATOM      3  C1  OXE d   1      -1.724  -0.634   1.879  0.00  0.00    -0.078 A 
ATOM      4  C2  OXE d   1      -0.429  -0.435   2.293  0.00  0.00    -0.078 A 
ATOM      5  C3  OXE d   1      -0.133   0.624   3.147  0.00  0.00     0.003 A 
ATOM      6  C4  OXE d   1      -1.162   1.391   3.707  0.00  0.00    -0.002 A 
ATOM      7  C5  OXE d   1      -2.492   1.179   3.330  0.00  0.00    -0.002 A 
ATOM      8  C6  OXE d   1      -2.785   0.201   2.386  0.00  0.00     0.003 A 
ENDROOT
TORSDOF 0
ENDMDL
