MODEL 1
REMARK minimizedAffinity 3.98556852
REMARK minimizedRMSD -1
REMARK  0 active torsions:
REMARK  status: ('A' for Active; 'I' for Inactive)
ROOT
ATOM      1  C2' OXE d   1      -3.041   0.798   2.450  0.00  0.00     0.078 C 
ATOM      2  C1' OXE d   1      -2.775  -1.675   1.148  0.00  0.00     0.078 C 
ATOM      3  C1  OXE d   1      -1.538  -1.064   1.756  0.00  0.00    -0.078 A 
ATOM      4  C2  OXE d   1      -1.668   0.168   2.351  0.00  0.00    -0.078 A 
ATOM      5  C3  OXE d   1      -0.569   0.751   2.975  0.00  0.00     0.003 A 
ATOM      6  C4  OXE d   1       0.699   0.167   2.870  0.00  0.00    -0.002 A 
ATOM      7  C5  OXE d   1       0.861  -1.068   2.234  0.00  0.00    -0.002 A 
ATOM      8  C6  OXE d   1      -0.252  -1.716   1.710  0.00  0.00     0.003 A 
ENDROOT
TORSDOF 0
ENDMDL
