MODEL 1
REMARK minimizedAffinity 5.28158045
REMARK minimizedRMSD -1
REMARK  0 active torsions:
REMARK  status: ('A' for Active; 'I' for Inactive)
ROOT
ATOM      1  C2' OXE d   1       0.317  -1.793   3.172  0.00  0.00     0.078 C 
ATOM      2  C1' OXE d   1      -1.190  -0.082   1.535  0.00  0.00     0.078 C 
ATOM      3  C1  OXE d   1       0.071  -0.676   0.959  0.00  0.00    -0.078 A 
ATOM      4  C2  OXE d   1       0.827  -1.475   1.783  0.00  0.00    -0.078 A 
ATOM      5  C3  OXE d   1       1.971  -2.093   1.285  0.00  0.00     0.003 A 
ATOM      6  C4  OXE d   1       2.441  -1.786   0.003  0.00  0.00    -0.002 A 
ATOM      7  C5  OXE d   1       1.707  -0.943  -0.839  0.00  0.00    -0.002 A 
ATOM      8  C6  OXE d   1       0.501  -0.415  -0.392  0.00  0.00     0.003 A 
ENDROOT
TORSDOF 0
ENDMDL
