MODEL 1
REMARK minimizedAffinity 4.99317837
REMARK minimizedRMSD -1
REMARK  0 active torsions:
REMARK  status: ('A' for Active; 'I' for Inactive)
ROOT
ATOM      1  C2' OXE d   1       2.635  -1.663  -0.492  0.00  0.00     0.078 C 
ATOM      2  C1' OXE d   1       0.578  -0.760  -2.176  0.00  0.00     0.078 C 
ATOM      3  C1  OXE d   1       1.383   0.276  -1.430  0.00  0.00    -0.078 A 
ATOM      4  C2  OXE d   1       2.357  -0.177  -0.573  0.00  0.00    -0.078 A 
ATOM      5  C3  OXE d   1       3.164   0.737   0.098  0.00  0.00     0.003 A 
ATOM      6  C4  OXE d   1       2.893   2.109   0.025  0.00  0.00    -0.002 A 
ATOM      7  C5  OXE d   1       1.881   2.589  -0.812  0.00  0.00    -0.002 A 
ATOM      8  C6  OXE d   1       1.146   1.691  -1.577  0.00  0.00     0.003 A 
ENDROOT
TORSDOF 0
ENDMDL
