MODEL 1
REMARK minimizedAffinity 3.62785769
REMARK minimizedRMSD -1
REMARK  0 active torsions:
REMARK  status: ('A' for Active; 'I' for Inactive)
ROOT
ATOM      1  C2' OXE d   1       1.667   0.942  -2.944  0.00  0.00     0.078 C 
ATOM      2  C1' OXE d   1       2.331   2.408  -0.644  0.00  0.00     0.078 C 
ATOM      3  C1  OXE d   1       2.279   0.905  -0.530  0.00  0.00    -0.078 A 
ATOM      4  C2  OXE d   1       1.907   0.199  -1.649  0.00  0.00    -0.078 A 
ATOM      5  C3  OXE d   1       1.896  -1.193  -1.613  0.00  0.00     0.003 A 
ATOM      6  C4  OXE d   1       2.110  -1.873  -0.408  0.00  0.00    -0.002 A 
ATOM      7  C5  OXE d   1       2.451  -1.170   0.753  0.00  0.00    -0.002 A 
ATOM      8  C6  OXE d   1       2.581   0.213   0.699  0.00  0.00     0.003 A 
ENDROOT
TORSDOF 0
ENDMDL
