MODEL 1
REMARK minimizedAffinity 6.80580759
REMARK minimizedRMSD -1
REMARK  0 active torsions:
REMARK  status: ('A' for Active; 'I' for Inactive)
ROOT
ATOM      1  C   UNL d   1      -5.979   4.668  -1.593  0.00  0.00     0.077 C 
ATOM      2  C1  UNL d   1      -4.859   3.676  -1.693  0.00  0.00    -0.074 A 
ATOM      3  C2  UNL d   1      -4.359   3.280  -2.938  0.00  0.00    -0.005 A 
ATOM      4  C3  UNL d   1      -3.311   2.363  -3.016  0.00  0.00     0.006 A 
ATOM      5  C4  UNL d   1      -2.753   1.833  -1.851  0.00  0.00    -0.005 A 
ATOM      6  C5  UNL d   1      -3.239   2.218  -0.598  0.00  0.00    -0.074 A 
ATOM      7  C6  UNL d   1      -2.644   1.666   0.664  0.00  0.00     0.077 C 
ATOM      8  C7  UNL d   1      -4.288   3.145  -0.528  0.00  0.00    -0.001 A 
ENDROOT
TORSDOF 0
ENDMDL
