MODEL 1
REMARK minimizedAffinity 7.71386814
REMARK minimizedRMSD -1
REMARK  0 active torsions:
REMARK  status: ('A' for Active; 'I' for Inactive)
ROOT
ATOM      1  C   UNL d   1       1.896  -4.968   1.249  0.00  0.00     0.077 C 
ATOM      2  C1  UNL d   1       1.379  -4.372   2.524  0.00  0.00    -0.074 A 
ATOM      3  C2  UNL d   1       1.125  -3.000   2.625  0.00  0.00    -0.005 A 
ATOM      4  C3  UNL d   1       0.635  -2.461   3.815  0.00  0.00     0.006 A 
ATOM      5  C4  UNL d   1       0.394  -3.287   4.914  0.00  0.00    -0.005 A 
ATOM      6  C5  UNL d   1       0.641  -4.661   4.831  0.00  0.00    -0.074 A 
ATOM      7  C6  UNL d   1       0.378  -5.565   5.999  0.00  0.00     0.077 C 
ATOM      8  C7  UNL d   1       1.127  -5.196   3.630  0.00  0.00    -0.001 A 
ENDROOT
TORSDOF 0
ENDMDL
