MODEL 1
REMARK minimizedAffinity 16.4749126
REMARK minimizedRMSD -1
REMARK  0 active torsions:
REMARK  status: ('A' for Active; 'I' for Inactive)
ROOT
ATOM      1  C   UNL d   1       1.160   1.925   1.809  0.00  0.00     0.077 C 
ATOM      2  C1  UNL d   1       1.363   0.440   1.874  0.00  0.00    -0.074 A 
ATOM      3  C2  UNL d   1       2.251  -0.203   1.005  0.00  0.00    -0.005 A 
ATOM      4  C3  UNL d   1       2.436  -1.583   1.084  0.00  0.00     0.006 A 
ATOM      5  C4  UNL d   1       1.738  -2.333   2.030  0.00  0.00    -0.005 A 
ATOM      6  C5  UNL d   1       0.847  -1.707   2.908  0.00  0.00    -0.074 A 
ATOM      7  C6  UNL d   1       0.095  -2.497   3.939  0.00  0.00     0.077 C 
ATOM      8  C7  UNL d   1       0.671  -0.319   2.828  0.00  0.00    -0.001 A 
ENDROOT
TORSDOF 0
ENDMDL
