MODEL 1
REMARK minimizedAffinity 4.85231972
REMARK minimizedRMSD -1
REMARK  0 active torsions:
REMARK  status: ('A' for Active; 'I' for Inactive)
ROOT
ATOM      1  C   UNL d   1       2.704  -1.514   1.325  0.00  0.00     0.077 C 
ATOM      2  C1  UNL d   1       1.810  -1.499   2.529  0.00  0.00    -0.074 A 
ATOM      3  C2  UNL d   1       0.623  -0.758   2.534  0.00  0.00    -0.005 A 
ATOM      4  C3  UNL d   1      -0.203  -0.761   3.657  0.00  0.00     0.006 A 
ATOM      5  C4  UNL d   1       0.148  -1.503   4.786  0.00  0.00    -0.005 A 
ATOM      6  C5  UNL d   1       1.330  -2.250   4.799  0.00  0.00    -0.074 A 
ATOM      7  C6  UNL d   1       1.717  -3.061   6.000  0.00  0.00     0.077 C 
ATOM      8  C7  UNL d   1       2.152  -2.248   3.663  0.00  0.00    -0.001 A 
ENDROOT
TORSDOF 0
ENDMDL
