MODEL 1
REMARK minimizedAffinity 16.1515102
REMARK minimizedRMSD -1
REMARK  0 active torsions:
REMARK  status: ('A' for Active; 'I' for Inactive)
ROOT
ATOM      1  C   UNL d   1      -5.998   5.214  -0.748  0.00  0.00     0.077 C 
ATOM      2  C1  UNL d   1      -5.113   4.032  -1.013  0.00  0.00    -0.074 A 
ATOM      3  C2  UNL d   1      -5.224   3.303  -2.201  0.00  0.00    -0.005 A 
ATOM      4  C3  UNL d   1      -4.388   2.212  -2.438  0.00  0.00     0.006 A 
ATOM      5  C4  UNL d   1      -3.434   1.840  -1.490  0.00  0.00    -0.005 A 
ATOM      6  C5  UNL d   1      -3.308   2.557  -0.296  0.00  0.00    -0.074 A 
ATOM      7  C6  UNL d   1      -2.281   2.176   0.729  0.00  0.00     0.077 C 
ATOM      8  C7  UNL d   1      -4.147   3.657  -0.069  0.00  0.00    -0.001 A 
ENDROOT
TORSDOF 0
ENDMDL
