MODEL 1
REMARK minimizedAffinity 11.3454962
REMARK minimizedRMSD -1
REMARK  0 active torsions:
REMARK  status: ('A' for Active; 'I' for Inactive)
ROOT
ATOM      1  C   UNL d   1      -5.995   3.395  -1.454  0.00  0.00     0.077 C 
ATOM      2  C1  UNL d   1      -5.292   3.651  -0.154  0.00  0.00    -0.074 A 
ATOM      3  C2  UNL d   1      -6.000   4.078   0.974  0.00  0.00    -0.005 A 
ATOM      4  C3  UNL d   1      -5.334   4.304   2.178  0.00  0.00     0.006 A 
ATOM      5  C4  UNL d   1      -3.955   4.106   2.267  0.00  0.00    -0.005 A 
ATOM      6  C5  UNL d   1      -3.231   3.678   1.149  0.00  0.00    -0.074 A 
ATOM      7  C6  UNL d   1      -1.751   3.451   1.230  0.00  0.00     0.077 C 
ATOM      8  C7  UNL d   1      -3.909   3.447  -0.056  0.00  0.00    -0.001 A 
ENDROOT
TORSDOF 0
ENDMDL
