MODEL 1
REMARK minimizedAffinity 7.98848581
REMARK minimizedRMSD -1
REMARK  0 active torsions:
REMARK  status: ('A' for Active; 'I' for Inactive)
ROOT
ATOM      1  C   UNL d   1       1.083   0.185   3.000  0.00  0.00     0.077 C 
ATOM      2  C1  UNL d   1       2.041   0.273   1.849  0.00  0.00    -0.074 A 
ATOM      3  C2  UNL d   1       2.885  -0.796   1.533  0.00  0.00    -0.005 A 
ATOM      4  C3  UNL d   1       3.764  -0.703   0.454  0.00  0.00     0.006 A 
ATOM      5  C4  UNL d   1       3.807   0.459  -0.319  0.00  0.00    -0.005 A 
ATOM      6  C5  UNL d   1       2.969   1.537  -0.019  0.00  0.00    -0.074 A 
ATOM      7  C6  UNL d   1       2.995   2.789  -0.845  0.00  0.00     0.077 C 
ATOM      8  C7  UNL d   1       2.084   1.433   1.063  0.00  0.00    -0.001 A 
ENDROOT
TORSDOF 0
ENDMDL
