MODEL 1
REMARK minimizedAffinity -5.46818972
REMARK minimizedRMSD -1
REMARK  0 active torsions:
REMARK  status: ('A' for Active; 'I' for Inactive)
ROOT
ATOM      1  C   UNL d   1      -0.663   0.654   0.070  0.00  0.00     0.078 C 
ATOM      2  C1  UNL d   1       0.744   0.246   0.391  0.00  0.00    -0.077 A 
ATOM      3  C2  UNL d   1       1.737   1.205   0.627  0.00  0.00    -0.001 A 
ATOM      4  C3  UNL d   1       3.044   0.811   0.915  0.00  0.00     0.003 A 
ATOM      5  C4  UNL d   1       3.372  -0.542   0.968  0.00  0.00    -0.005 A 
ATOM      6  C5  UNL d   1       2.391  -1.504   0.732  0.00  0.00     0.003 A 
ATOM      7  C6  UNL d   1       1.083  -1.112   0.444  0.00  0.00    -0.001 A 
ENDROOT
TORSDOF 0
ENDMDL
