MODEL 1
REMARK minimizedAffinity -5.0770421
REMARK minimizedRMSD -1
REMARK  0 active torsions:
REMARK  status: ('A' for Active; 'I' for Inactive)
ROOT
ATOM      1  C   UNL d   1      -0.893   0.712  -0.376  0.00  0.00     0.078 C 
ATOM      2  C1  UNL d   1       0.239  -0.206  -0.023  0.00  0.00    -0.077 A 
ATOM      3  C2  UNL d   1       0.715  -1.150  -0.941  0.00  0.00    -0.001 A 
ATOM      4  C3  UNL d   1       1.763  -2.005  -0.595  0.00  0.00     0.003 A 
ATOM      5  C4  UNL d   1       2.343  -1.925   0.669  0.00  0.00    -0.005 A 
ATOM      6  C5  UNL d   1       1.875  -0.989   1.590  0.00  0.00     0.003 A 
ATOM      7  C6  UNL d   1       0.827  -0.134   1.246  0.00  0.00    -0.001 A 
ENDROOT
TORSDOF 0
ENDMDL
