MODEL 1
REMARK minimizedAffinity -5.16309977
REMARK minimizedRMSD -1
REMARK  0 active torsions:
REMARK  status: ('A' for Active; 'I' for Inactive)
ROOT
ATOM      1  C   UNL d   1      -0.502   0.428   0.154  0.00  0.00     0.078 C 
ATOM      2  C1  UNL d   1       0.910  -0.066   0.258  0.00  0.00    -0.077 A 
ATOM      3  C2  UNL d   1       1.977   0.827   0.411  0.00  0.00    -0.001 A 
ATOM      4  C3  UNL d   1       3.288   0.353   0.497  0.00  0.00     0.003 A 
ATOM      5  C4  UNL d   1       3.543  -1.015   0.430  0.00  0.00    -0.005 A 
ATOM      6  C5  UNL d   1       2.487  -1.911   0.276  0.00  0.00     0.003 A 
ATOM      7  C6  UNL d   1       1.176  -1.439   0.189  0.00  0.00    -0.001 A 
ENDROOT
TORSDOF 0
ENDMDL
