MODEL 1
REMARK minimizedAffinity -3.24957466
REMARK minimizedRMSD -1
REMARK  0 active torsions:
REMARK  status: ('A' for Active; 'I' for Inactive)
ROOT
ATOM      1  C   UNL d   1       3.386   2.071  -0.390  0.00  0.00     0.078 C 
ATOM      2  C1  UNL d   1       2.502   0.860  -0.365  0.00  0.00    -0.077 A 
ATOM      3  C2  UNL d   1       1.111   0.981  -0.472  0.00  0.00    -0.001 A 
ATOM      4  C3  UNL d   1       0.299  -0.154  -0.437  0.00  0.00     0.003 A 
ATOM      5  C4  UNL d   1       0.869  -1.418  -0.294  0.00  0.00    -0.005 A 
ATOM      6  C5  UNL d   1       2.251  -1.548  -0.185  0.00  0.00     0.003 A 
ATOM      7  C6  UNL d   1       3.065  -0.414  -0.219  0.00  0.00    -0.001 A 
ENDROOT
TORSDOF 0
ENDMDL
