MODEL 1
REMARK minimizedAffinity -3.15625119
REMARK minimizedRMSD -1
REMARK  0 active torsions:
REMARK  status: ('A' for Active; 'I' for Inactive)
ROOT
ATOM      1  C   UNL d   1       3.044  -1.244   0.009  0.00  0.00     0.078 C 
ATOM      2  C1  UNL d   1       1.872  -0.309  -0.040  0.00  0.00    -0.077 A 
ATOM      3  C2  UNL d   1       2.051   1.077   0.043  0.00  0.00    -0.001 A 
ATOM      4  C3  UNL d   1       0.950   1.934   0.007  0.00  0.00     0.003 A 
ATOM      5  C4  UNL d   1      -0.337   1.415  -0.112  0.00  0.00    -0.005 A 
ATOM      6  C5  UNL d   1      -0.525   0.037  -0.193  0.00  0.00     0.003 A 
ATOM      7  C6  UNL d   1       0.574  -0.822  -0.157  0.00  0.00    -0.001 A 
ENDROOT
TORSDOF 0
ENDMDL
