MODEL 1
REMARK minimizedAffinity -5.11716223
REMARK minimizedRMSD -1
REMARK  0 active torsions:
REMARK  status: ('A' for Active; 'I' for Inactive)
ROOT
ATOM      1  C   UNL d   1       2.974  -1.057   0.789  0.00  0.00     0.078 C 
ATOM      2  C1  UNL d   1       1.903  -0.104   0.349  0.00  0.00    -0.077 A 
ATOM      3  C2  UNL d   1       0.700  -0.571  -0.193  0.00  0.00    -0.001 A 
ATOM      4  C3  UNL d   1      -0.284   0.328  -0.608  0.00  0.00     0.003 A 
ATOM      5  C4  UNL d   1      -0.074   1.700  -0.486  0.00  0.00    -0.005 A 
ATOM      6  C5  UNL d   1       1.121   2.175   0.050  0.00  0.00     0.003 A 
ATOM      7  C6  UNL d   1       2.106   1.277   0.466  0.00  0.00    -0.001 A 
ENDROOT
TORSDOF 0
ENDMDL
