MODEL 1
REMARK minimizedAffinity -0.165285036
REMARK minimizedRMSD -1
REMARK  3 active torsions:
REMARK  status: ('A' for Active; 'I' for Inactive)
REMARK    1  A    between atoms: C3'_2  and  C2'_3 
REMARK    2  A    between atoms: C2'_3  and  C1'_4 
REMARK    3  A    between atoms: C1'_4  and  C1_5 
ROOT
ATOM      1  C1  N4B d   1      -1.977   1.676   2.083  0.00  0.00    -0.075 A 
ATOM      2  C2  N4B d   1      -2.050   0.270   1.963  0.00  0.00     0.002 A 
ATOM      3  C3  N4B d   1      -0.983  -0.432   1.460  0.00  0.00     0.002 A 
ATOM      4  C4  N4B d   1       0.157   0.247   1.056  0.00  0.00    -0.004 A 
ATOM      5  C5  N4B d   1       0.229   1.602   1.199  0.00  0.00     0.002 A 
ATOM      6  C6  N4B d   1      -0.834   2.321   1.706  0.00  0.00     0.002 A 
ENDROOT
BRANCH   1   7
ATOM      7  C1' N4B d   1      -3.150   2.495   2.547  0.00  0.00     0.057 C 
BRANCH   7   8
ATOM      8  C2' N4B d   1      -3.879   1.743   3.656  0.00  0.00     0.009 C 
BRANCH   8   9
ATOM      9  C3' N4B d   1      -4.829   2.645   4.424  0.00  0.00     0.004 C 
ATOM     10  C4' N4B d   1      -4.862   2.339   5.892  0.00  0.00     0.003 C 
ENDBRANCH   8   9
ENDBRANCH   7   8
ENDBRANCH   1   7
TORSDOF 3
ENDMDL
