MODEL 1
REMARK minimizedAffinity -4.37286329
REMARK minimizedRMSD -1
REMARK  3 active torsions:
REMARK  status: ('A' for Active; 'I' for Inactive)
REMARK    1  A    between atoms: C3'_2  and  C2'_3 
REMARK    2  A    between atoms: C2'_3  and  C1'_4 
REMARK    3  A    between atoms: C1'_4  and  C1_5 
ROOT
ATOM      1  C1  N4B d   1       0.220   2.204   1.280  0.00  0.00    -0.075 A 
ATOM      2  C2  N4B d   1      -0.995   1.960   1.958  0.00  0.00     0.002 A 
ATOM      3  C3  N4B d   1      -1.505   0.686   2.017  0.00  0.00     0.002 A 
ATOM      4  C4  N4B d   1      -0.830  -0.352   1.393  0.00  0.00    -0.004 A 
ATOM      5  C5  N4B d   1       0.356  -0.113   0.762  0.00  0.00     0.002 A 
ATOM      6  C6  N4B d   1       0.882   1.162   0.698  0.00  0.00     0.002 A 
ENDROOT
BRANCH   1   7
ATOM      7  C1' N4B d   1       0.772   3.593   1.115  0.00  0.00     0.057 C 
BRANCH   7   8
ATOM      8  C2' N4B d   1       2.292   3.518   1.004  0.00  0.00     0.009 C 
BRANCH   8   9
ATOM      9  C3' N4B d   1       2.886   4.807   0.463  0.00  0.00     0.004 C 
ATOM     10  C4' N4B d   1       3.610   5.597   1.513  0.00  0.00     0.003 C 
ENDBRANCH   8   9
ENDBRANCH   7   8
ENDBRANCH   1   7
TORSDOF 3
ENDMDL
