MODEL 1
REMARK minimizedAffinity 3.85154414
REMARK minimizedRMSD -1
REMARK  3 active torsions:
REMARK  status: ('A' for Active; 'I' for Inactive)
REMARK    1  A    between atoms: C3'_2  and  C2'_3 
REMARK    2  A    between atoms: C2'_3  and  C1'_4 
REMARK    3  A    between atoms: C1'_4  and  C1_5 
ROOT
ATOM      1  C1  N4B d   1      -1.540  -0.447   0.571  0.00  0.00    -0.075 A 
ATOM      2  C2  N4B d   1      -0.447  -1.193   1.063  0.00  0.00     0.002 A 
ATOM      3  C3  N4B d   1       0.795  -0.615   1.151  0.00  0.00     0.002 A 
ATOM      4  C4  N4B d   1       0.972   0.697   0.737  0.00  0.00    -0.004 A 
ATOM      5  C5  N4B d   1      -0.095   1.419   0.286  0.00  0.00     0.002 A 
ATOM      6  C6  N4B d   1      -1.350   0.851   0.196  0.00  0.00     0.002 A 
ENDROOT
BRANCH   1   7
ATOM      7  C1' N4B d   1      -2.898  -1.063   0.375  0.00  0.00     0.057 C 
BRANCH   7   8
ATOM      8  C2' N4B d   1      -3.404  -0.729  -1.025  0.00  0.00     0.009 C 
BRANCH   8   9
ATOM      9  C3' N4B d   1      -4.128  -1.901  -1.663  0.00  0.00     0.004 C 
ATOM     10  C4' N4B d   1      -3.798  -3.211  -1.013  0.00  0.00     0.003 C 
ENDBRANCH   8   9
ENDBRANCH   7   8
ENDBRANCH   1   7
TORSDOF 3
ENDMDL
