MODEL 1
REMARK minimizedAffinity 5.80393696
REMARK minimizedRMSD -1
REMARK  3 active torsions:
REMARK  status: ('A' for Active; 'I' for Inactive)
REMARK    1  A    between atoms: C3'_2  and  C2'_3 
REMARK    2  A    between atoms: C2'_3  and  C1'_4 
REMARK    3  A    between atoms: C1'_4  and  C1_5 
ROOT
ATOM      1  C1  N4B d   1      -2.778   3.385   1.915  0.00  0.00    -0.075 A 
ATOM      2  C2  N4B d   1      -3.166   4.027   0.718  0.00  0.00     0.002 A 
ATOM      3  C3  N4B d   1      -4.391   4.641   0.634  0.00  0.00     0.002 A 
ATOM      4  C4  N4B d   1      -5.250   4.610   1.723  0.00  0.00    -0.004 A 
ATOM      5  C5  N4B d   1      -4.857   4.010   2.884  0.00  0.00     0.002 A 
ATOM      6  C6  N4B d   1      -3.627   3.393   2.983  0.00  0.00     0.002 A 
ENDROOT
BRANCH   1   7
ATOM      7  C1' N4B d   1      -1.484   2.626   2.026  0.00  0.00     0.057 C 
BRANCH   7   8
ATOM      8  C2' N4B d   1      -1.222   1.889   0.716  0.00  0.00     0.009 C 
BRANCH   8   9
ATOM      9  C3' N4B d   1      -0.235   0.748   0.893  0.00  0.00     0.004 C 
ATOM     10  C4' N4B d   1      -0.856  -0.463   1.523  0.00  0.00     0.003 C 
ENDBRANCH   8   9
ENDBRANCH   7   8
ENDBRANCH   1   7
TORSDOF 3
ENDMDL
