MODEL 1
REMARK minimizedAffinity -2.25036335
REMARK minimizedRMSD -1
REMARK  3 active torsions:
REMARK  status: ('A' for Active; 'I' for Inactive)
REMARK    1  A    between atoms: C3'_2  and  C2'_3 
REMARK    2  A    between atoms: C2'_3  and  C1'_4 
REMARK    3  A    between atoms: C1'_4  and  C1_5 
ROOT
ATOM      1  C1  N4B d   1       0.611   1.159   1.087  0.00  0.00    -0.075 A 
ATOM      2  C2  N4B d   1       0.278   2.264   1.902  0.00  0.00     0.002 A 
ATOM      3  C3  N4B d   1      -0.969   2.344   2.474  0.00  0.00     0.002 A 
ATOM      4  C4  N4B d   1      -1.900   1.346   2.231  0.00  0.00    -0.004 A 
ATOM      5  C5  N4B d   1      -1.562   0.270   1.463  0.00  0.00     0.002 A 
ATOM      6  C6  N4B d   1      -0.312   0.174   0.885  0.00  0.00     0.002 A 
ENDROOT
BRANCH   1   7
ATOM      7  C1' N4B d   1       1.931   1.071   0.371  0.00  0.00     0.057 C 
BRANCH   7   8
ATOM      8  C2' N4B d   1       2.167  -0.372  -0.066  0.00  0.00     0.009 C 
BRANCH   8   9
ATOM      9  C3' N4B d   1       2.953  -0.451  -1.364  0.00  0.00     0.004 C 
ATOM     10  C4' N4B d   1       2.767   0.759  -2.229  0.00  0.00     0.003 C 
ENDBRANCH   8   9
ENDBRANCH   7   8
ENDBRANCH   1   7
TORSDOF 3
ENDMDL
