MODEL 1
REMARK minimizedAffinity -5.72881317
REMARK minimizedRMSD -1
REMARK  3 active torsions:
REMARK  status: ('A' for Active; 'I' for Inactive)
REMARK    1  A    between atoms: C3'_2  and  C2'_3 
REMARK    2  A    between atoms: C2'_3  and  C1'_4 
REMARK    3  A    between atoms: C1'_4  and  C1_5 
ROOT
ATOM      1  C1  N4B d   1       0.486   1.005   0.915  0.00  0.00    -0.075 A 
ATOM      2  C2  N4B d   1      -0.120  -0.259   1.081  0.00  0.00     0.002 A 
ATOM      3  C3  N4B d   1      -1.312  -0.366   1.753  0.00  0.00     0.002 A 
ATOM      4  C4  N4B d   1      -1.905   0.770   2.283  0.00  0.00    -0.004 A 
ATOM      5  C5  N4B d   1      -1.326   1.991   2.097  0.00  0.00     0.002 A 
ATOM      6  C6  N4B d   1      -0.130   2.114   1.419  0.00  0.00     0.002 A 
ENDROOT
BRANCH   1   7
ATOM      7  C1' N4B d   1       1.832   1.161   0.262  0.00  0.00     0.057 C 
BRANCH   7   8
ATOM      8  C2' N4B d   1       2.593  -0.158   0.360  0.00  0.00     0.009 C 
BRANCH   8   9
ATOM      9  C3' N4B d   1       2.971  -0.699  -1.008  0.00  0.00     0.004 C 
ATOM     10  C4' N4B d   1       2.887   0.339  -2.087  0.00  0.00     0.003 C 
ENDBRANCH   8   9
ENDBRANCH   7   8
ENDBRANCH   1   7
TORSDOF 3
ENDMDL
