MODEL 1
REMARK minimizedAffinity 3.85986018
REMARK minimizedRMSD -1
REMARK  3 active torsions:
REMARK  status: ('A' for Active; 'I' for Inactive)
REMARK    1  A    between atoms: C3'_2  and  C2'_3 
REMARK    2  A    between atoms: C2'_3  and  C1'_4 
REMARK    3  A    between atoms: C1'_4  and  C1_5 
ROOT
ATOM      1  C1  N4B d   1      -1.071  -0.500   1.961  0.00  0.00    -0.075 A 
ATOM      2  C2  N4B d   1      -1.790   0.633   1.520  0.00  0.00     0.002 A 
ATOM      3  C3  N4B d   1      -1.173   1.572   0.730  0.00  0.00     0.002 A 
ATOM      4  C4  N4B d   1       0.160   1.410   0.386  0.00  0.00    -0.004 A 
ATOM      5  C5  N4B d   1       0.840   0.300   0.795  0.00  0.00     0.002 A 
ATOM      6  C6  N4B d   1       0.232  -0.654   1.585  0.00  0.00     0.002 A 
ENDROOT
BRANCH   1   7
ATOM      7  C1' N4B d   1      -1.678  -1.510   2.896  0.00  0.00     0.057 C 
BRANCH   7   8
ATOM      8  C2' N4B d   1      -3.198  -1.416   2.818  0.00  0.00     0.009 C 
BRANCH   8   9
ATOM      9  C3' N4B d   1      -3.873  -2.135   3.973  0.00  0.00     0.004 C 
ATOM     10  C4' N4B d   1      -4.947  -3.079   3.523  0.00  0.00     0.003 C 
ENDBRANCH   8   9
ENDBRANCH   7   8
ENDBRANCH   1   7
TORSDOF 3
ENDMDL
