MODEL 1
REMARK minimizedAffinity 5.9817276
REMARK minimizedRMSD -1
REMARK  3 active torsions:
REMARK  status: ('A' for Active; 'I' for Inactive)
REMARK    1  A    between atoms: C3'_2  and  C2'_3 
REMARK    2  A    between atoms: C2'_3  and  C1'_4 
REMARK    3  A    between atoms: C1'_4  and  C1_5 
ROOT
ATOM      1  C1  N4B d   1      -3.705  -3.566  -1.646  0.00  0.00    -0.075 A 
ATOM      2  C2  N4B d   1      -3.295  -3.627  -0.296  0.00  0.00     0.002 A 
ATOM      3  C3  N4B d   1      -2.988  -4.838   0.275  0.00  0.00     0.002 A 
ATOM      4  C4  N4B d   1      -3.101  -5.998  -0.476  0.00  0.00    -0.004 A 
ATOM      5  C5  N4B d   1      -3.472  -5.928  -1.787  0.00  0.00     0.002 A 
ATOM      6  C6  N4B d   1      -3.780  -4.718  -2.375  0.00  0.00     0.002 A 
ENDROOT
BRANCH   1   7
ATOM      7  C1' N4B d   1      -4.134  -2.275  -2.288  0.00  0.00     0.057 C 
BRANCH   7   8
ATOM      8  C2' N4B d   1      -2.971  -1.708  -3.097  0.00  0.00     0.009 C 
BRANCH   8   9
ATOM      9  C3' N4B d   1      -2.558  -2.637  -4.226  0.00  0.00     0.004 C 
ATOM     10  C4' N4B d   1      -1.134  -3.093  -4.111  0.00  0.00     0.003 C 
ENDBRANCH   8   9
ENDBRANCH   7   8
ENDBRANCH   1   7
TORSDOF 3
ENDMDL
