MODEL 1
REMARK minimizedAffinity -0.628713548
REMARK minimizedRMSD -1
REMARK  0 active torsions:
REMARK  status: ('A' for Active; 'I' for Inactive)
ROOT
ATOM      1  C   UNL d   1       1.145  -2.152  -1.418  0.00  0.00     0.172 C 
ATOM      2  N   UNL d   1       0.507  -1.041  -0.752  0.00  0.00    -0.070 N 
ATOM      3  C1  UNL d   1      -0.510  -1.134   0.160  0.00  0.00    -0.004 A 
ATOM      4  C2  UNL d   1      -0.838   0.143   0.559  0.00  0.00    -0.047 A 
ATOM      5  C3  UNL d   1       0.011   1.036  -0.138  0.00  0.00    -0.047 A 
ATOM      6  C4  UNL d   1       0.834   0.276  -0.943  0.00  0.00    -0.004 A 
ENDROOT
TORSDOF 0
ENDMDL
