MODEL 1
REMARK minimizedAffinity -1.47893405
REMARK minimizedRMSD -1
REMARK  0 active torsions:
REMARK  status: ('A' for Active; 'I' for Inactive)
ROOT
ATOM      1  C   UNL d   1       0.058  -0.448  -0.120  0.00  0.00     0.172 C 
ATOM      2  N   UNL d   1      -0.593   0.703   0.460  0.00  0.00    -0.070 N 
ATOM      3  C1  UNL d   1      -0.428   1.151   1.744  0.00  0.00    -0.004 A 
ATOM      4  C2  UNL d   1      -1.218   2.269   1.905  0.00  0.00    -0.047 A 
ATOM      5  C3  UNL d   1      -1.881   2.500   0.677  0.00  0.00    -0.047 A 
ATOM      6  C4  UNL d   1      -1.476   1.516  -0.200  0.00  0.00    -0.004 A 
ENDROOT
TORSDOF 0
ENDMDL
