MODEL 1
REMARK minimizedAffinity -3.13791585
REMARK minimizedRMSD -1
REMARK  0 active torsions:
REMARK  status: ('A' for Active; 'I' for Inactive)
ROOT
ATOM      1  C   UNL d   1       1.152  -0.525  -0.565  0.00  0.00     0.172 C 
ATOM      2  N   UNL d   1       0.140  -0.017   0.331  0.00  0.00    -0.070 N 
ATOM      3  C1  UNL d   1      -0.804   0.924   0.018  0.00  0.00    -0.004 A 
ATOM      4  C2  UNL d   1      -1.578   1.134   1.138  0.00  0.00    -0.047 A 
ATOM      5  C3  UNL d   1      -1.082   0.291   2.161  0.00  0.00    -0.047 A 
ATOM      6  C4  UNL d   1      -0.018  -0.411   1.634  0.00  0.00    -0.004 A 
ENDROOT
TORSDOF 0
ENDMDL
