MODEL 1
REMARK minimizedAffinity -3.11177635
REMARK minimizedRMSD -1
REMARK  0 active torsions:
REMARK  status: ('A' for Active; 'I' for Inactive)
ROOT
ATOM      1  C   UNL d   1       0.921  -0.634  -0.395  0.00  0.00     0.172 C 
ATOM      2  N   UNL d   1       0.073   0.319   0.280  0.00  0.00    -0.070 N 
ATOM      3  C1  UNL d   1      -0.415   0.193   1.553  0.00  0.00    -0.004 A 
ATOM      4  C2  UNL d   1      -1.179   1.307   1.825  0.00  0.00    -0.047 A 
ATOM      5  C3  UNL d   1      -1.150   2.132   0.675  0.00  0.00    -0.047 A 
ATOM      6  C4  UNL d   1      -0.368   1.496  -0.266  0.00  0.00    -0.004 A 
ENDROOT
TORSDOF 0
ENDMDL
