MODEL 1
REMARK minimizedAffinity -1.96904802
REMARK minimizedRMSD -1
REMARK  0 active torsions:
REMARK  status: ('A' for Active; 'I' for Inactive)
ROOT
ATOM      1  C   UNL d   1       0.367  -0.098  -0.783  0.00  0.00     0.172 C 
ATOM      2  N   UNL d   1       0.541  -1.354  -1.473  0.00  0.00    -0.070 N 
ATOM      3  C1  UNL d   1       1.051  -2.501  -0.927  0.00  0.00    -0.004 A 
ATOM      4  C2  UNL d   1       1.052  -3.471  -1.906  0.00  0.00    -0.047 A 
ATOM      5  C3  UNL d   1       0.526  -2.886  -3.082  0.00  0.00    -0.047 A 
ATOM      6  C4  UNL d   1       0.218  -1.575  -2.786  0.00  0.00    -0.004 A 
ENDROOT
TORSDOF 0
ENDMDL
