MODEL 1
REMARK minimizedAffinity -1.23806131
REMARK minimizedRMSD -1
REMARK  0 active torsions:
REMARK  status: ('A' for Active; 'I' for Inactive)
ROOT
ATOM      1  C   UNL d   1      -1.375   1.465   2.287  0.00  0.00     0.172 C 
ATOM      2  N   UNL d   1      -0.795   0.724   1.192  0.00  0.00    -0.070 N 
ATOM      3  C1  UNL d   1      -0.745   1.137  -0.113  0.00  0.00    -0.004 A 
ATOM      4  C2  UNL d   1      -0.115   0.152  -0.843  0.00  0.00    -0.047 A 
ATOM      5  C3  UNL d   1       0.224  -0.889   0.053  0.00  0.00    -0.047 A 
ATOM      6  C4  UNL d   1      -0.208  -0.509   1.306  0.00  0.00    -0.004 A 
ENDROOT
TORSDOF 0
ENDMDL
