MODEL 1
REMARK minimizedAffinity -1.96871614
REMARK minimizedRMSD -1
REMARK  0 active torsions:
REMARK  status: ('A' for Active; 'I' for Inactive)
ROOT
ATOM      1  C   UNL d   1       0.702  -1.330  -0.345  0.00  0.00     0.172 C 
ATOM      2  N   UNL d   1       0.201   0.000  -0.597  0.00  0.00    -0.070 N 
ATOM      3  C1  UNL d   1       0.922   1.040  -1.121  0.00  0.00    -0.004 A 
ATOM      4  C2  UNL d   1       0.087   2.133  -1.205  0.00  0.00    -0.047 A 
ATOM      5  C3  UNL d   1      -1.179   1.738  -0.714  0.00  0.00    -0.047 A 
ATOM      6  C4  UNL d   1      -1.081   0.413  -0.344  0.00  0.00    -0.004 A 
ENDROOT
TORSDOF 0
ENDMDL
