MODEL 1
REMARK minimizedAffinity -1.25576162
REMARK minimizedRMSD -1
REMARK  0 active torsions:
REMARK  status: ('A' for Active; 'I' for Inactive)
ROOT
ATOM      1  C   UNL d   1       0.712  -0.779  -0.718  0.00  0.00     0.172 C 
ATOM      2  N   UNL d   1       0.576  -1.993  -1.487  0.00  0.00    -0.070 N 
ATOM      3  C1  UNL d   1      -0.271  -2.175  -2.548  0.00  0.00    -0.004 A 
ATOM      4  C2  UNL d   1      -0.102  -3.464  -3.006  0.00  0.00    -0.047 A 
ATOM      5  C3  UNL d   1       0.880  -4.077  -2.193  0.00  0.00    -0.047 A 
ATOM      6  C4  UNL d   1       1.283  -3.144  -1.261  0.00  0.00    -0.004 A 
ENDROOT
TORSDOF 0
ENDMDL
