MODEL 1
REMARK minimizedAffinity -1.52656746
REMARK minimizedRMSD -1
REMARK  0 active torsions:
REMARK  status: ('A' for Active; 'I' for Inactive)
ROOT
ATOM      1  C   UNL d   1       1.238  -2.552  -1.870  0.00  0.00     0.172 C 
ATOM      2  N   UNL d   1       1.029  -1.222  -1.347  0.00  0.00    -0.070 N 
ATOM      3  C1  UNL d   1       1.747  -0.107  -1.690  0.00  0.00    -0.004 A 
ATOM      4  C2  UNL d   1       1.242   0.957  -0.976  0.00  0.00    -0.047 A 
ATOM      5  C3  UNL d   1       0.184   0.465  -0.176  0.00  0.00    -0.047 A 
ATOM      6  C4  UNL d   1       0.074  -0.886  -0.425  0.00  0.00    -0.004 A 
ENDROOT
TORSDOF 0
ENDMDL
