MODEL 1
REMARK minimizedAffinity -2.65274453
REMARK minimizedRMSD -1
REMARK  0 active torsions:
REMARK  status: ('A' for Active; 'I' for Inactive)
ROOT
ATOM      1  C   UNL d   1      -1.274   1.169   2.245  0.00  0.00     0.172 C 
ATOM      2  N   UNL d   1      -0.524   0.604   1.148  0.00  0.00    -0.070 N 
ATOM      3  C1  UNL d   1      -0.122   1.278   0.025  0.00  0.00    -0.004 A 
ATOM      4  C2  UNL d   1       0.565   0.392  -0.776  0.00  0.00    -0.047 A 
ATOM      5  C3  UNL d   1       0.576  -0.858  -0.112  0.00  0.00    -0.047 A 
ATOM      6  C4  UNL d   1      -0.105  -0.698   1.077  0.00  0.00    -0.004 A 
ENDROOT
TORSDOF 0
ENDMDL
