MODEL 1
REMARK minimizedAffinity -3.78784299
REMARK minimizedRMSD -1
REMARK  0 active torsions:
REMARK  status: ('A' for Active; 'I' for Inactive)
ROOT
ATOM      1  C   UNL d   1       0.297  -0.942  -0.694  0.00  0.00     0.172 C 
ATOM      2  N   UNL d   1      -0.635  -0.018  -0.089  0.00  0.00    -0.070 N 
ATOM      3  C1  UNL d   1      -0.600   1.345  -0.212  0.00  0.00    -0.004 A 
ATOM      4  C2  UNL d   1      -1.655   1.860   0.510  0.00  0.00    -0.047 A 
ATOM      5  C3  UNL d   1      -2.346   0.769   1.088  0.00  0.00    -0.047 A 
ATOM      6  C4  UNL d   1      -1.693  -0.382   0.701  0.00  0.00    -0.004 A 
ENDROOT
TORSDOF 0
ENDMDL
