MODEL 1
REMARK minimizedAffinity -3.40786982
REMARK minimizedRMSD -1
REMARK  0 active torsions:
REMARK  status: ('A' for Active; 'I' for Inactive)
ROOT
ATOM      1  C   UNL d   1      -0.432   3.279  -0.747  0.00  0.00     0.172 C 
ATOM      2  N   UNL d   1      -0.874   2.312   0.230  0.00  0.00    -0.070 N 
ATOM      3  C1  UNL d   1      -0.656   0.961   0.172  0.00  0.00    -0.004 A 
ATOM      4  C2  UNL d   1      -1.232   0.392   1.287  0.00  0.00    -0.047 A 
ATOM      5  C3  UNL d   1      -1.817   1.437   2.041  0.00  0.00    -0.047 A 
ATOM      6  C4  UNL d   1      -1.580   2.614   1.364  0.00  0.00    -0.004 A 
ENDROOT
TORSDOF 0
ENDMDL
