MODEL 1
REMARK minimizedAffinity -2.82437396
REMARK minimizedRMSD -1
REMARK  0 active torsions:
REMARK  status: ('A' for Active; 'I' for Inactive)
ROOT
ATOM      1  C   UNL d   1       0.374  -0.491  -0.622  0.00  0.00     0.172 C 
ATOM      2  N   UNL d   1      -0.488   0.339   0.187  0.00  0.00    -0.070 N 
ATOM      3  C1  UNL d   1      -0.349   0.561   1.531  0.00  0.00    -0.004 A 
ATOM      4  C2  UNL d   1      -1.364   1.404   1.927  0.00  0.00    -0.047 A 
ATOM      5  C3  UNL d   1      -2.141   1.698   0.781  0.00  0.00    -0.047 A 
ATOM      6  C4  UNL d   1      -1.576   1.025  -0.282  0.00  0.00    -0.004 A 
ENDROOT
TORSDOF 0
ENDMDL
