MODEL 1
REMARK minimizedAffinity -3.11674786
REMARK minimizedRMSD -1
REMARK  0 active torsions:
REMARK  status: ('A' for Active; 'I' for Inactive)
ROOT
ATOM      1  C   UNL d   1      -0.154  -0.284   1.219  0.00  0.00     0.172 C 
ATOM      2  N   UNL d   1      -0.682   1.036   0.965  0.00  0.00    -0.070 N 
ATOM      3  C1  UNL d   1      -0.548   1.739  -0.202  0.00  0.00    -0.004 A 
ATOM      4  C2  UNL d   1      -1.190   2.948  -0.043  0.00  0.00    -0.047 A 
ATOM      5  C3  UNL d   1      -1.728   2.973   1.265  0.00  0.00    -0.047 A 
ATOM      6  C4  UNL d   1      -1.399   1.777   1.868  0.00  0.00    -0.004 A 
ENDROOT
TORSDOF 0
ENDMDL
