MODEL 1
REMARK minimizedAffinity -2.25812745
REMARK minimizedRMSD -1
REMARK  0 active torsions:
REMARK  status: ('A' for Active; 'I' for Inactive)
ROOT
ATOM      1  C   UNL d   1      -1.372   1.128   2.081  0.00  0.00     0.172 C 
ATOM      2  N   UNL d   1      -0.909   0.268   1.018  0.00  0.00    -0.070 N 
ATOM      3  C1  UNL d   1      -1.666  -0.661   0.355  0.00  0.00    -0.004 A 
ATOM      4  C2  UNL d   1      -0.861  -1.270  -0.583  0.00  0.00    -0.047 A 
ATOM      5  C3  UNL d   1       0.425  -0.688  -0.479  0.00  0.00    -0.047 A 
ATOM      6  C4  UNL d   1       0.367   0.261   0.520  0.00  0.00    -0.004 A 
ENDROOT
TORSDOF 0
ENDMDL
