MODEL 1
REMARK minimizedAffinity -3.7556119
REMARK minimizedRMSD -1
REMARK  0 active torsions:
REMARK  status: ('A' for Active; 'I' for Inactive)
ROOT
ATOM      1  C   UNL d   1      -2.014  -0.626  -3.270  0.00  0.00     0.172 C 
ATOM      2  N   UNL d   1      -0.993  -0.297  -2.303  0.00  0.00    -0.070 N 
ATOM      3  C1  UNL d   1      -0.972  -0.700  -0.995  0.00  0.00    -0.004 A 
ATOM      4  C2  UNL d   1       0.162  -0.179  -0.410  0.00  0.00    -0.047 A 
ATOM      5  C3  UNL d   1       0.847   0.563  -1.402  0.00  0.00    -0.047 A 
ATOM      6  C4  UNL d   1       0.110   0.474  -2.564  0.00  0.00    -0.004 A 
ENDROOT
TORSDOF 0
ENDMDL
