MODEL 1
REMARK minimizedAffinity -3.51398826
REMARK minimizedRMSD -1
REMARK  0 active torsions:
REMARK  status: ('A' for Active; 'I' for Inactive)
ROOT
ATOM      1  C   UNL d   1       0.408  -1.663  -1.343  0.00  0.00     0.172 C 
ATOM      2  N   UNL d   1      -0.128  -0.626  -0.493  0.00  0.00    -0.070 N 
ATOM      3  C1  UNL d   1       0.364   0.647  -0.379  0.00  0.00    -0.004 A 
ATOM      4  C2  UNL d   1      -0.422   1.324   0.527  0.00  0.00    -0.047 A 
ATOM      5  C3  UNL d   1      -1.421   0.427   0.975  0.00  0.00    -0.047 A 
ATOM      6  C4  UNL d   1      -1.215  -0.773   0.327  0.00  0.00    -0.004 A 
ENDROOT
TORSDOF 0
ENDMDL
