MODEL 1
REMARK minimizedAffinity 5.81765795
REMARK minimizedRMSD -1
REMARK  1 active torsions:
REMARK  status: ('A' for Active; 'I' for Inactive)
REMARK    1  A    between atoms: C1_2  and  C2_3 
ROOT
ATOM      1  C2  UNL d   1      -2.796  -0.889  -4.757  0.00  0.00    -0.081 A 
ATOM      2  C3  UNL d   1      -3.969  -1.000  -3.999  0.00  0.00     0.006 A 
ATOM      3  C4  UNL d   1      -5.002  -0.074  -4.154  0.00  0.00     0.002 A 
ATOM      4  C5  UNL d   1      -4.885   0.974  -5.073  0.00  0.00    -0.080 A 
ATOM      5  C6  UNL d   1      -5.999   1.958  -5.271  0.00  0.00     0.076 C 
ATOM      6  C7  UNL d   1      -3.706   1.096  -5.818  0.00  0.00     0.002 A 
ATOM      7  C8  UNL d   1      -2.672   0.170  -5.663  0.00  0.00     0.006 A 
ENDROOT
BRANCH   1   8
ATOM      8  C1  UNL d   1      -1.707  -1.924  -4.639  0.00  0.00     0.054 C 
ATOM      9  C   UNL d   1      -1.860  -3.011  -5.693  0.00  0.00     0.018 C 
ENDBRANCH   1   8
TORSDOF 1
ENDMDL
