MODEL 1
REMARK minimizedAffinity -0.54343915
REMARK minimizedRMSD -1
REMARK  1 active torsions:
REMARK  status: ('A' for Active; 'I' for Inactive)
REMARK    1  A    between atoms: C1_2  and  C2_3 
ROOT
ATOM      1  C2  UNL d   1      -3.361   0.267  -4.130  0.00  0.00    -0.081 A 
ATOM      2  C3  UNL d   1      -3.512  -1.085  -3.799  0.00  0.00     0.006 A 
ATOM      3  C4  UNL d   1      -3.321  -1.518  -2.485  0.00  0.00     0.002 A 
ATOM      4  C5  UNL d   1      -2.984  -0.607  -1.479  0.00  0.00    -0.080 A 
ATOM      5  C6  UNL d   1      -2.805  -1.054  -0.059  0.00  0.00     0.076 C 
ATOM      6  C7  UNL d   1      -2.815   0.741  -1.813  0.00  0.00     0.002 A 
ATOM      7  C8  UNL d   1      -3.005   1.175  -3.126  0.00  0.00     0.006 A 
ENDROOT
BRANCH   1   8
ATOM      8  C1  UNL d   1      -3.629   0.748  -5.533  0.00  0.00     0.054 C 
ATOM      9  C   UNL d   1      -5.020   0.344  -6.000  0.00  0.00     0.018 C 
ENDBRANCH   1   8
TORSDOF 1
ENDMDL
