MODEL 1
REMARK minimizedAffinity 6.3199501
REMARK minimizedRMSD -1
REMARK  1 active torsions:
REMARK  status: ('A' for Active; 'I' for Inactive)
REMARK    1  A    between atoms: C1_2  and  C2_3 
ROOT
ATOM      1  C2  UNL d   1      -2.883  -0.899  -4.818  0.00  0.00    -0.081 A 
ATOM      2  C3  UNL d   1      -3.638  -0.691  -5.979  0.00  0.00     0.006 A 
ATOM      3  C4  UNL d   1      -4.655   0.266  -6.000  0.00  0.00     0.002 A 
ATOM      4  C5  UNL d   1      -4.930   1.036  -4.864  0.00  0.00    -0.080 A 
ATOM      5  C6  UNL d   1      -5.999   2.088  -4.883  0.00  0.00     0.076 C 
ATOM      6  C7  UNL d   1      -4.188   0.816  -3.699  0.00  0.00     0.002 A 
ATOM      7  C8  UNL d   1      -3.171  -0.141  -3.677  0.00  0.00     0.006 A 
ENDROOT
BRANCH   1   8
ATOM      8  C1  UNL d   1      -1.743  -1.884  -4.812  0.00  0.00     0.054 C 
ATOM      9  C   UNL d   1      -1.852  -2.864  -5.971  0.00  0.00     0.018 C 
ENDBRANCH   1   8
TORSDOF 1
ENDMDL
