MODEL 1
REMARK minimizedAffinity 2.13602614
REMARK minimizedRMSD -1
REMARK  1 active torsions:
REMARK  status: ('A' for Active; 'I' for Inactive)
REMARK    1  A    between atoms: C1_2  and  C2_3 
ROOT
ATOM      1  C2  UNL d   1       3.520  -1.141   0.203  0.00  0.00    -0.081 A 
ATOM      2  C3  UNL d   1       2.918  -2.369   0.504  0.00  0.00     0.006 A 
ATOM      3  C4  UNL d   1       3.700  -3.484   0.814  0.00  0.00     0.002 A 
ATOM      4  C5  UNL d   1       5.096  -3.389   0.835  0.00  0.00    -0.080 A 
ATOM      5  C6  UNL d   1       5.946  -4.570   1.195  0.00  0.00     0.076 C 
ATOM      6  C7  UNL d   1       5.698  -2.166   0.516  0.00  0.00     0.002 A 
ATOM      7  C8  UNL d   1       4.916  -1.051   0.206  0.00  0.00     0.006 A 
ENDROOT
BRANCH   1   8
ATOM      8  C1  UNL d   1       2.677   0.079  -0.068  0.00  0.00     0.054 C 
ATOM      9  C   UNL d   1       3.543   1.311  -0.290  0.00  0.00     0.018 C 
ENDBRANCH   1   8
TORSDOF 1
ENDMDL
