MODEL 1
REMARK minimizedAffinity -4.39006472
REMARK minimizedRMSD -1
REMARK  1 active torsions:
REMARK  status: ('A' for Active; 'I' for Inactive)
REMARK    1  A    between atoms: C1_2  and  C2_3 
ROOT
ATOM      1  C2  UNL d   1       4.108  -3.296   3.310  0.00  0.00    -0.081 A 
ATOM      2  C3  UNL d   1       2.931  -2.549   3.440  0.00  0.00     0.006 A 
ATOM      3  C4  UNL d   1       2.356  -1.934   2.326  0.00  0.00     0.002 A 
ATOM      4  C5  UNL d   1       2.942  -2.062   1.062  0.00  0.00    -0.080 A 
ATOM      5  C6  UNL d   1       2.318  -1.432  -0.147  0.00  0.00     0.076 C 
ATOM      6  C7  UNL d   1       4.128  -2.793   0.935  0.00  0.00     0.002 A 
ATOM      7  C8  UNL d   1       4.704  -3.408   2.049  0.00  0.00     0.006 A 
ENDROOT
BRANCH   1   8
ATOM      8  C1  UNL d   1       4.696  -4.014   4.497  0.00  0.00     0.054 C 
ATOM      9  C   UNL d   1       4.846  -3.080   5.690  0.00  0.00     0.018 C 
ENDBRANCH   1   8
TORSDOF 1
ENDMDL
