MODEL 1
REMARK minimizedAffinity 6.34347248
REMARK minimizedRMSD -1
REMARK  1 active torsions:
REMARK  status: ('A' for Active; 'I' for Inactive)
REMARK    1  A    between atoms: C1_2  and  C2_3 
ROOT
ATOM      1  C2  UNL d   1      -4.045  -1.479  -3.823  0.00  0.00    -0.081 A 
ATOM      2  C3  UNL d   1      -2.846  -1.614  -4.533  0.00  0.00     0.006 A 
ATOM      3  C4  UNL d   1      -2.321  -0.535  -5.249  0.00  0.00     0.002 A 
ATOM      4  C5  UNL d   1      -2.982   0.698  -5.260  0.00  0.00    -0.080 A 
ATOM      5  C6  UNL d   1      -2.414   1.873  -5.999  0.00  0.00     0.076 C 
ATOM      6  C7  UNL d   1      -4.189   0.828  -4.564  0.00  0.00     0.002 A 
ATOM      7  C8  UNL d   1      -4.714  -0.251  -3.849  0.00  0.00     0.006 A 
ENDROOT
BRANCH   1   8
ATOM      8  C1  UNL d   1      -4.579  -2.621  -2.997  0.00  0.00     0.054 C 
ATOM      9  C   UNL d   1      -5.623  -3.418  -3.766  0.00  0.00     0.018 C 
ENDBRANCH   1   8
TORSDOF 1
ENDMDL
