MODEL 1
REMARK minimizedAffinity -2.88182235
REMARK minimizedRMSD -1
REMARK  2 active torsions:
REMARK  status: ('A' for Active; 'I' for Inactive)
REMARK    1  A    between atoms: C1_2  and  C2_3 
REMARK    2  A    between atoms: C2_3  and  C3_4 
ROOT
ATOM      1  C3  UNL d   1       0.585  -1.892  -0.939  0.00  0.00    -0.075 A 
ATOM      2  C4  UNL d   1      -0.251  -1.862  -2.065  0.00  0.00     0.002 A 
ATOM      3  C5  UNL d   1      -0.696  -3.048  -2.649  0.00  0.00     0.002 A 
ATOM      4  C6  UNL d   1      -0.304  -4.277  -2.123  0.00  0.00    -0.004 A 
ATOM      5  C7  UNL d   1       0.540  -4.319  -1.015  0.00  0.00     0.002 A 
ATOM      6  C8  UNL d   1       0.983  -3.134  -0.426  0.00  0.00     0.002 A 
ENDROOT
BRANCH   1   7
ATOM      7  C2  UNL d   1       1.046  -0.612  -0.284  0.00  0.00     0.056 C 
BRANCH   7   8
ATOM      8  C1  UNL d   1      -0.097   0.296   0.183  0.00  0.00     0.007 C 
ATOM      9  C   UNL d   1      -0.684  -0.120   1.525  0.00  0.00     0.009 C 
ENDBRANCH   7   8
ENDBRANCH   1   7
TORSDOF 2
ENDMDL
