MODEL 1
REMARK minimizedAffinity -3.29443812
REMARK minimizedRMSD -1
REMARK  2 active torsions:
REMARK  status: ('A' for Active; 'I' for Inactive)
REMARK    1  A    between atoms: C1_2  and  C2_3 
REMARK    2  A    between atoms: C2_3  and  C3_4 
ROOT
ATOM      1  C3  UNL d   1       0.661  -1.353  -1.210  0.00  0.00    -0.075 A 
ATOM      2  C4  UNL d   1       0.174  -1.200  -2.516  0.00  0.00     0.002 A 
ATOM      3  C5  UNL d   1       0.006  -2.310  -3.344  0.00  0.00     0.002 A 
ATOM      4  C6  UNL d   1       0.333  -3.583  -2.882  0.00  0.00    -0.004 A 
ATOM      5  C7  UNL d   1       0.833  -3.745  -1.592  0.00  0.00     0.002 A 
ATOM      6  C8  UNL d   1       0.998  -2.636  -0.759  0.00  0.00     0.002 A 
ENDROOT
BRANCH   1   7
ATOM      7  C2  UNL d   1       0.817  -0.159  -0.299  0.00  0.00     0.056 C 
BRANCH   7   8
ATOM      8  C1  UNL d   1       0.400  -0.422   1.152  0.00  0.00     0.007 C 
ATOM      9  C   UNL d   1      -0.706   0.507   1.636  0.00  0.00     0.009 C 
ENDBRANCH   7   8
ENDBRANCH   1   7
TORSDOF 2
ENDMDL
