MODEL 1
REMARK minimizedAffinity -3.37397528
REMARK minimizedRMSD -1
REMARK  2 active torsions:
REMARK  status: ('A' for Active; 'I' for Inactive)
REMARK    1  A    between atoms: C1_2  and  C2_3 
REMARK    2  A    between atoms: C2_3  and  C3_4 
ROOT
ATOM      1  C3  UNL d   1      -0.571   1.191   0.373  0.00  0.00    -0.075 A 
ATOM      2  C4  UNL d   1      -0.065   2.045  -0.618  0.00  0.00     0.002 A 
ATOM      3  C5  UNL d   1      -0.177   3.429  -0.485  0.00  0.00     0.002 A 
ATOM      4  C6  UNL d   1      -0.806   3.976   0.632  0.00  0.00    -0.004 A 
ATOM      5  C7  UNL d   1      -1.327   3.137   1.614  0.00  0.00     0.002 A 
ATOM      6  C8  UNL d   1      -1.212   1.751   1.486  0.00  0.00     0.002 A 
ENDROOT
BRANCH   1   7
ATOM      7  C2  UNL d   1      -0.426  -0.307   0.249  0.00  0.00     0.056 C 
BRANCH   7   8
ATOM      8  C1  UNL d   1       0.922  -0.758  -0.322  0.00  0.00     0.007 C 
ATOM      9  C   UNL d   1       0.794  -1.861  -1.364  0.00  0.00     0.009 C 
ENDBRANCH   7   8
ENDBRANCH   1   7
TORSDOF 2
ENDMDL
