MODEL 1
REMARK minimizedAffinity -2.98493648
REMARK minimizedRMSD -1
REMARK  2 active torsions:
REMARK  status: ('A' for Active; 'I' for Inactive)
REMARK    1  A    between atoms: C1_2  and  C2_3 
REMARK    2  A    between atoms: C2_3  and  C3_4 
ROOT
ATOM      1  C3  UNL d   1       0.506  -0.045   0.041  0.00  0.00    -0.075 A 
ATOM      2  C4  UNL d   1       0.720   1.136  -0.684  0.00  0.00     0.002 A 
ATOM      3  C5  UNL d   1       0.164   2.341  -0.255  0.00  0.00     0.002 A 
ATOM      4  C6  UNL d   1      -0.620   2.379   0.896  0.00  0.00    -0.004 A 
ATOM      5  C7  UNL d   1      -0.854   1.209   1.615  0.00  0.00     0.002 A 
ATOM      6  C8  UNL d   1      -0.295   0.002   1.190  0.00  0.00     0.002 A 
ENDROOT
BRANCH   1   7
ATOM      7  C2  UNL d   1       1.129  -1.347  -0.402  0.00  0.00     0.056 C 
BRANCH   7   8
ATOM      8  C1  UNL d   1       0.428  -1.999  -1.599  0.00  0.00     0.007 C 
ATOM      9  C   UNL d   1       0.815  -3.458  -1.800  0.00  0.00     0.009 C 
ENDBRANCH   7   8
ENDBRANCH   1   7
TORSDOF 2
ENDMDL
