MODEL 1
REMARK minimizedAffinity -1.81455028
REMARK minimizedRMSD -1
REMARK  2 active torsions:
REMARK  status: ('A' for Active; 'I' for Inactive)
REMARK    1  A    between atoms: C1_2  and  C2_3 
REMARK    2  A    between atoms: C2_3  and  C3_4 
ROOT
ATOM      1  C3  UNL d   1       0.863  -0.140   0.444  0.00  0.00    -0.075 A 
ATOM      2  C4  UNL d   1       0.704  -0.815   1.662  0.00  0.00     0.002 A 
ATOM      3  C5  UNL d   1      -0.153  -0.314   2.643  0.00  0.00     0.002 A 
ATOM      4  C6  UNL d   1      -0.853   0.870   2.422  0.00  0.00    -0.004 A 
ATOM      5  C7  UNL d   1      -0.690   1.558   1.222  0.00  0.00     0.002 A 
ATOM      6  C8  UNL d   1       0.164   1.057   0.237  0.00  0.00     0.002 A 
ENDROOT
BRANCH   1   7
ATOM      7  C2  UNL d   1       1.766  -0.691  -0.633  0.00  0.00     0.056 C 
BRANCH   7   8
ATOM      8  C1  UNL d   1       1.664  -2.209  -0.816  0.00  0.00     0.007 C 
ATOM      9  C   UNL d   1       0.859  -2.613  -2.044  0.00  0.00     0.009 C 
ENDBRANCH   7   8
ENDBRANCH   1   7
TORSDOF 2
ENDMDL
