MODEL 1
REMARK minimizedAffinity -2.52729177
REMARK minimizedRMSD -1
REMARK  2 active torsions:
REMARK  status: ('A' for Active; 'I' for Inactive)
REMARK    1  A    between atoms: C1_2  and  C2_3 
REMARK    2  A    between atoms: C2_3  and  C3_4 
ROOT
ATOM      1  C3  UNL d   1       0.260  -1.137  -0.875  0.00  0.00    -0.075 A 
ATOM      2  C4  UNL d   1      -0.090  -1.136  -2.233  0.00  0.00     0.002 A 
ATOM      3  C5  UNL d   1       0.072  -2.285  -3.007  0.00  0.00     0.002 A 
ATOM      4  C6  UNL d   1       0.594  -3.444  -2.438  0.00  0.00    -0.004 A 
ATOM      5  C7  UNL d   1       0.961  -3.452  -1.094  0.00  0.00     0.002 A 
ATOM      6  C8  UNL d   1       0.796  -2.305  -0.316  0.00  0.00     0.002 A 
ENDROOT
BRANCH   1   7
ATOM      7  C2  UNL d   1       0.060   0.095  -0.024  0.00  0.00     0.056 C 
BRANCH   7   8
ATOM      8  C1  UNL d   1      -0.677  -0.170   1.293  0.00  0.00     0.007 C 
ATOM      9  C   UNL d   1      -1.033   1.103   2.049  0.00  0.00     0.009 C 
ENDBRANCH   7   8
ENDBRANCH   1   7
TORSDOF 2
ENDMDL
