MODEL 1
REMARK minimizedAffinity -4.94241381
REMARK minimizedRMSD -1
REMARK  2 active torsions:
REMARK  status: ('A' for Active; 'I' for Inactive)
REMARK    1  A    between atoms: C1_2  and  C2_3 
REMARK    2  A    between atoms: C2_3  and  C3_4 
ROOT
ATOM      1  C3  UNL d   1       0.590  -0.455  -0.038  0.00  0.00    -0.075 A 
ATOM      2  C4  UNL d   1       0.771   0.867  -0.470  0.00  0.00     0.002 A 
ATOM      3  C5  UNL d   1       0.215   1.928   0.245  0.00  0.00     0.002 A 
ATOM      4  C6  UNL d   1      -0.534   1.681   1.393  0.00  0.00    -0.004 A 
ATOM      5  C7  UNL d   1      -0.734   0.371   1.823  0.00  0.00     0.002 A 
ATOM      6  C8  UNL d   1      -0.176  -0.693   1.111  0.00  0.00     0.002 A 
ENDROOT
BRANCH   1   7
ATOM      7  C2  UNL d   1       1.214  -1.606  -0.791  0.00  0.00     0.056 C 
BRANCH   7   8
ATOM      8  C1  UNL d   1       0.417  -2.049  -2.023  0.00  0.00     0.007 C 
ATOM      9  C   UNL d   1       0.051  -3.527  -2.001  0.00  0.00     0.009 C 
ENDBRANCH   7   8
ENDBRANCH   1   7
TORSDOF 2
ENDMDL
