MODEL 1
REMARK minimizedAffinity -3.38301253
REMARK minimizedRMSD -1
REMARK  2 active torsions:
REMARK  status: ('A' for Active; 'I' for Inactive)
REMARK    1  A    between atoms: C1_2  and  C2_3 
REMARK    2  A    between atoms: C2_3  and  C3_4 
ROOT
ATOM      1  C3  UNL d   1       0.874  -0.817  -0.121  0.00  0.00    -0.075 A 
ATOM      2  C4  UNL d   1       0.836  -1.178   1.234  0.00  0.00     0.002 A 
ATOM      3  C5  UNL d   1       0.055  -0.458   2.138  0.00  0.00     0.002 A 
ATOM      4  C6  UNL d   1      -0.690   0.636   1.702  0.00  0.00    -0.004 A 
ATOM      5  C7  UNL d   1      -0.648   1.013   0.362  0.00  0.00     0.002 A 
ATOM      6  C8  UNL d   1       0.130   0.292  -0.546  0.00  0.00     0.002 A 
ENDROOT
BRANCH   1   7
ATOM      7  C2  UNL d   1       1.694  -1.610  -1.109  0.00  0.00     0.056 C 
BRANCH   7   8
ATOM      8  C1  UNL d   1       0.867  -2.281  -2.210  0.00  0.00     0.007 C 
ATOM      9  C   UNL d   1       0.098  -3.503  -1.724  0.00  0.00     0.009 C 
ENDBRANCH   7   8
ENDBRANCH   1   7
TORSDOF 2
ENDMDL
