MODEL 1
REMARK minimizedAffinity -3.05841184
REMARK minimizedRMSD -1
REMARK  2 active torsions:
REMARK  status: ('A' for Active; 'I' for Inactive)
REMARK    1  A    between atoms: C1_2  and  C2_3 
REMARK    2  A    between atoms: C2_3  and  C3_4 
ROOT
ATOM      1  C3  UNL d   1       0.729  -1.883  -1.412  0.00  0.00    -0.075 A 
ATOM      2  C4  UNL d   1       0.236  -1.565  -2.686  0.00  0.00     0.002 A 
ATOM      3  C5  UNL d   1      -0.318  -2.555  -3.498  0.00  0.00     0.002 A 
ATOM      4  C6  UNL d   1      -0.377  -3.874  -3.053  0.00  0.00    -0.004 A 
ATOM      5  C7  UNL d   1       0.124  -4.204  -1.795  0.00  0.00     0.002 A 
ATOM      6  C8  UNL d   1       0.675  -3.215  -0.979  0.00  0.00     0.002 A 
ENDROOT
BRANCH   1   7
ATOM      7  C2  UNL d   1       1.303  -0.812  -0.516  0.00  0.00     0.056 C 
BRANCH   7   8
ATOM      8  C1  UNL d   1       0.261   0.175   0.022  0.00  0.00     0.007 C 
ATOM      9  C   UNL d   1      -0.312  -0.233   1.372  0.00  0.00     0.009 C 
ENDBRANCH   7   8
ENDBRANCH   1   7
TORSDOF 2
ENDMDL
