MODEL 1
REMARK minimizedAffinity -3.68368268
REMARK minimizedRMSD -1
REMARK  2 active torsions:
REMARK  status: ('A' for Active; 'I' for Inactive)
REMARK    1  A    between atoms: C1_2  and  C2_3 
REMARK    2  A    between atoms: C2_3  and  C3_4 
ROOT
ATOM      1  C3  UNL d   1       0.340  -1.119  -1.117  0.00  0.00    -0.075 A 
ATOM      2  C4  UNL d   1      -0.177  -1.073  -2.420  0.00  0.00     0.002 A 
ATOM      3  C5  UNL d   1       0.038  -2.131  -3.304  0.00  0.00     0.002 A 
ATOM      4  C6  UNL d   1       0.778  -3.240  -2.902  0.00  0.00    -0.004 A 
ATOM      5  C7  UNL d   1       1.310  -3.289  -1.615  0.00  0.00     0.002 A 
ATOM      6  C8  UNL d   1       1.094  -2.234  -0.727  0.00  0.00     0.002 A 
ENDROOT
BRANCH   1   7
ATOM      7  C2  UNL d   1       0.087   0.009  -0.145  0.00  0.00     0.056 C 
BRANCH   7   8
ATOM      8  C1  UNL d   1      -0.121  -0.449   1.302  0.00  0.00     0.007 C 
ATOM      9  C   UNL d   1      -1.211   0.329   2.028  0.00  0.00     0.009 C 
ENDBRANCH   7   8
ENDBRANCH   1   7
TORSDOF 2
ENDMDL
