MODEL 1
REMARK minimizedAffinity -1.3971554
REMARK minimizedRMSD -1
REMARK  2 active torsions:
REMARK  status: ('A' for Active; 'I' for Inactive)
REMARK    1  A    between atoms: C1_2  and  C2_3 
REMARK    2  A    between atoms: C2_3  and  C3_4 
ROOT
ATOM      1  C3  UNL d   1       0.835  -1.629  -1.573  0.00  0.00    -0.075 A 
ATOM      2  C4  UNL d   1       0.089  -1.859  -2.738  0.00  0.00     0.002 A 
ATOM      3  C5  UNL d   1      -0.042  -3.149  -3.253  0.00  0.00     0.002 A 
ATOM      4  C6  UNL d   1       0.579  -4.222  -2.617  0.00  0.00    -0.004 A 
ATOM      5  C7  UNL d   1       1.337  -4.003  -1.469  0.00  0.00     0.002 A 
ATOM      6  C8  UNL d   1       1.466  -2.714  -0.949  0.00  0.00     0.002 A 
ENDROOT
BRANCH   1   7
ATOM      7  C2  UNL d   1       0.956  -0.240  -0.994  0.00  0.00     0.056 C 
BRANCH   7   8
ATOM      8  C1  UNL d   1      -0.210   0.160  -0.084  0.00  0.00     0.007 C 
ATOM      9  C   UNL d   1      -0.024  -0.283   1.361  0.00  0.00     0.009 C 
ENDBRANCH   7   8
ENDBRANCH   1   7
TORSDOF 2
ENDMDL
