MODEL 1
REMARK minimizedAffinity -4.05527401
REMARK minimizedRMSD -1
REMARK  2 active torsions:
REMARK  status: ('A' for Active; 'I' for Inactive)
REMARK    1  A    between atoms: C1_2  and  C2_3 
REMARK    2  A    between atoms: C2_3  and  C3_4 
ROOT
ATOM      1  C3  UNL d   1       1.072  -1.798  -1.735  0.00  0.00    -0.075 A 
ATOM      2  C4  UNL d   1       0.608  -1.720  -3.056  0.00  0.00     0.002 A 
ATOM      3  C5  UNL d   1       0.091  -2.849  -3.692  0.00  0.00     0.002 A 
ATOM      4  C6  UNL d   1       0.041  -4.069  -3.022  0.00  0.00    -0.004 A 
ATOM      5  C7  UNL d   1       0.515  -4.161  -1.715  0.00  0.00     0.002 A 
ATOM      6  C8  UNL d   1       1.029  -3.032  -1.074  0.00  0.00     0.002 A 
ENDROOT
BRANCH   1   7
ATOM      7  C2  UNL d   1       1.606  -0.573  -1.031  0.00  0.00     0.056 C 
BRANCH   7   8
ATOM      8  C1  UNL d   1       0.543   0.216  -0.259  0.00  0.00     0.007 C 
ATOM      9  C   UNL d   1       0.351  -0.274   1.170  0.00  0.00     0.009 C 
ENDBRANCH   7   8
ENDBRANCH   1   7
TORSDOF 2
ENDMDL
