MODEL 1
REMARK minimizedAffinity -5.29449272
REMARK minimizedRMSD -1
REMARK  2 active torsions:
REMARK  status: ('A' for Active; 'I' for Inactive)
REMARK    1  A    between atoms: C1_2  and  C2_3 
REMARK    2  A    between atoms: C2_3  and  C3_4 
ROOT
ATOM      1  C3  UNL d   1       0.309  -1.166  -0.903  0.00  0.00    -0.075 A 
ATOM      2  C4  UNL d   1      -0.660  -1.540  -1.846  0.00  0.00     0.002 A 
ATOM      3  C5  UNL d   1      -0.484  -2.681  -2.628  0.00  0.00     0.002 A 
ATOM      4  C6  UNL d   1       0.665  -3.456  -2.486  0.00  0.00    -0.004 A 
ATOM      5  C7  UNL d   1       1.642  -3.085  -1.565  0.00  0.00     0.002 A 
ATOM      6  C8  UNL d   1       1.466  -1.946  -0.778  0.00  0.00     0.002 A 
ENDROOT
BRANCH   1   7
ATOM      7  C2  UNL d   1       0.110   0.052  -0.033  0.00  0.00     0.056 C 
BRANCH   7   8
ATOM      8  C1  UNL d   1      -0.012  -0.263   1.462  0.00  0.00     0.007 C 
ATOM      9  C   UNL d   1      -1.406  -0.003   2.018  0.00  0.00     0.009 C 
ENDBRANCH   7   8
ENDBRANCH   1   7
TORSDOF 2
ENDMDL
