MODEL 1
REMARK minimizedAffinity -4.9482708
REMARK minimizedRMSD -1
REMARK  2 active torsions:
REMARK  status: ('A' for Active; 'I' for Inactive)
REMARK    1  A    between atoms: C1_2  and  C2_3 
REMARK    2  A    between atoms: C2_3  and  C3_4 
ROOT
ATOM      1  C3  UNL d   1      -0.310   0.153   0.445  0.00  0.00    -0.075 A 
ATOM      2  C4  UNL d   1      -0.138   1.336  -0.288  0.00  0.00     0.002 A 
ATOM      3  C5  UNL d   1      -0.751   2.520   0.125  0.00  0.00     0.002 A 
ATOM      4  C6  UNL d   1      -1.551   2.533   1.265  0.00  0.00    -0.004 A 
ATOM      5  C7  UNL d   1      -1.742   1.359   1.991  0.00  0.00     0.002 A 
ATOM      6  C8  UNL d   1      -1.126   0.174   1.583  0.00  0.00     0.002 A 
ENDROOT
BRANCH   1   7
ATOM      7  C2  UNL d   1       0.375  -1.124   0.021  0.00  0.00     0.056 C 
BRANCH   7   8
ATOM      8  C1  UNL d   1       0.743  -1.171  -1.466  0.00  0.00     0.007 C 
ATOM      9  C   UNL d   1       0.405  -2.501  -2.127  0.00  0.00     0.009 C 
ENDBRANCH   7   8
ENDBRANCH   1   7
TORSDOF 2
ENDMDL
