MODEL 1
REMARK minimizedAffinity -2.78317833
REMARK minimizedRMSD -1
REMARK  0 active torsions:
REMARK  status: ('A' for Active; 'I' for Inactive)
ROOT
ATOM      1  C2' OXE d   1       1.520  -0.336   1.563  0.00  0.00     0.078 C 
ATOM      2  C1' OXE d   1       0.293  -0.634  -0.944  0.00  0.00     0.078 C 
ATOM      3  C1  OXE d   1      -0.344   0.313   0.043  0.00  0.00    -0.078 A 
ATOM      4  C2  OXE d   1       0.237   0.417   1.284  0.00  0.00    -0.078 A 
ATOM      5  C3  OXE d   1      -0.278   1.316   2.213  0.00  0.00     0.003 A 
ATOM      6  C4  OXE d   1      -1.470   2.001   1.950  0.00  0.00    -0.002 A 
ATOM      7  C5  OXE d   1      -2.100   1.880   0.707  0.00  0.00    -0.002 A 
ATOM      8  C6  OXE d   1      -1.528   1.074  -0.271  0.00  0.00     0.003 A 
ENDROOT
TORSDOF 0
ENDMDL
