MODEL 1
REMARK minimizedAffinity -1.30956316
REMARK minimizedRMSD -1
REMARK  0 active torsions:
REMARK  status: ('A' for Active; 'I' for Inactive)
ROOT
ATOM      1  C2' OXE d   1      -0.951   2.468  -1.675  0.00  0.00     0.078 C 
ATOM      2  C1' OXE d   1      -0.870   2.911   1.096  0.00  0.00     0.078 C 
ATOM      3  C1  OXE d   1      -0.444   1.557   0.587  0.00  0.00    -0.078 A 
ATOM      4  C2  OXE d   1      -0.531   1.333  -0.766  0.00  0.00    -0.078 A 
ATOM      5  C3  OXE d   1      -0.098   0.120  -1.294  0.00  0.00     0.003 A 
ATOM      6  C4  OXE d   1       0.280  -0.928  -0.445  0.00  0.00    -0.002 A 
ATOM      7  C5  OXE d   1       0.338  -0.734   0.939  0.00  0.00    -0.002 A 
ATOM      8  C6  OXE d   1       0.021   0.513   1.467  0.00  0.00     0.003 A 
ENDROOT
TORSDOF 0
ENDMDL
