MODEL 1
REMARK minimizedAffinity -5.41138458
REMARK minimizedRMSD -1
REMARK  0 active torsions:
REMARK  status: ('A' for Active; 'I' for Inactive)
ROOT
ATOM      1  C2' OXE d   1       1.298  -0.970   1.761  0.00  0.00     0.078 C 
ATOM      2  C1' OXE d   1       0.742  -1.409  -0.955  0.00  0.00     0.078 C 
ATOM      3  C1  OXE d   1       0.122  -0.203  -0.296  0.00  0.00    -0.078 A 
ATOM      4  C2  OXE d   1       0.361  -0.022   1.045  0.00  0.00    -0.078 A 
ATOM      5  C3  OXE d   1      -0.142   1.105   1.689  0.00  0.00     0.003 A 
ATOM      6  C4  OXE d   1      -1.016   1.972   1.022  0.00  0.00    -0.002 A 
ATOM      7  C5  OXE d   1      -1.305   1.783  -0.334  0.00  0.00    -0.002 A 
ATOM      8  C6  OXE d   1      -0.712   0.727  -1.017  0.00  0.00     0.003 A 
ENDROOT
TORSDOF 0
ENDMDL
