MODEL 1
REMARK minimizedAffinity -3.67439413
REMARK minimizedRMSD -1
REMARK  0 active torsions:
REMARK  status: ('A' for Active; 'I' for Inactive)
ROOT
ATOM      1  C2' OXE d   1       0.426  -0.721  -0.873  0.00  0.00     0.078 C 
ATOM      2  C1' OXE d   1      -0.920   1.601  -1.697  0.00  0.00     0.078 C 
ATOM      3  C1  OXE d   1      -0.689   1.408  -0.219  0.00  0.00    -0.078 A 
ATOM      4  C2  OXE d   1      -0.072   0.247   0.178  0.00  0.00    -0.078 A 
ATOM      5  C3  OXE d   1       0.214   0.044   1.526  0.00  0.00     0.003 A 
ATOM      6  C4  OXE d   1      -0.259   0.940   2.493  0.00  0.00    -0.002 A 
ATOM      7  C5  OXE d   1      -0.925   2.110   2.112  0.00  0.00    -0.002 A 
ATOM      8  C6  OXE d   1      -1.110   2.379   0.761  0.00  0.00     0.003 A 
ENDROOT
TORSDOF 0
ENDMDL
