MODEL 1
REMARK minimizedAffinity -2.51422048
REMARK minimizedRMSD -1
REMARK  0 active torsions:
REMARK  status: ('A' for Active; 'I' for Inactive)
ROOT
ATOM      1  C2' OXE d   1      -1.199   2.189   1.825  0.00  0.00     0.078 C 
ATOM      2  C1' OXE d   1       0.536   0.226   2.832  0.00  0.00     0.078 C 
ATOM      3  C1  OXE d   1       0.093   0.103   1.395  0.00  0.00    -0.078 A 
ATOM      4  C2  OXE d   1      -0.792   1.043   0.925  0.00  0.00    -0.078 A 
ATOM      5  C3  OXE d   1      -1.190   1.008  -0.409  0.00  0.00     0.003 A 
ATOM      6  C4  OXE d   1      -0.818  -0.062  -1.232  0.00  0.00    -0.002 A 
ATOM      7  C5  OXE d   1       0.052  -1.051  -0.761  0.00  0.00    -0.002 A 
ATOM      8  C6  OXE d   1       0.549  -0.960   0.534  0.00  0.00     0.003 A 
ENDROOT
TORSDOF 0
ENDMDL
