MODEL 1
REMARK minimizedAffinity -3.14066148
REMARK minimizedRMSD -1
REMARK  0 active torsions:
REMARK  status: ('A' for Active; 'I' for Inactive)
ROOT
ATOM      1  C2' OXE d   1      -1.175   2.343  -1.418  0.00  0.00     0.078 C 
ATOM      2  C1' OXE d   1      -1.251   2.219   1.386  0.00  0.00     0.078 C 
ATOM      3  C1  OXE d   1      -0.616   1.067   0.648  0.00  0.00    -0.078 A 
ATOM      4  C2  OXE d   1      -0.625   1.114  -0.725  0.00  0.00    -0.078 A 
ATOM      5  C3  OXE d   1      -0.004   0.104  -1.454  0.00  0.00     0.003 A 
ATOM      6  C4  OXE d   1       0.493  -1.034  -0.807  0.00  0.00    -0.002 A 
ATOM      7  C5  OXE d   1       0.477  -1.120   0.589  0.00  0.00    -0.002 A 
ATOM      8  C6  OXE d   1      -0.034  -0.061   1.332  0.00  0.00     0.003 A 
ENDROOT
TORSDOF 0
ENDMDL
