MODEL 1
REMARK minimizedAffinity -6.10452604
REMARK minimizedRMSD -1
REMARK  0 active torsions:
REMARK  status: ('A' for Active; 'I' for Inactive)
ROOT
ATOM      1  C2' OXE d   1       0.440  -0.311   1.689  0.00  0.00     0.078 C 
ATOM      2  C1' OXE d   1       0.438  -0.086  -1.109  0.00  0.00     0.078 C 
ATOM      3  C1  OXE d   1      -0.094   1.077  -0.310  0.00  0.00    -0.078 A 
ATOM      4  C2  OXE d   1      -0.133   0.939   1.057  0.00  0.00    -0.078 A 
ATOM      5  C3  OXE d   1      -0.564   2.003   1.845  0.00  0.00     0.003 A 
ATOM      6  C4  OXE d   1      -1.102   3.152   1.252  0.00  0.00    -0.002 A 
ATOM      7  C5  OXE d   1      -1.109   3.296  -0.140  0.00  0.00    -0.002 A 
ATOM      8  C6  OXE d   1      -0.571   2.288  -0.932  0.00  0.00     0.003 A 
ENDROOT
TORSDOF 0
ENDMDL
