MODEL 1
REMARK minimizedAffinity -3.74847293
REMARK minimizedRMSD -1
REMARK  0 active torsions:
REMARK  status: ('A' for Active; 'I' for Inactive)
ROOT
ATOM      1  C2' OXE d   1       1.369  -0.235   1.919  0.00  0.00     0.078 C 
ATOM      2  C1' OXE d   1       0.545  -0.812  -0.702  0.00  0.00     0.078 C 
ATOM      3  C1  OXE d   1      -0.101   0.357  -0.003  0.00  0.00    -0.078 A 
ATOM      4  C2  OXE d   1       0.274   0.604   1.296  0.00  0.00    -0.078 A 
ATOM      5  C3  OXE d   1      -0.251   1.704   1.968  0.00  0.00     0.003 A 
ATOM      6  C4  OXE d   1      -1.270   2.469   1.389  0.00  0.00    -0.002 A 
ATOM      7  C5  OXE d   1      -1.696   2.210   0.082  0.00  0.00    -0.002 A 
ATOM      8  C6  OXE d   1      -1.093   1.187  -0.641  0.00  0.00     0.003 A 
ENDROOT
TORSDOF 0
ENDMDL
