MODEL 1
REMARK minimizedAffinity -5.34540319
REMARK minimizedRMSD -1
REMARK  0 active torsions:
REMARK  status: ('A' for Active; 'I' for Inactive)
ROOT
ATOM      1  C2' OXE d   1       0.272  -1.144  -0.717  0.00  0.00     0.078 C 
ATOM      2  C1' OXE d   1       0.903  -1.183   2.018  0.00  0.00     0.078 C 
ATOM      3  C1  OXE d   1       0.130   0.000   1.491  0.00  0.00    -0.078 A 
ATOM      4  C2  OXE d   1      -0.134   0.033   0.143  0.00  0.00    -0.078 A 
ATOM      5  C3  OXE d   1      -0.891   1.074  -0.386  0.00  0.00     0.003 A 
ATOM      6  C4  OXE d   1      -1.254   2.164   0.414  0.00  0.00    -0.002 A 
ATOM      7  C5  OXE d   1      -0.961   2.170   1.782  0.00  0.00    -0.002 A 
ATOM      8  C6  OXE d   1      -0.308   1.078   2.343  0.00  0.00     0.003 A 
ENDROOT
TORSDOF 0
ENDMDL
