MODEL 1
REMARK minimizedAffinity -3.34013772
REMARK minimizedRMSD -1
REMARK  0 active torsions:
REMARK  status: ('A' for Active; 'I' for Inactive)
ROOT
ATOM      1  C2' OXE d   1      -0.038   0.065  -0.013  0.00  0.00     0.078 C 
ATOM      2  C1' OXE d   1       1.641  -0.524  -2.183  0.00  0.00     0.078 C 
ATOM      3  C1  OXE d   1       0.595  -1.543  -1.806  0.00  0.00    -0.078 A 
ATOM      4  C2  OXE d   1      -0.191  -1.267  -0.714  0.00  0.00    -0.078 A 
ATOM      5  C3  OXE d   1      -1.208  -2.148  -0.356  0.00  0.00     0.003 A 
ATOM      6  C4  OXE d   1      -1.336  -3.383  -1.004  0.00  0.00    -0.002 A 
ATOM      7  C5  OXE d   1      -0.519  -3.701  -2.094  0.00  0.00    -0.002 A 
ATOM      8  C6  OXE d   1       0.421  -2.776  -2.534  0.00  0.00     0.003 A 
ENDROOT
TORSDOF 0
ENDMDL
