MODEL 1
REMARK minimizedAffinity -1.11894107
REMARK minimizedRMSD -1
REMARK  0 active torsions:
REMARK  status: ('A' for Active; 'I' for Inactive)
ROOT
ATOM      1  C2' OXE d   1      -0.003   2.597   1.864  0.00  0.00     0.078 C 
ATOM      2  C1' OXE d   1       0.770  -0.067   2.291  0.00  0.00     0.078 C 
ATOM      3  C1  OXE d   1       0.478   0.362   0.875  0.00  0.00    -0.078 A 
ATOM      4  C2  OXE d   1       0.055   1.655   0.681  0.00  0.00    -0.078 A 
ATOM      5  C3  OXE d   1      -0.176   2.118  -0.612  0.00  0.00     0.003 A 
ATOM      6  C4  OXE d   1      -0.130   1.237  -1.699  0.00  0.00    -0.002 A 
ATOM      7  C5  OXE d   1       0.260  -0.094  -1.518  0.00  0.00    -0.002 A 
ATOM      8  C6  OXE d   1       0.608  -0.535  -0.247  0.00  0.00     0.003 A 
ENDROOT
TORSDOF 0
ENDMDL
