MODEL 1
REMARK minimizedAffinity -4.6922369
REMARK minimizedRMSD -1
REMARK  0 active torsions:
REMARK  status: ('A' for Active; 'I' for Inactive)
ROOT
ATOM      1  C2' OXE d   1       0.378  -0.514  -0.913  0.00  0.00     0.078 C 
ATOM      2  C1' OXE d   1      -0.437   2.057  -1.691  0.00  0.00     0.078 C 
ATOM      3  C1  OXE d   1      -0.287   1.784  -0.215  0.00  0.00    -0.078 A 
ATOM      4  C2  OXE d   1       0.067   0.509   0.158  0.00  0.00    -0.078 A 
ATOM      5  C3  OXE d   1       0.273   0.218   1.504  0.00  0.00     0.003 A 
ATOM      6  C4  OXE d   1      -0.026   1.167   2.489  0.00  0.00    -0.002 A 
ATOM      7  C5  OXE d   1      -0.426   2.459   2.131  0.00  0.00    -0.002 A 
ATOM      8  C6  OXE d   1      -0.520   2.795   0.785  0.00  0.00     0.003 A 
ENDROOT
TORSDOF 0
ENDMDL
