MODEL 1
REMARK minimizedAffinity -4.42648077
REMARK minimizedRMSD -1
REMARK  0 active torsions:
REMARK  status: ('A' for Active; 'I' for Inactive)
ROOT
ATOM      1  C2' OXE d   1       0.336  -0.398   1.412  0.00  0.00     0.078 C 
ATOM      2  C1' OXE d   1      -1.210   1.940   1.268  0.00  0.00     0.078 C 
ATOM      3  C1  OXE d   1      -0.490   1.496   0.020  0.00  0.00    -0.078 A 
ATOM      4  C2  OXE d   1       0.302   0.376   0.112  0.00  0.00    -0.078 A 
ATOM      5  C3  OXE d   1       0.945  -0.109  -1.024  0.00  0.00     0.003 A 
ATOM      6  C4  OXE d   1       0.916   0.619  -2.220  0.00  0.00    -0.002 A 
ATOM      7  C5  OXE d   1       0.148   1.784  -2.324  0.00  0.00    -0.002 A 
ATOM      8  C6  OXE d   1      -0.594   2.211  -1.228  0.00  0.00     0.003 A 
ENDROOT
TORSDOF 0
ENDMDL
