MODEL 1
REMARK minimizedAffinity 6.89031363
REMARK minimizedRMSD -1
REMARK  0 active torsions:
REMARK  status: ('A' for Active; 'I' for Inactive)
ROOT
ATOM      1  C1  DEN d   1       1.911   1.503   0.101  0.00  0.00     0.130 A 
ATOM      2  C2  DEN d   1       1.378   2.545  -0.773  0.00  0.00    -0.031 A 
ATOM      3  C3  DEN d   1       0.160   2.019  -1.421  0.00  0.00     0.027 A 
ATOM      4  C4  DEN d   1      -0.950  -0.294  -1.153  0.00  0.00     0.027 A 
ATOM      5  C5  DEN d   1      -0.856  -1.519  -0.530  0.00  0.00    -0.003 A 
ATOM      6  C6  DEN d   1       0.177  -1.832   0.313  0.00  0.00     0.001 A 
ATOM      7  C7  DEN d   1       1.134  -0.892   0.593  0.00  0.00     0.017 A 
ATOM      8  C8  DEN d   1       1.050   0.343  -0.037  0.00  0.00    -0.094 A 
ATOM      9  C9  DEN d   1      -0.009   0.644  -0.877  0.00  0.00    -0.072 A 
ENDROOT
TORSDOF 0
ENDMDL
