MODEL 1
REMARK minimizedAffinity 0.315310299
REMARK minimizedRMSD -1
REMARK  0 active torsions:
REMARK  status: ('A' for Active; 'I' for Inactive)
ROOT
ATOM      1  C1  DEN d   1       5.948   0.034  -1.968  0.00  0.00     0.130 A 
ATOM      2  C2  DEN d   1       5.973   1.492  -2.052  0.00  0.00    -0.031 A 
ATOM      3  C3  DEN d   1       5.995   1.867  -3.480  0.00  0.00     0.027 A 
ATOM      4  C4  DEN d   1       5.988   0.340  -5.559  0.00  0.00     0.027 A 
ATOM      5  C5  DEN d   1       5.982  -0.967  -5.991  0.00  0.00    -0.003 A 
ATOM      6  C6  DEN d   1       5.998  -2.024  -5.120  0.00  0.00     0.001 A 
ATOM      7  C7  DEN d   1       5.976  -1.792  -3.770  0.00  0.00     0.017 A 
ATOM      8  C8  DEN d   1       5.990  -0.476  -3.327  0.00  0.00    -0.094 A 
ATOM      9  C9  DEN d   1       5.960   0.579  -4.223  0.00  0.00    -0.072 A 
ENDROOT
TORSDOF 0
ENDMDL
