MODEL 1
REMARK minimizedAffinity -1.1342293
REMARK minimizedRMSD -1
REMARK  0 active torsions:
REMARK  status: ('A' for Active; 'I' for Inactive)
ROOT
ATOM      1  C1  DEN d   1       2.596   0.909  -2.929  0.00  0.00     0.130 A 
ATOM      2  C2  DEN d   1       1.510   1.862  -3.144  0.00  0.00    -0.031 A 
ATOM      3  C3  DEN d   1       2.040   3.220  -2.906  0.00  0.00     0.027 A 
ATOM      4  C4  DEN d   1       4.426   3.935  -2.234  0.00  0.00     0.027 A 
ATOM      5  C5  DEN d   1       5.689   3.481  -1.925  0.00  0.00    -0.003 A 
ATOM      6  C6  DEN d   1       5.998   2.147  -1.895  0.00  0.00     0.001 A 
ATOM      7  C7  DEN d   1       5.043   1.221  -2.225  0.00  0.00     0.017 A 
ATOM      8  C8  DEN d   1       3.765   1.671  -2.531  0.00  0.00    -0.094 A 
ATOM      9  C9  DEN d   1       3.476   3.025  -2.566  0.00  0.00    -0.072 A 
ENDROOT
TORSDOF 0
ENDMDL
