MODEL 1
REMARK minimizedAffinity 10.1862116
REMARK minimizedRMSD -1
REMARK  0 active torsions:
REMARK  status: ('A' for Active; 'I' for Inactive)
ROOT
ATOM      1  C1  DEN d   1      -2.125  -3.072  -0.122  0.00  0.00     0.130 A 
ATOM      2  C2  DEN d   1      -1.643  -1.713  -0.353  0.00  0.00    -0.031 A 
ATOM      3  C3  DEN d   1      -0.195  -1.687  -0.063  0.00  0.00     0.027 A 
ATOM      4  C4  DEN d   1       1.340  -3.611   0.711  0.00  0.00     0.027 A 
ATOM      5  C5  DEN d   1       1.382  -4.944   1.054  0.00  0.00    -0.003 A 
ATOM      6  C6  DEN d   1       0.262  -5.732   1.062  0.00  0.00     0.001 A 
ATOM      7  C7  DEN d   1      -0.942  -5.204   0.676  0.00  0.00     0.017 A 
ATOM      8  C8  DEN d   1      -0.994  -3.859   0.336  0.00  0.00    -0.094 A 
ATOM      9  C9  DEN d   1       0.152  -3.082   0.323  0.00  0.00    -0.072 A 
ENDROOT
TORSDOF 0
ENDMDL
