MODEL 1
REMARK minimizedAffinity 7.89107847
REMARK minimizedRMSD -1
REMARK  0 active torsions:
REMARK  status: ('A' for Active; 'I' for Inactive)
ROOT
ATOM      1  C1  DEN d   1       1.835  -2.475   0.406  0.00  0.00     0.130 A 
ATOM      2  C2  DEN d   1       0.679  -1.639   0.094  0.00  0.00    -0.031 A 
ATOM      3  C3  DEN d   1      -0.541  -2.425   0.371  0.00  0.00     0.027 A 
ATOM      4  C4  DEN d   1      -0.750  -4.840   1.250  0.00  0.00     0.027 A 
ATOM      5  C5  DEN d   1      -0.045  -5.955   1.648  0.00  0.00    -0.003 A 
ATOM      6  C6  DEN d   1       1.323  -5.999   1.627  0.00  0.00     0.001 A 
ATOM      7  C7  DEN d   1       2.033  -4.892   1.243  0.00  0.00     0.017 A 
ATOM      8  C8  DEN d   1       1.329  -3.767   0.834  0.00  0.00    -0.094 A 
ATOM      9  C9  DEN d   1      -0.054  -3.738   0.873  0.00  0.00    -0.072 A 
ENDROOT
TORSDOF 0
ENDMDL
