MODEL 1
REMARK minimizedAffinity 0.0853202567
REMARK minimizedRMSD -1
REMARK  0 active torsions:
REMARK  status: ('A' for Active; 'I' for Inactive)
ROOT
ATOM      1  C1  DEN d   1       6.000   0.328  -2.112  0.00  0.00     0.130 A 
ATOM      2  C2  DEN d   1       5.714   1.754  -2.248  0.00  0.00    -0.031 A 
ATOM      3  C3  DEN d   1       5.343   2.013  -3.653  0.00  0.00     0.027 A 
ATOM      4  C4  DEN d   1       5.182   0.355  -5.622  0.00  0.00     0.027 A 
ATOM      5  C5  DEN d   1       5.342  -0.961  -5.997  0.00  0.00    -0.003 A 
ATOM      6  C6  DEN d   1       5.762  -1.925  -5.120  0.00  0.00     0.001 A 
ATOM      7  C7  DEN d   1       5.993  -1.596  -3.810  0.00  0.00     0.017 A 
ATOM      8  C8  DEN d   1       5.841  -0.270  -3.426  0.00  0.00    -0.094 A 
ATOM      9  C9  DEN d   1       5.404   0.687  -4.325  0.00  0.00    -0.072 A 
ENDROOT
TORSDOF 0
ENDMDL
