MODEL 1
REMARK minimizedAffinity 11.4616222
REMARK minimizedRMSD -1
REMARK  0 active torsions:
REMARK  status: ('A' for Active; 'I' for Inactive)
ROOT
ATOM      1  C1  DEN d   1       4.111   3.163  -4.190  0.00  0.00     0.130 A 
ATOM      2  C2  DEN d   1       3.233   3.701  -5.225  0.00  0.00    -0.031 A 
ATOM      3  C3  DEN d   1       1.903   3.925  -4.623  0.00  0.00     0.027 A 
ATOM      4  C4  DEN d   1       1.124   3.497  -2.202  0.00  0.00     0.027 A 
ATOM      5  C5  DEN d   1       1.511   3.034  -0.964  0.00  0.00    -0.003 A 
ATOM      6  C6  DEN d   1       2.771   2.554  -0.725  0.00  0.00     0.001 A 
ATOM      7  C7  DEN d   1       3.705   2.568  -1.727  0.00  0.00     0.017 A 
ATOM      8  C8  DEN d   1       3.320   3.026  -2.981  0.00  0.00    -0.094 A 
ATOM      9  C9  DEN d   1       2.044   3.518  -3.199  0.00  0.00    -0.072 A 
ENDROOT
TORSDOF 0
ENDMDL
