MODEL 1
REMARK minimizedAffinity 2.68693376
REMARK minimizedRMSD -1
REMARK  0 active torsions:
REMARK  status: ('A' for Active; 'I' for Inactive)
ROOT
ATOM      1  C1  DEN d   1       2.773  -0.514  -3.026  0.00  0.00     0.130 A 
ATOM      2  C2  DEN d   1       1.506  -0.286  -3.715  0.00  0.00    -0.031 A 
ATOM      3  C3  DEN d   1       1.800   0.369  -5.006  0.00  0.00     0.027 A 
ATOM      4  C4  DEN d   1       4.082   1.045  -6.000  0.00  0.00     0.027 A 
ATOM      5  C5  DEN d   1       5.441   1.066  -5.778  0.00  0.00    -0.003 A 
ATOM      6  C6  DEN d   1       5.999   0.597  -4.618  0.00  0.00     0.001 A 
ATOM      7  C7  DEN d   1       5.197   0.045  -3.654  0.00  0.00     0.017 A 
ATOM      8  C8  DEN d   1       3.825   0.027  -3.868  0.00  0.00    -0.094 A 
ATOM      9  C9  DEN d   1       3.281   0.495  -5.052  0.00  0.00    -0.072 A 
ENDROOT
TORSDOF 0
ENDMDL
