MODEL 1
REMARK minimizedAffinity 2.1569581
REMARK minimizedRMSD -1
REMARK  0 active torsions:
REMARK  status: ('A' for Active; 'I' for Inactive)
ROOT
ATOM      1  C1  DEN d   1       0.937   2.282  -1.814  0.00  0.00     0.130 A 
ATOM      2  C2  DEN d   1       0.994   2.511  -0.373  0.00  0.00    -0.031 A 
ATOM      3  C3  DEN d   1       1.136   1.200   0.293  0.00  0.00     0.027 A 
ATOM      4  C4  DEN d   1       1.277  -1.149  -0.764  0.00  0.00     0.027 A 
ATOM      5  C5  DEN d   1       1.261  -1.849  -1.950  0.00  0.00    -0.003 A 
ATOM      6  C6  DEN d   1       1.103  -1.230  -3.161  0.00  0.00     0.001 A 
ATOM      7  C7  DEN d   1       1.000   0.135  -3.218  0.00  0.00     0.017 A 
ATOM      8  C8  DEN d   1       1.008   0.847  -2.025  0.00  0.00    -0.094 A 
ATOM      9  C9  DEN d   1       1.181   0.204  -0.812  0.00  0.00    -0.072 A 
ENDROOT
TORSDOF 0
ENDMDL
