MODEL 1
REMARK minimizedAffinity 3.63844919
REMARK minimizedRMSD -1
REMARK  0 active torsions:
REMARK  status: ('A' for Active; 'I' for Inactive)
ROOT
ATOM      1  C1  DEN d   1       0.790   1.713  -2.498  0.00  0.00     0.130 A 
ATOM      2  C2  DEN d   1       0.567   1.919  -1.069  0.00  0.00    -0.031 A 
ATOM      3  C3  DEN d   1       0.694   0.611  -0.394  0.00  0.00     0.027 A 
ATOM      4  C4  DEN d   1       1.216  -1.698  -1.417  0.00  0.00     0.027 A 
ATOM      5  C5  DEN d   1       1.472  -2.375  -2.589  0.00  0.00    -0.003 A 
ATOM      6  C6  DEN d   1       1.485  -1.748  -3.806  0.00  0.00     0.001 A 
ATOM      7  C7  DEN d   1       1.282  -0.395  -3.875  0.00  0.00     0.017 A 
ATOM      8  C8  DEN d   1       1.016   0.293  -2.699  0.00  0.00    -0.094 A 
ATOM      9  C9  DEN d   1       1.019  -0.357  -1.476  0.00  0.00    -0.072 A 
ENDROOT
TORSDOF 0
ENDMDL
