MODEL 1
REMARK minimizedAffinity 8.90936279
REMARK minimizedRMSD -1
REMARK  0 active torsions:
REMARK  status: ('A' for Active; 'I' for Inactive)
ROOT
ATOM      1  C1  DEN d   1       4.685   0.398  -4.904  0.00  0.00     0.130 A 
ATOM      2  C2  DEN d   1       5.999   0.748  -5.437  0.00  0.00    -0.031 A 
ATOM      3  C3  DEN d   1       5.926   2.126  -5.962  0.00  0.00     0.027 A 
ATOM      4  C4  DEN d   1       3.918   3.745  -5.999  0.00  0.00     0.027 A 
ATOM      5  C5  DEN d   1       2.588   3.891  -5.672  0.00  0.00    -0.003 A 
ATOM      6  C6  DEN d   1       1.861   2.881  -5.101  0.00  0.00     0.001 A 
ATOM      7  C7  DEN d   1       2.471   1.692  -4.799  0.00  0.00     0.017 A 
ATOM      8  C8  DEN d   1       3.810   1.534  -5.133  0.00  0.00    -0.094 A 
ATOM      9  C9  DEN d   1       4.531   2.572  -5.698  0.00  0.00    -0.072 A 
ENDROOT
TORSDOF 0
ENDMDL
