MODEL 1
REMARK minimizedAffinity 15.3900146
REMARK minimizedRMSD -1
REMARK  0 active torsions:
REMARK  status: ('A' for Active; 'I' for Inactive)
ROOT
ATOM      1  C1  DEN d   1       1.487   1.614   0.372  0.00  0.00     0.130 A 
ATOM      2  C2  DEN d   1       1.488   3.071   0.274  0.00  0.00    -0.031 A 
ATOM      3  C3  DEN d   1       1.201   3.434  -1.129  0.00  0.00     0.027 A 
ATOM      4  C4  DEN d   1       0.755   1.891  -3.146  0.00  0.00     0.027 A 
ATOM      5  C5  DEN d   1       0.661   0.579  -3.557  0.00  0.00    -0.003 A 
ATOM      6  C6  DEN d   1       0.869  -0.470  -2.702  0.00  0.00     0.001 A 
ATOM      7  C7  DEN d   1       1.136  -0.227  -1.380  0.00  0.00     0.017 A 
ATOM      8  C8  DEN d   1       1.238   1.093  -0.960  0.00  0.00    -0.094 A 
ATOM      9  C9  DEN d   1       1.013   2.140  -1.837  0.00  0.00    -0.072 A 
ENDROOT
TORSDOF 0
ENDMDL
