MODEL 1
REMARK minimizedAffinity 3.1497345
REMARK minimizedRMSD -1
REMARK  0 active torsions:
REMARK  status: ('A' for Active; 'I' for Inactive)
ROOT
ATOM      1  C1  DEN d   1       0.919  -2.245  -2.079  0.00  0.00     0.130 A 
ATOM      2  C2  DEN d   1       1.149  -2.432  -3.509  0.00  0.00    -0.031 A 
ATOM      3  C3  DEN d   1       1.280  -1.098  -4.129  0.00  0.00     0.027 A 
ATOM      4  C4  DEN d   1       1.155   1.226  -3.018  0.00  0.00     0.027 A 
ATOM      5  C5  DEN d   1       0.963   1.893  -1.828  0.00  0.00    -0.003 A 
ATOM      6  C6  DEN d   1       0.712   1.233  -0.654  0.00  0.00     0.001 A 
ATOM      7  C7  DEN d   1       0.690  -0.136  -0.636  0.00  0.00     0.017 A 
ATOM      8  C8  DEN d   1       0.875  -0.815  -1.833  0.00  0.00    -0.094 A 
ATOM      9  C9  DEN d   1       1.140  -0.131  -3.007  0.00  0.00    -0.072 A 
ENDROOT
TORSDOF 0
ENDMDL
