MODEL 1
REMARK minimizedAffinity 11.2493906
REMARK minimizedRMSD -1
REMARK  0 active torsions:
REMARK  status: ('A' for Active; 'I' for Inactive)
ROOT
ATOM      1  C1  DEN d   1      -5.999  -1.404   3.373  0.00  0.00     0.130 A 
ATOM      2  C2  DEN d   1      -6.000  -2.863   3.435  0.00  0.00    -0.031 A 
ATOM      3  C3  DEN d   1      -4.852  -3.285   4.261  0.00  0.00     0.027 A 
ATOM      4  C4  DEN d   1      -3.085  -1.830   5.450  0.00  0.00     0.027 A 
ATOM      5  C5  DEN d   1      -2.664  -0.538   5.679  0.00  0.00    -0.003 A 
ATOM      6  C6  DEN d   1      -3.300   0.545   5.132  0.00  0.00     0.001 A 
ATOM      7  C7  DEN d   1      -4.420   0.358   4.365  0.00  0.00     0.017 A 
ATOM      8  C8  DEN d   1      -4.846  -0.941   4.124  0.00  0.00    -0.094 A 
ATOM      9  C9  DEN d   1      -4.197  -2.022   4.696  0.00  0.00    -0.072 A 
ENDROOT
TORSDOF 0
ENDMDL
