MODEL 1
REMARK minimizedAffinity -2.62397981
REMARK minimizedRMSD -1
REMARK  0 active torsions:
REMARK  status: ('A' for Active; 'I' for Inactive)
ROOT
ATOM      1  C1  DEN d   1       0.965   0.377  -1.172  0.00  0.00     0.130 A 
ATOM      2  C2  DEN d   1       0.872   1.764  -1.619  0.00  0.00    -0.031 A 
ATOM      3  C3  DEN d   1       0.999   1.779  -3.090  0.00  0.00     0.027 A 
ATOM      4  C4  DEN d   1       1.324  -0.200  -4.711  0.00  0.00     0.027 A 
ATOM      5  C5  DEN d   1       1.472  -1.567  -4.799  0.00  0.00    -0.003 A 
ATOM      6  C6  DEN d   1       1.496  -2.371  -3.690  0.00  0.00     0.001 A 
ATOM      7  C7  DEN d   1       1.324  -1.820  -2.448  0.00  0.00     0.017 A 
ATOM      8  C8  DEN d   1       1.181  -0.442  -2.351  0.00  0.00    -0.094 A 
ATOM      9  C9  DEN d   1       1.147   0.353  -3.484  0.00  0.00    -0.072 A 
ENDROOT
TORSDOF 0
ENDMDL
