MODEL 1
REMARK minimizedAffinity 8.70275784
REMARK minimizedRMSD -1
REMARK  1 active torsions:
REMARK  status: ('A' for Active; 'I' for Inactive)
REMARK    1  A    between atoms: C1_2  and  C2_3 
ROOT
ATOM      1  C2  UNL d   1      -4.168   0.528   0.773  0.00  0.00    -0.073 A 
ATOM      2  C3  UNL d   1      -3.019   1.222   1.170  0.00  0.00    -0.002 A 
ATOM      3  C4  UNL d   1      -2.661   1.279   2.518  0.00  0.00     0.004 A 
ATOM      4  C5  UNL d   1      -3.442   0.638   3.479  0.00  0.00    -0.004 A 
ATOM      5  C6  UNL d   1      -4.587  -0.071   3.101  0.00  0.00    -0.075 A 
ATOM      6  C7  UNL d   1      -5.439  -0.764   4.123  0.00  0.00     0.076 C 
ATOM      7  C8  UNL d   1      -4.941  -0.121   1.746  0.00  0.00     0.001 A 
ENDROOT
BRANCH   1   8
ATOM      8  C1  UNL d   1      -4.555   0.458  -0.682  0.00  0.00     0.053 C 
ATOM      9  C   UNL d   1      -5.995   0.889  -0.910  0.00  0.00     0.018 C 
ENDBRANCH   1   8
TORSDOF 1
ENDMDL
