MODEL 1
REMARK minimizedAffinity -4.44776773
REMARK minimizedRMSD -1
REMARK  1 active torsions:
REMARK  status: ('A' for Active; 'I' for Inactive)
REMARK    1  A    between atoms: C1_2  and  C2_3 
ROOT
ATOM      1  C2  UNL d   1      -4.366  -0.369   0.615  0.00  0.00    -0.073 A 
ATOM      2  C3  UNL d   1      -3.286  -0.574  -0.251  0.00  0.00    -0.002 A 
ATOM      3  C4  UNL d   1      -1.989  -0.676   0.252  0.00  0.00     0.004 A 
ATOM      4  C5  UNL d   1      -1.758  -0.581   1.624  0.00  0.00    -0.004 A 
ATOM      5  C6  UNL d   1      -2.825  -0.387   2.507  0.00  0.00    -0.075 A 
ATOM      6  C7  UNL d   1      -2.594  -0.280   3.986  0.00  0.00     0.076 C 
ATOM      7  C8  UNL d   1      -4.125  -0.283   1.994  0.00  0.00     0.001 A 
ENDROOT
BRANCH   1   8
ATOM      8  C1  UNL d   1      -5.770  -0.264   0.078  0.00  0.00     0.053 C 
ATOM      9  C   UNL d   1      -5.794  -0.188  -1.441  0.00  0.00     0.018 C 
ENDBRANCH   1   8
TORSDOF 1
ENDMDL
