MODEL 1
REMARK minimizedAffinity 0.275020242
REMARK minimizedRMSD -1
REMARK  1 active torsions:
REMARK  status: ('A' for Active; 'I' for Inactive)
REMARK    1  A    between atoms: C1_2  and  C2_3 
ROOT
ATOM      1  C2  UNL d   1      -2.954   1.115   2.049  0.00  0.00    -0.073 A 
ATOM      2  C3  UNL d   1      -3.545   0.223   1.148  0.00  0.00    -0.002 A 
ATOM      3  C4  UNL d   1      -3.838   0.627  -0.155  0.00  0.00     0.004 A 
ATOM      4  C5  UNL d   1      -3.539   1.925  -0.571  0.00  0.00    -0.004 A 
ATOM      5  C6  UNL d   1      -2.938   2.828   0.311  0.00  0.00    -0.075 A 
ATOM      6  C7  UNL d   1      -2.612   4.228  -0.120  0.00  0.00     0.076 C 
ATOM      7  C8  UNL d   1      -2.649   2.415   1.619  0.00  0.00     0.001 A 
ENDROOT
BRANCH   1   8
ATOM      8  C1  UNL d   1      -2.629   0.681   3.455  0.00  0.00     0.053 C 
ATOM      9  C   UNL d   1      -3.038  -0.761   3.715  0.00  0.00     0.018 C 
ENDBRANCH   1   8
TORSDOF 1
ENDMDL
