MODEL 1
REMARK minimizedAffinity 0.145429209
REMARK minimizedRMSD -1
REMARK  1 active torsions:
REMARK  status: ('A' for Active; 'I' for Inactive)
REMARK    1  A    between atoms: C1_2  and  C2_3 
ROOT
ATOM      1  C2  UNL d   1      -2.760   0.160   2.816  0.00  0.00    -0.073 A 
ATOM      2  C3  UNL d   1      -2.998  -0.926   1.967  0.00  0.00    -0.002 A 
ATOM      3  C4  UNL d   1      -3.210  -0.721   0.603  0.00  0.00     0.004 A 
ATOM      4  C5  UNL d   1      -3.178   0.569   0.074  0.00  0.00    -0.004 A 
ATOM      5  C6  UNL d   1      -2.930   1.667   0.905  0.00  0.00    -0.075 A 
ATOM      6  C7  UNL d   1      -2.895   3.061   0.352  0.00  0.00     0.076 C 
ATOM      7  C8  UNL d   1      -2.721   1.452   2.274  0.00  0.00     0.001 A 
ENDROOT
BRANCH   1   8
ATOM      8  C1  UNL d   1      -2.524  -0.058   4.289  0.00  0.00     0.053 C 
ATOM      9  C   UNL d   1      -3.620   0.564   5.139  0.00  0.00     0.018 C 
ENDBRANCH   1   8
TORSDOF 1
ENDMDL
