MODEL 1
REMARK minimizedAffinity -3.34544635
REMARK minimizedRMSD -1
REMARK  1 active torsions:
REMARK  status: ('A' for Active; 'I' for Inactive)
REMARK    1  A    between atoms: C1_2  and  C2_3 
ROOT
ATOM      1  C2  UNL d   1      -2.510   1.261   0.445  0.00  0.00    -0.073 A 
ATOM      2  C3  UNL d   1      -2.683   1.434   1.823  0.00  0.00    -0.002 A 
ATOM      3  C4  UNL d   1      -2.560   0.348   2.691  0.00  0.00     0.004 A 
ATOM      4  C5  UNL d   1      -2.255  -0.918   2.192  0.00  0.00    -0.004 A 
ATOM      5  C6  UNL d   1      -2.066  -1.109   0.819  0.00  0.00    -0.075 A 
ATOM      6  C7  UNL d   1      -1.740  -2.465   0.266  0.00  0.00     0.076 C 
ATOM      7  C8  UNL d   1      -2.194  -0.014  -0.046  0.00  0.00     0.001 A 
ENDROOT
BRANCH   1   8
ATOM      8  C1  UNL d   1      -2.636   2.432  -0.495  0.00  0.00     0.053 C 
ATOM      9  C   UNL d   1      -3.249   3.646   0.185  0.00  0.00     0.018 C 
ENDBRANCH   1   8
TORSDOF 1
ENDMDL
