MODEL 1
REMARK minimizedAffinity 3.93257689
REMARK minimizedRMSD -1
REMARK  1 active torsions:
REMARK  status: ('A' for Active; 'I' for Inactive)
REMARK    1  A    between atoms: C1_2  and  C2_3 
ROOT
ATOM      1  C2  UNL d   1       4.279   1.846   2.759  0.00  0.00    -0.073 A 
ATOM      2  C3  UNL d   1       3.669   0.643   2.387  0.00  0.00    -0.002 A 
ATOM      3  C4  UNL d   1       3.820  -0.498   3.177  0.00  0.00     0.004 A 
ATOM      4  C5  UNL d   1       4.575  -0.446   4.349  0.00  0.00    -0.004 A 
ATOM      5  C6  UNL d   1       5.182   0.750   4.744  0.00  0.00    -0.075 A 
ATOM      6  C7  UNL d   1       6.000   0.823   6.000  0.00  0.00     0.076 C 
ATOM      7  C8  UNL d   1       5.029   1.891   3.944  0.00  0.00     0.001 A 
ENDROOT
BRANCH   1   8
ATOM      8  C1  UNL d   1       4.114   3.081   1.913  0.00  0.00     0.053 C 
ATOM      9  C   UNL d   1       2.915   2.980   0.984  0.00  0.00     0.018 C 
ENDBRANCH   1   8
TORSDOF 1
ENDMDL
