MODEL 1
REMARK minimizedAffinity -3.15726972
REMARK minimizedRMSD -1
REMARK  0 active torsions:
REMARK  status: ('A' for Active; 'I' for Inactive)
ROOT
ATOM      1  C4' PXY d   1      -0.401   2.641  -1.909  0.00  0.00     0.077 C 
ATOM      2  C1' PXY d   1       0.788  -1.153   2.287  0.00  0.00     0.077 C 
ATOM      3  C1  PXY d   1       0.486  -0.163   1.179  0.00  0.00    -0.082 A 
ATOM      4  C2  PXY d   1      -0.077   0.997   1.475  0.00  0.00     0.003 A 
ATOM      5  C3  PXY d   1      -0.387   1.891   0.482  0.00  0.00     0.003 A 
ATOM      6  C4  PXY d   1      -0.069   1.615  -0.821  0.00  0.00    -0.082 A 
ATOM      7  C5  PXY d   1       0.515   0.438  -1.130  0.00  0.00     0.003 A 
ATOM      8  C6  PXY d   1       0.783  -0.473  -0.112  0.00  0.00     0.003 A 
ENDROOT
TORSDOF 0
ENDMDL
