MODEL 1
REMARK minimizedAffinity -1.41685855
REMARK minimizedRMSD -1
REMARK  0 active torsions:
REMARK  status: ('A' for Active; 'I' for Inactive)
ROOT
ATOM      1  C4' PXY d   1       0.953  -2.393   3.297  0.00  0.00     0.077 C 
ATOM      2  C1' PXY d   1       0.638   0.270  -1.824  0.00  0.00     0.077 C 
ATOM      3  C1  PXY d   1       0.727  -0.438  -0.487  0.00  0.00    -0.082 A 
ATOM      4  C2  PXY d   1      -0.186  -0.201   0.441  0.00  0.00     0.003 A 
ATOM      5  C3  PXY d   1      -0.102  -0.808   1.668  0.00  0.00     0.003 A 
ATOM      6  C4  PXY d   1       0.897  -1.708   1.928  0.00  0.00    -0.082 A 
ATOM      7  C5  PXY d   1       1.826  -1.963   0.983  0.00  0.00     0.003 A 
ATOM      8  C6  PXY d   1       1.747  -1.305  -0.241  0.00  0.00     0.003 A 
ENDROOT
TORSDOF 0
ENDMDL
