MODEL 1
REMARK minimizedAffinity -2.56084085
REMARK minimizedRMSD -1
REMARK  0 active torsions:
REMARK  status: ('A' for Active; 'I' for Inactive)
ROOT
ATOM      1  C4' PXY d   1      -2.727  -0.649  -0.025  0.00  0.00     0.077 C 
ATOM      2  C1' PXY d   1       2.999  -0.842   0.740  0.00  0.00     0.077 C 
ATOM      3  C1  PXY d   1       1.496  -0.797   0.551  0.00  0.00    -0.082 A 
ATOM      4  C2  PXY d   1       0.989  -0.814  -0.671  0.00  0.00     0.003 A 
ATOM      5  C3  PXY d   1      -0.367  -0.741  -0.861  0.00  0.00     0.003 A 
ATOM      6  C4  PXY d   1      -1.216  -0.703   0.213  0.00  0.00    -0.082 A 
ATOM      7  C5  PXY d   1      -0.707  -0.696   1.463  0.00  0.00     0.003 A 
ATOM      8  C6  PXY d   1       0.674  -0.729   1.634  0.00  0.00     0.003 A 
ENDROOT
TORSDOF 0
ENDMDL
