MODEL 1
REMARK minimizedAffinity -0.831338108
REMARK minimizedRMSD -1
REMARK  0 active torsions:
REMARK  status: ('A' for Active; 'I' for Inactive)
ROOT
ATOM      1  C4' PXY d   1       1.660  -1.216  -2.186  0.00  0.00     0.077 C 
ATOM      2  C1' PXY d   1      -0.371  -0.819   3.212  0.00  0.00     0.077 C 
ATOM      3  C1  PXY d   1       0.150  -0.920   1.792  0.00  0.00    -0.082 A 
ATOM      4  C2  PXY d   1       1.204  -1.677   1.534  0.00  0.00     0.003 A 
ATOM      5  C3  PXY d   1       1.708  -1.754   0.261  0.00  0.00     0.003 A 
ATOM      6  C4  PXY d   1       1.094  -1.092  -0.769  0.00  0.00    -0.082 A 
ATOM      7  C5  PXY d   1       0.012  -0.326  -0.515  0.00  0.00     0.003 A 
ATOM      8  C6  PXY d   1      -0.459  -0.228   0.791  0.00  0.00     0.003 A 
ENDROOT
TORSDOF 0
ENDMDL
