MODEL 1
REMARK minimizedAffinity -3.1673038
REMARK minimizedRMSD -1
REMARK  0 active torsions:
REMARK  status: ('A' for Active; 'I' for Inactive)
ROOT
ATOM      1  C4' PXY d   1      -2.401  -0.874  -1.116  0.00  0.00     0.077 C 
ATOM      2  C1' PXY d   1       1.498   0.239   3.004  0.00  0.00     0.077 C 
ATOM      3  C1  PXY d   1       0.483  -0.047   1.914  0.00  0.00    -0.082 A 
ATOM      4  C2  PXY d   1      -0.789  -0.220   2.235  0.00  0.00     0.003 A 
ATOM      5  C3  PXY d   1      -1.715  -0.511   1.266  0.00  0.00     0.003 A 
ATOM      6  C4  PXY d   1      -1.343  -0.573  -0.051  0.00  0.00    -0.082 A 
ATOM      7  C5  PXY d   1      -0.049  -0.388  -0.386  0.00  0.00     0.003 A 
ATOM      8  C6  PXY d   1       0.882  -0.134   0.616  0.00  0.00     0.003 A 
ENDROOT
TORSDOF 0
ENDMDL
