MODEL 1
REMARK minimizedAffinity -3.8242991
REMARK minimizedRMSD -1
REMARK  0 active torsions:
REMARK  status: ('A' for Active; 'I' for Inactive)
ROOT
ATOM      1  C4' PXY d   1      -2.459  -0.925  -1.388  0.00  0.00     0.077 C 
ATOM      2  C1' PXY d   1       1.738  -0.241   2.529  0.00  0.00     0.077 C 
ATOM      3  C1  PXY d   1       0.644  -0.414   1.493  0.00  0.00    -0.082 A 
ATOM      4  C2  PXY d   1      -0.606  -0.598   1.885  0.00  0.00     0.003 A 
ATOM      5  C3  PXY d   1      -1.602  -0.788   0.963  0.00  0.00     0.003 A 
ATOM      6  C4  PXY d   1      -1.324  -0.736  -0.377  0.00  0.00    -0.082 A 
ATOM      7  C5  PXY d   1      -0.053  -0.538  -0.786  0.00  0.00     0.003 A 
ATOM      8  C6  PXY d   1       0.950  -0.389   0.167  0.00  0.00     0.003 A 
ENDROOT
TORSDOF 0
ENDMDL
