MODEL 1
REMARK minimizedAffinity -0.618234158
REMARK minimizedRMSD -1
REMARK  0 active torsions:
REMARK  status: ('A' for Active; 'I' for Inactive)
ROOT
ATOM      1  C4' PXY d   1      -3.169  -1.111   0.278  0.00  0.00     0.077 C 
ATOM      2  C1' PXY d   1       2.310  -0.318   1.944  0.00  0.00     0.077 C 
ATOM      3  C1  PXY d   1       0.872  -0.537   1.514  0.00  0.00    -0.082 A 
ATOM      4  C2  PXY d   1       0.442  -0.012   0.378  0.00  0.00     0.003 A 
ATOM      5  C3  PXY d   1      -0.863  -0.173  -0.009  0.00  0.00     0.003 A 
ATOM      6  C4  PXY d   1      -1.723  -0.924   0.747  0.00  0.00    -0.082 A 
ATOM      7  C5  PXY d   1      -1.289  -1.471   1.902  0.00  0.00     0.003 A 
ATOM      8  C6  PXY d   1       0.029  -1.262   2.298  0.00  0.00     0.003 A 
ENDROOT
TORSDOF 0
ENDMDL
