MODEL 1
REMARK minimizedAffinity -1.97539794
REMARK minimizedRMSD -1
REMARK  0 active torsions:
REMARK  status: ('A' for Active; 'I' for Inactive)
ROOT
ATOM      1  C4' PXY d   1       0.101   0.243  -0.734  0.00  0.00     0.077 C 
ATOM      2  C1' PXY d   1      -3.901   3.793  -2.925  0.00  0.00     0.077 C 
ATOM      3  C1  PXY d   1      -2.842   2.870  -2.354  0.00  0.00    -0.082 A 
ATOM      4  C2  PXY d   1      -3.114   1.586  -2.188  0.00  0.00     0.003 A 
ATOM      5  C3  PXY d   1      -2.179   0.743  -1.644  0.00  0.00     0.003 A 
ATOM      6  C4  PXY d   1      -0.934   1.210  -1.315  0.00  0.00    -0.082 A 
ATOM      7  C5  PXY d   1      -0.646   2.516  -1.492  0.00  0.00     0.003 A 
ATOM      8  C6  PXY d   1      -1.622   3.363  -2.007  0.00  0.00     0.003 A 
ENDROOT
TORSDOF 0
ENDMDL
