MODEL 1
REMARK minimizedAffinity -4.592278
REMARK minimizedRMSD -1
REMARK  0 active torsions:
REMARK  status: ('A' for Active; 'I' for Inactive)
ROOT
ATOM      1  C4' PXY d   1      -2.726  -1.266  -1.116  0.00  0.00     0.077 C 
ATOM      2  C1' PXY d   1       2.015  -0.299   2.047  0.00  0.00     0.077 C 
ATOM      3  C1  PXY d   1       0.777  -0.546   1.207  0.00  0.00    -0.082 A 
ATOM      4  C2  PXY d   1      -0.389  -0.740   1.802  0.00  0.00     0.003 A 
ATOM      5  C3  PXY d   1      -1.512  -0.997   1.059  0.00  0.00     0.003 A 
ATOM      6  C4  PXY d   1      -1.451  -1.003  -0.309  0.00  0.00    -0.082 A 
ATOM      7  C5  PXY d   1      -0.268  -0.795  -0.923  0.00  0.00     0.003 A 
ATOM      8  C6  PXY d   1       0.869  -0.577  -0.150  0.00  0.00     0.003 A 
ENDROOT
TORSDOF 0
ENDMDL
