MODEL 1
REMARK minimizedAffinity -2.27506709
REMARK minimizedRMSD -1
REMARK  0 active torsions:
REMARK  status: ('A' for Active; 'I' for Inactive)
ROOT
ATOM      1  C4' PXY d   1       2.151  -0.995   3.614  0.00  0.00     0.077 C 
ATOM      2  C1' PXY d   1      -1.083   0.153  -1.038  0.00  0.00     0.077 C 
ATOM      3  C1  PXY d   1      -0.244  -0.142   0.190  0.00  0.00    -0.082 A 
ATOM      4  C2  PXY d   1       1.056  -0.353   0.059  0.00  0.00     0.003 A 
ATOM      5  C3  PXY d   1       1.824  -0.653   1.154  0.00  0.00     0.003 A 
ATOM      6  C4  PXY d   1       1.266  -0.684   2.404  0.00  0.00    -0.082 A 
ATOM      7  C5  PXY d   1      -0.057  -0.459   2.548  0.00  0.00     0.003 A 
ATOM      8  C6  PXY d   1      -0.827  -0.198   1.418  0.00  0.00     0.003 A 
ENDROOT
TORSDOF 0
ENDMDL
