MODEL 1
REMARK minimizedAffinity -1.26672351
REMARK minimizedRMSD -1
REMARK  0 active torsions:
REMARK  status: ('A' for Active; 'I' for Inactive)
ROOT
ATOM      1  C4' PXY d   1       0.332  -1.924   3.206  0.00  0.00     0.077 C 
ATOM      2  C1' PXY d   1      -0.398   1.084  -1.676  0.00  0.00     0.077 C 
ATOM      3  C1  PXY d   1      -0.213   0.304  -0.389  0.00  0.00    -0.082 A 
ATOM      4  C2  PXY d   1       0.813  -0.522  -0.266  0.00  0.00     0.003 A 
ATOM      5  C3  PXY d   1       0.977  -1.259   0.879  0.00  0.00     0.003 A 
ATOM      6  C4  PXY d   1       0.111  -1.109   1.929  0.00  0.00    -0.082 A 
ATOM      7  C5  PXY d   1      -0.932  -0.261   1.815  0.00  0.00     0.003 A 
ATOM      8  C6  PXY d   1      -1.104   0.447   0.629  0.00  0.00     0.003 A 
ENDROOT
TORSDOF 0
ENDMDL
