MODEL 1
REMARK minimizedAffinity -3.79121304
REMARK minimizedRMSD -1
REMARK  0 active torsions:
REMARK  status: ('A' for Active; 'I' for Inactive)
ROOT
ATOM      1  C4' PXY d   1       1.694  -0.885   2.922  0.00  0.00     0.077 C 
ATOM      2  C1' PXY d   1      -1.066  -0.206  -2.112  0.00  0.00     0.077 C 
ATOM      3  C1  PXY d   1      -0.333  -0.391  -0.797  0.00  0.00    -0.082 A 
ATOM      4  C2  PXY d   1      -0.993  -0.268   0.343  0.00  0.00     0.003 A 
ATOM      5  C3  PXY d   1      -0.339  -0.400   1.540  0.00  0.00     0.003 A 
ATOM      6  C4  PXY d   1       0.993  -0.716   1.571  0.00  0.00    -0.082 A 
ATOM      7  C5  PXY d   1       1.671  -0.854   0.412  0.00  0.00     0.003 A 
ATOM      8  C6  PXY d   1       0.997  -0.675  -0.793  0.00  0.00     0.003 A 
ENDROOT
TORSDOF 0
ENDMDL
