MODEL 1
REMARK minimizedAffinity 7.93919706
REMARK minimizedRMSD -1
REMARK  0 active torsions:
REMARK  status: ('A' for Active; 'I' for Inactive)
ROOT
ATOM      1  C4' PXY d   1      -4.358  -0.963  -3.492  0.00  0.00     0.077 C 
ATOM      2  C1' PXY d   1      -5.775  -5.997  -5.954  0.00  0.00     0.077 C 
ATOM      3  C1  PXY d   1      -5.413  -4.679  -5.300  0.00  0.00    -0.082 A 
ATOM      4  C2  PXY d   1      -4.776  -3.754  -6.000  0.00  0.00     0.003 A 
ATOM      5  C3  PXY d   1      -4.413  -2.569  -5.414  0.00  0.00     0.003 A 
ATOM      6  C4  PXY d   1      -4.752  -2.305  -4.114  0.00  0.00    -0.082 A 
ATOM      7  C5  PXY d   1      -5.412  -3.239  -3.397  0.00  0.00     0.003 A 
ATOM      8  C6  PXY d   1      -5.735  -4.453  -3.997  0.00  0.00     0.003 A 
ENDROOT
TORSDOF 0
ENDMDL
