MODEL 1
REMARK minimizedAffinity 3.22014093
REMARK minimizedRMSD -1
REMARK  0 active torsions:
REMARK  status: ('A' for Active; 'I' for Inactive)
ROOT
ATOM      1  C4' PXY d   1       2.596   5.846  -1.180  0.00  0.00     0.077 C 
ATOM      2  C1' PXY d   1       6.000   5.999  -5.850  0.00  0.00     0.077 C 
ATOM      3  C1  PXY d   1       5.117   5.954  -4.618  0.00  0.00    -0.082 A 
ATOM      4  C2  PXY d   1       3.803   5.880  -4.757  0.00  0.00     0.003 A 
ATOM      5  C3  PXY d   1       2.988   5.871  -3.654  0.00  0.00     0.003 A 
ATOM      6  C4  PXY d   1       3.526   5.884  -2.395  0.00  0.00    -0.082 A 
ATOM      7  C5  PXY d   1       4.866   5.949  -2.245  0.00  0.00     0.003 A 
ATOM      8  C6  PXY d   1       5.674   5.999  -3.377  0.00  0.00     0.003 A 
ENDROOT
TORSDOF 0
ENDMDL
