MODEL 1
REMARK minimizedAffinity 3.08180571
REMARK minimizedRMSD -1
REMARK  0 active torsions:
REMARK  status: ('A' for Active; 'I' for Inactive)
ROOT
ATOM      1  C4' PXY d   1      -3.314   3.453  -1.871  0.00  0.00     0.077 C 
ATOM      2  C1' PXY d   1      -4.480  -0.421  -6.000  0.00  0.00     0.077 C 
ATOM      3  C1  PXY d   1      -4.175   0.586  -4.908  0.00  0.00    -0.082 A 
ATOM      4  C2  PXY d   1      -4.425   1.869  -5.113  0.00  0.00     0.003 A 
ATOM      5  C3  PXY d   1      -4.126   2.796  -4.148  0.00  0.00     0.003 A 
ATOM      6  C4  PXY d   1      -3.615   2.400  -2.941  0.00  0.00    -0.082 A 
ATOM      7  C5  PXY d   1      -3.367   1.092  -2.721  0.00  0.00     0.003 A 
ATOM      8  C6  PXY d   1      -3.639   0.171  -3.728  0.00  0.00     0.003 A 
ENDROOT
TORSDOF 0
ENDMDL
