MODEL 1
REMARK minimizedAffinity 2.21685863
REMARK minimizedRMSD -1
REMARK  0 active torsions:
REMARK  status: ('A' for Active; 'I' for Inactive)
ROOT
ATOM      1  C4' PXY d   1       5.944   6.000  -5.978  0.00  0.00     0.077 C 
ATOM      2  C1' PXY d   1       2.695   5.979  -1.197  0.00  0.00     0.077 C 
ATOM      3  C1  PXY d   1       3.557   5.990  -2.444  0.00  0.00    -0.082 A 
ATOM      4  C2  PXY d   1       2.982   5.999  -3.636  0.00  0.00     0.003 A 
ATOM      5  C3  PXY d   1       3.747   5.977  -4.774  0.00  0.00     0.003 A 
ATOM      6  C4  PXY d   1       5.113   5.998  -4.691  0.00  0.00    -0.082 A 
ATOM      7  C5  PXY d   1       5.707   6.000  -3.479  0.00  0.00     0.003 A 
ATOM      8  C6  PXY d   1       4.913   5.981  -2.336  0.00  0.00     0.003 A 
ENDROOT
TORSDOF 0
ENDMDL
