MODEL 1
REMARK minimizedAffinity 2.89027667
REMARK minimizedRMSD -1
REMARK  0 active torsions:
REMARK  status: ('A' for Active; 'I' for Inactive)
ROOT
ATOM      1  C4' PXY d   1       1.949  -0.607   2.309  0.00  0.00     0.077 C 
ATOM      2  C1' PXY d   1       2.454   4.193  -0.872  0.00  0.00     0.077 C 
ATOM      3  C1  PXY d   1       2.333   2.930  -0.043  0.00  0.00    -0.082 A 
ATOM      4  C2  PXY d   1       1.146   2.554   0.407  0.00  0.00     0.003 A 
ATOM      5  C3  PXY d   1       1.023   1.431   1.185  0.00  0.00     0.003 A 
ATOM      6  C4  PXY d   1       2.118   0.656   1.461  0.00  0.00    -0.082 A 
ATOM      7  C5  PXY d   1       3.330   1.027   0.997  0.00  0.00     0.003 A 
ATOM      8  C6  PXY d   1       3.440   2.193   0.244  0.00  0.00     0.003 A 
ENDROOT
TORSDOF 0
ENDMDL
