MODEL 1
REMARK minimizedAffinity -0.528769732
REMARK minimizedRMSD -1
REMARK  0 active torsions:
REMARK  status: ('A' for Active; 'I' for Inactive)
ROOT
ATOM      1  C4' PXY d   1       5.255  -6.000  -5.803  0.00  0.00     0.077 C 
ATOM      2  C1' PXY d   1       1.994  -5.585  -1.048  0.00  0.00     0.077 C 
ATOM      3  C1  PXY d   1       2.840  -5.701  -2.301  0.00  0.00    -0.082 A 
ATOM      4  C2  PXY d   1       4.157  -5.614  -2.211  0.00  0.00     0.003 A 
ATOM      5  C3  PXY d   1       4.935  -5.684  -3.338  0.00  0.00     0.003 A 
ATOM      6  C4  PXY d   1       4.362  -5.898  -4.563  0.00  0.00    -0.082 A 
ATOM      7  C5  PXY d   1       3.020  -5.999  -4.662  0.00  0.00     0.003 A 
ATOM      8  C6  PXY d   1       2.245  -5.883  -3.511  0.00  0.00     0.003 A 
ENDROOT
TORSDOF 0
ENDMDL
