MODEL 1
REMARK minimizedAffinity 8.81566525
REMARK minimizedRMSD -1
REMARK  0 active torsions:
REMARK  status: ('A' for Active; 'I' for Inactive)
ROOT
ATOM      1  C4' PXY d   1      -1.002   0.317   0.402  0.00  0.00     0.077 C 
ATOM      2  C1' PXY d   1       3.353  -2.131   3.309  0.00  0.00     0.077 C 
ATOM      3  C1  PXY d   1       2.216  -1.477   2.550  0.00  0.00    -0.082 A 
ATOM      4  C2  PXY d   1       1.099  -2.153   2.336  0.00  0.00     0.003 A 
ATOM      5  C3  PXY d   1       0.072  -1.588   1.623  0.00  0.00     0.003 A 
ATOM      6  C4  PXY d   1       0.169  -0.300   1.171  0.00  0.00    -0.082 A 
ATOM      7  C5  PXY d   1       1.302   0.400   1.395  0.00  0.00     0.003 A 
ATOM      8  C6  PXY d   1       2.348  -0.205   2.085  0.00  0.00     0.003 A 
ENDROOT
TORSDOF 0
ENDMDL
