MODEL 1
REMARK minimizedAffinity 14.5183067
REMARK minimizedRMSD -1
REMARK  0 active torsions:
REMARK  status: ('A' for Active; 'I' for Inactive)
ROOT
ATOM      1  C4' PXY d   1      -5.553  -5.997  -5.943  0.00  0.00     0.077 C 
ATOM      2  C1' PXY d   1      -4.163  -0.590  -4.443  0.00  0.00     0.077 C 
ATOM      3  C1  PXY d   1      -4.519  -2.008  -4.847  0.00  0.00    -0.082 A 
ATOM      4  C2  PXY d   1      -5.674  -2.527  -4.461  0.00  0.00     0.003 A 
ATOM      5  C3  PXY d   1      -5.998  -3.818  -4.790  0.00  0.00     0.003 A 
ATOM      6  C4  PXY d   1      -5.155  -4.567  -5.567  0.00  0.00    -0.082 A 
ATOM      7  C5  PXY d   1      -3.981  -4.041  -5.974  0.00  0.00     0.003 A 
ATOM      8  C6  PXY d   1      -3.652  -2.743  -5.594  0.00  0.00     0.003 A 
ENDROOT
TORSDOF 0
ENDMDL
