MODEL 1
REMARK minimizedAffinity 10.4515495
REMARK minimizedRMSD -1
REMARK  0 active torsions:
REMARK  status: ('A' for Active; 'I' for Inactive)
ROOT
ATOM      1  C4' PXY d   1       4.474  -3.625   4.952  0.00  0.00     0.077 C 
ATOM      2  C1' PXY d   1       0.236  -1.417   1.700  0.00  0.00     0.077 C 
ATOM      3  C1  PXY d   1       1.339  -2.002   2.560  0.00  0.00    -0.082 A 
ATOM      4  C2  PXY d   1       2.503  -1.379   2.644  0.00  0.00     0.003 A 
ATOM      5  C3  PXY d   1       3.522  -1.912   3.392  0.00  0.00     0.003 A 
ATOM      6  C4  PXY d   1       3.329  -3.066   4.103  0.00  0.00    -0.082 A 
ATOM      7  C5  PXY d   1       2.141  -3.701   4.031  0.00  0.00     0.003 A 
ATOM      8  C6  PXY d   1       1.133  -3.166   3.234  0.00  0.00     0.003 A 
ENDROOT
TORSDOF 0
ENDMDL
