MODEL 1
REMARK minimizedAffinity 5.16923904
REMARK minimizedRMSD -1
REMARK  0 active torsions:
REMARK  status: ('A' for Active; 'I' for Inactive)
ROOT
ATOM      1  C4' PXY d   1      -3.343   2.417   0.325  0.00  0.00     0.077 C 
ATOM      2  C1' PXY d   1      -5.035   2.019  -5.188  0.00  0.00     0.077 C 
ATOM      3  C1  PXY d   1      -4.597   2.135  -3.741  0.00  0.00    -0.082 A 
ATOM      4  C2  PXY d   1      -3.549   1.448  -3.318  0.00  0.00     0.003 A 
ATOM      5  C3  PXY d   1      -3.158   1.516  -2.005  0.00  0.00     0.003 A 
ATOM      6  C4  PXY d   1      -3.815   2.338  -1.129  0.00  0.00    -0.082 A 
ATOM      7  C5  PXY d   1      -4.880   3.051  -1.556  0.00  0.00     0.003 A 
ATOM      8  C6  PXY d   1      -5.285   2.936  -2.882  0.00  0.00     0.003 A 
ENDROOT
TORSDOF 0
ENDMDL
