MODEL 1
REMARK minimizedAffinity 14.3490276
REMARK minimizedRMSD -1
REMARK  1 active torsions:
REMARK  status: ('A' for Active; 'I' for Inactive)
REMARK    1  A    between atoms: C1_2  and  C2_3 
ROOT
ATOM      1  C2  UNL d   1       3.978  -0.772   5.156  0.00  0.00    -0.081 A 
ATOM      2  C3  UNL d   1       3.817   0.400   4.408  0.00  0.00     0.006 A 
ATOM      3  C4  UNL d   1       2.648   0.618   3.675  0.00  0.00     0.002 A 
ATOM      4  C5  UNL d   1       1.618  -0.329   3.684  0.00  0.00    -0.080 A 
ATOM      5  C6  UNL d   1       0.346  -0.094   2.925  0.00  0.00     0.076 C 
ATOM      6  C7  UNL d   1       1.786  -1.508   4.418  0.00  0.00     0.002 A 
ATOM      7  C8  UNL d   1       2.954  -1.726   5.150  0.00  0.00     0.006 A 
ENDROOT
BRANCH   1   8
ATOM      8  C1  UNL d   1       5.209  -0.980   6.000  0.00  0.00     0.054 C 
ATOM      9  C   UNL d   1       5.824  -2.350   5.753  0.00  0.00     0.018 C 
ENDBRANCH   1   8
TORSDOF 1
ENDMDL
