MODEL 1
REMARK minimizedAffinity 5.83445883
REMARK minimizedRMSD -1
REMARK  1 active torsions:
REMARK  status: ('A' for Active; 'I' for Inactive)
REMARK    1  A    between atoms: C1_2  and  C2_3 
ROOT
ATOM      1  C2  UNL d   1      -1.446  -3.514  -4.970  0.00  0.00    -0.081 A 
ATOM      2  C3  UNL d   1      -0.747  -2.630  -5.801  0.00  0.00     0.006 A 
ATOM      3  C4  UNL d   1      -0.070  -1.535  -5.259  0.00  0.00     0.002 A 
ATOM      4  C5  UNL d   1      -0.075  -1.309  -3.879  0.00  0.00    -0.080 A 
ATOM      5  C6  UNL d   1       0.673  -0.154  -3.282  0.00  0.00     0.076 C 
ATOM      6  C7  UNL d   1      -0.788  -2.182  -3.050  0.00  0.00     0.002 A 
ATOM      7  C8  UNL d   1      -1.465  -3.277  -3.591  0.00  0.00     0.006 A 
ENDROOT
BRANCH   1   8
ATOM      8  C1  UNL d   1      -2.123  -4.732  -5.544  0.00  0.00     0.054 C 
ATOM      9  C   UNL d   1      -1.686  -6.000  -4.823  0.00  0.00     0.018 C 
ENDBRANCH   1   8
TORSDOF 1
ENDMDL
