MODEL 1
REMARK minimizedAffinity 4.26899385
REMARK minimizedRMSD -1
REMARK  1 active torsions:
REMARK  status: ('A' for Active; 'I' for Inactive)
REMARK    1  A    between atoms: C1_2  and  C2_3 
ROOT
ATOM      1  C2  UNL d   1       0.622  -0.303   2.939  0.00  0.00    -0.081 A 
ATOM      2  C3  UNL d   1       0.072   0.956   3.207  0.00  0.00     0.006 A 
ATOM      3  C4  UNL d   1      -1.147   1.332   2.636  0.00  0.00     0.002 A 
ATOM      4  C5  UNL d   1      -1.838   0.453   1.795  0.00  0.00    -0.080 A 
ATOM      5  C6  UNL d   1      -3.161   0.832   1.200  0.00  0.00     0.076 C 
ATOM      6  C7  UNL d   1      -1.279  -0.799   1.514  0.00  0.00     0.002 A 
ATOM      7  C8  UNL d   1      -0.061  -1.175   2.084  0.00  0.00     0.006 A 
ENDROOT
BRANCH   1   8
ATOM      8  C1  UNL d   1       1.904  -0.737   3.604  0.00  0.00     0.054 C 
ATOM      9  C   UNL d   1       1.770  -0.729   5.120  0.00  0.00     0.018 C 
ENDBRANCH   1   8
TORSDOF 1
ENDMDL
