MODEL 1
REMARK minimizedAffinity 11.4602127
REMARK minimizedRMSD -1
REMARK  1 active torsions:
REMARK  status: ('A' for Active; 'I' for Inactive)
REMARK    1  A    between atoms: C1_2  and  C2_3 
ROOT
ATOM      1  C2  UNL d   1      -2.105  -3.040  -2.416  0.00  0.00    -0.081 A 
ATOM      2  C3  UNL d   1      -1.939  -2.437  -3.669  0.00  0.00     0.006 A 
ATOM      3  C4  UNL d   1      -1.906  -3.213  -4.830  0.00  0.00     0.002 A 
ATOM      4  C5  UNL d   1      -2.046  -4.603  -4.759  0.00  0.00    -0.080 A 
ATOM      5  C6  UNL d   1      -2.043  -5.445  -6.000  0.00  0.00     0.076 C 
ATOM      6  C7  UNL d   1      -2.195  -5.208  -3.506  0.00  0.00     0.002 A 
ATOM      7  C8  UNL d   1      -2.227  -4.432  -2.345  0.00  0.00     0.006 A 
ENDROOT
BRANCH   1   8
ATOM      8  C1  UNL d   1      -2.206  -2.201  -1.168  0.00  0.00     0.054 C 
ATOM      9  C   UNL d   1      -3.564  -1.521  -1.067  0.00  0.00     0.018 C 
ENDBRANCH   1   8
TORSDOF 1
ENDMDL
