MODEL 1
REMARK minimizedAffinity 15.3276529
REMARK minimizedRMSD -1
REMARK  1 active torsions:
REMARK  status: ('A' for Active; 'I' for Inactive)
REMARK    1  A    between atoms: C1_2  and  C2_3 
ROOT
ATOM      1  C2  UNL d   1       4.137   0.855   3.292  0.00  0.00    -0.081 A 
ATOM      2  C3  UNL d   1       4.809  -0.140   4.013  0.00  0.00     0.006 A 
ATOM      3  C4  UNL d   1       4.238  -1.405   4.174  0.00  0.00     0.002 A 
ATOM      4  C5  UNL d   1       2.992  -1.699   3.612  0.00  0.00    -0.080 A 
ATOM      5  C6  UNL d   1       2.382  -3.062   3.752  0.00  0.00     0.076 C 
ATOM      6  C7  UNL d   1       2.313  -0.699   2.906  0.00  0.00     0.002 A 
ATOM      7  C8  UNL d   1       2.882   0.566   2.745  0.00  0.00     0.006 A 
ENDROOT
BRANCH   1   8
ATOM      8  C1  UNL d   1       4.779   2.199   3.061  0.00  0.00     0.054 C 
ATOM      9  C   UNL d   1       5.418   2.278   1.683  0.00  0.00     0.018 C 
ENDBRANCH   1   8
TORSDOF 1
ENDMDL
