MODEL 1
REMARK minimizedAffinity -3.82790232
REMARK minimizedRMSD -1
REMARK  1 active torsions:
REMARK  status: ('A' for Active; 'I' for Inactive)
REMARK    1  A    between atoms: N_2  and  C1_3 
ROOT
ATOM      1  C1  UNL d   1      -0.096   0.417  -0.022  0.00  0.00     0.143 A 
ATOM      2  C2  UNL d   1       0.263  -0.798  -0.617  0.00  0.00    -0.057 A 
ATOM      3  C3  UNL d   1      -0.120  -2.022  -0.056  0.00  0.00     0.033 A 
ATOM      4  C4  UNL d   1      -0.846  -2.053   1.130  0.00  0.00    -0.042 A 
ATOM      5  C5  UNL d   1      -1.192  -0.859   1.752  0.00  0.00     0.033 A 
ATOM      6  C6  UNL d   1      -0.812   0.361   1.183  0.00  0.00    -0.057 A 
ENDROOT
BRANCH   1   7
ATOM      7  N   UNL d   1       0.338   1.664  -0.478  0.00  0.00    -0.732 N 
ATOM      8  C   UNL d   1       1.064   2.558   0.399  0.00  0.00     0.284 C 
ATOM      9  H3  UNL d   1       0.704   1.625  -1.427  0.00  0.00     0.395 HD
ENDBRANCH   1   7
TORSDOF 1
ENDMDL
