MODEL 1
REMARK minimizedAffinity -4.76352262
REMARK minimizedRMSD -1
REMARK  1 active torsions:
REMARK  status: ('A' for Active; 'I' for Inactive)
REMARK    1  A    between atoms: N_2  and  C1_3 
ROOT
ATOM      1  C1  UNL d   1      -0.162  -0.818   0.305  0.00  0.00     0.143 A 
ATOM      2  C2  UNL d   1       0.949  -1.628   0.045  0.00  0.00    -0.057 A 
ATOM      3  C3  UNL d   1       0.846  -3.024   0.045  0.00  0.00     0.033 A 
ATOM      4  C4  UNL d   1      -0.368  -3.638   0.335  0.00  0.00    -0.042 A 
ATOM      5  C5  UNL d   1      -1.480  -2.854   0.622  0.00  0.00     0.033 A 
ATOM      6  C6  UNL d   1      -1.372  -1.460   0.613  0.00  0.00    -0.057 A 
ENDROOT
BRANCH   1   7
ATOM      7  N   UNL d   1      -0.101   0.573   0.416  0.00  0.00    -0.732 N 
ATOM      8  C   UNL d   1       0.271   1.388  -0.720  0.00  0.00     0.284 C 
ATOM      9  H3  UNL d   1      -0.868   0.952   0.967  0.00  0.00     0.395 HD
ENDBRANCH   1   7
TORSDOF 1
ENDMDL
