MODEL 1
REMARK minimizedAffinity -5.08765078
REMARK minimizedRMSD -1
REMARK  1 active torsions:
REMARK  status: ('A' for Active; 'I' for Inactive)
REMARK    1  A    between atoms: N_2  and  C1_3 
ROOT
ATOM      1  C1  UNL d   1       0.073  -0.041   0.327  0.00  0.00     0.143 A 
ATOM      2  C2  UNL d   1       0.475  -0.888  -0.711  0.00  0.00    -0.057 A 
ATOM      3  C3  UNL d   1       0.345  -2.279  -0.605  0.00  0.00     0.033 A 
ATOM      4  C4  UNL d   1      -0.165  -2.849   0.557  0.00  0.00    -0.042 A 
ATOM      5  C5  UNL d   1      -0.547  -2.027   1.611  0.00  0.00     0.033 A 
ATOM      6  C6  UNL d   1      -0.421  -0.639   1.497  0.00  0.00    -0.057 A 
ENDROOT
BRANCH   1   7
ATOM      7  N   UNL d   1       0.268   1.343   0.321  0.00  0.00    -0.732 N 
ATOM      8  C   UNL d   1       1.603   1.899   0.263  0.00  0.00     0.284 C 
ATOM      9  H3  UNL d   1      -0.411   1.828  -0.262  0.00  0.00     0.395 HD
ENDBRANCH   1   7
TORSDOF 1
ENDMDL
