MODEL 1
REMARK minimizedAffinity -2.00571728
REMARK minimizedRMSD -1
REMARK  1 active torsions:
REMARK  status: ('A' for Active; 'I' for Inactive)
REMARK    1  A    between atoms: N_2  and  C1_3 
ROOT
ATOM      1  C1  UNL d   1      -0.282  -1.214   0.483  0.00  0.00     0.143 A 
ATOM      2  C2  UNL d   1       0.362  -0.817  -0.694  0.00  0.00    -0.057 A 
ATOM      3  C3  UNL d   1       0.400   0.528  -1.082  0.00  0.00     0.033 A 
ATOM      4  C4  UNL d   1      -0.232   1.499  -0.312  0.00  0.00    -0.042 A 
ATOM      5  C5  UNL d   1      -0.899   1.123   0.849  0.00  0.00     0.033 A 
ATOM      6  C6  UNL d   1      -0.928  -0.220   1.235  0.00  0.00    -0.057 A 
ENDROOT
BRANCH   1   7
ATOM      7  N   UNL d   1      -0.439  -2.547   0.872  0.00  0.00    -0.732 N 
ATOM      8  C   UNL d   1      -1.161  -3.479   0.033  0.00  0.00     0.284 C 
ATOM      9  H3  UNL d   1       0.405  -2.932   1.290  0.00  0.00     0.395 HD
ENDBRANCH   1   7
TORSDOF 1
ENDMDL
