MODEL 1
REMARK minimizedAffinity -4.82988405
REMARK minimizedRMSD -1
REMARK  1 active torsions:
REMARK  status: ('A' for Active; 'I' for Inactive)
REMARK    1  A    between atoms: N_2  and  C1_3 
ROOT
ATOM      1  C1  UNL d   1      -0.055  -0.117  -0.135  0.00  0.00     0.143 A 
ATOM      2  C2  UNL d   1      -0.878  -0.462   0.943  0.00  0.00    -0.057 A 
ATOM      3  C3  UNL d   1      -1.144  -1.801   1.253  0.00  0.00     0.033 A 
ATOM      4  C4  UNL d   1      -0.613  -2.822   0.471  0.00  0.00    -0.042 A 
ATOM      5  C5  UNL d   1       0.186  -2.501  -0.621  0.00  0.00     0.033 A 
ATOM      6  C6  UNL d   1       0.454  -1.162  -0.922  0.00  0.00    -0.057 A 
ENDROOT
BRANCH   1   7
ATOM      7  N   UNL d   1       0.167   1.197  -0.554  0.00  0.00    -0.732 N 
ATOM      8  C   UNL d   1       0.864   2.135   0.299  0.00  0.00     0.284 C 
ATOM      9  H3  UNL d   1       0.430   1.252  -1.536  0.00  0.00     0.395 HD
ENDBRANCH   1   7
TORSDOF 1
ENDMDL
