MODEL 1
REMARK minimizedAffinity -4.03547716
REMARK minimizedRMSD -1
REMARK  1 active torsions:
REMARK  status: ('A' for Active; 'I' for Inactive)
REMARK    1  A    between atoms: N_2  and  C1_3 
ROOT
ATOM      1  C1  UNL d   1       0.231  -0.799  -0.693  0.00  0.00     0.143 A 
ATOM      2  C2  UNL d   1      -0.310  -1.272   0.507  0.00  0.00    -0.057 A 
ATOM      3  C3  UNL d   1      -0.511  -2.641   0.723  0.00  0.00     0.033 A 
ATOM      4  C4  UNL d   1      -0.201  -3.561  -0.272  0.00  0.00    -0.042 A 
ATOM      5  C5  UNL d   1       0.315  -3.112  -1.483  0.00  0.00     0.033 A 
ATOM      6  C6  UNL d   1       0.520  -1.744  -1.690  0.00  0.00    -0.057 A 
ENDROOT
BRANCH   1   7
ATOM      7  N   UNL d   1       0.364   0.556  -1.006  0.00  0.00    -0.732 N 
ATOM      8  C   UNL d   1       0.283   1.563   0.030  0.00  0.00     0.284 C 
ATOM      9  H3  UNL d   1       1.093   0.726  -1.695  0.00  0.00     0.395 HD
ENDBRANCH   1   7
TORSDOF 1
ENDMDL
