MODEL 1
REMARK minimizedAffinity -2.76694441
REMARK minimizedRMSD -1
REMARK  1 active torsions:
REMARK  status: ('A' for Active; 'I' for Inactive)
REMARK    1  A    between atoms: N_2  and  C1_3 
ROOT
ATOM      1  C1  UNL d   1       0.416   0.231   0.735  0.00  0.00     0.143 A 
ATOM      2  C2  UNL d   1       0.084   0.203  -0.624  0.00  0.00    -0.057 A 
ATOM      3  C3  UNL d   1       0.452   1.246  -1.483  0.00  0.00     0.033 A 
ATOM      4  C4  UNL d   1       1.135   2.353  -0.990  0.00  0.00    -0.042 A 
ATOM      5  C5  UNL d   1       1.454   2.414   0.362  0.00  0.00     0.033 A 
ATOM      6  C6  UNL d   1       1.089   1.366   1.213  0.00  0.00    -0.057 A 
ENDROOT
BRANCH   1   7
ATOM      7  N   UNL d   1      -0.008  -0.727   1.659  0.00  0.00    -0.732 N 
ATOM      8  C   UNL d   1      -0.723  -1.907   1.222  0.00  0.00     0.284 C 
ATOM      9  H3  UNL d   1       0.688  -0.906   2.379  0.00  0.00     0.395 HD
ENDBRANCH   1   7
TORSDOF 1
ENDMDL
