MODEL 1
REMARK minimizedAffinity -4.59266949
REMARK minimizedRMSD -1
REMARK  1 active torsions:
REMARK  status: ('A' for Active; 'I' for Inactive)
REMARK    1  A    between atoms: N_2  and  C1_3 
ROOT
ATOM      1  C1  UNL d   1       0.197  -0.914  -0.910  0.00  0.00     0.143 A 
ATOM      2  C2  UNL d   1      -0.117  -1.612   0.261  0.00  0.00    -0.057 A 
ATOM      3  C3  UNL d   1      -0.041  -3.009   0.317  0.00  0.00     0.033 A 
ATOM      4  C4  UNL d   1       0.323  -3.737  -0.810  0.00  0.00    -0.042 A 
ATOM      5  C5  UNL d   1       0.615  -3.067  -1.993  0.00  0.00     0.033 A 
ATOM      6  C6  UNL d   1       0.544  -1.671  -2.040  0.00  0.00    -0.057 A 
ENDROOT
BRANCH   1   7
ATOM      7  N   UNL d   1       0.045   0.467  -1.058  0.00  0.00    -0.732 N 
ATOM      8  C   UNL d   1       0.425   1.368   0.010  0.00  0.00     0.284 C 
ATOM      9  H3  UNL d   1       0.307   0.789  -1.986  0.00  0.00     0.395 HD
ENDBRANCH   1   7
TORSDOF 1
ENDMDL
