MODEL 1
REMARK minimizedAffinity -3.84006667
REMARK minimizedRMSD -1
REMARK  1 active torsions:
REMARK  status: ('A' for Active; 'I' for Inactive)
REMARK    1  A    between atoms: N_2  and  C1_3 
ROOT
ATOM      1  C1  UNL d   1      -0.051  -0.013  -0.074  0.00  0.00     0.143 A 
ATOM      2  C2  UNL d   1      -0.976  -0.344   0.922  0.00  0.00    -0.057 A 
ATOM      3  C3  UNL d   1      -1.205  -1.676   1.287  0.00  0.00     0.033 A 
ATOM      4  C4  UNL d   1      -0.530  -2.707   0.641  0.00  0.00    -0.042 A 
ATOM      5  C5  UNL d   1       0.376  -2.403  -0.369  0.00  0.00     0.033 A 
ATOM      6  C6  UNL d   1       0.605  -1.070  -0.725  0.00  0.00    -0.057 A 
ENDROOT
BRANCH   1   7
ATOM      7  N   UNL d   1       0.149   1.285  -0.550  0.00  0.00    -0.732 N 
ATOM      8  C   UNL d   1       0.688   2.312   0.314  0.00  0.00     0.284 C 
ATOM      9  H3  UNL d   1       0.523   1.298  -1.496  0.00  0.00     0.395 HD
ENDBRANCH   1   7
TORSDOF 1
ENDMDL
