MODEL 1
REMARK minimizedAffinity -2.96244836
REMARK minimizedRMSD -1
REMARK  1 active torsions:
REMARK  status: ('A' for Active; 'I' for Inactive)
REMARK    1  A    between atoms: N_2  and  C1_3 
ROOT
ATOM      1  C1  UNL d   1      -0.053   0.177   0.295  0.00  0.00     0.143 A 
ATOM      2  C2  UNL d   1      -1.105  -0.334   1.064  0.00  0.00    -0.057 A 
ATOM      3  C3  UNL d   1      -1.196  -1.700   1.354  0.00  0.00     0.033 A 
ATOM      4  C4  UNL d   1      -0.249  -2.588   0.855  0.00  0.00    -0.042 A 
ATOM      5  C5  UNL d   1       0.792  -2.107   0.068  0.00  0.00     0.033 A 
ATOM      6  C6  UNL d   1       0.881  -0.740  -0.213  0.00  0.00    -0.057 A 
ENDROOT
BRANCH   1   7
ATOM      7  N   UNL d   1       0.039   1.510  -0.110  0.00  0.00    -0.732 N 
ATOM      8  C   UNL d   1       1.283   2.238   0.024  0.00  0.00     0.284 C 
ATOM      9  H3  UNL d   1      -0.454   1.686  -0.983  0.00  0.00     0.395 HD
ENDBRANCH   1   7
TORSDOF 1
ENDMDL
