MODEL 1
REMARK minimizedAffinity -0.665826738
REMARK minimizedRMSD -1
REMARK  1 active torsions:
REMARK  status: ('A' for Active; 'I' for Inactive)
REMARK    1  A    between atoms: N_2  and  C1_3 
ROOT
ATOM      1  C1  UNL d   1      -0.710  -1.467   0.507  0.00  0.00     0.143 A 
ATOM      2  C2  UNL d   1      -0.051  -1.092  -0.669  0.00  0.00    -0.057 A 
ATOM      3  C3  UNL d   1       0.100   0.255  -1.019  0.00  0.00     0.033 A 
ATOM      4  C4  UNL d   1      -0.433   1.254  -0.212  0.00  0.00    -0.042 A 
ATOM      5  C5  UNL d   1      -1.114   0.904   0.949  0.00  0.00     0.033 A 
ATOM      6  C6  UNL d   1      -1.256  -0.443   1.297  0.00  0.00    -0.057 A 
ENDROOT
BRANCH   1   7
ATOM      7  N   UNL d   1      -0.979  -2.791   0.860  0.00  0.00    -0.732 N 
ATOM      8  C   UNL d   1      -0.389  -3.886   0.119  0.00  0.00     0.284 C 
ATOM      9  H3  UNL d   1      -0.990  -2.930   1.868  0.00  0.00     0.395 HD
ENDBRANCH   1   7
TORSDOF 1
ENDMDL
