MODEL 1
REMARK minimizedAffinity -5.30151796
REMARK minimizedRMSD -1
REMARK  1 active torsions:
REMARK  status: ('A' for Active; 'I' for Inactive)
REMARK    1  A    between atoms: N_2  and  C1_3 
ROOT
ATOM      1  C1  UNL d   1       0.136  -0.128  -0.089  0.00  0.00     0.143 A 
ATOM      2  C2  UNL d   1      -0.391  -0.865   0.977  0.00  0.00    -0.057 A 
ATOM      3  C3  UNL d   1      -0.326  -2.263   0.995  0.00  0.00     0.033 A 
ATOM      4  C4  UNL d   1       0.243  -2.953  -0.071  0.00  0.00    -0.042 A 
ATOM      5  C5  UNL d   1       0.750  -2.242  -1.153  0.00  0.00     0.033 A 
ATOM      6  C6  UNL d   1       0.689  -0.845  -1.162  0.00  0.00    -0.057 A 
ENDROOT
BRANCH   1   7
ATOM      7  N   UNL d   1       0.014   1.259  -0.212  0.00  0.00    -0.732 N 
ATOM      8  C   UNL d   1       1.147   2.123   0.041  0.00  0.00     0.284 C 
ATOM      9  H3  UNL d   1      -0.544   1.530  -1.018  0.00  0.00     0.395 HD
ENDBRANCH   1   7
TORSDOF 1
ENDMDL
