MODEL 1
REMARK minimizedAffinity -2.37676668
REMARK minimizedRMSD -1
REMARK  1 active torsions:
REMARK  status: ('A' for Active; 'I' for Inactive)
REMARK    1  A    between atoms: N_2  and  C1_3 
ROOT
ATOM      1  C1  UNL d   1      -0.687  -0.917   0.274  0.00  0.00     0.143 A 
ATOM      2  C2  UNL d   1       0.430  -1.583  -0.240  0.00  0.00    -0.057 A 
ATOM      3  C3  UNL d   1       0.429  -2.972  -0.419  0.00  0.00     0.033 A 
ATOM      4  C4  UNL d   1      -0.683  -3.725  -0.059  0.00  0.00    -0.042 A 
ATOM      5  C5  UNL d   1      -1.796  -3.087   0.478  0.00  0.00     0.033 A 
ATOM      6  C6  UNL d   1      -1.791  -1.699   0.648  0.00  0.00    -0.057 A 
ENDROOT
BRANCH   1   7
ATOM      7  N   UNL d   1      -0.712   0.448   0.567  0.00  0.00    -0.732 N 
ATOM      8  C   UNL d   1      -0.132   1.409  -0.346  0.00  0.00     0.284 C 
ATOM      9  H3  UNL d   1      -1.597   0.742   0.973  0.00  0.00     0.395 HD
ENDBRANCH   1   7
TORSDOF 1
ENDMDL
