MODEL 1
REMARK minimizedAffinity -4.61137581
REMARK minimizedRMSD -1
REMARK  1 active torsions:
REMARK  status: ('A' for Active; 'I' for Inactive)
REMARK    1  A    between atoms: N_2  and  C1_3 
ROOT
ATOM      1  C1  UNL d   1      -0.093  -0.478   0.773  0.00  0.00     0.143 A 
ATOM      2  C2  UNL d   1      -1.349  -0.930   1.191  0.00  0.00    -0.057 A 
ATOM      3  C3  UNL d   1      -1.714  -2.276   1.069  0.00  0.00     0.033 A 
ATOM      4  C4  UNL d   1      -0.836  -3.192   0.499  0.00  0.00    -0.042 A 
ATOM      5  C5  UNL d   1       0.409  -2.761   0.054  0.00  0.00     0.033 A 
ATOM      6  C6  UNL d   1       0.770  -1.416   0.185  0.00  0.00    -0.057 A 
ENDROOT
BRANCH   1   7
ATOM      7  N   UNL d   1       0.291   0.865   0.777  0.00  0.00    -0.732 N 
ATOM      8  C   UNL d   1       1.112   1.400  -0.289  0.00  0.00     0.284 C 
ATOM      9  H3  UNL d   1      -0.460   1.483   1.073  0.00  0.00     0.395 HD
ENDBRANCH   1   7
TORSDOF 1
ENDMDL
