MODEL 1
REMARK minimizedAffinity -2.91787791
REMARK minimizedRMSD -1
REMARK  0 active torsions:
REMARK  status: ('A' for Active; 'I' for Inactive)
ROOT
ATOM      1  C2' OXE d   1       1.228  -1.830  -1.691  0.00  0.00     0.078 C 
ATOM      2  C1' OXE d   1       0.160  -3.347   0.416  0.00  0.00     0.078 C 
ATOM      3  C1  OXE d   1      -0.145  -1.870   0.388  0.00  0.00    -0.078 A 
ATOM      4  C2  OXE d   1       0.420  -1.127  -0.621  0.00  0.00    -0.078 A 
ATOM      5  C3  OXE d   1       0.127   0.230  -0.725  0.00  0.00     0.003 A 
ATOM      6  C4  OXE d   1      -0.613   0.874   0.274  0.00  0.00    -0.002 A 
ATOM      7  C5  OXE d   1      -1.165   0.143   1.332  0.00  0.00    -0.002 A 
ATOM      8  C6  OXE d   1      -0.976  -1.234   1.380  0.00  0.00     0.003 A 
ENDROOT
TORSDOF 0
ENDMDL
