MODEL 1
REMARK minimizedAffinity -2.61507964
REMARK minimizedRMSD -1
REMARK  0 active torsions:
REMARK  status: ('A' for Active; 'I' for Inactive)
ROOT
ATOM      1  C2' OXE d   1       1.284  -2.059  -2.537  0.00  0.00     0.078 C 
ATOM      2  C1' OXE d   1       0.827  -2.458   0.204  0.00  0.00     0.078 C 
ATOM      3  C1  OXE d   1       0.290  -1.195  -0.422  0.00  0.00    -0.078 A 
ATOM      4  C2  OXE d   1       0.559  -0.986  -1.753  0.00  0.00    -0.078 A 
ATOM      5  C3  OXE d   1       0.040   0.136  -2.393  0.00  0.00     0.003 A 
ATOM      6  C4  OXE d   1      -0.621   1.129  -1.659  0.00  0.00    -0.002 A 
ATOM      7  C5  OXE d   1      -0.871   0.954  -0.294  0.00  0.00    -0.002 A 
ATOM      8  C6  OXE d   1      -0.460  -0.219   0.329  0.00  0.00     0.003 A 
ENDROOT
TORSDOF 0
ENDMDL
