MODEL 1
REMARK minimizedAffinity -2.36238217
REMARK minimizedRMSD -1
REMARK  0 active torsions:
REMARK  status: ('A' for Active; 'I' for Inactive)
ROOT
ATOM      1  C2' OXE d   1       0.268   1.381  -0.400  0.00  0.00     0.078 C 
ATOM      2  C1' OXE d   1       0.651  -0.947  -1.922  0.00  0.00     0.078 C 
ATOM      3  C1  OXE d   1      -0.105  -1.072  -0.623  0.00  0.00    -0.078 A 
ATOM      4  C2  OXE d   1      -0.248   0.063   0.138  0.00  0.00    -0.078 A 
ATOM      5  C3  OXE d   1      -0.984   0.015   1.318  0.00  0.00     0.003 A 
ATOM      6  C4  OXE d   1      -1.448  -1.210   1.814  0.00  0.00    -0.002 A 
ATOM      7  C5  OXE d   1      -1.280  -2.385   1.074  0.00  0.00    -0.002 A 
ATOM      8  C6  OXE d   1      -0.649  -2.326  -0.164  0.00  0.00     0.003 A 
ENDROOT
TORSDOF 0
ENDMDL
