MODEL 1
REMARK minimizedAffinity -3.64408445
REMARK minimizedRMSD -1
REMARK  0 active torsions:
REMARK  status: ('A' for Active; 'I' for Inactive)
ROOT
ATOM      1  C2' OXE d   1      -0.084  -3.164  -0.068  0.00  0.00     0.078 C 
ATOM      2  C1' OXE d   1       0.653  -1.362  -2.091  0.00  0.00     0.078 C 
ATOM      3  C1  OXE d   1      -0.025  -0.804  -0.864  0.00  0.00    -0.078 A 
ATOM      4  C2  OXE d   1      -0.424  -1.699   0.100  0.00  0.00    -0.078 A 
ATOM      5  C3  OXE d   1      -1.005  -1.232   1.276  0.00  0.00     0.003 A 
ATOM      6  C4  OXE d   1      -1.325   0.124   1.418  0.00  0.00    -0.002 A 
ATOM      7  C5  OXE d   1      -0.963   1.047   0.431  0.00  0.00    -0.002 A 
ATOM      8  C6  OXE d   1      -0.276   0.606  -0.695  0.00  0.00     0.003 A 
ENDROOT
TORSDOF 0
ENDMDL
