MODEL 1
REMARK minimizedAffinity -4.32804537
REMARK minimizedRMSD -1
REMARK  0 active torsions:
REMARK  status: ('A' for Active; 'I' for Inactive)
ROOT
ATOM      1  C2' OXE d   1      -0.009  -2.981   0.809  0.00  0.00     0.078 C 
ATOM      2  C1' OXE d   1      -1.121  -0.870   2.287  0.00  0.00     0.078 C 
ATOM      3  C1  OXE d   1      -0.437  -0.533   0.986  0.00  0.00    -0.078 A 
ATOM      4  C2  OXE d   1       0.146  -1.567   0.293  0.00  0.00    -0.078 A 
ATOM      5  C3  OXE d   1       0.743  -1.320  -0.940  0.00  0.00     0.003 A 
ATOM      6  C4  OXE d   1       0.890  -0.007  -1.406  0.00  0.00    -0.002 A 
ATOM      7  C5  OXE d   1       0.339   1.064  -0.696  0.00  0.00    -0.002 A 
ATOM      8  C6  OXE d   1      -0.363   0.814   0.478  0.00  0.00     0.003 A 
ENDROOT
TORSDOF 0
ENDMDL
