MODEL 1
REMARK minimizedAffinity -1.93147707
REMARK minimizedRMSD -1
REMARK  0 active torsions:
REMARK  status: ('A' for Active; 'I' for Inactive)
ROOT
ATOM      1  C2' OXE d   1      -1.884   0.358   1.674  0.00  0.00     0.078 C 
ATOM      2  C1' OXE d   1       0.465   1.077   0.317  0.00  0.00     0.078 C 
ATOM      3  C1  OXE d   1       0.121  -0.389   0.400  0.00  0.00    -0.078 A 
ATOM      4  C2  OXE d   1      -1.006  -0.735   1.106  0.00  0.00    -0.078 A 
ATOM      5  C3  OXE d   1      -1.399  -2.069   1.167  0.00  0.00     0.003 A 
ATOM      6  C4  OXE d   1      -0.575  -3.075   0.647  0.00  0.00    -0.002 A 
ATOM      7  C5  OXE d   1       0.598  -2.747  -0.042  0.00  0.00    -0.002 A 
ATOM      8  C6  OXE d   1       0.937  -1.409  -0.211  0.00  0.00     0.003 A 
ENDROOT
TORSDOF 0
ENDMDL
