MODEL 1
REMARK minimizedAffinity -3.57050133
REMARK minimizedRMSD -1
REMARK  0 active torsions:
REMARK  status: ('A' for Active; 'I' for Inactive)
ROOT
ATOM      1  C2' OXE d   1       0.286  -3.104   0.426  0.00  0.00     0.078 C 
ATOM      2  C1' OXE d   1       1.533  -1.606  -1.593  0.00  0.00     0.078 C 
ATOM      3  C1  OXE d   1       0.711  -0.861  -0.571  0.00  0.00    -0.078 A 
ATOM      4  C2  OXE d   1       0.066  -1.607   0.386  0.00  0.00    -0.078 A 
ATOM      5  C3  OXE d   1      -0.660  -0.966   1.385  0.00  0.00     0.003 A 
ATOM      6  C4  OXE d   1      -0.866   0.418   1.335  0.00  0.00    -0.002 A 
ATOM      7  C5  OXE d   1      -0.251   1.192   0.346  0.00  0.00    -0.002 A 
ATOM      8  C6  OXE d   1       0.574   0.574  -0.588  0.00  0.00     0.003 A 
ENDROOT
TORSDOF 0
ENDMDL
