MODEL 1
REMARK minimizedAffinity -2.61509323
REMARK minimizedRMSD -1
REMARK  0 active torsions:
REMARK  status: ('A' for Active; 'I' for Inactive)
ROOT
ATOM      1  C2' OXE d   1      -1.796  -0.167   1.958  0.00  0.00     0.078 C 
ATOM      2  C1' OXE d   1      -1.030  -2.685   0.981  0.00  0.00     0.078 C 
ATOM      3  C1  OXE d   1      -0.600  -1.468   0.202  0.00  0.00    -0.078 A 
ATOM      4  C2  OXE d   1      -1.019  -0.242   0.661  0.00  0.00    -0.078 A 
ATOM      5  C3  OXE d   1      -0.605   0.916   0.011  0.00  0.00     0.003 A 
ATOM      6  C4  OXE d   1       0.105   0.838  -1.194  0.00  0.00    -0.002 A 
ATOM      7  C5  OXE d   1       0.508  -0.402  -1.701  0.00  0.00    -0.002 A 
ATOM      8  C6  OXE d   1       0.200  -1.560  -0.994  0.00  0.00     0.003 A 
ENDROOT
TORSDOF 0
ENDMDL
