MODEL 1
REMARK minimizedAffinity -3.93791842
REMARK minimizedRMSD -1
REMARK  0 active torsions:
REMARK  status: ('A' for Active; 'I' for Inactive)
ROOT
ATOM      1  C2' OXE d   1      -1.478  -0.306   1.197  0.00  0.00     0.078 C 
ATOM      2  C1' OXE d   1       0.207   0.677  -0.821  0.00  0.00     0.078 C 
ATOM      3  C1  OXE d   1       0.035  -0.817  -0.715  0.00  0.00    -0.078 A 
ATOM      4  C2  OXE d   1      -0.754  -1.292   0.305  0.00  0.00    -0.078 A 
ATOM      5  C3  OXE d   1      -0.990  -2.659   0.415  0.00  0.00     0.003 A 
ATOM      6  C4  OXE d   1      -0.309  -3.565  -0.408  0.00  0.00    -0.002 A 
ATOM      7  C5  OXE d   1       0.531  -3.104  -1.428  0.00  0.00    -0.002 A 
ATOM      8  C6  OXE d   1       0.680  -1.735  -1.621  0.00  0.00     0.003 A 
ENDROOT
TORSDOF 0
ENDMDL
