MODEL 1
REMARK minimizedAffinity -4.94059801
REMARK minimizedRMSD -1
REMARK  0 active torsions:
REMARK  status: ('A' for Active; 'I' for Inactive)
ROOT
ATOM      1  C2' OXE d   1      -1.231  -1.085   1.949  0.00  0.00     0.078 C 
ATOM      2  C1' OXE d   1       0.166  -3.011   0.460  0.00  0.00     0.078 C 
ATOM      3  C1  OXE d   1       0.071  -1.617  -0.106  0.00  0.00    -0.078 A 
ATOM      4  C2  OXE d   1      -0.654  -0.692   0.607  0.00  0.00    -0.078 A 
ATOM      5  C3  OXE d   1      -0.727   0.623   0.156  0.00  0.00     0.003 A 
ATOM      6  C4  OXE d   1      -0.199   0.975  -1.091  0.00  0.00    -0.002 A 
ATOM      7  C5  OXE d   1       0.510   0.039  -1.852  0.00  0.00    -0.002 A 
ATOM      8  C6  OXE d   1       0.690  -1.247  -1.355  0.00  0.00     0.003 A 
ENDROOT
TORSDOF 0
ENDMDL
