MODEL 1
REMARK minimizedAffinity -1.83922887
REMARK minimizedRMSD -1
REMARK  0 active torsions:
REMARK  status: ('A' for Active; 'I' for Inactive)
ROOT
ATOM      1  C2' OXE d   1       1.333  -1.983  -2.288  0.00  0.00     0.078 C 
ATOM      2  C1' OXE d   1       0.253  -3.023   0.085  0.00  0.00     0.078 C 
ATOM      3  C1  OXE d   1       0.139  -1.537  -0.148  0.00  0.00    -0.078 A 
ATOM      4  C2  OXE d   1       0.712  -1.030  -1.290  0.00  0.00    -0.078 A 
ATOM      5  C3  OXE d   1       0.588   0.325  -1.580  0.00  0.00     0.003 A 
ATOM      6  C4  OXE d   1       0.021   1.201  -0.646  0.00  0.00    -0.002 A 
ATOM      7  C5  OXE d   1      -0.533   0.711   0.541  0.00  0.00    -0.002 A 
ATOM      8  C6  OXE d   1      -0.520  -0.657   0.786  0.00  0.00     0.003 A 
ENDROOT
TORSDOF 0
ENDMDL
