MODEL 1
REMARK minimizedAffinity -5.32011366
REMARK minimizedRMSD -1
REMARK  0 active torsions:
REMARK  status: ('A' for Active; 'I' for Inactive)
ROOT
ATOM      1  C2' OXE d   1      -1.038  -0.374   1.948  0.00  0.00     0.078 C 
ATOM      2  C1' OXE d   1      -0.420   0.614  -0.606  0.00  0.00     0.078 C 
ATOM      3  C1  OXE d   1      -0.168  -0.849  -0.337  0.00  0.00    -0.078 A 
ATOM      4  C2  OXE d   1      -0.430  -1.313   0.930  0.00  0.00    -0.078 A 
ATOM      5  C3  OXE d   1      -0.266  -2.666   1.215  0.00  0.00     0.003 A 
ATOM      6  C4  OXE d   1       0.307  -3.526   0.271  0.00  0.00    -0.002 A 
ATOM      7  C5  OXE d   1       0.618  -3.064  -1.013  0.00  0.00    -0.002 A 
ATOM      8  C6  OXE d   1       0.347  -1.741  -1.346  0.00  0.00     0.003 A 
ENDROOT
TORSDOF 0
ENDMDL
