MODEL 1
REMARK minimizedAffinity -3.85635877
REMARK minimizedRMSD -1
REMARK  0 active torsions:
REMARK  status: ('A' for Active; 'I' for Inactive)
ROOT
ATOM      1  C2' OXE d   1       0.024  -3.075   0.206  0.00  0.00     0.078 C 
ATOM      2  C1' OXE d   1       0.973  -1.720  -2.063  0.00  0.00     0.078 C 
ATOM      3  C1  OXE d   1       0.325  -0.902  -0.974  0.00  0.00    -0.078 A 
ATOM      4  C2  OXE d   1      -0.178  -1.578   0.111  0.00  0.00    -0.078 A 
ATOM      5  C3  OXE d   1      -0.736  -0.866   1.169  0.00  0.00     0.003 A 
ATOM      6  C4  OXE d   1      -0.928   0.518   1.069  0.00  0.00    -0.002 A 
ATOM      7  C5  OXE d   1      -0.459   1.221  -0.045  0.00  0.00    -0.002 A 
ATOM      8  C6  OXE d   1       0.207   0.533  -1.054  0.00  0.00     0.003 A 
ENDROOT
TORSDOF 0
ENDMDL
