MODEL 1
REMARK minimizedAffinity -3.25740981
REMARK minimizedRMSD -1
REMARK  0 active torsions:
REMARK  status: ('A' for Active; 'I' for Inactive)
ROOT
ATOM      1  C2' OXE d   1       0.940  -2.153  -2.528  0.00  0.00     0.078 C 
ATOM      2  C1' OXE d   1       0.237  -2.977   0.062  0.00  0.00     0.078 C 
ATOM      3  C1  OXE d   1       0.028  -1.527  -0.297  0.00  0.00    -0.078 A 
ATOM      4  C2  OXE d   1       0.418  -1.123  -1.550  0.00  0.00    -0.078 A 
ATOM      5  C3  OXE d   1       0.196   0.192  -1.951  0.00  0.00     0.003 A 
ATOM      6  C4  OXE d   1      -0.278   1.141  -1.037  0.00  0.00    -0.002 A 
ATOM      7  C5  OXE d   1      -0.644   0.758   0.258  0.00  0.00    -0.002 A 
ATOM      8  C6  OXE d   1      -0.538  -0.577   0.629  0.00  0.00     0.003 A 
ENDROOT
TORSDOF 0
ENDMDL
