MODEL 1
REMARK minimizedAffinity -3.35201788
REMARK minimizedRMSD -1
REMARK  0 active torsions:
REMARK  status: ('A' for Active; 'I' for Inactive)
ROOT
ATOM      1  C2' OXE d   1       0.200  -0.266  -2.447  0.00  0.00     0.078 C 
ATOM      2  C1' OXE d   1       0.296   1.370  -0.168  0.00  0.00     0.078 C 
ATOM      3  C1  OXE d   1      -0.232  -0.033  -0.005  0.00  0.00    -0.078 A 
ATOM      4  C2  OXE d   1      -0.319  -0.811  -1.134  0.00  0.00    -0.078 A 
ATOM      5  C3  OXE d   1      -0.748  -2.131  -1.031  0.00  0.00     0.003 A 
ATOM      6  C4  OXE d   1      -1.236  -2.625   0.185  0.00  0.00    -0.002 A 
ATOM      7  C5  OXE d   1      -1.194  -1.836   1.340  0.00  0.00    -0.002 A 
ATOM      8  C6  OXE d   1      -0.656  -0.555   1.271  0.00  0.00     0.003 A 
ENDROOT
TORSDOF 0
ENDMDL
