MODEL 1
REMARK minimizedAffinity -4.72381973
REMARK minimizedRMSD -1
REMARK  0 active torsions:
REMARK  status: ('A' for Active; 'I' for Inactive)
ROOT
ATOM      1  C2' OXE d   1       1.131  -2.122  -2.063  0.00  0.00     0.078 C 
ATOM      2  C1' OXE d   1       0.306  -3.630   0.156  0.00  0.00     0.078 C 
ATOM      3  C1  OXE d   1      -0.047  -2.164   0.131  0.00  0.00    -0.078 A 
ATOM      4  C2  OXE d   1       0.401  -1.424  -0.936  0.00  0.00    -0.078 A 
ATOM      5  C3  OXE d   1       0.056  -0.079  -1.035  0.00  0.00     0.003 A 
ATOM      6  C4  OXE d   1      -0.610   0.561   0.017  0.00  0.00    -0.002 A 
ATOM      7  C5  OXE d   1      -1.041  -0.166   1.131  0.00  0.00    -0.002 A 
ATOM      8  C6  OXE d   1      -0.805  -1.535   1.184  0.00  0.00     0.003 A 
ENDROOT
TORSDOF 0
ENDMDL
