MODEL 1
REMARK minimizedAffinity -4.38419771
REMARK minimizedRMSD -1
REMARK  0 active torsions:
REMARK  status: ('A' for Active; 'I' for Inactive)
ROOT
ATOM      1  C2' OXE d   1       0.111  -3.013   0.220  0.00  0.00     0.078 C 
ATOM      2  C1' OXE d   1       1.253  -1.607  -1.925  0.00  0.00     0.078 C 
ATOM      3  C1  OXE d   1       0.483  -0.817  -0.896  0.00  0.00    -0.078 A 
ATOM      4  C2  OXE d   1      -0.112  -1.519   0.125  0.00  0.00    -0.078 A 
ATOM      5  C3  OXE d   1      -0.788  -0.833   1.130  0.00  0.00     0.003 A 
ATOM      6  C4  OXE d   1      -0.998   0.547   1.029  0.00  0.00    -0.002 A 
ATOM      7  C5  OXE d   1      -0.435   1.276  -0.024  0.00  0.00    -0.002 A 
ATOM      8  C6  OXE d   1       0.343   0.616  -0.970  0.00  0.00     0.003 A 
ENDROOT
TORSDOF 0
ENDMDL
