MODEL 1
REMARK minimizedAffinity 5.63086271
REMARK minimizedRMSD -1
REMARK  0 active torsions:
REMARK  status: ('A' for Active; 'I' for Inactive)
ROOT
ATOM      1  C1  DEN d   1      -1.167   1.080   1.862  0.00  0.00     0.130 A 
ATOM      2  C2  DEN d   1      -0.958   1.048   0.417  0.00  0.00    -0.031 A 
ATOM      3  C3  DEN d   1      -0.017   2.131   0.068  0.00  0.00     0.027 A 
ATOM      4  C4  DEN d   1       1.135   3.842   1.616  0.00  0.00     0.027 A 
ATOM      5  C5  DEN d   1       1.259   4.271   2.919  0.00  0.00    -0.003 A 
ATOM      6  C6  DEN d   1       0.563   3.694   3.948  0.00  0.00     0.001 A 
ATOM      7  C7  DEN d   1      -0.255   2.624   3.697  0.00  0.00     0.017 A 
ATOM      8  C8  DEN d   1      -0.391   2.190   2.385  0.00  0.00    -0.094 A 
ATOM      9  C9  DEN d   1       0.330   2.779   1.361  0.00  0.00    -0.072 A 
ENDROOT
TORSDOF 0
ENDMDL
