MODEL 1
REMARK minimizedAffinity 6.60860968
REMARK minimizedRMSD -1
REMARK  0 active torsions:
REMARK  status: ('A' for Active; 'I' for Inactive)
ROOT
ATOM      1  C1  DEN d   1       4.732  -2.396  -3.796  0.00  0.00     0.130 A 
ATOM      2  C2  DEN d   1       3.364  -2.331  -3.289  0.00  0.00    -0.031 A 
ATOM      3  C3  DEN d   1       2.648  -3.538  -3.750  0.00  0.00     0.027 A 
ATOM      4  C4  DEN d   1       3.523  -5.494  -5.186  0.00  0.00     0.027 A 
ATOM      5  C5  DEN d   1       4.616  -5.988  -5.862  0.00  0.00    -0.003 A 
ATOM      6  C6  DEN d   1       5.804  -5.310  -5.925  0.00  0.00     0.001 A 
ATOM      7  C7  DEN d   1       5.942  -4.119  -5.262  0.00  0.00     0.017 A 
ATOM      8  C8  DEN d   1       4.842  -3.610  -4.585  0.00  0.00    -0.094 A 
ATOM      9  C9  DEN d   1       3.653  -4.317  -4.522  0.00  0.00    -0.072 A 
ENDROOT
TORSDOF 0
ENDMDL
