MODEL 1
REMARK minimizedAffinity 3.75130415
REMARK minimizedRMSD -1
REMARK  0 active torsions:
REMARK  status: ('A' for Active; 'I' for Inactive)
ROOT
ATOM      1  C1  DEN d   1      -2.704   1.398   2.739  0.00  0.00     0.130 A 
ATOM      2  C2  DEN d   1      -2.862   0.679   1.478  0.00  0.00    -0.031 A 
ATOM      3  C3  DEN d   1      -1.691   0.982   0.630  0.00  0.00     0.027 A 
ATOM      4  C4  DEN d   1       0.341   2.485   1.147  0.00  0.00     0.027 A 
ATOM      5  C5  DEN d   1       0.913   3.315   2.085  0.00  0.00    -0.003 A 
ATOM      6  C6  DEN d   1       0.309   3.589   3.283  0.00  0.00     0.001 A 
ATOM      7  C7  DEN d   1      -0.884   2.992   3.594  0.00  0.00     0.017 A 
ATOM      8  C8  DEN d   1      -1.471   2.159   2.650  0.00  0.00    -0.094 A 
ATOM      9  C9  DEN d   1      -0.839   1.885   1.449  0.00  0.00    -0.072 A 
ENDROOT
TORSDOF 0
ENDMDL
