MODEL 1
REMARK minimizedAffinity 0.689177454
REMARK minimizedRMSD -1
REMARK  0 active torsions:
REMARK  status: ('A' for Active; 'I' for Inactive)
ROOT
ATOM      1  C1  DEN d   1       4.687  -5.587  -2.534  0.00  0.00     0.130 A 
ATOM      2  C2  DEN d   1       6.000  -5.778  -3.145  0.00  0.00    -0.031 A 
ATOM      3  C3  DEN d   1       5.804  -5.976  -4.595  0.00  0.00     0.027 A 
ATOM      4  C4  DEN d   1       3.607  -6.000  -5.947  0.00  0.00     0.027 A 
ATOM      5  C5  DEN d   1       2.237  -5.893  -5.864  0.00  0.00    -0.003 A 
ATOM      6  C6  DEN d   1       1.590  -5.711  -4.670  0.00  0.00     0.001 A 
ATOM      7  C7  DEN d   1       2.317  -5.587  -3.516  0.00  0.00     0.017 A 
ATOM      8  C8  DEN d   1       3.699  -5.701  -3.591  0.00  0.00    -0.094 A 
ATOM      9  C9  DEN d   1       4.335  -5.872  -4.809  0.00  0.00    -0.072 A 
ENDROOT
TORSDOF 0
ENDMDL
