MODEL 1
REMARK minimizedAffinity 0.669899285
REMARK minimizedRMSD -1
REMARK  0 active torsions:
REMARK  status: ('A' for Active; 'I' for Inactive)
ROOT
ATOM      1  C1  DEN d   1      -1.602  -1.818   2.896  0.00  0.00     0.130 A 
ATOM      2  C2  DEN d   1      -2.926  -1.593   3.470  0.00  0.00    -0.031 A 
ATOM      3  C3  DEN d   1      -3.490  -0.375   2.856  0.00  0.00     0.027 A 
ATOM      4  C4  DEN d   1      -2.449   1.176   1.077  0.00  0.00     0.027 A 
ATOM      5  C5  DEN d   1      -1.337   1.399   0.295  0.00  0.00    -0.003 A 
ATOM      6  C6  DEN d   1      -0.231   0.592   0.349  0.00  0.00     0.001 A 
ATOM      7  C7  DEN d   1      -0.231  -0.503   1.172  0.00  0.00     0.017 A 
ATOM      8  C8  DEN d   1      -1.345  -0.731   1.969  0.00  0.00    -0.094 A 
ATOM      9  C9  DEN d   1      -2.458   0.089   1.890  0.00  0.00    -0.072 A 
ENDROOT
TORSDOF 0
ENDMDL
