MODEL 1
REMARK minimizedAffinity 3.4489553
REMARK minimizedRMSD -1
REMARK  0 active torsions:
REMARK  status: ('A' for Active; 'I' for Inactive)
ROOT
ATOM      1  C1  DEN d   1       1.936   2.476  -4.412  0.00  0.00     0.130 A 
ATOM      2  C2  DEN d   1       2.158   2.862  -5.803  0.00  0.00    -0.031 A 
ATOM      3  C3  DEN d   1       3.607   3.068  -5.994  0.00  0.00     0.027 A 
ATOM      4  C4  DEN d   1       5.520   2.825  -4.282  0.00  0.00     0.027 A 
ATOM      5  C5  DEN d   1       5.823   2.529  -2.971  0.00  0.00    -0.003 A 
ATOM      6  C6  DEN d   1       4.856   2.230  -2.048  0.00  0.00     0.001 A 
ATOM      7  C7  DEN d   1       3.542   2.176  -2.434  0.00  0.00     0.017 A 
ATOM      8  C8  DEN d   1       3.229   2.481  -3.752  0.00  0.00    -0.094 A 
ATOM      9  C9  DEN d   1       4.222   2.769  -4.673  0.00  0.00    -0.072 A 
ENDROOT
TORSDOF 0
ENDMDL
