MODEL 1
REMARK minimizedAffinity 5.42939901
REMARK minimizedRMSD -1
REMARK  0 active torsions:
REMARK  status: ('A' for Active; 'I' for Inactive)
ROOT
ATOM      1  C1  DEN d   1       1.894   3.458   2.112  0.00  0.00     0.130 A 
ATOM      2  C2  DEN d   1       2.663   3.890   3.276  0.00  0.00    -0.031 A 
ATOM      3  C3  DEN d   1       1.709   4.260   4.341  0.00  0.00     0.027 A 
ATOM      4  C4  DEN d   1      -0.870   4.202   4.302  0.00  0.00     0.027 A 
ATOM      5  C5  DEN d   1      -1.974   3.919   3.530  0.00  0.00    -0.003 A 
ATOM      6  C6  DEN d   1      -1.869   3.497   2.231  0.00  0.00     0.001 A 
ATOM      7  C7  DEN d   1      -0.630   3.304   1.678  0.00  0.00     0.017 A 
ATOM      8  C8  DEN d   1       0.488   3.595   2.448  0.00  0.00    -0.094 A 
ATOM      9  C9  DEN d   1       0.361   4.008   3.763  0.00  0.00    -0.072 A 
ENDROOT
TORSDOF 0
ENDMDL
