MODEL 1
REMARK minimizedAffinity -1.31273007
REMARK minimizedRMSD -1
REMARK  0 active torsions:
REMARK  status: ('A' for Active; 'I' for Inactive)
ROOT
ATOM      1  C1  DEN d   1       2.798   2.969  -5.999  0.00  0.00     0.130 A 
ATOM      2  C2  DEN d   1       1.513   2.930  -5.306  0.00  0.00    -0.031 A 
ATOM      3  C3  DEN d   1       1.778   2.916  -3.853  0.00  0.00     0.027 A 
ATOM      4  C4  DEN d   1       4.042   2.955  -2.617  0.00  0.00     0.027 A 
ATOM      5  C5  DEN d   1       5.409   2.977  -2.779  0.00  0.00    -0.003 A 
ATOM      6  C6  DEN d   1       5.998   2.964  -4.016  0.00  0.00     0.001 A 
ATOM      7  C7  DEN d   1       5.216   2.973  -5.140  0.00  0.00     0.017 A 
ATOM      8  C8  DEN d   1       3.836   2.943  -4.985  0.00  0.00    -0.094 A 
ATOM      9  C9  DEN d   1       3.260   2.969  -3.726  0.00  0.00    -0.072 A 
ENDROOT
TORSDOF 0
ENDMDL
