MODEL 1
REMARK minimizedAffinity -3.42039871
REMARK minimizedRMSD -1
REMARK  0 active torsions:
REMARK  status: ('A' for Active; 'I' for Inactive)
ROOT
ATOM      1  C1  DEN d   1       2.943   4.884  -5.998  0.00  0.00     0.130 A 
ATOM      2  C2  DEN d   1       1.596   4.481  -5.602  0.00  0.00    -0.031 A 
ATOM      3  C3  DEN d   1       1.718   3.484  -4.520  0.00  0.00     0.027 A 
ATOM      4  C4  DEN d   1       3.849   2.533  -3.422  0.00  0.00     0.027 A 
ATOM      5  C5  DEN d   1       5.226   2.563  -3.432  0.00  0.00    -0.003 A 
ATOM      6  C6  DEN d   1       5.933   3.338  -4.313  0.00  0.00     0.001 A 
ATOM      7  C7  DEN d   1       5.265   4.148  -5.192  0.00  0.00     0.017 A 
ATOM      8  C8  DEN d   1       3.877   4.117  -5.193  0.00  0.00    -0.094 A 
ATOM      9  C9  DEN d   1       3.180   3.337  -4.286  0.00  0.00    -0.072 A 
ENDROOT
TORSDOF 0
ENDMDL
