MODEL 1
REMARK minimizedAffinity -0.00606143242
REMARK minimizedRMSD -1
REMARK  0 active torsions:
REMARK  status: ('A' for Active; 'I' for Inactive)
ROOT
ATOM      1  C1  DEN d   1       1.816   3.072  -3.650  0.00  0.00     0.130 A 
ATOM      2  C2  DEN d   1       1.062   3.375  -4.863  0.00  0.00    -0.031 A 
ATOM      3  C3  DEN d   1       2.005   3.369  -6.000  0.00  0.00     0.027 A 
ATOM      4  C4  DEN d   1       4.544   2.916  -6.000  0.00  0.00     0.027 A 
ATOM      5  C5  DEN d   1       5.632   2.625  -5.207  0.00  0.00    -0.003 A 
ATOM      6  C6  DEN d   1       5.531   2.496  -3.847  0.00  0.00     0.001 A 
ATOM      7  C7  DEN d   1       4.308   2.616  -3.243  0.00  0.00     0.017 A 
ATOM      8  C8  DEN d   1       3.207   2.917  -4.034  0.00  0.00    -0.094 A 
ATOM      9  C9  DEN d   1       3.327   3.031  -5.409  0.00  0.00    -0.072 A 
ENDROOT
TORSDOF 0
ENDMDL
