MODEL 1
REMARK minimizedAffinity 9.17434788
REMARK minimizedRMSD -1
REMARK  0 active torsions:
REMARK  status: ('A' for Active; 'I' for Inactive)
ROOT
ATOM      1  C1  DEN d   1       4.308   2.240  -6.000  0.00  0.00     0.130 A 
ATOM      2  C2  DEN d   1       5.748   2.087  -5.809  0.00  0.00    -0.031 A 
ATOM      3  C3  DEN d   1       6.000   1.902  -4.365  0.00  0.00     0.027 A 
ATOM      4  C4  DEN d   1       4.309   1.835  -2.419  0.00  0.00     0.027 A 
ATOM      5  C5  DEN d   1       2.976   1.931  -2.086  0.00  0.00    -0.003 A 
ATOM      6  C6  DEN d   1       2.005   2.168  -3.023  0.00  0.00     0.001 A 
ATOM      7  C7  DEN d   1       2.348   2.273  -4.345  0.00  0.00     0.017 A 
ATOM      8  C8  DEN d   1       3.691   2.185  -4.687  0.00  0.00    -0.094 A 
ATOM      9  C9  DEN d   1       4.656   1.932  -3.727  0.00  0.00    -0.072 A 
ENDROOT
TORSDOF 0
ENDMDL
