MODEL 1
REMARK minimizedAffinity 1.66185331
REMARK minimizedRMSD -1
REMARK  0 active torsions:
REMARK  status: ('A' for Active; 'I' for Inactive)
ROOT
ATOM      1  C1  DEN d   1       1.544   2.915   2.711  0.00  0.00     0.130 A 
ATOM      2  C2  DEN d   1       0.695   3.824   3.476  0.00  0.00    -0.031 A 
ATOM      3  C3  DEN d   1      -0.691   3.670   2.991  0.00  0.00     0.027 A 
ATOM      4  C4  DEN d   1      -1.601   2.118   1.142  0.00  0.00     0.027 A 
ATOM      5  C5  DEN d   1      -1.258   1.171   0.203  0.00  0.00    -0.003 A 
ATOM      6  C6  DEN d   1       0.036   0.767   0.012  0.00  0.00     0.001 A 
ATOM      7  C7  DEN d   1       1.031   1.279   0.803  0.00  0.00     0.017 A 
ATOM      8  C8  DEN d   1       0.694   2.240   1.747  0.00  0.00    -0.094 A 
ATOM      9  C9  DEN d   1      -0.622   2.626   1.933  0.00  0.00    -0.072 A 
ENDROOT
TORSDOF 0
ENDMDL
