MODEL 1
REMARK minimizedAffinity 7.82313824
REMARK minimizedRMSD -1
REMARK  0 active torsions:
REMARK  status: ('A' for Active; 'I' for Inactive)
ROOT
ATOM      1  C1  DEN d   1       1.608  -2.530  -0.799  0.00  0.00     0.130 A 
ATOM      2  C2  DEN d   1       1.004  -1.791   0.307  0.00  0.00    -0.031 A 
ATOM      3  C3  DEN d   1      -0.455  -2.009   0.259  0.00  0.00     0.027 A 
ATOM      4  C4  DEN d   1      -1.833  -3.414  -1.408  0.00  0.00     0.027 A 
ATOM      5  C5  DEN d   1      -1.763  -4.215  -2.527  0.00  0.00    -0.003 A 
ATOM      6  C6  DEN d   1      -0.579  -4.481  -3.162  0.00  0.00     0.001 A 
ATOM      7  C7  DEN d   1       0.590  -3.977  -2.657  0.00  0.00     0.017 A 
ATOM      8  C8  DEN d   1       0.527  -3.163  -1.534  0.00  0.00    -0.094 A 
ATOM      9  C9  DEN d   1      -0.678  -2.916  -0.899  0.00  0.00    -0.072 A 
ENDROOT
TORSDOF 0
ENDMDL
