MODEL 1
REMARK minimizedAffinity 7.71335936
REMARK minimizedRMSD -1
REMARK  0 active torsions:
REMARK  status: ('A' for Active; 'I' for Inactive)
ROOT
ATOM      1  C   UNL d   1      -5.999   5.928   5.997  0.00  0.00     0.078 C 
ATOM      2  C1  UNL d   1      -5.989   5.252   4.659  0.00  0.00    -0.077 A 
ATOM      3  C2  UNL d   1      -5.982   5.998   3.474  0.00  0.00    -0.001 A 
ATOM      4  C3  UNL d   1      -5.982   5.355   2.235  0.00  0.00     0.003 A 
ATOM      5  C4  UNL d   1      -5.990   3.964   2.169  0.00  0.00    -0.005 A 
ATOM      6  C5  UNL d   1      -5.999   3.213   3.342  0.00  0.00     0.003 A 
ATOM      7  C6  UNL d   1      -5.998   3.854   4.582  0.00  0.00    -0.001 A 
ENDROOT
TORSDOF 0
ENDMDL
