MODEL 1
REMARK minimizedAffinity 10.7190542
REMARK minimizedRMSD -1
REMARK  0 active torsions:
REMARK  status: ('A' for Active; 'I' for Inactive)
ROOT
ATOM      1  C   UNL d   1       5.999   5.998  -3.155  0.00  0.00     0.078 C 
ATOM      2  C1  UNL d   1       5.439   4.609  -3.083  0.00  0.00    -0.077 A 
ATOM      3  C2  UNL d   1       4.366   4.307  -2.235  0.00  0.00    -0.001 A 
ATOM      4  C3  UNL d   1       3.861   3.007  -2.171  0.00  0.00     0.003 A 
ATOM      5  C4  UNL d   1       4.423   1.999  -2.952  0.00  0.00    -0.005 A 
ATOM      6  C5  UNL d   1       5.492   2.290  -3.797  0.00  0.00     0.003 A 
ATOM      7  C6  UNL d   1       5.998   3.589  -3.862  0.00  0.00    -0.001 A 
ENDROOT
TORSDOF 0
ENDMDL
