MODEL 1
REMARK minimizedAffinity 6.68719101
REMARK minimizedRMSD -1
REMARK  0 active torsions:
REMARK  status: ('A' for Active; 'I' for Inactive)
ROOT
ATOM      1  C   UNL d   1      -4.866   3.045   2.824  0.00  0.00     0.078 C 
ATOM      2  C1  UNL d   1      -4.880   4.049   3.938  0.00  0.00    -0.077 A 
ATOM      3  C2  UNL d   1      -5.997   4.186   4.771  0.00  0.00    -0.001 A 
ATOM      4  C3  UNL d   1      -6.000   5.132   5.798  0.00  0.00     0.003 A 
ATOM      5  C4  UNL d   1      -4.889   5.949   5.999  0.00  0.00    -0.005 A 
ATOM      6  C5  UNL d   1      -3.774   5.822   5.173  0.00  0.00     0.003 A 
ATOM      7  C6  UNL d   1      -3.770   4.876   4.146  0.00  0.00    -0.001 A 
ENDROOT
TORSDOF 0
ENDMDL
