MODEL 1
REMARK minimizedAffinity 17.5050831
REMARK minimizedRMSD -1
REMARK  0 active torsions:
REMARK  status: ('A' for Active; 'I' for Inactive)
ROOT
ATOM      1  C   UNL d   1      -5.405  -0.333  -5.993  0.00  0.00     0.078 C 
ATOM      2  C1  UNL d   1      -4.703   0.992  -5.999  0.00  0.00    -0.077 A 
ATOM      3  C2  UNL d   1      -3.305   1.068  -5.996  0.00  0.00    -0.001 A 
ATOM      4  C3  UNL d   1      -2.665   2.308  -5.992  0.00  0.00     0.003 A 
ATOM      5  C4  UNL d   1      -3.415   3.482  -5.989  0.00  0.00    -0.005 A 
ATOM      6  C5  UNL d   1      -4.807   3.417  -5.990  0.00  0.00     0.003 A 
ATOM      7  C6  UNL d   1      -5.449   2.178  -5.995  0.00  0.00    -0.001 A 
ENDROOT
TORSDOF 0
ENDMDL
