MODEL 1
REMARK minimizedAffinity -4.72404671
REMARK minimizedRMSD -1
REMARK  1 active torsions:
REMARK  status: ('A' for Active; 'I' for Inactive)
REMARK    1  A    between atoms: C1_2  and  C2_3 
ROOT
ATOM      1  C2  UNL d   1       0.259  -0.069  -0.142  0.00  0.00    -0.077 A 
ATOM      2  C3  UNL d   1       0.953  -1.286  -0.191  0.00  0.00     0.002 A 
ATOM      3  C4  UNL d   1       2.349  -1.304  -0.168  0.00  0.00     0.002 A 
ATOM      4  C5  UNL d   1       3.062  -0.110  -0.092  0.00  0.00    -0.004 A 
ATOM      5  C6  UNL d   1       2.381   1.106  -0.045  0.00  0.00     0.002 A 
ATOM      6  C7  UNL d   1       0.986   1.126  -0.069  0.00  0.00     0.002 A 
ENDROOT
BRANCH   1   7
ATOM      7  C1  UNL d   1      -1.247  -0.049  -0.117  0.00  0.00     0.055 C 
ATOM      8  C   UNL d   1      -1.783   1.373  -0.185  0.00  0.00     0.019 C 
ENDBRANCH   1   7
TORSDOF 1
ENDMDL
