MODEL 1
REMARK minimizedAffinity -4.75712109
REMARK minimizedRMSD -1
REMARK  1 active torsions:
REMARK  status: ('A' for Active; 'I' for Inactive)
REMARK    1  A    between atoms: C1_2  and  C2_3 
ROOT
ATOM      1  C2  UNL d   1       0.103  -0.062  -0.404  0.00  0.00    -0.077 A 
ATOM      2  C3  UNL d   1       1.031   0.553   0.448  0.00  0.00     0.002 A 
ATOM      3  C4  UNL d   1       2.138  -0.158   0.917  0.00  0.00     0.002 A 
ATOM      4  C5  UNL d   1       2.329  -1.484   0.535  0.00  0.00    -0.004 A 
ATOM      5  C6  UNL d   1       1.410  -2.105  -0.310  0.00  0.00     0.002 A 
ATOM      6  C7  UNL d   1       0.303  -1.397  -0.779  0.00  0.00     0.002 A 
ENDROOT
BRANCH   1   7
ATOM      7  C1  UNL d   1      -1.065   0.718  -0.950  0.00  0.00     0.055 C 
ATOM      8  C   UNL d   1      -2.209   0.775   0.051  0.00  0.00     0.019 C 
ENDBRANCH   1   7
TORSDOF 1
ENDMDL
