MODEL 1
REMARK minimizedAffinity -4.81665659
REMARK minimizedRMSD -1
REMARK  1 active torsions:
REMARK  status: ('A' for Active; 'I' for Inactive)
REMARK    1  A    between atoms: C1_2  and  C2_3 
ROOT
ATOM      1  C2  UNL d   1      -0.212   0.012  -0.168  0.00  0.00    -0.077 A 
ATOM      2  C3  UNL d   1       0.784   0.571   0.644  0.00  0.00     0.002 A 
ATOM      3  C4  UNL d   1       2.003  -0.086   0.821  0.00  0.00     0.002 A 
ATOM      4  C5  UNL d   1       2.238  -1.304   0.186  0.00  0.00    -0.004 A 
ATOM      5  C6  UNL d   1       1.253  -1.869  -0.622  0.00  0.00     0.002 A 
ATOM      6  C7  UNL d   1       0.034  -1.214  -0.799  0.00  0.00     0.002 A 
ENDROOT
BRANCH   1   7
ATOM      7  C1  UNL d   1      -1.508   0.743  -0.399  0.00  0.00     0.055 C 
ATOM      8  C   UNL d   1      -2.344   0.805   0.872  0.00  0.00     0.019 C 
ENDBRANCH   1   7
TORSDOF 1
ENDMDL
