MODEL 1
REMARK minimizedAffinity -2.43157434
REMARK minimizedRMSD -1
REMARK  1 active torsions:
REMARK  status: ('A' for Active; 'I' for Inactive)
REMARK    1  A    between atoms: C1_2  and  C2_3 
ROOT
ATOM      1  C2  UNL d   1       1.092  -0.059   0.617  0.00  0.00    -0.077 A 
ATOM      2  C3  UNL d   1       1.051   1.336   0.483  0.00  0.00     0.002 A 
ATOM      3  C4  UNL d   1       0.159   1.934  -0.409  0.00  0.00     0.002 A 
ATOM      4  C5  UNL d   1      -0.701   1.145  -1.171  0.00  0.00    -0.004 A 
ATOM      5  C6  UNL d   1      -0.666  -0.243  -1.047  0.00  0.00     0.002 A 
ATOM      6  C7  UNL d   1       0.226  -0.843  -0.156  0.00  0.00     0.002 A 
ENDROOT
BRANCH   1   7
ATOM      7  C1  UNL d   1       2.019  -0.703   1.615  0.00  0.00     0.055 C 
ATOM      8  C   UNL d   1       3.140  -1.461   0.920  0.00  0.00     0.019 C 
ENDBRANCH   1   7
TORSDOF 1
ENDMDL
