MODEL 1
REMARK minimizedAffinity -4.11770153
REMARK minimizedRMSD -1
REMARK  1 active torsions:
REMARK  status: ('A' for Active; 'I' for Inactive)
REMARK    1  A    between atoms: C1_2  and  C2_3 
ROOT
ATOM      1  C2  UNL d   1       1.994   1.048   0.044  0.00  0.00    -0.077 A 
ATOM      2  C3  UNL d   1       1.105  -0.034  -0.028  0.00  0.00     0.002 A 
ATOM      3  C4  UNL d   1      -0.162   0.129  -0.591  0.00  0.00     0.002 A 
ATOM      4  C5  UNL d   1      -0.550   1.371  -1.090  0.00  0.00    -0.004 A 
ATOM      5  C6  UNL d   1       0.326   2.454  -1.021  0.00  0.00     0.002 A 
ATOM      6  C7  UNL d   1       1.592   2.293  -0.457  0.00  0.00     0.002 A 
ENDROOT
BRANCH   1   7
ATOM      7  C1  UNL d   1       3.379   0.863   0.607  0.00  0.00     0.055 C 
ATOM      8  C   UNL d   1       3.839  -0.582   0.479  0.00  0.00     0.019 C 
ENDBRANCH   1   7
TORSDOF 1
ENDMDL
