MODEL 1
REMARK minimizedAffinity -4.36997604
REMARK minimizedRMSD -1
REMARK  0 active torsions:
REMARK  status: ('A' for Active; 'I' for Inactive)
ROOT
ATOM      1  C1  BNZ d   1      -2.830  -0.346  -2.323  0.00  0.00     0.000 A 
ATOM      2  C2  BNZ d   1      -2.512   0.978  -2.466  0.00  0.00     0.000 A 
ATOM      3  C3  BNZ d   1      -2.445   1.553  -3.704  0.00  0.00     0.000 A 
ATOM      4  C4  BNZ d   1      -2.656   0.794  -4.799  0.00  0.00     0.000 A 
ATOM      5  C5  BNZ d   1      -2.970  -0.544  -4.673  0.00  0.00     0.000 A 
ATOM      6  C6  BNZ d   1      -3.074  -1.110  -3.423  0.00  0.00     0.000 A 
ENDROOT
TORSDOF 0
ENDMDL
