MODEL 1
REMARK minimizedAffinity 2.24544716
REMARK minimizedRMSD -1
REMARK  0 active torsions:
REMARK  status: ('A' for Active; 'I' for Inactive)
ROOT
ATOM      1  C1  BNZ d   1      -3.771   1.851  -4.480  0.00  0.00     0.000 A 
ATOM      2  C2  BNZ d   1      -3.074   0.673  -4.489  0.00  0.00     0.000 A 
ATOM      3  C3  BNZ d   1      -3.481  -0.376  -5.264  0.00  0.00     0.000 A 
ATOM      4  C4  BNZ d   1      -4.606  -0.260  -5.999  0.00  0.00     0.000 A 
ATOM      5  C5  BNZ d   1      -5.325   0.919  -5.994  0.00  0.00     0.000 A 
ATOM      6  C6  BNZ d   1      -4.891   1.986  -5.242  0.00  0.00     0.000 A 
ENDROOT
TORSDOF 0
ENDMDL
