MODEL 1
REMARK minimizedAffinity 4.59373665
REMARK minimizedRMSD -1
REMARK  0 active torsions:
REMARK  status: ('A' for Active; 'I' for Inactive)
ROOT
ATOM      1  C1  BNZ d   1       5.998  -2.682   4.804  0.00  0.00     0.000 A 
ATOM      2  C2  BNZ d   1       5.839  -3.389   3.642  0.00  0.00     0.000 A 
ATOM      3  C3  BNZ d   1       5.251  -4.622   3.647  0.00  0.00     0.000 A 
ATOM      4  C4  BNZ d   1       4.858  -5.164   4.818  0.00  0.00     0.000 A 
ATOM      5  C5  BNZ d   1       5.019  -4.468   6.000  0.00  0.00     0.000 A 
ATOM      6  C6  BNZ d   1       5.577  -3.210   5.985  0.00  0.00     0.000 A 
ENDROOT
TORSDOF 0
ENDMDL
