MODEL 1
REMARK minimizedAffinity 0.470730156
REMARK minimizedRMSD -1
REMARK  0 active torsions:
REMARK  status: ('A' for Active; 'I' for Inactive)
ROOT
ATOM      1  C1  BNZ d   1       4.876   2.436  -4.562  0.00  0.00     0.000 A 
ATOM      2  C2  BNZ d   1       4.889   1.496  -3.566  0.00  0.00     0.000 A 
ATOM      3  C3  BNZ d   1       5.470   0.275  -3.765  0.00  0.00     0.000 A 
ATOM      4  C4  BNZ d   1       6.000  -0.020  -4.969  0.00  0.00     0.000 A 
ATOM      5  C5  BNZ d   1       5.985   0.913  -5.986  0.00  0.00     0.000 A 
ATOM      6  C6  BNZ d   1       5.435   2.156  -5.771  0.00  0.00     0.000 A 
ENDROOT
TORSDOF 0
ENDMDL
