MODEL 1
REMARK minimizedAffinity -0.487225085
REMARK minimizedRMSD -1
REMARK  0 active torsions:
REMARK  status: ('A' for Active; 'I' for Inactive)
ROOT
ATOM      1  C1  BNZ d   1      -3.100   0.241  -5.183  0.00  0.00     0.000 A 
ATOM      2  C2  BNZ d   1      -4.178   0.606  -5.944  0.00  0.00     0.000 A 
ATOM      3  C3  BNZ d   1      -5.443   0.573  -5.426  0.00  0.00     0.000 A 
ATOM      4  C4  BNZ d   1      -5.632   0.137  -4.164  0.00  0.00     0.000 A 
ATOM      5  C5  BNZ d   1      -4.555  -0.244  -3.388  0.00  0.00     0.000 A 
ATOM      6  C6  BNZ d   1      -3.280  -0.172  -3.899  0.00  0.00     0.000 A 
ENDROOT
TORSDOF 0
ENDMDL
