MODEL 1
REMARK minimizedAffinity -1.90838814
REMARK minimizedRMSD -1
REMARK  0 active torsions:
REMARK  status: ('A' for Active; 'I' for Inactive)
ROOT
ATOM      1  C1  BNZ d   1      -4.171  -1.270  -3.619  0.00  0.00     0.000 A 
ATOM      2  C2  BNZ d   1      -5.243  -0.431  -3.768  0.00  0.00     0.000 A 
ATOM      3  C3  BNZ d   1      -5.420   0.281  -4.922  0.00  0.00     0.000 A 
ATOM      4  C4  BNZ d   1      -4.504   0.184  -5.907  0.00  0.00     0.000 A 
ATOM      5  C5  BNZ d   1      -3.412  -0.650  -5.768  0.00  0.00     0.000 A 
ATOM      6  C6  BNZ d   1      -3.259  -1.394  -4.621  0.00  0.00     0.000 A 
ENDROOT
TORSDOF 0
ENDMDL
