MODEL 1
REMARK minimizedAffinity -3.24191523
REMARK minimizedRMSD -1
REMARK  0 active torsions:
REMARK  status: ('A' for Active; 'I' for Inactive)
ROOT
ATOM      1  C1  BNZ d   1       5.549  -4.323   5.999  0.00  0.00     0.000 A 
ATOM      2  C2  BNZ d   1       4.975  -4.889   4.892  0.00  0.00     0.000 A 
ATOM      3  C3  BNZ d   1       4.726  -4.143   3.774  0.00  0.00     0.000 A 
ATOM      4  C4  BNZ d   1       5.014  -2.825   3.778  0.00  0.00     0.000 A 
ATOM      5  C5  BNZ d   1       5.585  -2.238   4.890  0.00  0.00     0.000 A 
ATOM      6  C6  BNZ d   1       5.870  -3.000   5.999  0.00  0.00     0.000 A 
ENDROOT
TORSDOF 0
ENDMDL
