MODEL 1
REMARK minimizedAffinity 4.30034637
REMARK minimizedRMSD -1
REMARK  0 active torsions:
REMARK  status: ('A' for Active; 'I' for Inactive)
ROOT
ATOM      1  C1  BNZ d   1      -3.918  -0.104  -5.427  0.00  0.00     0.000 A 
ATOM      2  C2  BNZ d   1      -5.227  -0.043  -5.027  0.00  0.00     0.000 A 
ATOM      3  C3  BNZ d   1      -5.856   1.160  -4.873  0.00  0.00     0.000 A 
ATOM      4  C4  BNZ d   1      -5.166   2.301  -5.080  0.00  0.00     0.000 A 
ATOM      5  C5  BNZ d   1      -3.844   2.256  -5.475  0.00  0.00     0.000 A 
ATOM      6  C6  BNZ d   1      -3.225   1.042  -5.667  0.00  0.00     0.000 A 
ENDROOT
TORSDOF 0
ENDMDL
