MODEL 1
REMARK minimizedAffinity 3.59661913
REMARK minimizedRMSD -1
REMARK  0 active torsions:
REMARK  status: ('A' for Active; 'I' for Inactive)
ROOT
ATOM      1  C2' OXE d   1       0.499   0.768  -1.505  0.00  0.00     0.078 C 
ATOM      2  C1' OXE d   1       0.341   1.514   1.197  0.00  0.00     0.078 C 
ATOM      3  C1  OXE d   1      -0.168   0.146   0.814  0.00  0.00    -0.078 A 
ATOM      4  C2  OXE d   1      -0.130  -0.192  -0.518  0.00  0.00    -0.078 A 
ATOM      5  C3  OXE d   1      -0.536  -1.462  -0.918  0.00  0.00     0.003 A 
ATOM      6  C4  OXE d   1      -1.125  -2.340  -0.000  0.00  0.00    -0.002 A 
ATOM      7  C5  OXE d   1      -1.210  -1.999   1.354  0.00  0.00    -0.002 A 
ATOM      8  C6  OXE d   1      -0.698  -0.780   1.784  0.00  0.00     0.003 A 
ENDROOT
TORSDOF 0
ENDMDL
