MODEL 1
REMARK minimizedAffinity 5.78298903
REMARK minimizedRMSD -1
REMARK  0 active torsions:
REMARK  status: ('A' for Active; 'I' for Inactive)
ROOT
ATOM      1  C2' OXE d   1      -3.861  -0.702  -3.994  0.00  0.00     0.078 C 
ATOM      2  C1' OXE d   1      -5.545  -2.523  -2.680  0.00  0.00     0.078 C 
ATOM      3  C1  OXE d   1      -4.057  -2.754  -2.596  0.00  0.00    -0.078 A 
ATOM      4  C2  OXE d   1      -3.242  -1.885  -3.281  0.00  0.00    -0.078 A 
ATOM      5  C3  OXE d   1      -1.860  -2.020  -3.191  0.00  0.00     0.003 A 
ATOM      6  C4  OXE d   1      -1.296  -3.122  -2.537  0.00  0.00    -0.002 A 
ATOM      7  C5  OXE d   1      -2.110  -4.042  -1.867  0.00  0.00    -0.002 A 
ATOM      8  C6  OXE d   1      -3.487  -3.849  -1.850  0.00  0.00     0.003 A 
ENDROOT
TORSDOF 0
ENDMDL
