MODEL 1
REMARK minimizedAffinity -0.614364088
REMARK minimizedRMSD -1
REMARK  0 active torsions:
REMARK  status: ('A' for Active; 'I' for Inactive)
ROOT
ATOM      1  C2' OXE d   1       2.209  -5.997  -2.947  0.00  0.00     0.078 C 
ATOM      2  C1' OXE d   1       3.850  -3.907  -2.043  0.00  0.00     0.078 C 
ATOM      3  C1  OXE d   1       4.096  -4.445  -3.430  0.00  0.00    -0.078 A 
ATOM      4  C2  OXE d   1       3.319  -5.500  -3.846  0.00  0.00    -0.078 A 
ATOM      5  C3  OXE d   1       3.468  -5.999  -5.137  0.00  0.00     0.003 A 
ATOM      6  C4  OXE d   1       4.504  -5.539  -5.959  0.00  0.00    -0.002 A 
ATOM      7  C5  OXE d   1       5.333  -4.493  -5.540  0.00  0.00    -0.002 A 
ATOM      8  C6  OXE d   1       5.115  -3.908  -4.297  0.00  0.00     0.003 A 
ENDROOT
TORSDOF 0
ENDMDL
