MODEL 1
REMARK minimizedAffinity 1.07888329
REMARK minimizedRMSD -1
REMARK  0 active torsions:
REMARK  status: ('A' for Active; 'I' for Inactive)
ROOT
ATOM      1  C2' OXE d   1       3.521   0.646  -5.872  0.00  0.00     0.078 C 
ATOM      2  C1' OXE d   1       5.999  -0.672  -5.847  0.00  0.00     0.078 C 
ATOM      3  C1  OXE d   1       4.753  -1.519  -5.915  0.00  0.00    -0.078 A 
ATOM      4  C2  OXE d   1       3.544  -0.868  -5.879  0.00  0.00    -0.078 A 
ATOM      5  C3  OXE d   1       2.364  -1.598  -5.994  0.00  0.00     0.003 A 
ATOM      6  C4  OXE d   1       2.394  -2.998  -5.990  0.00  0.00    -0.002 A 
ATOM      7  C5  OXE d   1       3.614  -3.682  -5.986  0.00  0.00    -0.002 A 
ATOM      8  C6  OXE d   1       4.801  -2.958  -5.992  0.00  0.00     0.003 A 
ENDROOT
TORSDOF 0
ENDMDL
