MODEL 1
REMARK minimizedAffinity 3.83973145
REMARK minimizedRMSD -1
REMARK  0 active torsions:
REMARK  status: ('A' for Active; 'I' for Inactive)
ROOT
ATOM      1  C2' OXE d   1       0.150  -0.446  -0.194  0.00  0.00     0.078 C 
ATOM      2  C1' OXE d   1      -1.517  -1.316  -2.278  0.00  0.00     0.078 C 
ATOM      3  C1  OXE d   1      -0.480  -2.280  -1.757  0.00  0.00    -0.078 A 
ATOM      4  C2  OXE d   1       0.362  -1.830  -0.769  0.00  0.00    -0.078 A 
ATOM      5  C3  OXE d   1       1.300  -2.696  -0.215  0.00  0.00     0.003 A 
ATOM      6  C4  OXE d   1       1.495  -3.971  -0.760  0.00  0.00    -0.002 A 
ATOM      7  C5  OXE d   1       0.675  -4.436  -1.793  0.00  0.00    -0.002 A 
ATOM      8  C6  OXE d   1      -0.344  -3.620  -2.273  0.00  0.00     0.003 A 
ENDROOT
TORSDOF 0
ENDMDL
