MODEL 1
REMARK minimizedAffinity 13.4817533
REMARK minimizedRMSD -1
REMARK  0 active torsions:
REMARK  status: ('A' for Active; 'I' for Inactive)
ROOT
ATOM      1  C2' OXE d   1       2.807   1.120  -0.101  0.00  0.00     0.078 C 
ATOM      2  C1' OXE d   1       0.509  -0.445   0.280  0.00  0.00     0.078 C 
ATOM      3  C1  OXE d   1       0.338   1.052   0.219  0.00  0.00    -0.078 A 
ATOM      4  C2  OXE d   1       1.473   1.813   0.079  0.00  0.00    -0.078 A 
ATOM      5  C3  OXE d   1       1.367   3.196  -0.039  0.00  0.00     0.003 A 
ATOM      6  C4  OXE d   1       0.131   3.829   0.139  0.00  0.00    -0.002 A 
ATOM      7  C5  OXE d   1      -1.033   3.075   0.322  0.00  0.00    -0.002 A 
ATOM      8  C6  OXE d   1      -0.953   1.686   0.322  0.00  0.00     0.003 A 
ENDROOT
TORSDOF 0
ENDMDL
