MODEL 1
REMARK minimizedAffinity 7.79061317
REMARK minimizedRMSD -1
REMARK  0 active torsions:
REMARK  status: ('A' for Active; 'I' for Inactive)
ROOT
ATOM      1  C2' OXE d   1       2.854   1.142   0.737  0.00  0.00     0.078 C 
ATOM      2  C1' OXE d   1       0.701  -0.648   0.946  0.00  0.00     0.078 C 
ATOM      3  C1  OXE d   1       0.391   0.789   0.607  0.00  0.00    -0.078 A 
ATOM      4  C2  OXE d   1       1.446   1.668   0.553  0.00  0.00    -0.078 A 
ATOM      5  C3  OXE d   1       1.222   2.993   0.191  0.00  0.00     0.003 A 
ATOM      6  C4  OXE d   1      -0.083   3.473   0.033  0.00  0.00    -0.002 A 
ATOM      7  C5  OXE d   1      -1.175   2.604   0.123  0.00  0.00    -0.002 A 
ATOM      8  C6  OXE d   1      -0.953   1.253   0.367  0.00  0.00     0.003 A 
ENDROOT
TORSDOF 0
ENDMDL
