MODEL 1
REMARK minimizedAffinity 8.2565918
REMARK minimizedRMSD -1
REMARK  0 active torsions:
REMARK  status: ('A' for Active; 'I' for Inactive)
ROOT
ATOM      1  C2' OXE d   1       3.249   2.715   3.387  0.00  0.00     0.078 C 
ATOM      2  C1' OXE d   1       2.634  -0.002   3.728  0.00  0.00     0.078 C 
ATOM      3  C1  OXE d   1       2.224   0.655   2.434  0.00  0.00    -0.078 A 
ATOM      4  C2  OXE d   1       2.487   1.996   2.295  0.00  0.00    -0.078 A 
ATOM      5  C3  OXE d   1       2.178   2.639   1.099  0.00  0.00     0.003 A 
ATOM      6  C4  OXE d   1       1.464   1.968   0.098  0.00  0.00    -0.002 A 
ATOM      7  C5  OXE d   1       1.151   0.612   0.236  0.00  0.00    -0.002 A 
ATOM      8  C6  OXE d   1       1.560  -0.069   1.378  0.00  0.00     0.003 A 
ENDROOT
TORSDOF 0
ENDMDL
