MODEL 1
REMARK minimizedAffinity 0.627016246
REMARK minimizedRMSD -1
REMARK  0 active torsions:
REMARK  status: ('A' for Active; 'I' for Inactive)
ROOT
ATOM      1  C2' OXE d   1      -2.303   0.136  -3.294  0.00  0.00     0.078 C 
ATOM      2  C1' OXE d   1      -1.748  -2.576  -2.828  0.00  0.00     0.078 C 
ATOM      3  C1  OXE d   1      -1.420  -1.592  -1.732  0.00  0.00    -0.078 A 
ATOM      4  C2  OXE d   1      -1.651  -0.262  -1.987  0.00  0.00    -0.078 A 
ATOM      5  C3  OXE d   1      -1.418   0.682  -0.991  0.00  0.00     0.003 A 
ATOM      6  C4  OXE d   1      -0.806   0.307   0.211  0.00  0.00    -0.002 A 
ATOM      7  C5  OXE d   1      -0.526  -1.038   0.476  0.00  0.00    -0.002 A 
ATOM      8  C6  OXE d   1      -0.865  -2.003  -0.466  0.00  0.00     0.003 A 
ENDROOT
TORSDOF 0
ENDMDL
