MODEL 1
REMARK minimizedAffinity 0.108831115
REMARK minimizedRMSD -1
REMARK  1 active torsions:
REMARK  status: ('A' for Active; 'I' for Inactive)
REMARK    1  A    between atoms: N_2  and  C1_3 
ROOT
ATOM      1  C1  UNL d   1      -4.285  -1.284   2.625  0.00  0.00     0.143 A 
ATOM      2  C2  UNL d   1      -3.279  -2.250   2.735  0.00  0.00    -0.057 A 
ATOM      3  C3  UNL d   1      -1.987  -2.010   2.253  0.00  0.00     0.033 A 
ATOM      4  C4  UNL d   1      -1.685  -0.807   1.623  0.00  0.00    -0.042 A 
ATOM      5  C5  UNL d   1      -2.676   0.158   1.481  0.00  0.00     0.033 A 
ATOM      6  C6  UNL d   1      -3.963  -0.085   1.971  0.00  0.00    -0.057 A 
ENDROOT
BRANCH   1   7
ATOM      7  N   UNL d   1      -5.615  -1.501   2.997  0.00  0.00    -0.732 N 
ATOM      8  C   UNL d   1      -6.000  -1.499   4.392  0.00  0.00     0.284 C 
ATOM      9  H3  UNL d   1      -6.272  -1.024   2.383  0.00  0.00     0.395 HD
ENDBRANCH   1   7
TORSDOF 1
ENDMDL
