MODEL 1
REMARK minimizedAffinity 3.98812532
REMARK minimizedRMSD -1
REMARK  1 active torsions:
REMARK  status: ('A' for Active; 'I' for Inactive)
REMARK    1  A    between atoms: N_2  and  C1_3 
ROOT
ATOM      1  C1  UNL d   1       4.503   3.944  -5.652  0.00  0.00     0.143 A 
ATOM      2  C2  UNL d   1       3.414   3.145  -5.287  0.00  0.00    -0.057 A 
ATOM      3  C3  UNL d   1       3.525   1.750  -5.225  0.00  0.00     0.033 A 
ATOM      4  C4  UNL d   1       4.723   1.127  -5.556  0.00  0.00    -0.042 A 
ATOM      5  C5  UNL d   1       5.811   1.899  -5.946  0.00  0.00     0.033 A 
ATOM      6  C6  UNL d   1       5.696   3.292  -5.999  0.00  0.00    -0.057 A 
ENDROOT
BRANCH   1   7
ATOM      7  N   UNL d   1       4.428   5.328  -5.827  0.00  0.00    -0.732 N 
ATOM      8  C   UNL d   1       3.148   5.981  -5.999  0.00  0.00     0.284 C 
ATOM      9  H3  UNL d   1       5.073   5.831  -5.223  0.00  0.00     0.395 HD
ENDBRANCH   1   7
TORSDOF 1
ENDMDL
