MODEL 1
REMARK minimizedAffinity -2.15871096
REMARK minimizedRMSD -1
REMARK  1 active torsions:
REMARK  status: ('A' for Active; 'I' for Inactive)
REMARK    1  A    between atoms: N_2  and  C1_3 
ROOT
ATOM      1  C1  UNL d   1      -0.254   2.690   2.434  0.00  0.00     0.143 A 
ATOM      2  C2  UNL d   1      -1.625   2.416   2.484  0.00  0.00    -0.057 A 
ATOM      3  C3  UNL d   1      -2.384   2.717   3.622  0.00  0.00     0.033 A 
ATOM      4  C4  UNL d   1      -1.778   3.270   4.744  0.00  0.00    -0.042 A 
ATOM      5  C5  UNL d   1      -0.411   3.527   4.726  0.00  0.00     0.033 A 
ATOM      6  C6  UNL d   1       0.340   3.232   3.585  0.00  0.00    -0.057 A 
ENDROOT
BRANCH   1   7
ATOM      7  N   UNL d   1       0.574   2.324   1.370  0.00  0.00    -0.732 N 
ATOM      8  C   UNL d   1       1.618   1.339   1.553  0.00  0.00     0.284 C 
ATOM      9  H3  UNL d   1       0.063   2.231   0.495  0.00  0.00     0.395 HD
ENDBRANCH   1   7
TORSDOF 1
ENDMDL
