MODEL 1
REMARK minimizedAffinity -2.54283309
REMARK minimizedRMSD -1
REMARK  1 active torsions:
REMARK  status: ('A' for Active; 'I' for Inactive)
REMARK    1  A    between atoms: N_2  and  C1_3 
ROOT
ATOM      1  C1  UNL d   1      -0.636   2.509   3.234  0.00  0.00     0.143 A 
ATOM      2  C2  UNL d   1      -1.128   1.664   2.234  0.00  0.00    -0.057 A 
ATOM      3  C3  UNL d   1      -0.444   1.495   1.024  0.00  0.00     0.033 A 
ATOM      4  C4  UNL d   1       0.735   2.193   0.782  0.00  0.00    -0.042 A 
ATOM      5  C5  UNL d   1       1.229   3.058   1.751  0.00  0.00     0.033 A 
ATOM      6  C6  UNL d   1       0.545   3.217   2.960  0.00  0.00    -0.057 A 
ENDROOT
BRANCH   1   7
ATOM      7  N   UNL d   1      -1.321   2.795   4.418  0.00  0.00    -0.732 N 
ATOM      8  C   UNL d   1      -1.478   4.161   4.867  0.00  0.00     0.284 C 
ATOM      9  H3  UNL d   1      -2.154   2.221   4.533  0.00  0.00     0.395 HD
ENDBRANCH   1   7
TORSDOF 1
ENDMDL
