MODEL 1
REMARK minimizedAffinity 5.02363205
REMARK minimizedRMSD -1
REMARK  1 active torsions:
REMARK  status: ('A' for Active; 'I' for Inactive)
REMARK    1  A    between atoms: N_2  and  C1_3 
ROOT
ATOM      1  C1  UNL d   1       0.569   1.816   2.104  0.00  0.00     0.143 A 
ATOM      2  C2  UNL d   1      -0.272   2.465   3.015  0.00  0.00    -0.057 A 
ATOM      3  C3  UNL d   1       0.242   3.331   3.987  0.00  0.00     0.033 A 
ATOM      4  C4  UNL d   1       1.614   3.541   4.085  0.00  0.00    -0.042 A 
ATOM      5  C5  UNL d   1       2.470   2.888   3.207  0.00  0.00     0.033 A 
ATOM      6  C6  UNL d   1       1.950   2.029   2.233  0.00  0.00    -0.057 A 
ENDROOT
BRANCH   1   7
ATOM      7  N   UNL d   1       0.128   0.867   1.178  0.00  0.00    -0.732 N 
ATOM      8  C   UNL d   1      -0.363  -0.421   1.620  0.00  0.00     0.284 C 
ATOM      9  H3  UNL d   1      -0.414   1.283   0.424  0.00  0.00     0.395 HD
ENDBRANCH   1   7
TORSDOF 1
ENDMDL
