MODEL 1
REMARK minimizedAffinity 0.093327038
REMARK minimizedRMSD -1
REMARK  1 active torsions:
REMARK  status: ('A' for Active; 'I' for Inactive)
REMARK    1  A    between atoms: N_2  and  C1_3 
ROOT
ATOM      1  C1  UNL d   1      -0.532   3.241   2.792  0.00  0.00     0.143 A 
ATOM      2  C2  UNL d   1       0.798   3.649   2.643  0.00  0.00    -0.057 A 
ATOM      3  C3  UNL d   1       1.661   3.000   1.752  0.00  0.00     0.033 A 
ATOM      4  C4  UNL d   1       1.216   1.910   1.012  0.00  0.00    -0.042 A 
ATOM      5  C5  UNL d   1      -0.095   1.471   1.162  0.00  0.00     0.033 A 
ATOM      6  C6  UNL d   1      -0.954   2.128   2.049  0.00  0.00    -0.057 A 
ENDROOT
BRANCH   1   7
ATOM      7  N   UNL d   1      -1.411   3.783   3.733  0.00  0.00    -0.732 N 
ATOM      8  C   UNL d   1      -1.058   3.819   5.136  0.00  0.00     0.284 C 
ATOM      9  H3  UNL d   1      -1.868   4.627   3.397  0.00  0.00     0.395 HD
ENDBRANCH   1   7
TORSDOF 1
ENDMDL
