MODEL 1
REMARK minimizedAffinity 2.3786459
REMARK minimizedRMSD -1
REMARK  1 active torsions:
REMARK  status: ('A' for Active; 'I' for Inactive)
REMARK    1  A    between atoms: N_2  and  C1_3 
ROOT
ATOM      1  C1  UNL d   1      -0.701   3.389   3.633  0.00  0.00     0.143 A 
ATOM      2  C2  UNL d   1       0.687   3.226   3.568  0.00  0.00    -0.057 A 
ATOM      3  C3  UNL d   1       1.284   2.488   2.538  0.00  0.00     0.033 A 
ATOM      4  C4  UNL d   1       0.499   1.874   1.569  0.00  0.00    -0.042 A 
ATOM      5  C5  UNL d   1      -0.884   2.001   1.627  0.00  0.00     0.033 A 
ATOM      6  C6  UNL d   1      -1.474   2.745   2.654  0.00  0.00    -0.057 A 
ENDROOT
BRANCH   1   7
ATOM      7  N   UNL d   1      -1.361   4.027   4.685  0.00  0.00    -0.732 N 
ATOM      8  C   UNL d   1      -0.657   4.962   5.537  0.00  0.00     0.284 C 
ATOM      9  H3  UNL d   1      -2.301   4.322   4.432  0.00  0.00     0.395 HD
ENDBRANCH   1   7
TORSDOF 1
ENDMDL
