MODEL 1
REMARK minimizedAffinity 6.61869001
REMARK minimizedRMSD -1
REMARK  1 active torsions:
REMARK  status: ('A' for Active; 'I' for Inactive)
REMARK    1  A    between atoms: N_2  and  C1_3 
ROOT
ATOM      1  C1  UNL d   1       0.638   2.338   1.734  0.00  0.00     0.143 A 
ATOM      2  C2  UNL d   1      -0.051   2.975   2.772  0.00  0.00    -0.057 A 
ATOM      3  C3  UNL d   1       0.629   3.699   3.758  0.00  0.00     0.033 A 
ATOM      4  C4  UNL d   1       2.018   3.776   3.740  0.00  0.00    -0.042 A 
ATOM      5  C5  UNL d   1       2.725   3.131   2.732  0.00  0.00     0.033 A 
ATOM      6  C6  UNL d   1       2.040   2.414   1.746  0.00  0.00    -0.057 A 
ENDROOT
BRANCH   1   7
ATOM      7  N   UNL d   1       0.027   1.521   0.781  0.00  0.00    -0.732 N 
ATOM      8  C   UNL d   1      -0.022   0.086   0.962  0.00  0.00     0.284 C 
ATOM      9  H3  UNL d   1      -0.835   1.923   0.419  0.00  0.00     0.395 HD
ENDBRANCH   1   7
TORSDOF 1
ENDMDL
