MODEL 1
REMARK minimizedAffinity -3.00090551
REMARK minimizedRMSD -1
REMARK  1 active torsions:
REMARK  status: ('A' for Active; 'I' for Inactive)
REMARK    1  A    between atoms: N_2  and  C1_3 
ROOT
ATOM      1  C1  UNL d   1       0.241   2.235   1.845  0.00  0.00     0.143 A 
ATOM      2  C2  UNL d   1      -0.620   2.730   2.829  0.00  0.00    -0.057 A 
ATOM      3  C3  UNL d   1      -0.370   3.952   3.465  0.00  0.00     0.033 A 
ATOM      4  C4  UNL d   1       0.766   4.689   3.146  0.00  0.00    -0.042 A 
ATOM      5  C5  UNL d   1       1.649   4.204   2.188  0.00  0.00     0.033 A 
ATOM      6  C6  UNL d   1       1.390   2.986   1.552  0.00  0.00    -0.057 A 
ENDROOT
BRANCH   1   7
ATOM      7  N   UNL d   1       0.100   0.980   1.247  0.00  0.00    -0.732 N 
ATOM      8  C   UNL d   1      -1.108   0.639   0.526  0.00  0.00     0.284 C 
ATOM      9  H3  UNL d   1       0.956   0.666   0.796  0.00  0.00     0.395 HD
ENDBRANCH   1   7
TORSDOF 1
ENDMDL
