MODEL 1
REMARK minimizedAffinity 3.40436506
REMARK minimizedRMSD -1
REMARK  1 active torsions:
REMARK  status: ('A' for Active; 'I' for Inactive)
REMARK    1  A    between atoms: N_2  and  C1_3 
ROOT
ATOM      1  C1  UNL d   1       2.690   4.100   3.892  0.00  0.00     0.143 A 
ATOM      2  C2  UNL d   1       3.144   5.010   2.930  0.00  0.00    -0.057 A 
ATOM      3  C3  UNL d   1       4.481   5.422   2.895  0.00  0.00     0.033 A 
ATOM      4  C4  UNL d   1       5.385   4.953   3.842  0.00  0.00    -0.042 A 
ATOM      5  C5  UNL d   1       4.951   4.068   4.823  0.00  0.00     0.033 A 
ATOM      6  C6  UNL d   1       3.615   3.655   4.848  0.00  0.00    -0.057 A 
ENDROOT
BRANCH   1   7
ATOM      7  N   UNL d   1       1.352   3.728   4.039  0.00  0.00    -0.732 N 
ATOM      8  C   UNL d   1       0.431   3.827   2.927  0.00  0.00     0.284 C 
ATOM      9  H3  UNL d   1       1.243   2.882   4.594  0.00  0.00     0.395 HD
ENDBRANCH   1   7
TORSDOF 1
ENDMDL
