MODEL 1
REMARK minimizedAffinity 9.5812149
REMARK minimizedRMSD -1
REMARK  1 active torsions:
REMARK  status: ('A' for Active; 'I' for Inactive)
REMARK    1  A    between atoms: N_2  and  C1_3 
ROOT
ATOM      1  C1  UNL d   1      -0.707   2.876   3.340  0.00  0.00     0.143 A 
ATOM      2  C2  UNL d   1       0.268   3.246   2.407  0.00  0.00    -0.057 A 
ATOM      3  C3  UNL d   1       0.365   2.605   1.166  0.00  0.00     0.033 A 
ATOM      4  C4  UNL d   1      -0.496   1.560   0.847  0.00  0.00    -0.042 A 
ATOM      5  C5  UNL d   1      -1.456   1.159   1.769  0.00  0.00     0.033 A 
ATOM      6  C6  UNL d   1      -1.552   1.807   3.004  0.00  0.00    -0.057 A 
ENDROOT
BRANCH   1   7
ATOM      7  N   UNL d   1      -0.791   3.408   4.629  0.00  0.00    -0.732 N 
ATOM      8  C   UNL d   1      -1.975   3.204   5.436  0.00  0.00     0.284 C 
ATOM      9  H3  UNL d   1       0.083   3.320   5.144  0.00  0.00     0.395 HD
ENDBRANCH   1   7
TORSDOF 1
ENDMDL
