MODEL 1
REMARK minimizedAffinity 6.61499453
REMARK minimizedRMSD -1
REMARK  1 active torsions:
REMARK  status: ('A' for Active; 'I' for Inactive)
REMARK    1  A    between atoms: N_2  and  C1_3 
ROOT
ATOM      1  C1  UNL d   1      -0.804   2.947   4.046  0.00  0.00     0.143 A 
ATOM      2  C2  UNL d   1      -1.216   1.944   3.162  0.00  0.00    -0.057 A 
ATOM      3  C3  UNL d   1      -0.508   1.680   1.983  0.00  0.00     0.033 A 
ATOM      4  C4  UNL d   1       0.611   2.437   1.652  0.00  0.00    -0.042 A 
ATOM      5  C5  UNL d   1       1.024   3.455   2.503  0.00  0.00     0.033 A 
ATOM      6  C6  UNL d   1       0.317   3.710   3.683  0.00  0.00    -0.057 A 
ENDROOT
BRANCH   1   7
ATOM      7  N   UNL d   1      -1.522   3.323   5.184  0.00  0.00    -0.732 N 
ATOM      8  C   UNL d   1      -2.944   3.069   5.276  0.00  0.00     0.284 C 
ATOM      9  H3  UNL d   1      -1.010   3.139   6.044  0.00  0.00     0.395 HD
ENDBRANCH   1   7
TORSDOF 1
ENDMDL
