MODEL 1
REMARK minimizedAffinity -1.18674743
REMARK minimizedRMSD -1
REMARK  3 active torsions:
REMARK  status: ('A' for Active; 'I' for Inactive)
REMARK    1  A    between atoms: C3'_2  and  C2'_3 
REMARK    2  A    between atoms: C2'_3  and  C1'_4 
REMARK    3  A    between atoms: C1'_4  and  C1_5 
ROOT
ATOM      1  C1  N4B d   1       2.370  -1.140   0.122  0.00  0.00    -0.075 A 
ATOM      2  C2  N4B d   1       1.780  -1.925   1.137  0.00  0.00     0.002 A 
ATOM      3  C3  N4B d   1       0.880  -2.909   0.809  0.00  0.00     0.002 A 
ATOM      4  C4  N4B d   1       0.542  -3.113  -0.521  0.00  0.00    -0.004 A 
ATOM      5  C5  N4B d   1       1.135  -2.367  -1.497  0.00  0.00     0.002 A 
ATOM      6  C6  N4B d   1       2.044  -1.378  -1.182  0.00  0.00     0.002 A 
ENDROOT
BRANCH   1   7
ATOM      7  C1' N4B d   1       3.294   0.004   0.439  0.00  0.00     0.057 C 
BRANCH   7   8
ATOM      8  C2' N4B d   1       2.507   1.101   1.150  0.00  0.00     0.009 C 
BRANCH   8   9
ATOM      9  C3' N4B d   1       2.142   2.237   0.210  0.00  0.00     0.004 C 
ATOM     10  C4' N4B d   1       0.708   2.192  -0.226  0.00  0.00     0.003 C 
ENDBRANCH   8   9
ENDBRANCH   7   8
ENDBRANCH   1   7
TORSDOF 3
ENDMDL
