MODEL 1
REMARK minimizedAffinity 0.107961968
REMARK minimizedRMSD -1
REMARK  3 active torsions:
REMARK  status: ('A' for Active; 'I' for Inactive)
REMARK    1  A    between atoms: C3'_2  and  C2'_3 
REMARK    2  A    between atoms: C2'_3  and  C1'_4 
REMARK    3  A    between atoms: C1'_4  and  C1_5 
ROOT
ATOM      1  C1  N4B d   1       1.884  -1.416  -0.121  0.00  0.00    -0.075 A 
ATOM      2  C2  N4B d   1       0.835  -0.731  -0.774  0.00  0.00     0.002 A 
ATOM      3  C3  N4B d   1       0.742   0.635  -0.676  0.00  0.00     0.002 A 
ATOM      4  C4  N4B d   1       1.670   1.334   0.082  0.00  0.00    -0.004 A 
ATOM      5  C5  N4B d   1       2.694   0.668   0.689  0.00  0.00     0.002 A 
ATOM      6  C6  N4B d   1       2.803  -0.705   0.595  0.00  0.00     0.002 A 
ENDROOT
BRANCH   1   7
ATOM      7  C1' N4B d   1       1.978  -2.917  -0.128  0.00  0.00     0.057 C 
BRANCH   7   8
ATOM      8  C2' N4B d   1       0.573  -3.508  -0.049  0.00  0.00     0.009 C 
BRANCH   8   9
ATOM      9  C3' N4B d   1       0.366  -4.620  -1.063  0.00  0.00     0.004 C 
ATOM     10  C4' N4B d   1      -0.762  -5.537  -0.696  0.00  0.00     0.003 C 
ENDBRANCH   8   9
ENDBRANCH   7   8
ENDBRANCH   1   7
TORSDOF 3
ENDMDL
