MODEL 1
REMARK minimizedAffinity 8.32289982
REMARK minimizedRMSD -1
REMARK  3 active torsions:
REMARK  status: ('A' for Active; 'I' for Inactive)
REMARK    1  A    between atoms: C3'_2  and  C2'_3 
REMARK    2  A    between atoms: C2'_3  and  C1'_4 
REMARK    3  A    between atoms: C1'_4  and  C1_5 
ROOT
ATOM      1  C1  N4B d   1      -4.656   1.292  -2.059  0.00  0.00    -0.075 A 
ATOM      2  C2  N4B d   1      -5.271   2.290  -1.271  0.00  0.00     0.002 A 
ATOM      3  C3  N4B d   1      -5.940   3.326  -1.874  0.00  0.00     0.002 A 
ATOM      4  C4  N4B d   1      -5.992   3.395  -3.259  0.00  0.00    -0.004 A 
ATOM      5  C5  N4B d   1      -5.418   2.414  -4.012  0.00  0.00     0.002 A 
ATOM      6  C6  N4B d   1      -4.746   1.364  -3.419  0.00  0.00     0.002 A 
ENDROOT
BRANCH   1   7
ATOM      7  C1' N4B d   1      -3.840   0.187  -1.447  0.00  0.00     0.057 C 
BRANCH   7   8
ATOM      8  C2' N4B d   1      -3.521   0.544   0.002  0.00  0.00     0.009 C 
BRANCH   8   9
ATOM      9  C3' N4B d   1      -2.093   1.036   0.165  0.00  0.00     0.004 C 
ATOM     10  C4' N4B d   1      -1.626   1.003   1.589  0.00  0.00     0.003 C 
ENDBRANCH   8   9
ENDBRANCH   7   8
ENDBRANCH   1   7
TORSDOF 3
ENDMDL
