MODEL 1
REMARK minimizedAffinity 6.34065819
REMARK minimizedRMSD -1
REMARK  3 active torsions:
REMARK  status: ('A' for Active; 'I' for Inactive)
REMARK    1  A    between atoms: C3'_2  and  C2'_3 
REMARK    2  A    between atoms: C2'_3  and  C1'_4 
REMARK    3  A    between atoms: C1'_4  and  C1_5 
ROOT
ATOM      1  C1  N4B d   1       3.011   0.041   0.921  0.00  0.00    -0.075 A 
ATOM      2  C2  N4B d   1       3.069  -1.020   1.851  0.00  0.00     0.002 A 
ATOM      3  C3  N4B d   1       2.958  -2.319   1.418  0.00  0.00     0.002 A 
ATOM      4  C4  N4B d   1       2.770  -2.579   0.069  0.00  0.00    -0.004 A 
ATOM      5  C5  N4B d   1       2.740  -1.549  -0.826  0.00  0.00     0.002 A 
ATOM      6  C6  N4B d   1       2.855  -0.239  -0.406  0.00  0.00     0.002 A 
ENDROOT
BRANCH   1   7
ATOM      7  C1' N4B d   1       3.041   1.481   1.355  0.00  0.00     0.057 C 
BRANCH   7   8
ATOM      8  C2' N4B d   1       1.959   2.253   0.607  0.00  0.00     0.009 C 
BRANCH   8   9
ATOM      9  C3' N4B d   1       0.600   1.586   0.726  0.00  0.00     0.004 C 
ATOM     10  C4' N4B d   1      -0.319   1.933  -0.408  0.00  0.00     0.003 C 
ENDBRANCH   8   9
ENDBRANCH   7   8
ENDBRANCH   1   7
TORSDOF 3
ENDMDL
