MODEL 1
REMARK minimizedAffinity 6.33114004
REMARK minimizedRMSD -1
REMARK  3 active torsions:
REMARK  status: ('A' for Active; 'I' for Inactive)
REMARK    1  A    between atoms: C3'_2  and  C2'_3 
REMARK    2  A    between atoms: C2'_3  and  C1'_4 
REMARK    3  A    between atoms: C1'_4  and  C1_5 
ROOT
ATOM      1  C1  N4B d   1       3.437  -1.384   0.724  0.00  0.00    -0.075 A 
ATOM      2  C2  N4B d   1       3.218  -2.270   1.802  0.00  0.00     0.002 A 
ATOM      3  C3  N4B d   1       2.207  -3.197   1.734  0.00  0.00     0.002 A 
ATOM      4  C4  N4B d   1       1.394  -3.244   0.612  0.00  0.00    -0.004 A 
ATOM      5  C5  N4B d   1       1.628  -2.402  -0.435  0.00  0.00     0.002 A 
ATOM      6  C6  N4B d   1       2.643  -1.468  -0.382  0.00  0.00     0.002 A 
ENDROOT
BRANCH   1   7
ATOM      7  C1' N4B d   1       4.475  -0.297   0.788  0.00  0.00     0.057 C 
BRANCH   7   8
ATOM      8  C2' N4B d   1       3.787   1.059   0.666  0.00  0.00     0.009 C 
BRANCH   8   9
ATOM      9  C3' N4B d   1       4.507   1.975  -0.309  0.00  0.00     0.004 C 
ATOM     10  C4' N4B d   1       5.329   1.224  -1.314  0.00  0.00     0.003 C 
ENDBRANCH   8   9
ENDBRANCH   7   8
ENDBRANCH   1   7
TORSDOF 3
ENDMDL
