MODEL 1
REMARK minimizedAffinity -5.26868439
REMARK minimizedRMSD -1
REMARK  0 active torsions:
REMARK  status: ('A' for Active; 'I' for Inactive)
ROOT
ATOM      1  C4' PXY d   1      -2.132   0.586  -0.967  0.00  0.00     0.077 C 
ATOM      2  C1' PXY d   1       3.427   0.071   0.531  0.00  0.00     0.077 C 
ATOM      3  C1  PXY d   1       1.969   0.193   0.135  0.00  0.00    -0.082 A 
ATOM      4  C2  PXY d   1       1.490   1.368  -0.242  0.00  0.00     0.003 A 
ATOM      5  C3  PXY d   1       0.166   1.503  -0.573  0.00  0.00     0.003 A 
ATOM      6  C4  PXY d   1      -0.664   0.414  -0.568  0.00  0.00    -0.082 A 
ATOM      7  C5  PXY d   1      -0.180  -0.790  -0.194  0.00  0.00     0.003 A 
ATOM      8  C6  PXY d   1       1.157  -0.898   0.177  0.00  0.00     0.003 A 
ENDROOT
TORSDOF 0
ENDMDL
