MODEL 1
REMARK minimizedAffinity -1.76307344
REMARK minimizedRMSD -1
REMARK  0 active torsions:
REMARK  status: ('A' for Active; 'I' for Inactive)
ROOT
ATOM      1  C4' PXY d   1      -1.878   0.314  -0.553  0.00  0.00     0.077 C 
ATOM      2  C1' PXY d   1       3.457  -0.423   1.547  0.00  0.00     0.077 C 
ATOM      3  C1  PXY d   1       2.056  -0.243   0.997  0.00  0.00    -0.082 A 
ATOM      4  C2  PXY d   1       1.764   0.839   0.293  0.00  0.00     0.003 A 
ATOM      5  C3  PXY d   1       0.493   1.034  -0.185  0.00  0.00     0.003 A 
ATOM      6  C4  PXY d   1      -0.474   0.085   0.014  0.00  0.00    -0.082 A 
ATOM      7  C5  PXY d   1      -0.181  -1.026   0.721  0.00  0.00     0.003 A 
ATOM      8  C6  PXY d   1       1.103  -1.185   1.233  0.00  0.00     0.003 A 
ENDROOT
TORSDOF 0
ENDMDL
