MODEL 1
REMARK minimizedAffinity -2.20041943
REMARK minimizedRMSD -1
REMARK  0 active torsions:
REMARK  status: ('A' for Active; 'I' for Inactive)
ROOT
ATOM      1  C4' PXY d   1      -2.792   0.706  -1.034  0.00  0.00     0.077 C 
ATOM      2  C1' PXY d   1       2.425   0.551   1.450  0.00  0.00     0.077 C 
ATOM      3  C1  PXY d   1       1.055   0.579   0.801  0.00  0.00    -0.082 A 
ATOM      4  C2  PXY d   1       0.782   1.497  -0.112  0.00  0.00     0.003 A 
ATOM      5  C3  PXY d   1      -0.462   1.557  -0.685  0.00  0.00     0.003 A 
ATOM      6  C4  PXY d   1      -1.420   0.634  -0.360  0.00  0.00    -0.082 A 
ATOM      7  C5  PXY d   1      -1.145  -0.313   0.563  0.00  0.00     0.003 A 
ATOM      8  C6  PXY d   1       0.110  -0.331   1.163  0.00  0.00     0.003 A 
ENDROOT
TORSDOF 0
ENDMDL
