MODEL 1
REMARK minimizedAffinity -3.01514268
REMARK minimizedRMSD -1
REMARK  0 active torsions:
REMARK  status: ('A' for Active; 'I' for Inactive)
ROOT
ATOM      1  C4' PXY d   1      -2.223  -0.115  -1.937  0.00  0.00     0.077 C 
ATOM      2  C1' PXY d   1       2.403   0.172   1.518  0.00  0.00     0.077 C 
ATOM      3  C1  PXY d   1       1.183   0.093   0.622  0.00  0.00    -0.082 A 
ATOM      4  C2  PXY d   1       1.338  -0.072  -0.681  0.00  0.00     0.003 A 
ATOM      5  C3  PXY d   1       0.246  -0.114  -1.510  0.00  0.00     0.003 A 
ATOM      6  C4  PXY d   1      -1.019  -0.039  -0.993  0.00  0.00    -0.082 A 
ATOM      7  C5  PXY d   1      -1.186   0.118   0.338  0.00  0.00     0.003 A 
ATOM      8  C6  PXY d   1      -0.064   0.200   1.157  0.00  0.00     0.003 A 
ENDROOT
TORSDOF 0
ENDMDL
