MODEL 1
REMARK minimizedAffinity 14.6027431
REMARK minimizedRMSD -1
REMARK  0 active torsions:
REMARK  status: ('A' for Active; 'I' for Inactive)
ROOT
ATOM      1  C4' PXY d   1      -3.090   1.348  -2.926  0.00  0.00     0.077 C 
ATOM      2  C1' PXY d   1      -5.956   5.959  -0.941  0.00  0.00     0.077 C 
ATOM      3  C1  PXY d   1      -5.209   4.742  -1.452  0.00  0.00    -0.082 A 
ATOM      4  C2  PXY d   1      -4.128   4.904  -2.197  0.00  0.00     0.003 A 
ATOM      5  C3  PXY d   1      -3.459   3.815  -2.694  0.00  0.00     0.003 A 
ATOM      6  C4  PXY d   1      -3.870   2.547  -2.381  0.00  0.00    -0.082 A 
ATOM      7  C5  PXY d   1      -4.966   2.374  -1.612  0.00  0.00     0.003 A 
ATOM      8  C6  PXY d   1      -5.655   3.492  -1.152  0.00  0.00     0.003 A 
ENDROOT
TORSDOF 0
ENDMDL
