MODEL 1
REMARK minimizedAffinity -3.96201205
REMARK minimizedRMSD -1
REMARK  0 active torsions:
REMARK  status: ('A' for Active; 'I' for Inactive)
ROOT
ATOM      1  C4' PXY d   1       1.330  -2.884   1.470  0.00  0.00     0.077 C 
ATOM      2  C1' PXY d   1       1.588   2.414  -0.830  0.00  0.00     0.077 C 
ATOM      3  C1  PXY d   1       1.532   1.022  -0.231  0.00  0.00    -0.082 A 
ATOM      4  C2  PXY d   1       0.359   0.459   0.007  0.00  0.00     0.003 A 
ATOM      5  C3  PXY d   1       0.290  -0.786   0.577  0.00  0.00     0.003 A 
ATOM      6  C4  PXY d   1       1.434  -1.484   0.858  0.00  0.00    -0.082 A 
ATOM      7  C5  PXY d   1       2.635  -0.920   0.608  0.00  0.00     0.003 A 
ATOM      8  C6  PXY d   1       2.683   0.361   0.067  0.00  0.00     0.003 A 
ENDROOT
TORSDOF 0
ENDMDL
