MODEL 1
REMARK minimizedAffinity -4.71942711
REMARK minimizedRMSD -1
REMARK  0 active torsions:
REMARK  status: ('A' for Active; 'I' for Inactive)
ROOT
ATOM      1  C4' PXY d   1       3.644  -0.457   0.795  0.00  0.00     0.077 C 
ATOM      2  C1' PXY d   1      -1.964  -0.622  -0.598  0.00  0.00     0.077 C 
ATOM      3  C1  PXY d   1      -0.494  -0.591  -0.228  0.00  0.00    -0.082 A 
ATOM      4  C2  PXY d   1       0.095   0.568   0.018  0.00  0.00     0.003 A 
ATOM      5  C3  PXY d   1       1.431   0.617   0.322  0.00  0.00     0.003 A 
ATOM      6  C4  PXY d   1       2.160  -0.537   0.428  0.00  0.00    -0.082 A 
ATOM      7  C5  PXY d   1       1.564  -1.724   0.189  0.00  0.00     0.003 A 
ATOM      8  C6  PXY d   1       0.217  -1.750  -0.159  0.00  0.00     0.003 A 
ENDROOT
TORSDOF 0
ENDMDL
