MODEL 1
REMARK minimizedAffinity 9.08436394
REMARK minimizedRMSD -1
REMARK  3 active torsions:
REMARK  status: ('A' for Active; 'I' for Inactive)
REMARK    1  A    between atoms: C3'_2  and  C2'_3 
REMARK    2  A    between atoms: C2'_3  and  C1'_4 
REMARK    3  A    between atoms: C1'_4  and  C1_5 
ROOT
ATOM      1  C1  N4B d   1       1.352  -3.029   0.369  0.00  0.00    -0.075 A 
ATOM      2  C2  N4B d   1       0.270  -2.600  -0.430  0.00  0.00     0.002 A 
ATOM      3  C3  N4B d   1       0.472  -1.663  -1.413  0.00  0.00     0.002 A 
ATOM      4  C4  N4B d   1       1.738  -1.129  -1.602  0.00  0.00    -0.004 A 
ATOM      5  C5  N4B d   1       2.783  -1.567  -0.843  0.00  0.00     0.002 A 
ATOM      6  C6  N4B d   1       2.595  -2.512   0.146  0.00  0.00     0.002 A 
ENDROOT
BRANCH   1   7
ATOM      7  C1' N4B d   1       1.164  -3.989   1.513  0.00  0.00     0.057 C 
BRANCH   7   8
ATOM      8  C2' N4B d   1       2.291  -5.016   1.495  0.00  0.00     0.009 C 
BRANCH   8   9
ATOM      9  C3' N4B d   1       2.528  -5.623   2.868  0.00  0.00     0.004 C 
ATOM     10  C4' N4B d   1       3.962  -5.997   3.098  0.00  0.00     0.003 C 
ENDBRANCH   8   9
ENDBRANCH   7   8
ENDBRANCH   1   7
TORSDOF 3
ENDMDL
