MODEL 1
REMARK minimizedAffinity 4.66223955
REMARK minimizedRMSD -1
REMARK  3 active torsions:
REMARK  status: ('A' for Active; 'I' for Inactive)
REMARK    1  A    between atoms: C3'_2  and  C2'_3 
REMARK    2  A    between atoms: C2'_3  and  C1'_4 
REMARK    3  A    between atoms: C1'_4  and  C1_5 
ROOT
ATOM      1  C1  N4B d   1       1.234   1.720  -0.960  0.00  0.00    -0.075 A 
ATOM      2  C2  N4B d   1       2.104   2.035   0.107  0.00  0.00     0.002 A 
ATOM      3  C3  N4B d   1       1.592   2.309   1.351  0.00  0.00     0.002 A 
ATOM      4  C4  N4B d   1       0.219   2.294   1.547  0.00  0.00    -0.004 A 
ATOM      5  C5  N4B d   1      -0.613   1.964   0.518  0.00  0.00     0.002 A 
ATOM      6  C6  N4B d   1      -0.112   1.682  -0.738  0.00  0.00     0.002 A 
ENDROOT
BRANCH   1   7
ATOM      7  C1' N4B d   1       1.741   1.497  -2.359  0.00  0.00     0.057 C 
BRANCH   7   8
ATOM      8  C2' N4B d   1       2.837   0.436  -2.330  0.00  0.00     0.009 C 
BRANCH   8   9
ATOM      9  C3' N4B d   1       2.268  -0.965  -2.185  0.00  0.00     0.004 C 
ATOM     10  C4' N4B d   1       2.884  -1.728  -1.050  0.00  0.00     0.003 C 
ENDBRANCH   8   9
ENDBRANCH   7   8
ENDBRANCH   1   7
TORSDOF 3
ENDMDL
