MODEL 1
REMARK minimizedAffinity 10.4082098
REMARK minimizedRMSD -1
REMARK  3 active torsions:
REMARK  status: ('A' for Active; 'I' for Inactive)
REMARK    1  A    between atoms: C3'_2  and  C2'_3 
REMARK    2  A    between atoms: C2'_3  and  C1'_4 
REMARK    3  A    between atoms: C1'_4  and  C1_5 
ROOT
ATOM      1  C1  N4B d   1       1.929   0.297  -1.768  0.00  0.00    -0.075 A 
ATOM      2  C2  N4B d   1       0.925   1.053  -1.123  0.00  0.00     0.002 A 
ATOM      3  C3  N4B d   1       0.514   2.248  -1.661  0.00  0.00     0.002 A 
ATOM      4  C4  N4B d   1       1.102   2.715  -2.826  0.00  0.00    -0.004 A 
ATOM      5  C5  N4B d   1       2.053   1.967  -3.457  0.00  0.00     0.002 A 
ATOM      6  C6  N4B d   1       2.474   0.762  -2.930  0.00  0.00     0.002 A 
ENDROOT
BRANCH   1   7
ATOM      7  C1' N4B d   1       2.472  -0.973  -1.173  0.00  0.00     0.057 C 
BRANCH   7   8
ATOM      8  C2' N4B d   1       1.315  -1.925  -0.883  0.00  0.00     0.009 C 
BRANCH   8   9
ATOM      9  C3' N4B d   1       0.226  -1.833  -1.938  0.00  0.00     0.004 C 
ATOM     10  C4' N4B d   1      -1.119  -1.512  -1.357  0.00  0.00     0.003 C 
ENDBRANCH   8   9
ENDBRANCH   7   8
ENDBRANCH   1   7
TORSDOF 3
ENDMDL
