MODEL 1
REMARK minimizedAffinity 1.00521624
REMARK minimizedRMSD -1
REMARK  3 active torsions:
REMARK  status: ('A' for Active; 'I' for Inactive)
REMARK    1  A    between atoms: C3'_2  and  C2'_3 
REMARK    2  A    between atoms: C2'_3  and  C1'_4 
REMARK    3  A    between atoms: C1'_4  and  C1_5 
ROOT
ATOM      1  C1  N4B d   1      -4.319  -0.028   3.762  0.00  0.00    -0.075 A 
ATOM      2  C2  N4B d   1      -5.173   1.096   3.726  0.00  0.00     0.002 A 
ATOM      3  C3  N4B d   1      -5.998   1.366   4.791  0.00  0.00     0.002 A 
ATOM      4  C4  N4B d   1      -6.000   0.518   5.888  0.00  0.00    -0.004 A 
ATOM      5  C5  N4B d   1      -5.154  -0.551   5.926  0.00  0.00     0.002 A 
ATOM      6  C6  N4B d   1      -4.316  -0.832   4.865  0.00  0.00     0.002 A 
ENDROOT
BRANCH   1   7
ATOM      7  C1' N4B d   1      -3.461  -0.411   2.587  0.00  0.00     0.057 C 
BRANCH   7   8
ATOM      8  C2' N4B d   1      -4.087  -1.610   1.880  0.00  0.00     0.009 C 
BRANCH   8   9
ATOM      9  C3' N4B d   1      -4.261  -1.365   0.391  0.00  0.00     0.004 C 
ATOM     10  C4' N4B d   1      -5.698  -1.389  -0.038  0.00  0.00     0.003 C 
ENDBRANCH   8   9
ENDBRANCH   7   8
ENDBRANCH   1   7
TORSDOF 3
ENDMDL
