MODEL 1
REMARK minimizedAffinity 5.91255379
REMARK minimizedRMSD -1
REMARK  3 active torsions:
REMARK  status: ('A' for Active; 'I' for Inactive)
REMARK    1  A    between atoms: C3'_2  and  C2'_3 
REMARK    2  A    between atoms: C2'_3  and  C1'_4 
REMARK    3  A    between atoms: C1'_4  and  C1_5 
ROOT
ATOM      1  C1  N4B d   1       2.039   0.513  -1.844  0.00  0.00    -0.075 A 
ATOM      2  C2  N4B d   1       1.150   1.368  -1.155  0.00  0.00     0.002 A 
ATOM      3  C3  N4B d   1       0.676   2.502  -1.766  0.00  0.00     0.002 A 
ATOM      4  C4  N4B d   1       1.089   2.812  -3.053  0.00  0.00    -0.004 A 
ATOM      5  C5  N4B d   1       1.928   1.968  -3.721  0.00  0.00     0.002 A 
ATOM      6  C6  N4B d   1       2.409   0.822  -3.120  0.00  0.00     0.002 A 
ENDROOT
BRANCH   1   7
ATOM      7  C1' N4B d   1       2.652  -0.693  -1.186  0.00  0.00     0.057 C 
BRANCH   7   8
ATOM      8  C2' N4B d   1       1.875  -1.938  -1.602  0.00  0.00     0.009 C 
BRANCH   8   9
ATOM      9  C3' N4B d   1       0.723  -2.232  -0.656  0.00  0.00     0.004 C 
ATOM     10  C4' N4B d   1      -0.607  -1.823  -1.215  0.00  0.00     0.003 C 
ENDBRANCH   8   9
ENDBRANCH   7   8
ENDBRANCH   1   7
TORSDOF 3
ENDMDL
