MODEL 1
REMARK minimizedAffinity 5.43135977
REMARK minimizedRMSD -1
REMARK  3 active torsions:
REMARK  status: ('A' for Active; 'I' for Inactive)
REMARK    1  A    between atoms: C3'_2  and  C2'_3 
REMARK    2  A    between atoms: C2'_3  and  C1'_4 
REMARK    3  A    between atoms: C1'_4  and  C1_5 
ROOT
ATOM      1  C1  N4B d   1       2.518  -0.936  -1.818  0.00  0.00    -0.075 A 
ATOM      2  C2  N4B d   1       3.175  -1.375  -0.648  0.00  0.00     0.002 A 
ATOM      3  C3  N4B d   1       2.764  -2.525  -0.020  0.00  0.00     0.002 A 
ATOM      4  C4  N4B d   1       1.690  -3.239  -0.530  0.00  0.00    -0.004 A 
ATOM      5  C5  N4B d   1       1.077  -2.822  -1.676  0.00  0.00     0.002 A 
ATOM      6  C6  N4B d   1       1.482  -1.670  -2.320  0.00  0.00     0.002 A 
ENDROOT
BRANCH   1   7
ATOM      7  C1' N4B d   1       2.876   0.361  -2.492  0.00  0.00     0.057 C 
BRANCH   7   8
ATOM      8  C2' N4B d   1       1.696   1.322  -2.386  0.00  0.00     0.009 C 
BRANCH   8   9
ATOM      9  C3' N4B d   1       1.153   1.707  -3.752  0.00  0.00     0.004 C 
ATOM     10  C4' N4B d   1       0.797   3.161  -3.847  0.00  0.00     0.003 C 
ENDBRANCH   8   9
ENDBRANCH   7   8
ENDBRANCH   1   7
TORSDOF 3
ENDMDL
