MODEL 1
REMARK minimizedAffinity 6.7765255
REMARK minimizedRMSD -1
REMARK  3 active torsions:
REMARK  status: ('A' for Active; 'I' for Inactive)
REMARK    1  A    between atoms: C3'_2  and  C2'_3 
REMARK    2  A    between atoms: C2'_3  and  C1'_4 
REMARK    3  A    between atoms: C1'_4  and  C1_5 
ROOT
ATOM      1  C1  N4B d   1       1.590   1.157  -2.006  0.00  0.00    -0.075 A 
ATOM      2  C2  N4B d   1       0.220   1.143  -1.666  0.00  0.00     0.002 A 
ATOM      3  C3  N4B d   1      -0.378  -0.029  -1.271  0.00  0.00     0.002 A 
ATOM      4  C4  N4B d   1       0.368  -1.198  -1.227  0.00  0.00    -0.004 A 
ATOM      5  C5  N4B d   1       1.697  -1.170  -1.533  0.00  0.00     0.002 A 
ATOM      6  C6  N4B d   1       2.311   0.001  -1.927  0.00  0.00     0.002 A 
ENDROOT
BRANCH   1   7
ATOM      7  C1' N4B d   1       2.267   2.396  -2.526  0.00  0.00     0.057 C 
BRANCH   7   8
ATOM      8  C2' N4B d   1       3.058   3.047  -1.394  0.00  0.00     0.009 C 
BRANCH   8   9
ATOM      9  C3' N4B d   1       3.681   4.365  -1.822  0.00  0.00     0.004 C 
ATOM     10  C4' N4B d   1       5.154   4.427  -1.546  0.00  0.00     0.003 C 
ENDBRANCH   8   9
ENDBRANCH   7   8
ENDBRANCH   1   7
TORSDOF 3
ENDMDL
