MODEL 1
REMARK minimizedAffinity 1.97151506
REMARK minimizedRMSD -1
REMARK  3 active torsions:
REMARK  status: ('A' for Active; 'I' for Inactive)
REMARK    1  A    between atoms: C3'_2  and  C2'_3 
REMARK    2  A    between atoms: C2'_3  and  C1'_4 
REMARK    3  A    between atoms: C1'_4  and  C1_5 
ROOT
ATOM      1  C1  N4B d   1       2.236  -0.349  -1.877  0.00  0.00    -0.075 A 
ATOM      2  C2  N4B d   1       1.155   0.396  -1.356  0.00  0.00     0.002 A 
ATOM      3  C3  N4B d   1       0.970   1.700  -1.745  0.00  0.00     0.002 A 
ATOM      4  C4  N4B d   1       1.859   2.283  -2.635  0.00  0.00    -0.004 A 
ATOM      5  C5  N4B d   1       2.885   1.548  -3.154  0.00  0.00     0.002 A 
ATOM      6  C6  N4B d   1       3.081   0.236  -2.775  0.00  0.00     0.002 A 
ENDROOT
BRANCH   1   7
ATOM      7  C1' N4B d   1       2.529  -1.751  -1.417  0.00  0.00     0.057 C 
BRANCH   7   8
ATOM      8  C2' N4B d   1       1.245  -2.383  -0.886  0.00  0.00     0.009 C 
BRANCH   8   9
ATOM      9  C3' N4B d   1       1.525  -3.440   0.167  0.00  0.00     0.004 C 
ATOM     10  C4' N4B d   1       0.274  -4.049   0.726  0.00  0.00     0.003 C 
ENDBRANCH   8   9
ENDBRANCH   7   8
ENDBRANCH   1   7
TORSDOF 3
ENDMDL
