MODEL 1
REMARK minimizedAffinity -5.06720686
REMARK minimizedRMSD -1
REMARK  0 active torsions:
REMARK  status: ('A' for Active; 'I' for Inactive)
ROOT
ATOM      1  N1  IND d   1       1.338   1.069  -0.098  0.00  0.00    -0.196 N 
ATOM      2  C2  IND d   1       2.447   0.601   0.550  0.00  0.00     0.054 A 
ATOM      3  C3  IND d   1       2.139  -0.494   1.280  0.00  0.00    -0.031 A 
ATOM      4  C4  IND d   1      -0.099  -1.750   1.479  0.00  0.00     0.051 A 
ATOM      5  C5  IND d   1      -1.411  -1.681   1.100  0.00  0.00    -0.031 A 
ATOM      6  C6  IND d   1      -1.882  -0.672   0.285  0.00  0.00     0.015 A 
ATOM      7  C7  IND d   1      -1.053   0.302  -0.195  0.00  0.00    -0.016 A 
ATOM      8  C8  IND d   1       0.278   0.239   0.193  0.00  0.00    -0.047 A 
ATOM      9  C9  IND d   1       0.753  -0.758   1.055  0.00  0.00    -0.096 A 
ATOM     10  HN1 IND d   1       1.308   1.764  -0.602  0.00  0.00     0.298 HD
ENDROOT
TORSDOF 0
ENDMDL
