MODEL 1
REMARK minimizedAffinity -3.56586194
REMARK minimizedRMSD -1
REMARK  0 active torsions:
REMARK  status: ('A' for Active; 'I' for Inactive)
ROOT
ATOM      1  N1  IND d   1      -0.645  -0.788   0.400  0.00  0.00    -0.196 N 
ATOM      2  C2  IND d   1      -0.491   0.323  -0.382  0.00  0.00     0.054 A 
ATOM      3  C3  IND d   1       0.632   0.990  -0.034  0.00  0.00    -0.031 A 
ATOM      4  C4  IND d   1       2.416   0.386   1.721  0.00  0.00     0.051 A 
ATOM      5  C5  IND d   1       2.693  -0.516   2.709  0.00  0.00    -0.031 A 
ATOM      6  C6  IND d   1       1.855  -1.578   2.982  0.00  0.00     0.015 A 
ATOM      7  C7  IND d   1       0.710  -1.785   2.266  0.00  0.00    -0.016 A 
ATOM      8  C8  IND d   1       0.423  -0.867   1.266  0.00  0.00    -0.047 A 
ATOM      9  C9  IND d   1       1.247   0.237   1.013  0.00  0.00    -0.096 A 
ATOM     10  HN1 IND d   1      -1.300  -1.344   0.357  0.00  0.00     0.298 HD
ENDROOT
TORSDOF 0
ENDMDL
