MODEL 1
REMARK minimizedAffinity -2.98396659
REMARK minimizedRMSD -1
REMARK  0 active torsions:
REMARK  status: ('A' for Active; 'I' for Inactive)
ROOT
ATOM      1  N1  IND d   1      -1.115   1.286  -1.249  0.00  0.00    -0.196 N 
ATOM      2  C2  IND d   1      -1.903   0.170  -1.278  0.00  0.00     0.054 A 
ATOM      3  C3  IND d   1      -1.322  -0.835  -0.586  0.00  0.00    -0.031 A 
ATOM      4  C4  IND d   1       0.873  -0.838   0.760  0.00  0.00     0.051 A 
ATOM      5  C5  IND d   1       1.958  -0.060   1.052  0.00  0.00    -0.031 A 
ATOM      6  C6  IND d   1       2.076   1.233   0.585  0.00  0.00     0.015 A 
ATOM      7  C7  IND d   1       1.103   1.803  -0.186  0.00  0.00    -0.016 A 
ATOM      8  C8  IND d   1       0.003   1.014  -0.491  0.00  0.00    -0.047 A 
ATOM      9  C9  IND d   1      -0.103  -0.313  -0.055  0.00  0.00    -0.096 A 
ATOM     10  HN1 IND d   1      -1.287   2.033  -1.639  0.00  0.00     0.298 HD
ENDROOT
TORSDOF 0
ENDMDL
