MODEL 1
REMARK minimizedAffinity -3.14890194
REMARK minimizedRMSD -1
REMARK  0 active torsions:
REMARK  status: ('A' for Active; 'I' for Inactive)
ROOT
ATOM      1  N1  IND d   1      -2.900  -0.386  -1.803  0.00  0.00    -0.196 N 
ATOM      2  C2  IND d   1      -2.714  -0.333  -3.157  0.00  0.00     0.054 A 
ATOM      3  C3  IND d   1      -1.474   0.123  -3.444  0.00  0.00    -0.031 A 
ATOM      4  C4  IND d   1       0.450   0.744  -1.850  0.00  0.00     0.051 A 
ATOM      5  C5  IND d   1       0.744   0.893  -0.523  0.00  0.00    -0.031 A 
ATOM      6  C6  IND d   1      -0.178   0.615   0.464  0.00  0.00     0.015 A 
ATOM      7  C7  IND d   1      -1.432   0.164   0.161  0.00  0.00    -0.016 A 
ATOM      8  C8  IND d   1      -1.737   0.019  -1.185  0.00  0.00    -0.047 A 
ATOM      9  C9  IND d   1      -0.819   0.341  -2.193  0.00  0.00    -0.096 A 
ATOM     10  HN1 IND d   1      -3.622  -0.631  -1.405  0.00  0.00     0.298 HD
ENDROOT
TORSDOF 0
ENDMDL
