MODEL 1
REMARK minimizedAffinity -2.74961042
REMARK minimizedRMSD -1
REMARK  0 active torsions:
REMARK  status: ('A' for Active; 'I' for Inactive)
ROOT
ATOM      1  N1  IND d   1      -0.482  -1.493  -0.501  0.00  0.00    -0.196 N 
ATOM      2  C2  IND d   1      -0.099  -0.596   0.456  0.00  0.00     0.054 A 
ATOM      3  C3  IND d   1      -0.710   0.594   0.257  0.00  0.00    -0.031 A 
ATOM      4  C4  IND d   1      -2.452   1.261  -1.517  0.00  0.00     0.051 A 
ATOM      5  C5  IND d   1      -3.090   0.791  -2.631  0.00  0.00    -0.031 A 
ATOM      6  C6  IND d   1      -2.889  -0.491  -3.099  0.00  0.00     0.015 A 
ATOM      7  C7  IND d   1      -2.048  -1.359  -2.462  0.00  0.00    -0.016 A 
ATOM      8  C8  IND d   1      -1.393  -0.883  -1.335  0.00  0.00    -0.047 A 
ATOM      9  C9  IND d   1      -1.560   0.431  -0.879  0.00  0.00    -0.096 A 
ATOM     10  HN1 IND d   1      -0.202  -2.303  -0.571  0.00  0.00     0.298 HD
ENDROOT
TORSDOF 0
ENDMDL
