MODEL 1
REMARK minimizedAffinity -5.46082926
REMARK minimizedRMSD -1
REMARK  0 active torsions:
REMARK  status: ('A' for Active; 'I' for Inactive)
ROOT
ATOM      1  N1  IND d   1      -1.076  -1.669   1.584  0.00  0.00    -0.196 N 
ATOM      2  C2  IND d   1      -1.937  -0.975   0.781  0.00  0.00     0.054 A 
ATOM      3  C3  IND d   1      -1.306   0.079   0.216  0.00  0.00    -0.031 A 
ATOM      4  C4  IND d   1       1.161   0.793   0.388  0.00  0.00     0.051 A 
ATOM      5  C5  IND d   1       2.327   0.491   1.033  0.00  0.00    -0.031 A 
ATOM      6  C6  IND d   1       2.422  -0.570   1.910  0.00  0.00     0.015 A 
ATOM      7  C7  IND d   1       1.351  -1.379   2.168  0.00  0.00    -0.016 A 
ATOM      8  C8  IND d   1       0.163  -1.070   1.520  0.00  0.00    -0.047 A 
ATOM      9  C9  IND d   1       0.050   0.031   0.661  0.00  0.00    -0.096 A 
ATOM     10  HN1 IND d   1      -1.275  -2.363   2.051  0.00  0.00     0.298 HD
ENDROOT
TORSDOF 0
ENDMDL
