MODEL 1
REMARK minimizedAffinity -3.87717891
REMARK minimizedRMSD -1
REMARK  0 active torsions:
REMARK  status: ('A' for Active; 'I' for Inactive)
ROOT
ATOM      1  N1  IND d   1      -0.600  -1.623   1.545  0.00  0.00    -0.196 N 
ATOM      2  C2  IND d   1      -1.791  -1.188   1.033  0.00  0.00     0.054 A 
ATOM      3  C3  IND d   1      -1.632   0.008   0.423  0.00  0.00    -0.031 A 
ATOM      4  C4  IND d   1       0.513   1.384   0.055  0.00  0.00     0.051 A 
ATOM      5  C5  IND d   1       1.842   1.413   0.372  0.00  0.00    -0.031 A 
ATOM      6  C6  IND d   1       2.437   0.410   1.109  0.00  0.00     0.015 A 
ATOM      7  C7  IND d   1       1.725  -0.670   1.549  0.00  0.00    -0.016 A 
ATOM      8  C8  IND d   1       0.374  -0.699   1.234  0.00  0.00    -0.047 A 
ATOM      9  C9  IND d   1      -0.245   0.337   0.523  0.00  0.00    -0.096 A 
ATOM     10  HN1 IND d   1      -0.480  -2.351   1.986  0.00  0.00     0.298 HD
ENDROOT
TORSDOF 0
ENDMDL
