MODEL 1
REMARK minimizedAffinity -4.24855995
REMARK minimizedRMSD -1
REMARK  0 active torsions:
REMARK  status: ('A' for Active; 'I' for Inactive)
ROOT
ATOM      1  N1  IND d   1       2.312  -0.821   1.685  0.00  0.00    -0.196 N 
ATOM      2  C2  IND d   1       3.093   0.277   1.454  0.00  0.00     0.054 A 
ATOM      3  C3  IND d   1       2.420   1.186   0.713  0.00  0.00    -0.031 A 
ATOM      4  C4  IND d   1      -0.006   1.122  -0.145  0.00  0.00     0.051 A 
ATOM      5  C5  IND d   1      -1.102   0.308  -0.217  0.00  0.00    -0.031 A 
ATOM      6  C6  IND d   1      -1.118  -0.947   0.356  0.00  0.00     0.015 A 
ATOM      7  C7  IND d   1      -0.036  -1.434   1.034  0.00  0.00    -0.016 A 
ATOM      8  C8  IND d   1       1.081  -0.614   1.103  0.00  0.00    -0.047 A 
ATOM      9  C9  IND d   1       1.117   0.644   0.488  0.00  0.00    -0.096 A 
ATOM     10  HN1 IND d   1       2.550  -1.523   2.120  0.00  0.00     0.298 HD
ENDROOT
TORSDOF 0
ENDMDL
