MODEL 1
REMARK minimizedAffinity -4.96294498
REMARK minimizedRMSD -1
REMARK  0 active torsions:
REMARK  status: ('A' for Active; 'I' for Inactive)
ROOT
ATOM      1  N1  IND d   1      -0.868  -0.957   0.541  0.00  0.00    -0.196 N 
ATOM      2  C2  IND d   1      -1.104   0.222  -0.110  0.00  0.00     0.054 A 
ATOM      3  C3  IND d   1      -0.029   1.036  -0.011  0.00  0.00    -0.031 A 
ATOM      4  C4  IND d   1       2.260   0.599   1.083  0.00  0.00     0.051 A 
ATOM      5  C5  IND d   1       2.936  -0.320   1.835  0.00  0.00    -0.031 A 
ATOM      6  C6  IND d   1       2.368  -1.524   2.199  0.00  0.00     0.015 A 
ATOM      7  C7  IND d   1       1.102  -1.860   1.813  0.00  0.00    -0.016 A 
ATOM      8  C8  IND d   1       0.409  -0.926   1.056  0.00  0.00    -0.047 A 
ATOM      9  C9  IND d   1       0.965   0.315   0.719  0.00  0.00    -0.096 A 
ATOM     10  HN1 IND d   1      -1.424  -1.608   0.616  0.00  0.00     0.298 HD
ENDROOT
TORSDOF 0
ENDMDL
