MODEL 1
REMARK minimizedAffinity -2.75610852
REMARK minimizedRMSD -1
REMARK  0 active torsions:
REMARK  status: ('A' for Active; 'I' for Inactive)
ROOT
ATOM      1  N1  IND d   1      -0.345  -1.430   1.228  0.00  0.00    -0.196 N 
ATOM      2  C2  IND d   1      -1.383  -1.166   0.378  0.00  0.00     0.054 A 
ATOM      3  C3  IND d   1      -1.077  -0.126  -0.429  0.00  0.00    -0.031 A 
ATOM      4  C4  IND d   1       1.107   1.226  -0.600  0.00  0.00     0.051 A 
ATOM      5  C5  IND d   1       2.328   1.379  -0.006  0.00  0.00    -0.031 A 
ATOM      6  C6  IND d   1       2.730   0.585   1.049  0.00  0.00     0.015 A 
ATOM      7  C7  IND d   1       1.927  -0.403   1.544  0.00  0.00    -0.016 A 
ATOM      8  C8  IND d   1       0.683  -0.556   0.948  0.00  0.00    -0.047 A 
ATOM      9  C9  IND d   1       0.253   0.274  -0.095  0.00  0.00    -0.096 A 
ATOM     10  HN1 IND d   1      -0.335  -2.039   1.834  0.00  0.00     0.298 HD
ENDROOT
TORSDOF 0
ENDMDL
