MODEL 1
REMARK minimizedAffinity -5.74989319
REMARK minimizedRMSD -1
REMARK  0 active torsions:
REMARK  status: ('A' for Active; 'I' for Inactive)
ROOT
ATOM      1  O1  BZF d   1      -0.967  -0.628   2.157  0.00  0.00    -0.204 OA
ATOM      2  C2  BZF d   1      -0.809  -1.612   3.113  0.00  0.00     0.174 A 
ATOM      3  C3  BZF d   1       0.219  -2.426   2.797  0.00  0.00    -0.012 A 
ATOM      4  C3A BZF d   1       0.794  -1.864   1.614  0.00  0.00    -0.107 A 
ATOM      5  C4  BZF d   1       1.855  -2.214   0.828  0.00  0.00     0.055 A 
ATOM      6  C5  BZF d   1       2.107  -1.497  -0.298  0.00  0.00    -0.016 A 
ATOM      7  C6  BZF d   1       1.317  -0.429  -0.671  0.00  0.00     0.022 A 
ATOM      8  C7  BZF d   1       0.257  -0.041   0.079  0.00  0.00     0.029 A 
ATOM      9  C7A BZF d   1       0.019  -0.743   1.235  0.00  0.00     0.058 A 
ENDROOT
TORSDOF 0
ENDMDL
