MODEL 1
REMARK minimizedAffinity -1.58347809
REMARK minimizedRMSD -1
REMARK  0 active torsions:
REMARK  status: ('A' for Active; 'I' for Inactive)
ROOT
ATOM      1  O1  BZF d   1      -0.694   0.201   0.426  0.00  0.00    -0.204 OA
ATOM      2  C2  BZF d   1       0.624  -0.022   0.077  0.00  0.00     0.174 A 
ATOM      3  C3  BZF d   1       0.870   0.427  -1.171  0.00  0.00    -0.012 A 
ATOM      4  C3A BZF d   1      -0.347   1.047  -1.595  0.00  0.00    -0.107 A 
ATOM      5  C4  BZF d   1      -0.724   1.692  -2.739  0.00  0.00     0.055 A 
ATOM      6  C5  BZF d   1      -2.009   2.116  -2.865  0.00  0.00    -0.016 A 
ATOM      7  C6  BZF d   1      -2.943   1.909  -1.871  0.00  0.00     0.022 A 
ATOM      8  C7  BZF d   1      -2.615   1.279  -0.717  0.00  0.00     0.029 A 
ATOM      9  C7A BZF d   1      -1.309   0.878  -0.573  0.00  0.00     0.058 A 
ENDROOT
TORSDOF 0
ENDMDL
