MODEL 1
REMARK minimizedAffinity -2.51667714
REMARK minimizedRMSD -1
REMARK  0 active torsions:
REMARK  status: ('A' for Active; 'I' for Inactive)
ROOT
ATOM      1  O1  BZF d   1      -0.590   3.466  -5.180  0.00  0.00    -0.204 OA
ATOM      2  C2  BZF d   1       0.000   4.532  -4.528  0.00  0.00     0.174 A 
ATOM      3  C3  BZF d   1      -0.330   4.534  -3.220  0.00  0.00    -0.012 A 
ATOM      4  C3A BZF d   1      -1.105   3.347  -3.025  0.00  0.00    -0.107 A 
ATOM      5  C4  BZF d   1      -1.706   2.787  -1.935  0.00  0.00     0.055 A 
ATOM      6  C5  BZF d   1      -2.449   1.661  -2.096  0.00  0.00    -0.016 A 
ATOM      7  C6  BZF d   1      -2.616   1.072  -3.332  0.00  0.00     0.022 A 
ATOM      8  C7  BZF d   1      -2.035   1.588  -4.442  0.00  0.00     0.029 A 
ATOM      9  C7A BZF d   1      -1.256   2.708  -4.277  0.00  0.00     0.058 A 
ENDROOT
TORSDOF 0
ENDMDL
