MODEL 1
REMARK minimizedAffinity -3.77204537
REMARK minimizedRMSD -1
REMARK  0 active torsions:
REMARK  status: ('A' for Active; 'I' for Inactive)
ROOT
ATOM      1  O1  BZF d   1      -1.662  -0.205   2.538  0.00  0.00    -0.204 OA
ATOM      2  C2  BZF d   1      -1.292  -1.192   3.431  0.00  0.00     0.174 A 
ATOM      3  C3  BZF d   1      -0.116  -1.745   3.073  0.00  0.00    -0.012 A 
ATOM      4  C3A BZF d   1       0.319  -0.999   1.932  0.00  0.00    -0.107 A 
ATOM      5  C4  BZF d   1       1.426  -1.063   1.134  0.00  0.00     0.055 A 
ATOM      6  C5  BZF d   1       1.512  -0.239   0.058  0.00  0.00    -0.016 A 
ATOM      7  C6  BZF d   1       0.511   0.657  -0.254  0.00  0.00     0.022 A 
ATOM      8  C7  BZF d   1      -0.604   0.761   0.511  0.00  0.00     0.029 A 
ATOM      9  C7A BZF d   1      -0.680  -0.048   1.618  0.00  0.00     0.058 A 
ENDROOT
TORSDOF 0
ENDMDL
