MODEL 1
REMARK minimizedAffinity -4.17558908
REMARK minimizedRMSD -1
REMARK  0 active torsions:
REMARK  status: ('A' for Active; 'I' for Inactive)
ROOT
ATOM      1  O1  BZF d   1      -1.233  -1.212   2.359  0.00  0.00    -0.204 OA
ATOM      2  C2  BZF d   1      -0.700  -2.266   3.076  0.00  0.00     0.174 A 
ATOM      3  C3  BZF d   1       0.506  -2.616   2.585  0.00  0.00    -0.012 A 
ATOM      4  C3A BZF d   1       0.783  -1.666   1.552  0.00  0.00    -0.107 A 
ATOM      5  C4  BZF d   1       1.838  -1.480   0.705  0.00  0.00     0.055 A 
ATOM      6  C5  BZF d   1       1.765  -0.504  -0.237  0.00  0.00    -0.016 A 
ATOM      7  C6  BZF d   1       0.651   0.301  -0.364  0.00  0.00     0.022 A 
ATOM      8  C7  BZF d   1      -0.418   0.158   0.457  0.00  0.00     0.029 A 
ATOM      9  C7A BZF d   1      -0.333  -0.807   1.431  0.00  0.00     0.058 A 
ENDROOT
TORSDOF 0
ENDMDL
