MODEL 1
REMARK minimizedAffinity -1.18715823
REMARK minimizedRMSD -1
REMARK  0 active torsions:
REMARK  status: ('A' for Active; 'I' for Inactive)
ROOT
ATOM      1  O1  BZF d   1      -1.070  -0.283   1.517  0.00  0.00    -0.204 OA
ATOM      2  C2  BZF d   1      -1.584   0.760   0.771  0.00  0.00     0.174 A 
ATOM      3  C3  BZF d   1      -0.668   1.217  -0.107  0.00  0.00    -0.012 A 
ATOM      4  C3A BZF d   1       0.460   0.349   0.040  0.00  0.00    -0.107 A 
ATOM      5  C4  BZF d   1       1.679   0.283  -0.571  0.00  0.00     0.055 A 
ATOM      6  C5  BZF d   1       2.582  -0.640  -0.146  0.00  0.00    -0.016 A 
ATOM      7  C6  BZF d   1       2.301  -1.506   0.890  0.00  0.00     0.022 A 
ATOM      8  C7  BZF d   1       1.103  -1.482   1.523  0.00  0.00     0.029 A 
ATOM      9  C7A BZF d   1       0.177  -0.573   1.073  0.00  0.00     0.058 A 
ENDROOT
TORSDOF 0
ENDMDL
