MODEL 1
REMARK minimizedAffinity -2.90668058
REMARK minimizedRMSD -1
REMARK  0 active torsions:
REMARK  status: ('A' for Active; 'I' for Inactive)
ROOT
ATOM      1  O1  BZF d   1       2.263  -1.572   0.831  0.00  0.00    -0.204 OA
ATOM      2  C2  BZF d   1       2.668  -0.916  -0.315  0.00  0.00     0.174 A 
ATOM      3  C3  BZF d   1       1.795   0.059  -0.642  0.00  0.00    -0.012 A 
ATOM      4  C3A BZF d   1       0.830   0.070   0.415  0.00  0.00    -0.107 A 
ATOM      5  C4  BZF d   1      -0.277   0.828   0.667  0.00  0.00     0.055 A 
ATOM      6  C5  BZF d   1      -1.045   0.536   1.749  0.00  0.00    -0.016 A 
ATOM      7  C6  BZF d   1      -0.739  -0.509   2.596  0.00  0.00     0.022 A 
ATOM      8  C7  BZF d   1       0.352  -1.286   2.390  0.00  0.00     0.029 A 
ATOM      9  C7A BZF d   1       1.149  -0.972   1.316  0.00  0.00     0.058 A 
ENDROOT
TORSDOF 0
ENDMDL
