MODEL 1
REMARK minimizedAffinity -4.80394411
REMARK minimizedRMSD -1
REMARK  0 active torsions:
REMARK  status: ('A' for Active; 'I' for Inactive)
ROOT
ATOM      1  O1  BZF d   1      -1.125  -0.976   2.422  0.00  0.00    -0.204 OA
ATOM      2  C2  BZF d   1      -0.580  -1.833   3.359  0.00  0.00     0.174 A 
ATOM      3  C3  BZF d   1       0.697  -2.134   3.046  0.00  0.00    -0.012 A 
ATOM      4  C3A BZF d   1       0.996  -1.349   1.888  0.00  0.00    -0.107 A 
ATOM      5  C4  BZF d   1       2.113  -1.200   1.117  0.00  0.00     0.055 A 
ATOM      6  C5  BZF d   1       2.054  -0.410   0.013  0.00  0.00    -0.016 A 
ATOM      7  C6  BZF d   1       0.894   0.241  -0.352  0.00  0.00     0.022 A 
ATOM      8  C7  BZF d   1      -0.238   0.128   0.384  0.00  0.00     0.029 A 
ATOM      9  C7A BZF d   1      -0.172  -0.643   1.519  0.00  0.00     0.058 A 
ENDROOT
TORSDOF 0
ENDMDL
