MODEL 1
REMARK minimizedAffinity -0.953661621
REMARK minimizedRMSD -1
REMARK  0 active torsions:
REMARK  status: ('A' for Active; 'I' for Inactive)
ROOT
ATOM      1  O1  BZF d   1      -1.204   0.562   0.321  0.00  0.00    -0.204 OA
ATOM      2  C2  BZF d   1      -1.242   1.598  -0.592  0.00  0.00     0.174 A 
ATOM      3  C3  BZF d   1      -0.041   1.759  -1.184  0.00  0.00    -0.012 A 
ATOM      4  C3A BZF d   1       0.775   0.701  -0.672  0.00  0.00    -0.107 A 
ATOM      5  C4  BZF d   1       2.068   0.320  -0.895  0.00  0.00     0.055 A 
ATOM      6  C5  BZF d   1       2.585  -0.713  -0.181  0.00  0.00    -0.016 A 
ATOM      7  C6  BZF d   1       1.840  -1.385   0.767  0.00  0.00     0.022 A 
ATOM      8  C7  BZF d   1       0.553  -1.047   1.020  0.00  0.00     0.029 A 
ATOM      9  C7A BZF d   1       0.017  -0.024   0.276  0.00  0.00     0.058 A 
ENDROOT
TORSDOF 0
ENDMDL
