MODEL 1
REMARK minimizedAffinity -4.87538719
REMARK minimizedRMSD -1
REMARK  0 active torsions:
REMARK  status: ('A' for Active; 'I' for Inactive)
ROOT
ATOM      1  O1  BZF d   1       0.835  -1.462   1.518  0.00  0.00    -0.204 OA
ATOM      2  C2  BZF d   1       1.828  -1.299   0.571  0.00  0.00     0.174 A 
ATOM      3  C3  BZF d   1       1.468  -0.376  -0.345  0.00  0.00    -0.012 A 
ATOM      4  C3A BZF d   1       0.209   0.131   0.106  0.00  0.00    -0.107 A 
ATOM      5  C4  BZF d   1      -0.647   1.082  -0.373  0.00  0.00     0.055 A 
ATOM      6  C5  BZF d   1      -1.830   1.287   0.264  0.00  0.00    -0.016 A 
ATOM      7  C6  BZF d   1      -2.191   0.558   1.378  0.00  0.00     0.022 A 
ATOM      8  C7  BZF d   1      -1.373  -0.392   1.893  0.00  0.00     0.029 A 
ATOM      9  C7A BZF d   1      -0.163  -0.579   1.271  0.00  0.00     0.058 A 
ENDROOT
TORSDOF 0
ENDMDL
