MODEL 1
REMARK minimizedAffinity -0.496789247
REMARK minimizedRMSD -1
REMARK  0 active torsions:
REMARK  status: ('A' for Active; 'I' for Inactive)
ROOT
ATOM      1  O1  BZF d   1      -0.982   0.519   0.396  0.00  0.00    -0.204 OA
ATOM      2  C2  BZF d   1      -0.244   0.856  -0.722  0.00  0.00     0.174 A 
ATOM      3  C3  BZF d   1       1.001   0.343  -0.646  0.00  0.00    -0.012 A 
ATOM      4  C3A BZF d   1       1.015  -0.436   0.554  0.00  0.00    -0.107 A 
ATOM      5  C4  BZF d   1       1.966  -1.203   1.165  0.00  0.00     0.055 A 
ATOM      6  C5  BZF d   1       1.683  -1.772   2.366  0.00  0.00    -0.016 A 
ATOM      7  C6  BZF d   1       0.464  -1.592   2.986  0.00  0.00     0.022 A 
ATOM      8  C7  BZF d   1      -0.512  -0.844   2.417  0.00  0.00     0.029 A 
ATOM      9  C7A BZF d   1      -0.242  -0.294   1.188  0.00  0.00     0.058 A 
ENDROOT
TORSDOF 0
ENDMDL
