MODEL 1
REMARK minimizedAffinity -2.71388412
REMARK minimizedRMSD -1
REMARK  0 active torsions:
REMARK  status: ('A' for Active; 'I' for Inactive)
ROOT
ATOM      1  O1  BZF d   1      -1.100   3.747  -5.333  0.00  0.00    -0.204 OA
ATOM      2  C2  BZF d   1      -0.024   4.520  -4.943  0.00  0.00     0.174 A 
ATOM      3  C3  BZF d   1       0.279   4.299  -3.648  0.00  0.00    -0.012 A 
ATOM      4  C3A BZF d   1      -0.608   3.259  -3.226  0.00  0.00    -0.107 A 
ATOM      5  C4  BZF d   1      -0.781   2.594  -2.045  0.00  0.00     0.055 A 
ATOM      6  C5  BZF d   1      -1.784   1.683  -1.941  0.00  0.00    -0.016 A 
ATOM      7  C6  BZF d   1      -2.634   1.416  -2.994  0.00  0.00     0.022 A 
ATOM      8  C7  BZF d   1      -2.498   2.047  -4.186  0.00  0.00     0.029 A 
ATOM      9  C7A BZF d   1      -1.465   2.944  -4.305  0.00  0.00     0.058 A 
ENDROOT
TORSDOF 0
ENDMDL
