MODEL 1
REMARK minimizedAffinity -0.719160736
REMARK minimizedRMSD -1
REMARK  0 active torsions:
REMARK  status: ('A' for Active; 'I' for Inactive)
ROOT
ATOM      1  O1  BZF d   1      -1.055  -0.966   2.763  0.00  0.00    -0.204 OA
ATOM      2  C2  BZF d   1      -0.554  -1.829   3.719  0.00  0.00     0.174 A 
ATOM      3  C3  BZF d   1       0.674  -2.265   3.373  0.00  0.00    -0.012 A 
ATOM      4  C3A BZF d   1       0.997  -1.565   2.168  0.00  0.00    -0.107 A 
ATOM      5  C4  BZF d   1       2.090  -1.559   1.349  0.00  0.00     0.055 A 
ATOM      6  C5  BZF d   1       2.059  -0.817   0.211  0.00  0.00    -0.016 A 
ATOM      7  C6  BZF d   1       0.952  -0.074  -0.141  0.00  0.00     0.022 A 
ATOM      8  C7  BZF d   1      -0.154  -0.044   0.642  0.00  0.00     0.029 A 
ATOM      9  C7A BZF d   1      -0.114  -0.767   1.809  0.00  0.00     0.058 A 
ENDROOT
TORSDOF 0
ENDMDL
