MODEL 1
REMARK minimizedAffinity -4.89187288
REMARK minimizedRMSD -1
REMARK  0 active torsions:
REMARK  status: ('A' for Active; 'I' for Inactive)
ROOT
ATOM      1  O1  BZF d   1      -0.769   0.209   0.401  0.00  0.00    -0.204 OA
ATOM      2  C2  BZF d   1       0.051   0.451  -0.683  0.00  0.00     0.174 A 
ATOM      3  C3  BZF d   1       1.155  -0.321  -0.630  0.00  0.00    -0.012 A 
ATOM      4  C3A BZF d   1       0.972  -1.161   0.513  0.00  0.00    -0.107 A 
ATOM      5  C4  BZF d   1       1.721  -2.153   1.080  0.00  0.00     0.055 A 
ATOM      6  C5  BZF d   1       1.293  -2.725   2.236  0.00  0.00    -0.016 A 
ATOM      7  C6  BZF d   1       0.126  -2.328   2.854  0.00  0.00     0.022 A 
ATOM      8  C7  BZF d   1      -0.653  -1.352   2.327  0.00  0.00     0.029 A 
ATOM      9  C7A BZF d   1      -0.240  -0.794   1.142  0.00  0.00     0.058 A 
ENDROOT
TORSDOF 0
ENDMDL
