MODEL 1
REMARK minimizedAffinity 1.94366646
REMARK minimizedRMSD -1
REMARK  0 active torsions:
REMARK  status: ('A' for Active; 'I' for Inactive)
ROOT
ATOM      1  O1  BZF d   1      -1.533  -0.148   1.468  0.00  0.00    -0.204 OA
ATOM      2  C2  BZF d   1      -1.790  -0.797   2.661  0.00  0.00     0.174 A 
ATOM      3  C3  BZF d   1      -0.706  -1.484   3.074  0.00  0.00    -0.012 A 
ATOM      4  C3A BZF d   1       0.320  -1.176   2.125  0.00  0.00    -0.107 A 
ATOM      5  C4  BZF d   1       1.629  -1.545   2.005  0.00  0.00     0.055 A 
ATOM      6  C5  BZF d   1       2.336  -1.128   0.922  0.00  0.00    -0.016 A 
ATOM      7  C6  BZF d   1       1.765  -0.346  -0.061  0.00  0.00     0.022 A 
ATOM      8  C7  BZF d   1       0.471   0.049   0.017  0.00  0.00     0.029 A 
ATOM      9  C7A BZF d   1      -0.237  -0.344   1.127  0.00  0.00     0.058 A 
ENDROOT
TORSDOF 0
ENDMDL
