MODEL 1
REMARK minimizedAffinity 5.16894722
REMARK minimizedRMSD -1
REMARK  0 active torsions:
REMARK  status: ('A' for Active; 'I' for Inactive)
ROOT
ATOM      1  N1  IND d   1       4.549  -0.345  -3.237  0.00  0.00    -0.196 N 
ATOM      2  C2  IND d   1       3.345  -0.862  -3.628  0.00  0.00     0.054 A 
ATOM      3  C3  IND d   1       2.859  -0.175  -4.686  0.00  0.00    -0.031 A 
ATOM      4  C4  IND d   1       3.918   1.769  -6.000  0.00  0.00     0.051 A 
ATOM      5  C5  IND d   1       4.994   2.612  -5.996  0.00  0.00    -0.031 A 
ATOM      6  C6  IND d   1       5.998   2.508  -5.056  0.00  0.00     0.015 A 
ATOM      7  C7  IND d   1       5.969   1.546  -4.086  0.00  0.00    -0.016 A 
ATOM      8  C8  IND d   1       4.875   0.693  -4.082  0.00  0.00    -0.047 A 
ATOM      9  C9  IND d   1       3.832   0.821  -5.008  0.00  0.00    -0.096 A 
ATOM     10  HN1 IND d   1       5.023  -0.621  -2.575  0.00  0.00     0.298 HD
ENDROOT
TORSDOF 0
ENDMDL
