MODEL 1
REMARK minimizedAffinity 0.394772798
REMARK minimizedRMSD -1
REMARK  0 active torsions:
REMARK  status: ('A' for Active; 'I' for Inactive)
ROOT
ATOM      1  N1  IND d   1      -4.109  -5.997   3.630  0.00  0.00    -0.196 N 
ATOM      2  C2  IND d   1      -5.038  -5.982   2.627  0.00  0.00     0.054 A 
ATOM      3  C3  IND d   1      -4.427  -5.942   1.421  0.00  0.00    -0.031 A 
ATOM      4  C4  IND d   1      -1.915  -5.999   0.858  0.00  0.00     0.051 A 
ATOM      5  C5  IND d   1      -0.680  -5.978   1.442  0.00  0.00    -0.031 A 
ATOM      6  C6  IND d   1      -0.521  -5.964   2.812  0.00  0.00     0.015 A 
ATOM      7  C7  IND d   1      -1.597  -5.983   3.654  0.00  0.00    -0.016 A 
ATOM      8  C8  IND d   1      -2.853  -5.998   3.065  0.00  0.00    -0.047 A 
ATOM      9  C9  IND d   1      -3.021  -5.969   1.675  0.00  0.00    -0.096 A 
ATOM     10  HN1 IND d   1      -4.281  -6.005   4.473  0.00  0.00     0.298 HD
ENDROOT
TORSDOF 0
ENDMDL
