MODEL 1
REMARK minimizedAffinity 15.1095943
REMARK minimizedRMSD -1
REMARK  0 active torsions:
REMARK  status: ('A' for Active; 'I' for Inactive)
ROOT
ATOM      1  N1  IND d   1      -0.041  -4.178   2.642  0.00  0.00    -0.196 N 
ATOM      2  C2  IND d   1      -1.024  -5.124   2.720  0.00  0.00     0.054 A 
ATOM      3  C3  IND d   1      -0.760  -5.995   3.720  0.00  0.00    -0.031 A 
ATOM      4  C4  IND d   1       1.174  -5.998   5.419  0.00  0.00     0.051 A 
ATOM      5  C5  IND d   1       2.340  -5.353   5.724  0.00  0.00    -0.031 A 
ATOM      6  C6  IND d   1       2.779  -4.260   5.005  0.00  0.00     0.015 A 
ATOM      7  C7  IND d   1       2.060  -3.762   3.956  0.00  0.00    -0.016 A 
ATOM      8  C8  IND d   1       0.879  -4.418   3.638  0.00  0.00    -0.047 A 
ATOM      9  C9  IND d   1       0.450  -5.554   4.338  0.00  0.00    -0.096 A 
ATOM     10  HN1 IND d   1      -0.003  -3.540   2.066  0.00  0.00     0.298 HD
ENDROOT
TORSDOF 0
ENDMDL
