MODEL 1
REMARK minimizedAffinity 7.12226391
REMARK minimizedRMSD -1
REMARK  0 active torsions:
REMARK  status: ('A' for Active; 'I' for Inactive)
ROOT
ATOM      1  N1  IND d   1      -0.466  -5.974   4.623  0.00  0.00    -0.196 N 
ATOM      2  C2  IND d   1       0.353  -5.978   5.718  0.00  0.00     0.054 A 
ATOM      3  C3  IND d   1       1.649  -6.000   5.335  0.00  0.00    -0.031 A 
ATOM      4  C4  IND d   1       2.658  -5.932   2.968  0.00  0.00     0.051 A 
ATOM      5  C5  IND d   1       2.309  -5.959   1.647  0.00  0.00    -0.031 A 
ATOM      6  C6  IND d   1       0.990  -5.992   1.242  0.00  0.00     0.015 A 
ATOM      7  C7  IND d   1      -0.033  -5.985   2.147  0.00  0.00    -0.016 A 
ATOM      8  C8  IND d   1       0.318  -5.964   3.490  0.00  0.00    -0.047 A 
ATOM      9  C9  IND d   1       1.655  -5.975   3.907  0.00  0.00    -0.096 A 
ATOM     10  HN1 IND d   1      -1.326  -5.978   4.639  0.00  0.00     0.298 HD
ENDROOT
TORSDOF 0
ENDMDL
