MODEL 1
REMARK minimizedAffinity 7.85524511
REMARK minimizedRMSD -1
REMARK  0 active torsions:
REMARK  status: ('A' for Active; 'I' for Inactive)
ROOT
ATOM      1  N1  IND d   1      -0.152   1.486   2.151  0.00  0.00    -0.196 N 
ATOM      2  C2  IND d   1       0.525   1.280   0.981  0.00  0.00     0.054 A 
ATOM      3  C3  IND d   1       0.389  -0.004   0.579  0.00  0.00    -0.031 A 
ATOM      4  C4  IND d   1      -0.983  -1.911   1.633  0.00  0.00     0.051 A 
ATOM      5  C5  IND d   1      -1.741  -2.214   2.728  0.00  0.00    -0.031 A 
ATOM      6  C6  IND d   1      -2.016  -1.280   3.706  0.00  0.00     0.015 A 
ATOM      7  C7  IND d   1      -1.551   0.001   3.618  0.00  0.00    -0.016 A 
ATOM      8  C8  IND d   1      -0.775   0.311   2.510  0.00  0.00    -0.047 A 
ATOM      9  C9  IND d   1      -0.456  -0.644   1.536  0.00  0.00    -0.096 A 
ATOM     10  HN1 IND d   1      -0.184   2.226   2.588  0.00  0.00     0.298 HD
ENDROOT
TORSDOF 0
ENDMDL
