MODEL 1
REMARK minimizedAffinity 6.93175507
REMARK minimizedRMSD -1
REMARK  0 active torsions:
REMARK  status: ('A' for Active; 'I' for Inactive)
ROOT
ATOM      1  N1  IND d   1      -5.705  -0.002   3.784  0.00  0.00    -0.196 N 
ATOM      2  C2  IND d   1      -5.555  -0.670   4.967  0.00  0.00     0.054 A 
ATOM      3  C3  IND d   1      -5.527   0.202   6.000  0.00  0.00    -0.031 A 
ATOM      4  C4  IND d   1      -5.813   2.761   5.988  0.00  0.00     0.051 A 
ATOM      5  C5  IND d   1      -5.941   3.826   5.142  0.00  0.00    -0.031 A 
ATOM      6  C6  IND d   1      -6.000   3.667   3.772  0.00  0.00     0.015 A 
ATOM      7  C7  IND d   1      -5.945   2.430   3.196  0.00  0.00    -0.016 A 
ATOM      8  C8  IND d   1      -5.809   1.346   4.052  0.00  0.00    -0.047 A 
ATOM      9  C9  IND d   1      -5.705   1.504   5.440  0.00  0.00    -0.096 A 
ATOM     10  HN1 IND d   1      -5.731  -0.362   3.004  0.00  0.00     0.298 HD
ENDROOT
TORSDOF 0
ENDMDL
