MODEL 1
REMARK minimizedAffinity 12.9506626
REMARK minimizedRMSD -1
REMARK  0 active torsions:
REMARK  status: ('A' for Active; 'I' for Inactive)
ROOT
ATOM      1  N1  IND d   1       1.842  -5.961   4.493  0.00  0.00    -0.196 N 
ATOM      2  C2  IND d   1       1.410  -5.926   5.789  0.00  0.00     0.054 A 
ATOM      3  C3  IND d   1       0.059  -5.891   5.833  0.00  0.00    -0.031 A 
ATOM      4  C4  IND d   1      -1.644  -5.986   3.905  0.00  0.00     0.051 A 
ATOM      5  C5  IND d   1      -1.727  -5.987   2.541  0.00  0.00    -0.031 A 
ATOM      6  C6  IND d   1      -0.602  -5.982   1.741  0.00  0.00     0.015 A 
ATOM      7  C7  IND d   1       0.654  -5.987   2.279  0.00  0.00    -0.016 A 
ATOM      8  C8  IND d   1       0.742  -5.979   3.664  0.00  0.00    -0.047 A 
ATOM      9  C9  IND d   1      -0.396  -5.942   4.480  0.00  0.00    -0.096 A 
ATOM     10  HN1 IND d   1       2.663  -5.970   4.238  0.00  0.00     0.298 HD
ENDROOT
TORSDOF 0
ENDMDL
