MODEL 1
REMARK minimizedAffinity 8.99710464
REMARK minimizedRMSD -1
REMARK  0 active torsions:
REMARK  status: ('A' for Active; 'I' for Inactive)
ROOT
ATOM      1  N1  IND d   1      -1.070  -6.000   4.953  0.00  0.00    -0.196 N 
ATOM      2  C2  IND d   1       0.084  -5.995   5.686  0.00  0.00     0.054 A 
ATOM      3  C3  IND d   1       1.161  -6.000   4.868  0.00  0.00    -0.031 A 
ATOM      4  C4  IND d   1       1.262  -5.914   2.297  0.00  0.00     0.051 A 
ATOM      5  C5  IND d   1       0.467  -5.943   1.186  0.00  0.00    -0.031 A 
ATOM      6  C6  IND d   1      -0.909  -5.991   1.276  0.00  0.00     0.015 A 
ATOM      7  C7  IND d   1      -1.544  -6.000   2.485  0.00  0.00    -0.016 A 
ATOM      8  C8  IND d   1      -0.740  -5.977   3.616  0.00  0.00    -0.047 A 
ATOM      9  C9  IND d   1       0.659  -5.972   3.531  0.00  0.00    -0.096 A 
ATOM     10  HN1 IND d   1      -1.868  -6.014   5.273  0.00  0.00     0.298 HD
ENDROOT
TORSDOF 0
ENDMDL
