MODEL 1
REMARK minimizedAffinity 13.0310326
REMARK minimizedRMSD -1
REMARK  0 active torsions:
REMARK  status: ('A' for Active; 'I' for Inactive)
ROOT
ATOM      1  N1  IND d   1      -0.004  -3.117  -4.995  0.00  0.00    -0.196 N 
ATOM      2  C2  IND d   1      -1.291  -3.576  -4.959  0.00  0.00     0.054 A 
ATOM      3  C3  IND d   1      -1.881  -3.231  -3.792  0.00  0.00    -0.031 A 
ATOM      4  C4  IND d   1      -0.953  -1.828  -1.843  0.00  0.00     0.051 A 
ATOM      5  C5  IND d   1       0.188  -1.220  -1.401  0.00  0.00    -0.031 A 
ATOM      6  C6  IND d   1       1.347  -1.210  -2.151  0.00  0.00     0.015 A 
ATOM      7  C7  IND d   1       1.403  -1.802  -3.382  0.00  0.00    -0.016 A 
ATOM      8  C8  IND d   1       0.249  -2.427  -3.830  0.00  0.00    -0.047 A 
ATOM      9  C9  IND d   1      -0.917  -2.476  -3.055  0.00  0.00    -0.096 A 
ATOM     10  HN1 IND d   1       0.555  -3.240  -5.637  0.00  0.00     0.298 HD
ENDROOT
TORSDOF 0
ENDMDL
