MODEL 1
REMARK minimizedAffinity 7.48769999
REMARK minimizedRMSD -1
REMARK  0 active torsions:
REMARK  status: ('A' for Active; 'I' for Inactive)
ROOT
ATOM      1  N1  IND d   1       0.870  -5.935   3.781  0.00  0.00    -0.196 N 
ATOM      2  C2  IND d   1       2.080  -5.949   3.144  0.00  0.00     0.054 A 
ATOM      3  C3  IND d   1       1.905  -5.999   1.804  0.00  0.00    -0.031 A 
ATOM      4  C4  IND d   1      -0.276  -5.963   0.437  0.00  0.00     0.051 A 
ATOM      5  C5  IND d   1      -1.636  -5.991   0.577  0.00  0.00    -0.031 A 
ATOM      6  C6  IND d   1      -2.241  -5.999   1.816  0.00  0.00     0.015 A 
ATOM      7  C7  IND d   1      -1.507  -5.968   2.968  0.00  0.00    -0.016 A 
ATOM      8  C8  IND d   1      -0.126  -5.947   2.830  0.00  0.00    -0.047 A 
ATOM      9  C9  IND d   1       0.495  -5.981   1.575  0.00  0.00    -0.096 A 
ATOM     10  HN1 IND d   1       0.752  -5.921   4.633  0.00  0.00     0.298 HD
ENDROOT
TORSDOF 0
ENDMDL
