MODEL 1
REMARK minimizedAffinity 10.1028595
REMARK minimizedRMSD -1
REMARK  0 active torsions:
REMARK  status: ('A' for Active; 'I' for Inactive)
ROOT
ATOM      1  N1  IND d   1      -5.963  -0.886   3.383  0.00  0.00    -0.196 N 
ATOM      2  C2  IND d   1      -5.570  -0.339   4.573  0.00  0.00     0.054 A 
ATOM      3  C3  IND d   1      -4.240  -0.498   4.748  0.00  0.00    -0.031 A 
ATOM      4  C4  IND d   1      -2.494  -1.537   3.166  0.00  0.00     0.051 A 
ATOM      5  C5  IND d   1      -2.379  -2.204   1.979  0.00  0.00    -0.031 A 
ATOM      6  C6  IND d   1      -3.474  -2.469   1.181  0.00  0.00     0.015 A 
ATOM      7  C7  IND d   1      -4.729  -2.064   1.538  0.00  0.00    -0.016 A 
ATOM      8  C8  IND d   1      -4.851  -1.393   2.746  0.00  0.00    -0.047 A 
ATOM      9  C9  IND d   1      -3.750  -1.159   3.580  0.00  0.00    -0.096 A 
ATOM     10  HN1 IND d   1      -6.768  -0.909   3.083  0.00  0.00     0.298 HD
ENDROOT
TORSDOF 0
ENDMDL
