MODEL 1
REMARK minimizedAffinity 14.9154577
REMARK minimizedRMSD -1
REMARK  0 active torsions:
REMARK  status: ('A' for Active; 'I' for Inactive)
ROOT
ATOM      1  N1  IND d   1      -0.836   1.604   2.491  0.00  0.00    -0.196 N 
ATOM      2  C2  IND d   1      -1.657   0.910   3.335  0.00  0.00     0.054 A 
ATOM      3  C3  IND d   1      -1.655  -0.404   3.019  0.00  0.00    -0.031 A 
ATOM      4  C4  IND d   1      -0.301  -1.650   1.218  0.00  0.00     0.051 A 
ATOM      5  C5  IND d   1       0.557  -1.438   0.176  0.00  0.00    -0.031 A 
ATOM      6  C6  IND d   1       1.006  -0.175  -0.152  0.00  0.00     0.015 A 
ATOM      7  C7  IND d   1       0.621   0.926   0.559  0.00  0.00    -0.016 A 
ATOM      8  C8  IND d   1      -0.256   0.714   1.613  0.00  0.00    -0.047 A 
ATOM      9  C9  IND d   1      -0.749  -0.559   1.925  0.00  0.00    -0.096 A 
ATOM     10  HN1 IND d   1      -0.704   2.454   2.505  0.00  0.00     0.298 HD
ENDROOT
TORSDOF 0
ENDMDL
