MODEL 1
REMARK minimizedAffinity 3.93405581
REMARK minimizedRMSD -1
REMARK  0 active torsions:
REMARK  status: ('A' for Active; 'I' for Inactive)
ROOT
ATOM      1  N1  IND d   1      -1.829  -6.000   1.656  0.00  0.00    -0.196 N 
ATOM      2  C2  IND d   1      -1.540  -5.995   0.320  0.00  0.00     0.054 A 
ATOM      3  C3  IND d   1      -0.202  -5.955   0.129  0.00  0.00    -0.031 A 
ATOM      4  C4  IND d   1       1.700  -5.996   1.863  0.00  0.00     0.051 A 
ATOM      5  C5  IND d   1       1.931  -5.964   3.210  0.00  0.00    -0.031 A 
ATOM      6  C6  IND d   1       0.899  -5.944   4.126  0.00  0.00     0.015 A 
ATOM      7  C7  IND d   1      -0.407  -5.968   3.728  0.00  0.00    -0.016 A 
ATOM      8  C8  IND d   1      -0.646  -5.993   2.361  0.00  0.00    -0.047 A 
ATOM      9  C9  IND d   1       0.397  -5.971   1.426  0.00  0.00    -0.096 A 
ATOM     10  HN1 IND d   1      -2.618  -6.006   1.999  0.00  0.00     0.298 HD
ENDROOT
TORSDOF 0
ENDMDL
