MODEL 1
REMARK minimizedAffinity 7.65526485
REMARK minimizedRMSD -1
REMARK  0 active torsions:
REMARK  status: ('A' for Active; 'I' for Inactive)
ROOT
ATOM      1  N1  IND d   1       0.270   1.214   2.056  0.00  0.00    -0.196 N 
ATOM      2  C2  IND d   1       0.919   1.188   0.854  0.00  0.00     0.054 A 
ATOM      3  C3  IND d   1       0.841  -0.044   0.304  0.00  0.00    -0.031 A 
ATOM      4  C4  IND d   1      -0.388  -2.140   1.154  0.00  0.00     0.051 A 
ATOM      5  C5  IND d   1      -1.093  -2.615   2.224  0.00  0.00    -0.031 A 
ATOM      6  C6  IND d   1      -1.388  -1.822   3.314  0.00  0.00     0.015 A 
ATOM      7  C7  IND d   1      -0.997  -0.514   3.369  0.00  0.00    -0.016 A 
ATOM      8  C8  IND d   1      -0.275  -0.030   2.287  0.00  0.00    -0.047 A 
ATOM      9  C9  IND d   1       0.064  -0.842   1.198  0.00  0.00    -0.096 A 
ATOM     10  HN1 IND d   1       0.212   1.894   2.580  0.00  0.00     0.298 HD
ENDROOT
TORSDOF 0
ENDMDL
