MODEL 1
REMARK minimizedAffinity 6.29249573
REMARK minimizedRMSD -1
REMARK  0 active torsions:
REMARK  status: ('A' for Active; 'I' for Inactive)
ROOT
ATOM      1  N1  IND d   1       1.106  -3.129  -4.963  0.00  0.00    -0.196 N 
ATOM      2  C2  IND d   1       1.935  -2.094  -4.633  0.00  0.00     0.054 A 
ATOM      3  C3  IND d   1       1.253  -1.142  -3.957  0.00  0.00    -0.031 A 
ATOM      4  C4  IND d   1      -1.205  -1.122  -3.194  0.00  0.00     0.051 A 
ATOM      5  C5  IND d   1      -2.369  -1.832  -3.293  0.00  0.00    -0.031 A 
ATOM      6  C6  IND d   1      -2.435  -3.035  -3.964  0.00  0.00     0.015 A 
ATOM      7  C7  IND d   1      -1.332  -3.583  -4.555  0.00  0.00    -0.016 A 
ATOM      8  C8  IND d   1      -0.149  -2.862  -4.463  0.00  0.00    -0.047 A 
ATOM      9  C9  IND d   1      -0.086  -1.619  -3.820  0.00  0.00    -0.096 A 
ATOM     10  HN1 IND d   1       1.331  -3.829  -5.408  0.00  0.00     0.298 HD
ENDROOT
TORSDOF 0
ENDMDL
