MODEL 1
REMARK minimizedAffinity 10.9557028
REMARK minimizedRMSD -1
REMARK  0 active torsions:
REMARK  status: ('A' for Active; 'I' for Inactive)
ROOT
ATOM      1  N1  IND d   1       2.169   0.624   1.472  0.00  0.00    -0.196 N 
ATOM      2  C2  IND d   1       1.250   1.066   0.561  0.00  0.00     0.054 A 
ATOM      3  C3  IND d   1       1.690   2.192  -0.043  0.00  0.00    -0.031 A 
ATOM      4  C4  IND d   1       3.931   3.428   0.234  0.00  0.00     0.051 A 
ATOM      5  C5  IND d   1       5.079   3.425   0.977  0.00  0.00    -0.031 A 
ATOM      6  C6  IND d   1       5.321   2.466   1.940  0.00  0.00     0.015 A 
ATOM      7  C7  IND d   1       4.426   1.465   2.189  0.00  0.00    -0.016 A 
ATOM      8  C8  IND d   1       3.257   1.470   1.442  0.00  0.00    -0.047 A 
ATOM      9  C9  IND d   1       2.986   2.464   0.493  0.00  0.00    -0.096 A 
ATOM     10  HN1 IND d   1       2.083  -0.065   1.978  0.00  0.00     0.298 HD
ENDROOT
TORSDOF 0
ENDMDL
