MODEL 1
REMARK minimizedAffinity 5.40328646
REMARK minimizedRMSD -1
REMARK  1 active torsions:
REMARK  status: ('A' for Active; 'I' for Inactive)
REMARK    1  A    between atoms: C3_4  and  O_7 
ROOT
ATOM      1  C   UNL d   1       0.801  -1.421  -2.039  0.00  0.00    -0.033 A 
ATOM      2  C1  UNL d   1       0.957  -2.664  -1.423  0.00  0.00     0.039 A 
ATOM      3  C2  UNL d   1       2.128  -2.954  -0.719  0.00  0.00    -0.080 A 
ATOM      4  C3  UNL d   1       3.133  -1.994  -0.640  0.00  0.00     0.150 A 
ATOM      5  C4  UNL d   1       2.982  -0.752  -1.248  0.00  0.00    -0.007 A 
ATOM      6  C5  UNL d   1       1.813  -0.465  -1.951  0.00  0.00     0.039 A 
ENDROOT
BRANCH   4   7
ATOM      7  O   UNL d   1       4.295  -2.233   0.032  0.00  0.00    -0.526 OA
ATOM      8  H5  UNL d   1       4.270  -3.141   0.376  0.00  0.00     0.418 HD
ENDBRANCH   4   7
TORSDOF 1
ENDMDL
