MODEL 1
REMARK minimizedAffinity 17.186409
REMARK minimizedRMSD -1
REMARK  1 active torsions:
REMARK  status: ('A' for Active; 'I' for Inactive)
REMARK    1  A    between atoms: C3_4  and  O_7 
ROOT
ATOM      1  C   UNL d   1      -1.704  -4.299  -2.749  0.00  0.00    -0.033 A 
ATOM      2  C1  UNL d   1      -1.185  -5.414  -3.409  0.00  0.00     0.039 A 
ATOM      3  C2  UNL d   1       0.004  -5.999  -2.968  0.00  0.00    -0.080 A 
ATOM      4  C3  UNL d   1       0.663  -5.460  -1.867  0.00  0.00     0.150 A 
ATOM      5  C4  UNL d   1       0.150  -4.351  -1.202  0.00  0.00    -0.007 A 
ATOM      6  C5  UNL d   1      -1.037  -3.768  -1.644  0.00  0.00     0.039 A 
ENDROOT
BRANCH   4   7
ATOM      7  O   UNL d   1       1.828  -5.993  -1.402  0.00  0.00    -0.526 OA
ATOM      8  H5  UNL d   1       2.077  -6.736  -1.977  0.00  0.00     0.418 HD
ENDBRANCH   4   7
TORSDOF 1
ENDMDL
