MODEL 1
REMARK minimizedAffinity 9.16443443
REMARK minimizedRMSD -1
REMARK  1 active torsions:
REMARK  status: ('A' for Active; 'I' for Inactive)
REMARK    1  A    between atoms: C3_4  and  O_7 
ROOT
ATOM      1  C   UNL d   1       2.695   1.208  -0.357  0.00  0.00    -0.033 A 
ATOM      2  C1  UNL d   1       1.989   0.025  -0.583  0.00  0.00     0.039 A 
ATOM      3  C2  UNL d   1       2.582  -1.209  -0.308  0.00  0.00    -0.080 A 
ATOM      4  C3  UNL d   1       3.881  -1.246   0.193  0.00  0.00     0.150 A 
ATOM      5  C4  UNL d   1       4.589  -0.071   0.424  0.00  0.00    -0.007 A 
ATOM      6  C5  UNL d   1       3.995   1.160   0.148  0.00  0.00     0.039 A 
ENDROOT
BRANCH   4   7
ATOM      7  O   UNL d   1       4.504  -2.426   0.471  0.00  0.00    -0.526 OA
ATOM      8  H5  UNL d   1       3.905  -3.153   0.235  0.00  0.00     0.418 HD
ENDBRANCH   4   7
TORSDOF 1
ENDMDL
