MODEL 1
REMARK minimizedAffinity 16.4556942
REMARK minimizedRMSD -1
REMARK  1 active torsions:
REMARK  status: ('A' for Active; 'I' for Inactive)
REMARK    1  A    between atoms: C3_4  and  O_7 
ROOT
ATOM      1  C   UNL d   1       1.800  -0.451  -1.623  0.00  0.00    -0.033 A 
ATOM      2  C1  UNL d   1       2.193   0.796  -2.113  0.00  0.00     0.039 A 
ATOM      3  C2  UNL d   1       3.144   1.551  -1.423  0.00  0.00    -0.080 A 
ATOM      4  C3  UNL d   1       3.693   1.047  -0.247  0.00  0.00     0.150 A 
ATOM      5  C4  UNL d   1       3.309  -0.196   0.244  0.00  0.00    -0.007 A 
ATOM      6  C5  UNL d   1       2.359  -0.948  -0.446  0.00  0.00     0.039 A 
ENDROOT
BRANCH   4   7
ATOM      7  O   UNL d   1       4.621   1.749   0.464  0.00  0.00    -0.526 OA
ATOM      8  H5  UNL d   1       4.768   2.601   0.021  0.00  0.00     0.418 HD
ENDBRANCH   4   7
TORSDOF 1
ENDMDL
