MODEL 1
REMARK minimizedAffinity 10.0967531
REMARK minimizedRMSD -1
REMARK  1 active torsions:
REMARK  status: ('A' for Active; 'I' for Inactive)
REMARK    1  A    between atoms: C3_4  and  O_7 
ROOT
ATOM      1  C   UNL d   1       3.136   1.784  -1.541  0.00  0.00    -0.033 A 
ATOM      2  C1  UNL d   1       2.350   0.662  -1.807  0.00  0.00     0.039 A 
ATOM      3  C2  UNL d   1       2.740  -0.594  -1.336  0.00  0.00    -0.080 A 
ATOM      4  C3  UNL d   1       3.916  -0.712  -0.601  0.00  0.00     0.150 A 
ATOM      5  C4  UNL d   1       4.702   0.403  -0.329  0.00  0.00    -0.007 A 
ATOM      6  C5  UNL d   1       4.311   1.655  -0.800  0.00  0.00     0.039 A 
ENDROOT
BRANCH   4   7
ATOM      7  O   UNL d   1       4.341  -1.917  -0.125  0.00  0.00    -0.526 OA
ATOM      8  H5  UNL d   1       3.714  -2.601  -0.415  0.00  0.00     0.418 HD
ENDBRANCH   4   7
TORSDOF 1
ENDMDL
