MODEL 1
REMARK minimizedAffinity 10.238184
REMARK minimizedRMSD -1
REMARK  1 active torsions:
REMARK  status: ('A' for Active; 'I' for Inactive)
REMARK    1  A    between atoms: C3_4  and  O_7 
ROOT
ATOM      1  C   UNL d   1      -5.164  -1.368   4.112  0.00  0.00    -0.033 A 
ATOM      2  C1  UNL d   1      -4.071  -0.827   4.791  0.00  0.00     0.039 A 
ATOM      3  C2  UNL d   1      -3.441   0.320   4.302  0.00  0.00    -0.080 A 
ATOM      4  C3  UNL d   1      -3.915   0.915   3.136  0.00  0.00     0.150 A 
ATOM      5  C4  UNL d   1      -5.007   0.383   2.457  0.00  0.00    -0.007 A 
ATOM      6  C5  UNL d   1      -5.633  -0.762   2.946  0.00  0.00     0.039 A 
ENDROOT
BRANCH   4   7
ATOM      7  O   UNL d   1      -3.331   2.032   2.618  0.00  0.00    -0.526 OA
ATOM      8  H5  UNL d   1      -2.572   2.270   3.176  0.00  0.00     0.418 HD
ENDBRANCH   4   7
TORSDOF 1
ENDMDL
