MODEL 1
REMARK minimizedAffinity 6.10134172
REMARK minimizedRMSD -1
REMARK  1 active torsions:
REMARK  status: ('A' for Active; 'I' for Inactive)
REMARK    1  A    between atoms: C3_4  and  O_7 
ROOT
ATOM      1  C   UNL d   1       0.320  -2.076  -1.847  0.00  0.00    -0.033 A 
ATOM      2  C1  UNL d   1       0.733  -3.249  -1.212  0.00  0.00     0.039 A 
ATOM      3  C2  UNL d   1       2.005  -3.326  -0.642  0.00  0.00    -0.080 A 
ATOM      4  C3  UNL d   1       2.853  -2.224  -0.712  0.00  0.00     0.150 A 
ATOM      5  C4  UNL d   1       2.447  -1.051  -1.339  0.00  0.00    -0.007 A 
ATOM      6  C5  UNL d   1       1.176  -0.977  -1.909  0.00  0.00     0.039 A 
ENDROOT
BRANCH   4   7
ATOM      7  O   UNL d   1       4.105  -2.254  -0.174  0.00  0.00    -0.526 OA
ATOM      8  H5  UNL d   1       4.258  -3.137   0.201  0.00  0.00     0.418 HD
ENDBRANCH   4   7
TORSDOF 1
ENDMDL
