MODEL 1
REMARK minimizedAffinity 10.6613464
REMARK minimizedRMSD -1
REMARK  1 active torsions:
REMARK  status: ('A' for Active; 'I' for Inactive)
REMARK    1  A    between atoms: C3_4  and  O_7 
ROOT
ATOM      1  C   UNL d   1       0.080   1.803   5.971  0.00  0.00    -0.033 A 
ATOM      2  C1  UNL d   1      -0.444   2.250   4.756  0.00  0.00     0.039 A 
ATOM      3  C2  UNL d   1       0.255   2.026   3.568  0.00  0.00    -0.080 A 
ATOM      4  C3  UNL d   1       1.473   1.353   3.608  0.00  0.00     0.150 A 
ATOM      5  C4  UNL d   1       1.999   0.902   4.814  0.00  0.00    -0.007 A 
ATOM      6  C5  UNL d   1       1.301   1.127   5.999  0.00  0.00     0.039 A 
ENDROOT
BRANCH   4   7
ATOM      7  O   UNL d   1       2.193   1.116   2.475  0.00  0.00    -0.526 OA
ATOM      8  H5  UNL d   1       1.721   1.510   1.722  0.00  0.00     0.418 HD
ENDBRANCH   4   7
TORSDOF 1
ENDMDL
