MODEL 1
REMARK minimizedAffinity 6.5022459
REMARK minimizedRMSD -1
REMARK  1 active torsions:
REMARK  status: ('A' for Active; 'I' for Inactive)
REMARK    1  A    between atoms: C3_4  and  O_7 
ROOT
ATOM      1  C   UNL d   1       0.623  -1.448  -1.716  0.00  0.00    -0.033 A 
ATOM      2  C1  UNL d   1       0.770  -2.427  -0.732  0.00  0.00     0.039 A 
ATOM      3  C2  UNL d   1       1.962  -2.522  -0.011  0.00  0.00    -0.080 A 
ATOM      4  C3  UNL d   1       2.997  -1.632  -0.283  0.00  0.00     0.150 A 
ATOM      5  C4  UNL d   1       2.856  -0.652  -1.260  0.00  0.00    -0.007 A 
ATOM      6  C5  UNL d   1       1.665  -0.560  -1.980  0.00  0.00     0.039 A 
ENDROOT
BRANCH   4   7
ATOM      7  O   UNL d   1       4.181  -1.688   0.391  0.00  0.00    -0.526 OA
ATOM      8  H5  UNL d   1       4.145  -2.432   1.014  0.00  0.00     0.418 HD
ENDBRANCH   4   7
TORSDOF 1
ENDMDL
