MODEL 1
REMARK minimizedAffinity 1.00220311
REMARK minimizedRMSD -1
REMARK  1 active torsions:
REMARK  status: ('A' for Active; 'I' for Inactive)
REMARK    1  A    between atoms: C3_4  and  O_7 
ROOT
ATOM      1  C   UNL d   1       2.697  -0.588  -1.130  0.00  0.00    -0.033 A 
ATOM      2  C1  UNL d   1       2.886  -1.936  -0.822  0.00  0.00     0.039 A 
ATOM      3  C2  UNL d   1       1.873  -2.862  -1.082  0.00  0.00    -0.080 A 
ATOM      4  C3  UNL d   1       0.679  -2.427  -1.649  0.00  0.00     0.150 A 
ATOM      5  C4  UNL d   1       0.485  -1.085  -1.961  0.00  0.00    -0.007 A 
ATOM      6  C5  UNL d   1       1.497  -0.162  -1.700  0.00  0.00     0.039 A 
ENDROOT
BRANCH   4   7
ATOM      7  O   UNL d   1      -0.340  -3.292  -1.916  0.00  0.00    -0.526 OA
ATOM      8  H5  UNL d   1      -0.075  -4.180  -1.622  0.00  0.00     0.418 HD
ENDBRANCH   4   7
TORSDOF 1
ENDMDL
