MODEL 1
REMARK minimizedAffinity 10.3566856
REMARK minimizedRMSD -1
REMARK  1 active torsions:
REMARK  status: ('A' for Active; 'I' for Inactive)
REMARK    1  A    between atoms: C3_4  and  O_7 
ROOT
ATOM      1  C   UNL d   1       6.000  -5.025  -1.247  0.00  0.00    -0.033 A 
ATOM      2  C1  UNL d   1       5.021  -5.999  -1.454  0.00  0.00     0.039 A 
ATOM      3  C2  UNL d   1       3.686  -5.727  -1.148  0.00  0.00    -0.080 A 
ATOM      4  C3  UNL d   1       3.343  -4.478  -0.638  0.00  0.00     0.150 A 
ATOM      5  C4  UNL d   1       4.313  -3.501  -0.433  0.00  0.00    -0.007 A 
ATOM      6  C5  UNL d   1       5.645  -3.776  -0.737  0.00  0.00     0.039 A 
ENDROOT
BRANCH   4   7
ATOM      7  O   UNL d   1       2.055  -4.167  -0.320  0.00  0.00    -0.526 OA
ATOM      8  H5  UNL d   1       1.500  -4.947  -0.488  0.00  0.00     0.418 HD
ENDBRANCH   4   7
TORSDOF 1
ENDMDL
