MODEL 1
REMARK minimizedAffinity 7.30896521
REMARK minimizedRMSD -1
REMARK  1 active torsions:
REMARK  status: ('A' for Active; 'I' for Inactive)
REMARK    1  A    between atoms: C3_4  and  O_7 
ROOT
ATOM      1  C   UNL d   1      -3.684   1.831   4.064  0.00  0.00    -0.033 A 
ATOM      2  C1  UNL d   1      -3.457   1.581   5.418  0.00  0.00     0.039 A 
ATOM      3  C2  UNL d   1      -3.590   0.286   5.923  0.00  0.00    -0.080 A 
ATOM      4  C3  UNL d   1      -3.949  -0.749   5.063  0.00  0.00     0.150 A 
ATOM      5  C4  UNL d   1      -4.173  -0.507   3.711  0.00  0.00    -0.007 A 
ATOM      6  C5  UNL d   1      -4.041   0.787   3.210  0.00  0.00     0.039 A 
ENDROOT
BRANCH   4   7
ATOM      7  O   UNL d   1      -4.096  -2.028   5.510  0.00  0.00    -0.526 OA
ATOM      8  H5  UNL d   1      -3.937  -2.039   6.468  0.00  0.00     0.418 HD
ENDBRANCH   4   7
TORSDOF 1
ENDMDL
