MODEL 1
REMARK minimizedAffinity 12.0218439
REMARK minimizedRMSD -1
REMARK  1 active torsions:
REMARK  status: ('A' for Active; 'I' for Inactive)
REMARK    1  A    between atoms: C3_4  and  O_7 
ROOT
ATOM      1  C   UNL d   1       0.667  -2.078  -0.628  0.00  0.00    -0.033 A 
ATOM      2  C1  UNL d   1       0.825  -0.889   0.085  0.00  0.00     0.039 A 
ATOM      3  C2  UNL d   1       1.268   0.264  -0.565  0.00  0.00    -0.080 A 
ATOM      4  C3  UNL d   1       1.548   0.215  -1.928  0.00  0.00     0.150 A 
ATOM      5  C4  UNL d   1       1.389  -0.966  -2.646  0.00  0.00    -0.007 A 
ATOM      6  C5  UNL d   1       0.948  -2.116  -1.995  0.00  0.00     0.039 A 
ENDROOT
BRANCH   4   7
ATOM      7  O   UNL d   1       1.987   1.314  -2.606  0.00  0.00    -0.526 OA
ATOM      8  H5  UNL d   1       2.077   2.048  -1.976  0.00  0.00     0.418 HD
ENDBRANCH   4   7
TORSDOF 1
ENDMDL
