MODEL 1
REMARK minimizedAffinity 4.57983065
REMARK minimizedRMSD -1
REMARK  1 active torsions:
REMARK  status: ('A' for Active; 'I' for Inactive)
REMARK    1  A    between atoms: C3_4  and  O_7 
ROOT
ATOM      1  C   UNL d   1       0.900   1.122   5.681  0.00  0.00    -0.033 A 
ATOM      2  C1  UNL d   1       1.148   0.701   4.373  0.00  0.00     0.039 A 
ATOM      3  C2  UNL d   1       0.182   0.887   3.383  0.00  0.00    -0.080 A 
ATOM      4  C3  UNL d   1      -1.026   1.496   3.712  0.00  0.00     0.150 A 
ATOM      5  C4  UNL d   1      -1.278   1.922   5.012  0.00  0.00    -0.007 A 
ATOM      6  C5  UNL d   1      -0.312   1.734   6.000  0.00  0.00     0.039 A 
ENDROOT
BRANCH   4   7
ATOM      7  O   UNL d   1      -2.001   1.695   2.780  0.00  0.00    -0.526 OA
ATOM      8  H5  UNL d   1      -1.698   1.324   1.934  0.00  0.00     0.418 HD
ENDBRANCH   4   7
TORSDOF 1
ENDMDL
