MODEL 1
REMARK minimizedAffinity 8.26066017
REMARK minimizedRMSD -1
REMARK  1 active torsions:
REMARK  status: ('A' for Active; 'I' for Inactive)
REMARK    1  A    between atoms: C3_4  and  O_7 
ROOT
ATOM      1  C   UNL d   1      -3.202   1.395   3.680  0.00  0.00    -0.033 A 
ATOM      2  C1  UNL d   1      -2.015   1.377   4.416  0.00  0.00     0.039 A 
ATOM      3  C2  UNL d   1      -0.783   1.376   3.758  0.00  0.00    -0.080 A 
ATOM      4  C3  UNL d   1      -0.753   1.394   2.366  0.00  0.00     0.150 A 
ATOM      5  C4  UNL d   1      -1.931   1.416   1.627  0.00  0.00    -0.007 A 
ATOM      6  C5  UNL d   1      -3.160   1.416   2.286  0.00  0.00     0.039 A 
ENDROOT
BRANCH   4   7
ATOM      7  O   UNL d   1       0.425   1.389   1.679  0.00  0.00    -0.526 OA
ATOM      8  H5  UNL d   1       1.155   1.344   2.320  0.00  0.00     0.418 HD
ENDBRANCH   4   7
TORSDOF 1
ENDMDL
