MODEL 1
REMARK minimizedAffinity 17.5534706
REMARK minimizedRMSD -1
REMARK  0 active torsions:
REMARK  status: ('A' for Active; 'I' for Inactive)
ROOT
ATOM      1  C2' OXE d   1       3.214  -5.388  -4.200  0.00  0.00     0.078 C 
ATOM      2  C1' OXE d   1       1.489  -5.844  -2.033  0.00  0.00     0.078 C 
ATOM      3  C1  OXE d   1       0.886  -5.795  -3.414  0.00  0.00    -0.078 A 
ATOM      4  C2  OXE d   1       1.730  -5.525  -4.464  0.00  0.00    -0.078 A 
ATOM      5  C3  OXE d   1       1.234  -5.523  -5.765  0.00  0.00     0.003 A 
ATOM      6  C4  OXE d   1      -0.141  -5.640  -5.999  0.00  0.00    -0.002 A 
ATOM      7  C5  OXE d   1      -1.024  -5.877  -4.940  0.00  0.00    -0.002 A 
ATOM      8  C6  OXE d   1      -0.523  -5.999  -3.649  0.00  0.00     0.003 A 
ENDROOT
TORSDOF 0
ENDMDL
