MODEL 1
REMARK minimizedAffinity 13.7488317
REMARK minimizedRMSD -1
REMARK  0 active torsions:
REMARK  status: ('A' for Active; 'I' for Inactive)
ROOT
ATOM      1  C2' OXE d   1       1.281   2.437   1.868  0.00  0.00     0.078 C 
ATOM      2  C1' OXE d   1       3.005   4.650   1.774  0.00  0.00     0.078 C 
ATOM      3  C1  OXE d   1       1.718   4.727   0.991  0.00  0.00    -0.078 A 
ATOM      4  C2  OXE d   1       0.902   3.621   1.005  0.00  0.00    -0.078 A 
ATOM      5  C3  OXE d   1      -0.322   3.659   0.345  0.00  0.00     0.003 A 
ATOM      6  C4  OXE d   1      -0.660   4.755  -0.459  0.00  0.00    -0.002 A 
ATOM      7  C5  OXE d   1       0.175   5.876  -0.519  0.00  0.00    -0.002 A 
ATOM      8  C6  OXE d   1       1.345   5.895   0.232  0.00  0.00     0.003 A 
ENDROOT
TORSDOF 0
ENDMDL
