MODEL 1
REMARK minimizedAffinity 15.7324657
REMARK minimizedRMSD -1
REMARK  0 active torsions:
REMARK  status: ('A' for Active; 'I' for Inactive)
ROOT
ATOM      1  C2' OXE d   1       5.446  -3.754  -4.808  0.00  0.00     0.078 C 
ATOM      2  C1' OXE d   1       4.126  -5.425  -2.979  0.00  0.00     0.078 C 
ATOM      3  C1  OXE d   1       4.759  -4.163  -2.449  0.00  0.00    -0.078 A 
ATOM      4  C2  OXE d   1       5.443  -3.375  -3.342  0.00  0.00    -0.078 A 
ATOM      5  C3  OXE d   1       5.999  -2.172  -2.916  0.00  0.00     0.003 A 
ATOM      6  C4  OXE d   1       6.000  -1.834  -1.557  0.00  0.00    -0.002 A 
ATOM      7  C5  OXE d   1       5.343  -2.643  -0.624  0.00  0.00    -0.002 A 
ATOM      8  C6  OXE d   1       4.682  -3.787  -1.059  0.00  0.00     0.003 A 
ENDROOT
TORSDOF 0
ENDMDL
