MODEL 1
REMARK minimizedAffinity 18.7067242
REMARK minimizedRMSD -1
REMARK  0 active torsions:
REMARK  status: ('A' for Active; 'I' for Inactive)
ROOT
ATOM      1  C2' OXE d   1      -0.210   2.925   0.629  0.00  0.00     0.078 C 
ATOM      2  C1' OXE d   1      -1.698   2.551   2.980  0.00  0.00     0.078 C 
ATOM      3  C1  OXE d   1      -2.105   1.767   1.758  0.00  0.00    -0.078 A 
ATOM      4  C2  OXE d   1      -1.401   1.991   0.599  0.00  0.00    -0.078 A 
ATOM      5  C3  OXE d   1      -1.700   1.254  -0.543  0.00  0.00     0.003 A 
ATOM      6  C4  OXE d   1      -2.809   0.399  -0.565  0.00  0.00    -0.002 A 
ATOM      7  C5  OXE d   1      -3.564   0.186   0.594  0.00  0.00    -0.002 A 
ATOM      8  C6  OXE d   1      -3.200   0.828   1.772  0.00  0.00     0.003 A 
ENDROOT
TORSDOF 0
ENDMDL
