MODEL 1
REMARK minimizedAffinity 17.5805836
REMARK minimizedRMSD -1
REMARK  0 active torsions:
REMARK  status: ('A' for Active; 'I' for Inactive)
ROOT
ATOM      1  C2' OXE d   1       5.873  -4.327  -0.400  0.00  0.00     0.078 C 
ATOM      2  C1' OXE d   1       6.000  -1.527  -0.236  0.00  0.00     0.078 C 
ATOM      3  C1  OXE d   1       5.933  -2.149  -1.608  0.00  0.00    -0.078 A 
ATOM      4  C2  OXE d   1       5.918  -3.521  -1.680  0.00  0.00    -0.078 A 
ATOM      5  C3  OXE d   1       5.801  -4.145  -2.919  0.00  0.00     0.003 A 
ATOM      6  C4  OXE d   1       5.853  -3.393  -4.099  0.00  0.00    -0.002 A 
ATOM      7  C5  OXE d   1       5.909  -1.997  -4.049  0.00  0.00    -0.002 A 
ATOM      8  C6  OXE d   1       5.906  -1.358  -2.814  0.00  0.00     0.003 A 
ENDROOT
TORSDOF 0
ENDMDL
