MODEL 1
REMARK minimizedAffinity 14.9799891
REMARK minimizedRMSD -1
REMARK  0 active torsions:
REMARK  status: ('A' for Active; 'I' for Inactive)
ROOT
ATOM      1  C2' OXE d   1      -2.331   2.237   0.323  0.00  0.00     0.078 C 
ATOM      2  C1' OXE d   1      -2.683   4.841  -0.667  0.00  0.00     0.078 C 
ATOM      3  C1  OXE d   1      -1.299   4.438  -0.224  0.00  0.00    -0.078 A 
ATOM      4  C2  OXE d   1      -1.145   3.178   0.303  0.00  0.00    -0.078 A 
ATOM      5  C3  OXE d   1       0.121   2.736   0.676  0.00  0.00     0.003 A 
ATOM      6  C4  OXE d   1       1.211   3.615   0.663  0.00  0.00    -0.002 A 
ATOM      7  C5  OXE d   1       1.068   4.916   0.168  0.00  0.00    -0.002 A 
ATOM      8  C6  OXE d   1      -0.168   5.328  -0.318  0.00  0.00     0.003 A 
ENDROOT
TORSDOF 0
ENDMDL
