MODEL 1
REMARK minimizedAffinity 10.1789398
REMARK minimizedRMSD -1
REMARK  0 active torsions:
REMARK  status: ('A' for Active; 'I' for Inactive)
ROOT
ATOM      1  C2' OXE d   1       5.637  -4.027  -0.326  0.00  0.00     0.078 C 
ATOM      2  C1' OXE d   1       5.990  -1.242  -0.343  0.00  0.00     0.078 C 
ATOM      3  C1  OXE d   1       5.919  -1.951  -1.673  0.00  0.00    -0.078 A 
ATOM      4  C2  OXE d   1       5.793  -3.319  -1.654  0.00  0.00    -0.078 A 
ATOM      5  C3  OXE d   1       5.668  -4.016  -2.853  0.00  0.00     0.003 A 
ATOM      6  C4  OXE d   1       5.823  -3.355  -4.077  0.00  0.00    -0.002 A 
ATOM      7  C5  OXE d   1       5.992  -1.967  -4.118  0.00  0.00    -0.002 A 
ATOM      8  C6  OXE d   1       6.000  -1.246  -2.929  0.00  0.00     0.003 A 
ENDROOT
TORSDOF 0
ENDMDL
