MODEL 1
REMARK minimizedAffinity 7.7290225
REMARK minimizedRMSD -1
REMARK  0 active torsions:
REMARK  status: ('A' for Active; 'I' for Inactive)
ROOT
ATOM      1  C2' OXE d   1       1.590  -0.574  -1.097  0.00  0.00     0.078 C 
ATOM      2  C1' OXE d   1      -1.167  -0.754  -1.595  0.00  0.00     0.078 C 
ATOM      3  C1  OXE d   1      -0.343  -2.010  -1.735  0.00  0.00    -0.078 A 
ATOM      4  C2  OXE d   1       1.012  -1.902  -1.535  0.00  0.00    -0.078 A 
ATOM      5  C3  OXE d   1       1.811  -3.041  -1.599  0.00  0.00     0.003 A 
ATOM      6  C4  OXE d   1       1.270  -4.263  -2.014  0.00  0.00    -0.002 A 
ATOM      7  C5  OXE d   1      -0.101  -4.386  -2.261  0.00  0.00    -0.002 A 
ATOM      8  C6  OXE d   1      -0.927  -3.281  -2.085  0.00  0.00     0.003 A 
ENDROOT
TORSDOF 0
ENDMDL
