MODEL 1
REMARK minimizedAffinity 16.9139252
REMARK minimizedRMSD -1
REMARK  0 active torsions:
REMARK  status: ('A' for Active; 'I' for Inactive)
ROOT
ATOM      1  C2' OXE d   1       0.749   5.115  -1.453  0.00  0.00     0.078 C 
ATOM      2  C1' OXE d   1      -1.743   5.809  -0.363  0.00  0.00     0.078 C 
ATOM      3  C1  OXE d   1      -0.982   4.680   0.285  0.00  0.00    -0.078 A 
ATOM      4  C2  OXE d   1       0.215   4.316  -0.283  0.00  0.00    -0.078 A 
ATOM      5  C3  OXE d   1       0.984   3.318   0.308  0.00  0.00     0.003 A 
ATOM      6  C4  OXE d   1       0.479   2.577   1.383  0.00  0.00    -0.002 A 
ATOM      7  C5  OXE d   1      -0.756   2.905   1.953  0.00  0.00    -0.002 A 
ATOM      8  C6  OXE d   1      -1.478   3.979   1.444  0.00  0.00     0.003 A 
ENDROOT
TORSDOF 0
ENDMDL
