MODEL 1
REMARK minimizedAffinity 4.71555424
REMARK minimizedRMSD -1
REMARK  0 active torsions:
REMARK  status: ('A' for Active; 'I' for Inactive)
ROOT
ATOM      1  C2' OXE d   1       5.259  -3.345  -4.432  0.00  0.00     0.078 C 
ATOM      2  C1' OXE d   1       3.638  -5.631  -4.262  0.00  0.00     0.078 C 
ATOM      3  C1  OXE d   1       4.442  -5.246  -3.045  0.00  0.00    -0.078 A 
ATOM      4  C2  OXE d   1       5.268  -4.153  -3.152  0.00  0.00    -0.078 A 
ATOM      5  C3  OXE d   1       5.989  -3.722  -2.043  0.00  0.00     0.003 A 
ATOM      6  C4  OXE d   1       6.000  -4.481  -0.866  0.00  0.00    -0.002 A 
ATOM      7  C5  OXE d   1       5.196  -5.620  -0.749  0.00  0.00    -0.002 A 
ATOM      8  C6  OXE d   1       4.380  -5.991  -1.812  0.00  0.00     0.003 A 
ENDROOT
TORSDOF 0
ENDMDL
