MODEL 1
REMARK minimizedAffinity -3.93467116
REMARK minimizedRMSD -1
REMARK  0 active torsions:
REMARK  status: ('A' for Active; 'I' for Inactive)
ROOT
ATOM      1  C2' OXE d   1       0.564  -1.771   0.125  0.00  0.00     0.078 C 
ATOM      2  C1' OXE d   1      -0.968   0.578  -0.005  0.00  0.00     0.078 C 
ATOM      3  C1  OXE d   1       0.173   0.427  -0.980  0.00  0.00    -0.078 A 
ATOM      4  C2  OXE d   1       0.946  -0.704  -0.878  0.00  0.00    -0.078 A 
ATOM      5  C3  OXE d   1       1.977  -0.919  -1.788  0.00  0.00     0.003 A 
ATOM      6  C4  OXE d   1       2.331   0.077  -2.706  0.00  0.00    -0.002 A 
ATOM      7  C5  OXE d   1       1.581   1.255  -2.800  0.00  0.00    -0.002 A 
ATOM      8  C6  OXE d   1       0.476   1.426  -1.974  0.00  0.00     0.003 A 
ENDROOT
TORSDOF 0
ENDMDL
