MODEL 1
REMARK minimizedAffinity -3.22883844
REMARK minimizedRMSD -1
REMARK  0 active torsions:
REMARK  status: ('A' for Active; 'I' for Inactive)
ROOT
ATOM      1  C2' OXE d   1      -1.096   0.350   0.215  0.00  0.00     0.078 C 
ATOM      2  C1' OXE d   1       0.146  -2.165   0.312  0.00  0.00     0.078 C 
ATOM      3  C1  OXE d   1       0.684  -1.152  -0.666  0.00  0.00    -0.078 A 
ATOM      4  C2  OXE d   1       0.041   0.060  -0.740  0.00  0.00    -0.078 A 
ATOM      5  C3  OXE d   1       0.531   1.050  -1.587  0.00  0.00     0.003 A 
ATOM      6  C4  OXE d   1       1.577   0.770  -2.475  0.00  0.00    -0.002 A 
ATOM      7  C5  OXE d   1       2.221  -0.472  -2.444  0.00  0.00    -0.002 A 
ATOM      8  C6  OXE d   1       1.815  -1.427  -1.518  0.00  0.00     0.003 A 
ENDROOT
TORSDOF 0
ENDMDL
