MODEL 1
REMARK minimizedAffinity -2.16608024
REMARK minimizedRMSD -1
REMARK  0 active torsions:
REMARK  status: ('A' for Active; 'I' for Inactive)
ROOT
ATOM      1  C2' OXE d   1      -2.375   0.410   1.397  0.00  0.00     0.078 C 
ATOM      2  C1' OXE d   1      -1.708   0.735   4.104  0.00  0.00     0.078 C 
ATOM      3  C1  OXE d   1      -2.815  -0.231   3.764  0.00  0.00    -0.078 A 
ATOM      4  C2  OXE d   1      -3.167  -0.348   2.440  0.00  0.00    -0.078 A 
ATOM      5  C3  OXE d   1      -4.145  -1.265   2.066  0.00  0.00     0.003 A 
ATOM      6  C4  OXE d   1      -4.879  -1.956   3.038  0.00  0.00    -0.002 A 
ATOM      7  C5  OXE d   1      -4.564  -1.820   4.394  0.00  0.00    -0.002 A 
ATOM      8  C6  OXE d   1      -3.509  -0.996   4.770  0.00  0.00     0.003 A 
ENDROOT
TORSDOF 0
ENDMDL
