MODEL 1
REMARK minimizedAffinity -2.61882472
REMARK minimizedRMSD -1
REMARK  0 active torsions:
REMARK  status: ('A' for Active; 'I' for Inactive)
ROOT
ATOM      1  C2' OXE d   1      -1.580  -0.144   0.983  0.00  0.00     0.078 C 
ATOM      2  C1' OXE d   1      -0.181  -2.569   0.782  0.00  0.00     0.078 C 
ATOM      3  C1  OXE d   1       0.243  -1.436  -0.118  0.00  0.00    -0.078 A 
ATOM      4  C2  OXE d   1      -0.478  -0.268  -0.046  0.00  0.00    -0.078 A 
ATOM      5  C3  OXE d   1      -0.094   0.827  -0.815  0.00  0.00     0.003 A 
ATOM      6  C4  OXE d   1       0.920   0.701  -1.772  0.00  0.00    -0.002 A 
ATOM      7  C5  OXE d   1       1.641  -0.492  -1.890  0.00  0.00    -0.002 A 
ATOM      8  C6  OXE d   1       1.343  -1.554  -1.043  0.00  0.00     0.003 A 
ENDROOT
TORSDOF 0
ENDMDL
