MODEL 1
REMARK minimizedAffinity -3.87495923
REMARK minimizedRMSD -1
REMARK  0 active torsions:
REMARK  status: ('A' for Active; 'I' for Inactive)
ROOT
ATOM      1  C2' OXE d   1       2.424  -0.882  -0.801  0.00  0.00     0.078 C 
ATOM      2  C1' OXE d   1       1.321   1.699  -0.845  0.00  0.00     0.078 C 
ATOM      3  C1  OXE d   1       0.415   0.553  -0.470  0.00  0.00    -0.078 A 
ATOM      4  C2  OXE d   1       0.951  -0.712  -0.496  0.00  0.00    -0.078 A 
ATOM      5  C3  OXE d   1       0.173  -1.798  -0.105  0.00  0.00     0.003 A 
ATOM      6  C4  OXE d   1      -1.190  -1.633   0.165  0.00  0.00    -0.002 A 
ATOM      7  C5  OXE d   1      -1.766  -0.358   0.159  0.00  0.00    -0.002 A 
ATOM      8  C6  OXE d   1      -0.969   0.748  -0.114  0.00  0.00     0.003 A 
ENDROOT
TORSDOF 0
ENDMDL
