MODEL 1
REMARK minimizedAffinity -5.10817051
REMARK minimizedRMSD -1
REMARK  0 active torsions:
REMARK  status: ('A' for Active; 'I' for Inactive)
ROOT
ATOM      1  C2' OXE d   1      -1.195   0.322   0.357  0.00  0.00     0.078 C 
ATOM      2  C1' OXE d   1      -1.032  -2.406  -0.285  0.00  0.00     0.078 C 
ATOM      3  C1  OXE d   1       0.199  -1.559  -0.492  0.00  0.00    -0.078 A 
ATOM      4  C2  OXE d   1       0.097  -0.217  -0.219  0.00  0.00    -0.078 A 
ATOM      5  C3  OXE d   1       1.218   0.599  -0.341  0.00  0.00     0.003 A 
ATOM      6  C4  OXE d   1       2.406   0.095  -0.884  0.00  0.00    -0.002 A 
ATOM      7  C5  OXE d   1       2.520  -1.261  -1.205  0.00  0.00    -0.002 A 
ATOM      8  C6  OXE d   1       1.442  -2.109  -0.976  0.00  0.00     0.003 A 
ENDROOT
TORSDOF 0
ENDMDL
