MODEL 1
REMARK minimizedAffinity -5.9671011
REMARK minimizedRMSD -1
REMARK  0 active torsions:
REMARK  status: ('A' for Active; 'I' for Inactive)
ROOT
ATOM      1  C2' OXE d   1       3.390   0.023  -1.243  0.00  0.00     0.078 C 
ATOM      2  C1' OXE d   1       1.715  -2.039  -0.335  0.00  0.00     0.078 C 
ATOM      3  C1  OXE d   1       1.148  -0.642  -0.383  0.00  0.00    -0.078 A 
ATOM      4  C2  OXE d   1       1.989   0.368  -0.784  0.00  0.00    -0.078 A 
ATOM      5  C3  OXE d   1       1.502   1.667  -0.898  0.00  0.00     0.003 A 
ATOM      6  C4  OXE d   1       0.208   1.979  -0.462  0.00  0.00    -0.002 A 
ATOM      7  C5  OXE d   1      -0.652   0.972  -0.013  0.00  0.00    -0.002 A 
ATOM      8  C6  OXE d   1      -0.213  -0.347  -0.007  0.00  0.00     0.003 A 
ENDROOT
TORSDOF 0
ENDMDL
