MODEL 1
REMARK minimizedAffinity -5.19865322
REMARK minimizedRMSD -1
REMARK  0 active torsions:
REMARK  status: ('A' for Active; 'I' for Inactive)
ROOT
ATOM      1  C2' OXE d   1       0.405  -1.479  -0.013  0.00  0.00     0.078 C 
ATOM      2  C1' OXE d   1      -0.594   1.106  -0.462  0.00  0.00     0.078 C 
ATOM      3  C1  OXE d   1       0.717   0.736  -1.110  0.00  0.00    -0.078 A 
ATOM      4  C2  OXE d   1       1.222  -0.515  -0.846  0.00  0.00    -0.078 A 
ATOM      5  C3  OXE d   1       2.400  -0.926  -1.462  0.00  0.00     0.003 A 
ATOM      6  C4  OXE d   1       3.155  -0.025  -2.223  0.00  0.00    -0.002 A 
ATOM      7  C5  OXE d   1       2.679   1.267  -2.471  0.00  0.00    -0.002 A 
ATOM      8  C6  OXE d   1       1.444   1.648  -1.958  0.00  0.00     0.003 A 
ENDROOT
TORSDOF 0
ENDMDL
