MODEL 1
REMARK minimizedAffinity -5.52075815
REMARK minimizedRMSD -1
REMARK  0 active torsions:
REMARK  status: ('A' for Active; 'I' for Inactive)
ROOT
ATOM      1  C2' OXE d   1       0.338  -1.938   0.476  0.00  0.00     0.078 C 
ATOM      2  C1' OXE d   1      -1.120   0.433   0.110  0.00  0.00     0.078 C 
ATOM      3  C1  OXE d   1       0.219   0.317  -0.576  0.00  0.00    -0.078 A 
ATOM      4  C2  OXE d   1       0.946  -0.828  -0.353  0.00  0.00    -0.078 A 
ATOM      5  C3  OXE d   1       2.162  -1.009  -1.005  0.00  0.00     0.003 A 
ATOM      6  C4  OXE d   1       2.722   0.027  -1.762  0.00  0.00    -0.002 A 
ATOM      7  C5  OXE d   1       2.016   1.216  -1.969  0.00  0.00    -0.002 A 
ATOM      8  C6  OXE d   1       0.747   1.360  -1.419  0.00  0.00     0.003 A 
ENDROOT
TORSDOF 0
ENDMDL
