MODEL 1
REMARK minimizedAffinity -4.57804918
REMARK minimizedRMSD -1
REMARK  0 active torsions:
REMARK  status: ('A' for Active; 'I' for Inactive)
ROOT
ATOM      1  C2' OXE d   1       2.602  -0.119  -1.222  0.00  0.00     0.078 C 
ATOM      2  C1' OXE d   1       1.353   2.394  -1.296  0.00  0.00     0.078 C 
ATOM      3  C1  OXE d   1       0.528   1.210  -0.857  0.00  0.00    -0.078 A 
ATOM      4  C2  OXE d   1       1.134  -0.023  -0.869  0.00  0.00    -0.078 A 
ATOM      5  C3  OXE d   1       0.434  -1.139  -0.421  0.00  0.00     0.003 A 
ATOM      6  C4  OXE d   1      -0.927  -1.043  -0.106  0.00  0.00    -0.002 A 
ATOM      7  C5  OXE d   1      -1.575   0.197  -0.125  0.00  0.00    -0.002 A 
ATOM      8  C6  OXE d   1      -0.852   1.338  -0.457  0.00  0.00     0.003 A 
ENDROOT
TORSDOF 0
ENDMDL
