MODEL 1
REMARK minimizedAffinity -4.45909929
REMARK minimizedRMSD -1
REMARK  0 active torsions:
REMARK  status: ('A' for Active; 'I' for Inactive)
ROOT
ATOM      1  C2' OXE d   1       1.491   1.787  -1.130  0.00  0.00     0.078 C 
ATOM      2  C1' OXE d   1       1.782  -0.993  -1.390  0.00  0.00     0.078 C 
ATOM      3  C1  OXE d   1       0.634  -0.481  -0.556  0.00  0.00    -0.078 A 
ATOM      4  C2  OXE d   1       0.527   0.880  -0.396  0.00  0.00    -0.078 A 
ATOM      5  C3  OXE d   1      -0.545   1.408   0.319  0.00  0.00     0.003 A 
ATOM      6  C4  OXE d   1      -1.426   0.562   1.003  0.00  0.00    -0.002 A 
ATOM      7  C5  OXE d   1      -1.311  -0.828   0.886  0.00  0.00    -0.002 A 
ATOM      8  C6  OXE d   1      -0.314  -1.363   0.078  0.00  0.00     0.003 A 
ENDROOT
TORSDOF 0
ENDMDL
