MODEL 1
REMARK minimizedAffinity -4.4823308
REMARK minimizedRMSD -1
REMARK  0 active torsions:
REMARK  status: ('A' for Active; 'I' for Inactive)
ROOT
ATOM      1  C2' OXE d   1      -0.252  -2.385  -0.122  0.00  0.00     0.078 C 
ATOM      2  C1' OXE d   1      -1.185   0.238   0.234  0.00  0.00     0.078 C 
ATOM      3  C1  OXE d   1       0.256   0.053  -0.173  0.00  0.00    -0.078 A 
ATOM      4  C2  OXE d   1       0.716  -1.236  -0.299  0.00  0.00    -0.078 A 
ATOM      5  C3  OXE d   1       2.022  -1.462  -0.725  0.00  0.00     0.003 A 
ATOM      6  C4  OXE d   1       2.914  -0.394  -0.877  0.00  0.00    -0.002 A 
ATOM      7  C5  OXE d   1       2.476   0.925  -0.715  0.00  0.00    -0.002 A 
ATOM      8  C6  OXE d   1       1.142   1.167  -0.405  0.00  0.00     0.003 A 
ENDROOT
TORSDOF 0
ENDMDL
