MODEL 1
REMARK minimizedAffinity -5.95336008
REMARK minimizedRMSD -1
REMARK  0 active torsions:
REMARK  status: ('A' for Active; 'I' for Inactive)
ROOT
ATOM      1  C2' OXE d   1      -0.553  -0.107  -0.028  0.00  0.00     0.078 C 
ATOM      2  C1' OXE d   1       1.594  -1.910  -0.160  0.00  0.00     0.078 C 
ATOM      3  C1  OXE d   1       1.668  -0.665  -1.007  0.00  0.00    -0.078 A 
ATOM      4  C2  OXE d   1       0.592   0.189  -0.972  0.00  0.00    -0.078 A 
ATOM      5  C3  OXE d   1       0.632   1.379  -1.692  0.00  0.00     0.003 A 
ATOM      6  C4  OXE d   1       1.691   1.641  -2.570  0.00  0.00    -0.002 A 
ATOM      7  C5  OXE d   1       2.779   0.765  -2.652  0.00  0.00    -0.002 A 
ATOM      8  C6  OXE d   1       2.803  -0.369  -1.847  0.00  0.00     0.003 A 
ENDROOT
TORSDOF 0
ENDMDL
