MODEL 1
REMARK minimizedAffinity -2.04150128
REMARK minimizedRMSD -1
REMARK  0 active torsions:
REMARK  status: ('A' for Active; 'I' for Inactive)
ROOT
ATOM      1  C2' OXE d   1       1.538   2.663  -1.663  0.00  0.00     0.078 C 
ATOM      2  C1' OXE d   1       2.545   0.201  -0.765  0.00  0.00     0.078 C 
ATOM      3  C1  OXE d   1       1.054   0.420  -0.693  0.00  0.00    -0.078 A 
ATOM      4  C2  OXE d   1       0.575   1.645  -1.091  0.00  0.00    -0.078 A 
ATOM      5  C3  OXE d   1      -0.797   1.880  -1.097  0.00  0.00     0.003 A 
ATOM      6  C4  OXE d   1      -1.680   0.937  -0.556  0.00  0.00    -0.002 A 
ATOM      7  C5  OXE d   1      -1.209  -0.302  -0.109  0.00  0.00    -0.002 A 
ATOM      8  C6  OXE d   1       0.148  -0.592  -0.209  0.00  0.00     0.003 A 
ENDROOT
TORSDOF 0
ENDMDL
