MODEL 1
REMARK minimizedAffinity -4.24916458
REMARK minimizedRMSD -1
REMARK  0 active torsions:
REMARK  status: ('A' for Active; 'I' for Inactive)
ROOT
ATOM      1  C2' OXE d   1       0.013  -1.704   0.187  0.00  0.00     0.078 C 
ATOM      2  C1' OXE d   1      -0.096   1.100   0.249  0.00  0.00     0.078 C 
ATOM      3  C1  OXE d   1       0.950   0.456  -0.627  0.00  0.00    -0.078 A 
ATOM      4  C2  OXE d   1       1.026  -0.916  -0.615  0.00  0.00    -0.078 A 
ATOM      5  C3  OXE d   1       1.936  -1.563  -1.447  0.00  0.00     0.003 A 
ATOM      6  C4  OXE d   1       2.876  -0.826  -2.178  0.00  0.00    -0.002 A 
ATOM      7  C5  OXE d   1       2.841   0.572  -2.172  0.00  0.00    -0.002 A 
ATOM      8  C6  OXE d   1       1.859   1.227  -1.437  0.00  0.00     0.003 A 
ENDROOT
TORSDOF 0
ENDMDL
