MODEL 1
REMARK minimizedAffinity -3.78254223
REMARK minimizedRMSD -1
REMARK  0 active torsions:
REMARK  status: ('A' for Active; 'I' for Inactive)
ROOT
ATOM      1  C2' OXE d   1      -0.740   0.376   1.033  0.00  0.00     0.078 C 
ATOM      2  C1' OXE d   1      -0.311   1.558  -1.477  0.00  0.00     0.078 C 
ATOM      3  C1  OXE d   1       0.781   0.682  -0.916  0.00  0.00    -0.078 A 
ATOM      4  C2  OXE d   1       0.582   0.146   0.333  0.00  0.00    -0.078 A 
ATOM      5  C3  OXE d   1       1.534  -0.714   0.874  0.00  0.00     0.003 A 
ATOM      6  C4  OXE d   1       2.759  -0.913   0.225  0.00  0.00    -0.002 A 
ATOM      7  C5  OXE d   1       2.998  -0.344  -1.030  0.00  0.00    -0.002 A 
ATOM      8  C6  OXE d   1       2.005   0.420  -1.632  0.00  0.00     0.003 A 
ENDROOT
TORSDOF 0
ENDMDL
