MODEL 1
REMARK minimizedAffinity -6.2210722
REMARK minimizedRMSD -1
REMARK  0 active torsions:
REMARK  status: ('A' for Active; 'I' for Inactive)
ROOT
ATOM      1  C2' OXE d   1       0.705   2.327  -1.691  0.00  0.00     0.078 C 
ATOM      2  C1' OXE d   1       2.726   0.423  -2.100  0.00  0.00     0.078 C 
ATOM      3  C1  OXE d   1       1.509  -0.000  -1.316  0.00  0.00    -0.078 A 
ATOM      4  C2  OXE d   1       0.546   0.952  -1.081  0.00  0.00    -0.078 A 
ATOM      5  C3  OXE d   1      -0.621   0.600  -0.410  0.00  0.00     0.003 A 
ATOM      6  C4  OXE d   1      -0.756  -0.672   0.160  0.00  0.00    -0.002 A 
ATOM      7  C5  OXE d   1       0.231  -1.645  -0.034  0.00  0.00    -0.002 A 
ATOM      8  C6  OXE d   1       1.347  -1.339  -0.804  0.00  0.00     0.003 A 
ENDROOT
TORSDOF 0
ENDMDL
