MODEL 1
REMARK minimizedAffinity -4.4951396
REMARK minimizedRMSD -1
REMARK  0 active torsions:
REMARK  status: ('A' for Active; 'I' for Inactive)
ROOT
ATOM      1  C2' OXE d   1      -0.773  -2.362  -0.210  0.00  0.00     0.078 C 
ATOM      2  C1' OXE d   1      -1.337   0.330   0.348  0.00  0.00     0.078 C 
ATOM      3  C1  OXE d   1       0.047  -0.011  -0.144  0.00  0.00    -0.078 A 
ATOM      4  C2  OXE d   1       0.329  -1.337  -0.370  0.00  0.00    -0.078 A 
ATOM      5  C3  OXE d   1       1.573  -1.701  -0.876  0.00  0.00     0.003 A 
ATOM      6  C4  OXE d   1       2.590  -0.748  -1.011  0.00  0.00    -0.002 A 
ATOM      7  C5  OXE d   1       2.336   0.602  -0.748  0.00  0.00    -0.002 A 
ATOM      8  C6  OXE d   1       1.061   0.993  -0.356  0.00  0.00     0.003 A 
ENDROOT
TORSDOF 0
ENDMDL
