MODEL 1
REMARK minimizedAffinity 2.01928949
REMARK minimizedRMSD -1
REMARK  2 active torsions:
REMARK  status: ('A' for Active; 'I' for Inactive)
REMARK    1  A    between atoms: C2'_3  and  C1'_4 
REMARK    2  A    between atoms: C1'_4  and  C1_5 
ROOT
ATOM      1  C1  I4B d   1       5.353   4.988  -4.139  0.00  0.00    -0.075 A 
ATOM      2  C2  I4B d   1       4.298   5.352  -4.939  0.00  0.00     0.003 A 
ATOM      3  C3  I4B d   1       3.752   4.428  -5.862  0.00  0.00     0.002 A 
ATOM      4  C4  I4B d   1       4.319   3.176  -5.988  0.00  0.00    -0.004 A 
ATOM      5  C5  I4B d   1       5.374   2.801  -5.160  0.00  0.00     0.002 A 
ATOM      6  C6  I4B d   1       5.886   3.708  -4.221  0.00  0.00     0.003 A 
ENDROOT
BRANCH   1   7
ATOM      7  C1' I4B d   1       5.927   5.999  -3.198  0.00  0.00     0.060 C 
BRANCH   7   8
ATOM      8  C2' I4B d   1       5.141   5.932  -1.905  0.00  0.00    -0.013 C 
ATOM      9  C4' I4B d   1       3.841   5.195  -2.094  0.00  0.00     0.013 C 
ATOM     10  C3' I4B d   1       6.000   5.259  -0.876  0.00  0.00     0.013 C 
ENDBRANCH   7   8
ENDBRANCH   1   7
TORSDOF 2
ENDMDL
