MODEL 1
REMARK minimizedAffinity 7.01309204
REMARK minimizedRMSD -1
REMARK  2 active torsions:
REMARK  status: ('A' for Active; 'I' for Inactive)
REMARK    1  A    between atoms: C2'_3  and  C1'_4 
REMARK    2  A    between atoms: C1'_4  and  C1_5 
ROOT
ATOM      1  C1  I4B d   1       5.112   5.446  -3.599  0.00  0.00    -0.075 A 
ATOM      2  C2  I4B d   1       5.925   5.812  -2.556  0.00  0.00     0.003 A 
ATOM      3  C3  I4B d   1       5.384   6.000  -1.261  0.00  0.00     0.002 A 
ATOM      4  C4  I4B d   1       4.025   5.862  -1.067  0.00  0.00    -0.004 A 
ATOM      5  C5  I4B d   1       3.205   5.468  -2.120  0.00  0.00     0.002 A 
ATOM      6  C6  I4B d   1       3.753   5.247  -3.392  0.00  0.00     0.003 A 
ENDROOT
BRANCH   1   7
ATOM      7  C1' I4B d   1       5.711   5.288  -4.960  0.00  0.00     0.060 C 
BRANCH   7   8
ATOM      8  C2' I4B d   1       5.835   3.805  -5.247  0.00  0.00    -0.013 C 
ATOM      9  C4' I4B d   1       5.999   3.016  -3.975  0.00  0.00     0.013 C 
ATOM     10  C3' I4B d   1       4.609   3.375  -5.997  0.00  0.00     0.013 C 
ENDBRANCH   7   8
ENDBRANCH   1   7
TORSDOF 2
ENDMDL
