MODEL 1
REMARK minimizedAffinity 5.94412565
REMARK minimizedRMSD -1
REMARK  2 active torsions:
REMARK  status: ('A' for Active; 'I' for Inactive)
REMARK    1  A    between atoms: C2'_3  and  C1'_4 
REMARK    2  A    between atoms: C1'_4  and  C1_5 
ROOT
ATOM      1  C1  I4B d   1       4.543  -2.138   5.274  0.00  0.00    -0.075 A 
ATOM      2  C2  I4B d   1       4.428  -2.284   3.914  0.00  0.00     0.003 A 
ATOM      3  C3  I4B d   1       3.278  -1.807   3.240  0.00  0.00     0.002 A 
ATOM      4  C4  I4B d   1       2.251  -1.239   3.967  0.00  0.00    -0.004 A 
ATOM      5  C5  I4B d   1       2.380  -1.070   5.342  0.00  0.00     0.002 A 
ATOM      6  C6  I4B d   1       3.538  -1.511   5.999  0.00  0.00     0.003 A 
ENDROOT
BRANCH   1   7
ATOM      7  C1' I4B d   1       5.756  -2.683   5.957  0.00  0.00     0.060 C 
BRANCH   7   8
ATOM      8  C2' I4B d   1       5.953  -4.111   5.491  0.00  0.00    -0.013 C 
ATOM      9  C4' I4B d   1       4.854  -5.007   6.000  0.00  0.00     0.013 C 
ATOM     10  C3' I4B d   1       5.998  -4.107   3.992  0.00  0.00     0.013 C 
ENDBRANCH   7   8
ENDBRANCH   1   7
TORSDOF 2
ENDMDL
