MODEL 1
REMARK minimizedAffinity 17.2767448
REMARK minimizedRMSD -1
REMARK  2 active torsions:
REMARK  status: ('A' for Active; 'I' for Inactive)
REMARK    1  A    between atoms: C2'_3  and  C1'_4 
REMARK    2  A    between atoms: C1'_4  and  C1_5 
ROOT
ATOM      1  C1  I4B d   1      -4.502  -4.483  -0.971  0.00  0.00    -0.075 A 
ATOM      2  C2  I4B d   1      -4.824  -4.497   0.364  0.00  0.00     0.003 A 
ATOM      3  C3  I4B d   1      -4.783  -3.300   1.119  0.00  0.00     0.002 A 
ATOM      4  C4  I4B d   1      -4.370  -2.130   0.516  0.00  0.00    -0.004 A 
ATOM      5  C5  I4B d   1      -4.067  -2.113  -0.842  0.00  0.00     0.002 A 
ATOM      6  C6  I4B d   1      -4.145  -3.295  -1.594  0.00  0.00     0.003 A 
ENDROOT
BRANCH   1   7
ATOM      7  C1' I4B d   1      -4.524  -5.772  -1.730  0.00  0.00     0.060 C 
BRANCH   7   8
ATOM      8  C2' I4B d   1      -4.635  -5.442  -3.205  0.00  0.00    -0.013 C 
ATOM      9  C4' I4B d   1      -3.469  -5.999  -3.978  0.00  0.00     0.013 C 
ATOM     10  C3' I4B d   1      -5.934  -5.999  -3.707  0.00  0.00     0.013 C 
ENDBRANCH   7   8
ENDBRANCH   1   7
TORSDOF 2
ENDMDL
