MODEL 1
REMARK minimizedAffinity 4.6101141
REMARK minimizedRMSD -1
REMARK  2 active torsions:
REMARK  status: ('A' for Active; 'I' for Inactive)
REMARK    1  A    between atoms: C2'_3  and  C1'_4 
REMARK    2  A    between atoms: C1'_4  and  C1_5 
ROOT
ATOM      1  C1  I4B d   1       4.579   4.903  -3.648  0.00  0.00    -0.075 A 
ATOM      2  C2  I4B d   1       4.591   3.643  -4.193  0.00  0.00     0.003 A 
ATOM      3  C3  I4B d   1       5.329   3.384  -5.374  0.00  0.00     0.002 A 
ATOM      4  C4  I4B d   1       5.994   4.419  -6.000  0.00  0.00    -0.004 A 
ATOM      5  C5  I4B d   1       6.000   5.690  -5.433  0.00  0.00     0.002 A 
ATOM      6  C6  I4B d   1       5.298   5.932  -4.243  0.00  0.00     0.003 A 
ENDROOT
BRANCH   1   7
ATOM      7  C1' I4B d   1       3.762   5.149  -2.419  0.00  0.00     0.060 C 
BRANCH   7   8
ATOM      8  C2' I4B d   1       4.697   5.134  -1.227  0.00  0.00    -0.013 C 
ATOM      9  C4' I4B d   1       6.000   5.818  -1.547  0.00  0.00     0.013 C 
ATOM     10  C3' I4B d   1       3.999   5.807  -0.083  0.00  0.00     0.013 C 
ENDBRANCH   7   8
ENDBRANCH   1   7
TORSDOF 2
ENDMDL
