MODEL 1
REMARK minimizedAffinity 1.66762924
REMARK minimizedRMSD -1
REMARK  2 active torsions:
REMARK  status: ('A' for Active; 'I' for Inactive)
REMARK    1  A    between atoms: C2'_3  and  C1'_4 
REMARK    2  A    between atoms: C1'_4  and  C1_5 
ROOT
ATOM      1  C1  I4B d   1       4.312  -2.985   5.967  0.00  0.00    -0.075 A 
ATOM      2  C2  I4B d   1       3.328  -3.942   5.974  0.00  0.00     0.003 A 
ATOM      3  C3  I4B d   1       3.670  -5.316   5.997  0.00  0.00     0.002 A 
ATOM      4  C4  I4B d   1       4.998  -5.687   5.961  0.00  0.00    -0.004 A 
ATOM      5  C5  I4B d   1       5.995  -4.715   5.977  0.00  0.00     0.002 A 
ATOM      6  C6  I4B d   1       5.651  -3.356   5.992  0.00  0.00     0.003 A 
ENDROOT
BRANCH   1   7
ATOM      7  C1' I4B d   1       3.916  -1.544   5.909  0.00  0.00     0.060 C 
BRANCH   7   8
ATOM      8  C2' I4B d   1       2.601  -1.451   5.163  0.00  0.00    -0.013 C 
ATOM      9  C4' I4B d   1       1.672  -0.463   5.818  0.00  0.00     0.013 C 
ATOM     10  C3' I4B d   1       2.898  -1.059   3.747  0.00  0.00     0.013 C 
ENDBRANCH   7   8
ENDBRANCH   1   7
TORSDOF 2
ENDMDL
