MODEL 1
REMARK minimizedAffinity 4.1424942
REMARK minimizedRMSD -1
REMARK  2 active torsions:
REMARK  status: ('A' for Active; 'I' for Inactive)
REMARK    1  A    between atoms: C2'_3  and  C1'_4 
REMARK    2  A    between atoms: C1'_4  and  C1_5 
ROOT
ATOM      1  C1  I4B d   1       4.611  -2.755   5.246  0.00  0.00    -0.075 A 
ATOM      2  C2  I4B d   1       3.769  -1.975   6.000  0.00  0.00     0.003 A 
ATOM      3  C3  I4B d   1       2.640  -1.363   5.403  0.00  0.00     0.002 A 
ATOM      4  C4  I4B d   1       2.421  -1.515   4.049  0.00  0.00    -0.004 A 
ATOM      5  C5  I4B d   1       3.263  -2.324   3.292  0.00  0.00     0.002 A 
ATOM      6  C6  I4B d   1       4.358  -2.959   3.896  0.00  0.00     0.003 A 
ENDROOT
BRANCH   1   7
ATOM      7  C1' I4B d   1       5.812  -3.360   5.902  0.00  0.00     0.060 C 
BRANCH   7   8
ATOM      8  C2' I4B d   1       5.873  -4.822   5.507  0.00  0.00    -0.013 C 
ATOM      9  C4' I4B d   1       4.661  -5.570   5.998  0.00  0.00     0.013 C 
ATOM     10  C3' I4B d   1       5.985  -4.894   4.013  0.00  0.00     0.013 C 
ENDBRANCH   7   8
ENDBRANCH   1   7
TORSDOF 2
ENDMDL
