MODEL 1
REMARK minimizedAffinity -1.68187153
REMARK minimizedRMSD -1
REMARK  2 active torsions:
REMARK  status: ('A' for Active; 'I' for Inactive)
REMARK    1  A    between atoms: C2'_3  and  C1'_4 
REMARK    2  A    between atoms: C1'_4  and  C1_5 
ROOT
ATOM      1  C1  I4B d   1       4.858  -3.143   4.639  0.00  0.00    -0.075 A 
ATOM      2  C2  I4B d   1       3.832  -4.018   4.385  0.00  0.00     0.003 A 
ATOM      3  C3  I4B d   1       3.870  -5.333   4.910  0.00  0.00     0.002 A 
ATOM      4  C4  I4B d   1       4.970  -5.743   5.636  0.00  0.00    -0.004 A 
ATOM      5  C5  I4B d   1       5.999  -4.847   5.911  0.00  0.00     0.002 A 
ATOM      6  C6  I4B d   1       5.938  -3.535   5.420  0.00  0.00     0.003 A 
ENDROOT
BRANCH   1   7
ATOM      7  C1' I4B d   1       4.801  -1.773   4.041  0.00  0.00     0.060 C 
BRANCH   7   8
ATOM      8  C2' I4B d   1       4.552  -0.785   5.162  0.00  0.00    -0.013 C 
ATOM      9  C4' I4B d   1       3.362  -1.189   5.991  0.00  0.00     0.013 C 
ATOM     10  C3' I4B d   1       5.795  -0.711   5.999  0.00  0.00     0.013 C 
ENDBRANCH   7   8
ENDBRANCH   1   7
TORSDOF 2
ENDMDL
