MODEL 1
REMARK minimizedAffinity 10.6336212
REMARK minimizedRMSD -1
REMARK  2 active torsions:
REMARK  status: ('A' for Active; 'I' for Inactive)
REMARK    1  A    between atoms: C2'_3  and  C1'_4 
REMARK    2  A    between atoms: C1'_4  and  C1_5 
ROOT
ATOM      1  C1  I4B d   1       4.479   5.271  -3.088  0.00  0.00    -0.075 A 
ATOM      2  C2  I4B d   1       3.729   5.691  -4.158  0.00  0.00     0.003 A 
ATOM      3  C3  I4B d   1       2.357   5.999  -3.990  0.00  0.00     0.002 A 
ATOM      4  C4  I4B d   1       1.768   5.825  -2.754  0.00  0.00    -0.004 A 
ATOM      5  C5  I4B d   1       2.535   5.421  -1.665  0.00  0.00     0.002 A 
ATOM      6  C6  I4B d   1       3.902   5.153  -1.830  0.00  0.00     0.003 A 
ENDROOT
BRANCH   1   7
ATOM      7  C1' I4B d   1       5.917   4.922  -3.308  0.00  0.00     0.060 C 
BRANCH   7   8
ATOM      8  C2' I4B d   1       5.998   4.023  -4.525  0.00  0.00    -0.013 C 
ATOM      9  C4' I4B d   1       4.855   3.043  -4.556  0.00  0.00     0.013 C 
ATOM     10  C3' I4B d   1       5.998   4.894  -5.745  0.00  0.00     0.013 C 
ENDBRANCH   7   8
ENDBRANCH   1   7
TORSDOF 2
ENDMDL
