MODEL 1
REMARK minimizedAffinity 9.9697876
REMARK minimizedRMSD -1
REMARK  2 active torsions:
REMARK  status: ('A' for Active; 'I' for Inactive)
REMARK    1  A    between atoms: C2'_3  and  C1'_4 
REMARK    2  A    between atoms: C1'_4  and  C1_5 
ROOT
ATOM      1  C1  I4B d   1       3.655  -2.722   3.476  0.00  0.00    -0.075 A 
ATOM      2  C2  I4B d   1       4.618  -3.655   3.768  0.00  0.00     0.003 A 
ATOM      3  C3  I4B d   1       5.220  -3.681   5.050  0.00  0.00     0.002 A 
ATOM      4  C4  I4B d   1       4.867  -2.731   5.986  0.00  0.00    -0.004 A 
ATOM      5  C5  I4B d   1       3.873  -1.800   5.696  0.00  0.00     0.002 A 
ATOM      6  C6  I4B d   1       3.255  -1.802   4.437  0.00  0.00     0.003 A 
ENDROOT
BRANCH   1   7
ATOM      7  C1' I4B d   1       3.064  -2.701   2.102  0.00  0.00     0.060 C 
BRANCH   7   8
ATOM      8  C2' I4B d   1       3.820  -1.674   1.284  0.00  0.00    -0.013 C 
ATOM      9  C4' I4B d   1       4.300  -2.259  -0.018  0.00  0.00     0.013 C 
ATOM     10  C3' I4B d   1       2.907  -0.507   1.049  0.00  0.00     0.013 C 
ENDBRANCH   7   8
ENDBRANCH   1   7
TORSDOF 2
ENDMDL
