MODEL 1
REMARK minimizedAffinity 13.5292578
REMARK minimizedRMSD -1
REMARK  2 active torsions:
REMARK  status: ('A' for Active; 'I' for Inactive)
REMARK    1  A    between atoms: C2'_3  and  C1'_4 
REMARK    2  A    between atoms: C1'_4  and  C1_5 
ROOT
ATOM      1  C1  I4B d   1       3.648  -2.569   3.813  0.00  0.00    -0.075 A 
ATOM      2  C2  I4B d   1       4.561  -3.594   3.822  0.00  0.00     0.003 A 
ATOM      3  C3  I4B d   1       5.409  -3.784   4.940  0.00  0.00     0.002 A 
ATOM      4  C4  I4B d   1       5.344  -2.902   6.000  0.00  0.00    -0.004 A 
ATOM      5  C5  I4B d   1       4.401  -1.878   5.999  0.00  0.00     0.002 A 
ATOM      6  C6  I4B d   1       3.539  -1.718   4.905  0.00  0.00     0.003 A 
ENDROOT
BRANCH   1   7
ATOM      7  C1' I4B d   1       2.791  -2.378   2.602  0.00  0.00     0.060 C 
BRANCH   7   8
ATOM      8  C2' I4B d   1       3.411  -1.280   1.761  0.00  0.00    -0.013 C 
ATOM      9  C4' I4B d   1       4.036  -1.838   0.510  0.00  0.00     0.013 C 
ATOM     10  C3' I4B d   1       2.337  -0.286   1.433  0.00  0.00     0.013 C 
ENDBRANCH   7   8
ENDBRANCH   1   7
TORSDOF 2
ENDMDL
