MODEL 1
REMARK minimizedAffinity -4.65477896
REMARK minimizedRMSD -1
REMARK  0 active torsions:
REMARK  status: ('A' for Active; 'I' for Inactive)
ROOT
ATOM      1  C   UNL d   1      -1.873  -1.847   1.935  0.00  0.00     0.124 A 
ATOM      2  C1  UNL d   1      -2.553  -0.681   1.611  0.00  0.00     0.062 A 
ATOM      3  C2  UNL d   1      -1.931   0.303   0.848  0.00  0.00     0.162 A 
ATOM      4  C3  UNL d   1      -0.621   0.125   0.403  0.00  0.00    -0.034 A 
ATOM      5  C4  UNL d   1       0.056  -1.050   0.733  0.00  0.00     0.162 A 
ATOM      6  C5  UNL d   1      -0.570  -2.031   1.496  0.00  0.00     0.062 A 
ATOM      7  F   UNL d   1       0.089  -3.156   1.808  0.00  0.00    -0.097 F 
ATOM      8  F1  UNL d   1       1.317  -1.253   0.321  0.00  0.00    -0.096 F 
ATOM      9  I   UNL d   1       0.312   1.594  -0.738  0.00  0.00    -0.060 I 
ATOM     10  F2  UNL d   1      -2.612   1.419   0.550  0.00  0.00    -0.096 F 
ATOM     11  F3  UNL d   1      -3.813  -0.502   2.034  0.00  0.00    -0.097 F 
ATOM     12  F4  UNL d   1      -2.474  -2.792   2.670  0.00  0.00    -0.092 F 
ENDROOT
TORSDOF 0
ENDMDL
