MODEL 1
REMARK minimizedAffinity -4.90713596
REMARK minimizedRMSD -1
REMARK  0 active torsions:
REMARK  status: ('A' for Active; 'I' for Inactive)
ROOT
ATOM      1  C   UNL d   1      -2.698  -1.973   1.769  0.00  0.00     0.124 A 
ATOM      2  C1  UNL d   1      -2.634  -0.671   2.244  0.00  0.00     0.062 A 
ATOM      3  C2  UNL d   1      -1.611   0.177   1.828  0.00  0.00     0.162 A 
ATOM      4  C3  UNL d   1      -0.644  -0.275   0.931  0.00  0.00    -0.034 A 
ATOM      5  C4  UNL d   1      -0.714  -1.587   0.458  0.00  0.00     0.162 A 
ATOM      6  C5  UNL d   1      -1.738  -2.430   0.876  0.00  0.00     0.062 A 
ATOM      7  F   UNL d   1      -1.798  -3.688   0.416  0.00  0.00    -0.097 F 
ATOM      8  F1  UNL d   1       0.199  -2.054  -0.406  0.00  0.00    -0.096 F 
ATOM      9  I   UNL d   1       0.887   0.989   0.306  0.00  0.00    -0.060 I 
ATOM     10  F2  UNL d   1      -1.574   1.430   2.304  0.00  0.00    -0.096 F 
ATOM     11  F3  UNL d   1      -3.559  -0.228   3.107  0.00  0.00    -0.097 F 
ATOM     12  F4  UNL d   1      -3.682  -2.787   2.171  0.00  0.00    -0.092 F 
ENDROOT
TORSDOF 0
ENDMDL
