MODEL 1
REMARK minimizedAffinity 2.21991014
REMARK minimizedRMSD -1
REMARK  0 active torsions:
REMARK  status: ('A' for Active; 'I' for Inactive)
ROOT
ATOM      1  C   UNL d   1      -1.105  -1.275   1.787  0.00  0.00     0.124 A 
ATOM      2  C1  UNL d   1      -1.487   0.001   1.395  0.00  0.00     0.062 A 
ATOM      3  C2  UNL d   1      -0.732   0.700   0.458  0.00  0.00     0.162 A 
ATOM      4  C3  UNL d   1       0.413   0.124  -0.095  0.00  0.00    -0.034 A 
ATOM      5  C4  UNL d   1       0.791  -1.158   0.306  0.00  0.00     0.162 A 
ATOM      6  C5  UNL d   1       0.033  -1.853   1.243  0.00  0.00     0.062 A 
ATOM      7  F   UNL d   1       0.403  -3.085   1.621  0.00  0.00    -0.097 F 
ATOM      8  F1  UNL d   1       1.885  -1.741  -0.206  0.00  0.00    -0.096 F 
ATOM      9  I   UNL d   1       1.544   1.166  -1.497  0.00  0.00    -0.060 I 
ATOM     10  F2  UNL d   1      -1.124   1.931   0.097  0.00  0.00    -0.096 F 
ATOM     11  F3  UNL d   1      -2.585   0.562   1.920  0.00  0.00    -0.097 F 
ATOM     12  F4  UNL d   1      -1.833  -1.945   2.690  0.00  0.00    -0.092 F 
ENDROOT
TORSDOF 0
ENDMDL
