MODEL 1
REMARK minimizedAffinity -0.34564805
REMARK minimizedRMSD -1
REMARK  0 active torsions:
REMARK  status: ('A' for Active; 'I' for Inactive)
ROOT
ATOM      1  C   UNL d   1      -1.148  -1.119   1.894  0.00  0.00     0.124 A 
ATOM      2  C1  UNL d   1      -1.509   0.210   1.715  0.00  0.00     0.062 A 
ATOM      3  C2  UNL d   1      -0.870   0.984   0.751  0.00  0.00     0.162 A 
ATOM      4  C3  UNL d   1       0.136   0.433  -0.042  0.00  0.00    -0.034 A 
ATOM      5  C4  UNL d   1       0.495  -0.904   0.145  0.00  0.00     0.162 A 
ATOM      6  C5  UNL d   1      -0.147  -1.674   1.110  0.00  0.00     0.062 A 
ATOM      7  F   UNL d   1       0.203  -2.957   1.282  0.00  0.00    -0.097 F 
ATOM      8  F1  UNL d   1       1.458  -1.466  -0.600  0.00  0.00    -0.096 F 
ATOM      9  I   UNL d   1       1.094   1.588  -1.484  0.00  0.00    -0.060 I 
ATOM     10  F2  UNL d   1      -1.239   2.265   0.599  0.00  0.00    -0.096 F 
ATOM     11  F3  UNL d   1      -2.475   0.749   2.472  0.00  0.00    -0.097 F 
ATOM     12  F4  UNL d   1      -1.763  -1.861   2.823  0.00  0.00    -0.092 F 
ENDROOT
TORSDOF 0
ENDMDL
