MODEL 1
REMARK minimizedAffinity 1.42000198
REMARK minimizedRMSD -1
REMARK  0 active torsions:
REMARK  status: ('A' for Active; 'I' for Inactive)
ROOT
ATOM      1  C   UNL d   1      -1.614  -1.488   1.968  0.00  0.00     0.124 A 
ATOM      2  C1  UNL d   1      -0.246  -1.688   1.845  0.00  0.00     0.062 A 
ATOM      3  C2  UNL d   1       0.453  -1.113   0.787  0.00  0.00     0.162 A 
ATOM      4  C3  UNL d   1      -0.214  -0.331  -0.155  0.00  0.00    -0.034 A 
ATOM      5  C4  UNL d   1      -1.590  -0.135  -0.025  0.00  0.00     0.162 A 
ATOM      6  C5  UNL d   1      -2.285  -0.712   1.033  0.00  0.00     0.062 A 
ATOM      7  F   UNL d   1      -3.606  -0.517   1.151  0.00  0.00    -0.097 F 
ATOM      8  F1  UNL d   1      -2.263   0.611  -0.914  0.00  0.00    -0.096 F 
ATOM      9  I   UNL d   1       0.828   0.530  -1.738  0.00  0.00    -0.060 I 
ATOM     10  F2  UNL d   1       1.775  -1.324   0.693  0.00  0.00    -0.096 F 
ATOM     11  F3  UNL d   1       0.404  -2.438   2.746  0.00  0.00    -0.097 F 
ATOM     12  F4  UNL d   1      -2.284  -2.043   2.986  0.00  0.00    -0.092 F 
ENDROOT
TORSDOF 0
ENDMDL
