MODEL 1
REMARK minimizedAffinity -3.84025097
REMARK minimizedRMSD -1
REMARK  0 active torsions:
REMARK  status: ('A' for Active; 'I' for Inactive)
ROOT
ATOM      1  C   UNL d   1       0.724   0.396   0.301  0.00  0.00     0.124 A 
ATOM      2  C1  UNL d   1      -0.615   0.702   0.100  0.00  0.00     0.062 A 
ATOM      3  C2  UNL d   1      -1.607  -0.152   0.573  0.00  0.00     0.162 A 
ATOM      4  C3  UNL d   1      -1.264  -1.320   1.253  0.00  0.00    -0.034 A 
ATOM      5  C4  UNL d   1       0.085  -1.622   1.450  0.00  0.00     0.162 A 
ATOM      6  C5  UNL d   1       1.072  -0.765   0.976  0.00  0.00     0.062 A 
ATOM      7  F   UNL d   1       2.365  -1.063   1.171  0.00  0.00    -0.097 F 
ATOM      8  F1  UNL d   1       0.449  -2.737   2.100  0.00  0.00    -0.096 F 
ATOM      9  I   UNL d   1      -2.744  -2.600   1.962  0.00  0.00    -0.060 I 
ATOM     10  F2  UNL d   1      -2.892   0.169   0.364  0.00  0.00    -0.096 F 
ATOM     11  F3  UNL d   1      -0.954   1.823  -0.553  0.00  0.00    -0.097 F 
ATOM     12  F4  UNL d   1       1.677   1.219  -0.156  0.00  0.00    -0.092 F 
ENDROOT
TORSDOF 0
ENDMDL
