MODEL 1
REMARK minimizedAffinity 0.788865507
REMARK minimizedRMSD -1
REMARK  0 active torsions:
REMARK  status: ('A' for Active; 'I' for Inactive)
ROOT
ATOM      1  C   UNL d   1      -2.036  -2.232   1.285  0.00  0.00     0.124 A 
ATOM      2  C1  UNL d   1      -0.740  -2.223   0.787  0.00  0.00     0.062 A 
ATOM      3  C2  UNL d   1      -0.130  -1.020   0.444  0.00  0.00     0.162 A 
ATOM      4  C3  UNL d   1      -0.814   0.185   0.599  0.00  0.00    -0.034 A 
ATOM      5  C4  UNL d   1      -2.117   0.169   1.100  0.00  0.00     0.162 A 
ATOM      6  C5  UNL d   1      -2.723  -1.036   1.441  0.00  0.00     0.062 A 
ATOM      7  F   UNL d   1      -3.975  -1.042   1.922  0.00  0.00    -0.097 F 
ATOM      8  F1  UNL d   1      -2.803   1.310   1.262  0.00  0.00    -0.096 F 
ATOM      9  I   UNL d   1       0.096   1.986   0.088  0.00  0.00    -0.060 I 
ATOM     10  F2  UNL d   1       1.123  -1.042  -0.034  0.00  0.00    -0.096 F 
ATOM     11  F3  UNL d   1      -0.075  -3.377   0.635  0.00  0.00    -0.097 F 
ATOM     12  F4  UNL d   1      -2.621  -3.391   1.613  0.00  0.00    -0.092 F 
ENDROOT
TORSDOF 0
ENDMDL
