MODEL 1
REMARK minimizedAffinity -3.97172856
REMARK minimizedRMSD -1
REMARK  0 active torsions:
REMARK  status: ('A' for Active; 'I' for Inactive)
ROOT
ATOM      1  C   UNL d   1      -2.330  -1.521   1.452  0.00  0.00     0.124 A 
ATOM      2  C1  UNL d   1      -2.303  -0.171   1.771  0.00  0.00     0.062 A 
ATOM      3  C2  UNL d   1      -1.458   0.694   1.082  0.00  0.00     0.162 A 
ATOM      4  C3  UNL d   1      -0.633   0.211   0.066  0.00  0.00    -0.034 A 
ATOM      5  C4  UNL d   1      -0.665  -1.149  -0.248  0.00  0.00     0.162 A 
ATOM      6  C5  UNL d   1      -1.512  -2.009   0.443  0.00  0.00     0.062 A 
ATOM      7  F   UNL d   1      -1.537  -3.313   0.133  0.00  0.00    -0.097 F 
ATOM      8  F1  UNL d   1       0.115  -1.646  -1.219  0.00  0.00    -0.096 F 
ATOM      9  I   UNL d   1       0.633   1.501  -0.966  0.00  0.00    -0.060 I 
ATOM     10  F2  UNL d   1      -1.452   1.994   1.411  0.00  0.00    -0.096 F 
ATOM     11  F3  UNL d   1      -3.093   0.302   2.746  0.00  0.00    -0.097 F 
ATOM     12  F4  UNL d   1      -3.144  -2.352   2.116  0.00  0.00    -0.092 F 
ENDROOT
TORSDOF 0
ENDMDL
