MODEL 1
REMARK minimizedAffinity -4.14255667
REMARK minimizedRMSD -1
REMARK  0 active torsions:
REMARK  status: ('A' for Active; 'I' for Inactive)
ROOT
ATOM      1  C   UNL d   1      -2.265  -1.461   1.495  0.00  0.00     0.124 A 
ATOM      2  C1  UNL d   1      -2.268  -0.087   1.692  0.00  0.00     0.062 A 
ATOM      3  C2  UNL d   1      -1.393   0.725   0.976  0.00  0.00     0.162 A 
ATOM      4  C3  UNL d   1      -0.506   0.165   0.056  0.00  0.00    -0.034 A 
ATOM      5  C4  UNL d   1      -0.508  -1.218  -0.135  0.00  0.00     0.162 A 
ATOM      6  C5  UNL d   1      -1.385  -2.025   0.582  0.00  0.00     0.062 A 
ATOM      7  F   UNL d   1      -1.379  -3.352   0.391  0.00  0.00    -0.097 F 
ATOM      8  F1  UNL d   1       0.331  -1.789  -1.012  0.00  0.00    -0.096 F 
ATOM      9  I   UNL d   1       0.804   1.376  -1.015  0.00  0.00    -0.060 I 
ATOM     10  F2  UNL d   1      -1.419   2.050   1.187  0.00  0.00    -0.096 F 
ATOM     11  F3  UNL d   1      -3.117   0.461   2.574  0.00  0.00    -0.097 F 
ATOM     12  F4  UNL d   1      -3.107  -2.240   2.186  0.00  0.00    -0.092 F 
ENDROOT
TORSDOF 0
ENDMDL
