MODEL 1
REMARK minimizedAffinity 12.6819305
REMARK minimizedRMSD -1
REMARK  0 active torsions:
REMARK  status: ('A' for Active; 'I' for Inactive)
ROOT
ATOM      1  C   UNL d   1       0.870   1.953  -3.055  0.00  0.00     0.124 A 
ATOM      2  C1  UNL d   1      -0.396   1.748  -2.524  0.00  0.00     0.062 A 
ATOM      3  C2  UNL d   1      -0.558   0.965  -1.384  0.00  0.00     0.162 A 
ATOM      4  C3  UNL d   1       0.549   0.382  -0.768  0.00  0.00    -0.034 A 
ATOM      5  C4  UNL d   1       1.819   0.592  -1.309  0.00  0.00     0.162 A 
ATOM      6  C5  UNL d   1       1.976   1.375  -2.448  0.00  0.00     0.062 A 
ATOM      7  F   UNL d   1       3.199   1.573  -2.960  0.00  0.00    -0.097 F 
ATOM      8  F1  UNL d   1       2.905   0.047  -0.741  0.00  0.00    -0.096 F 
ATOM      9  I   UNL d   1       0.311  -0.789   0.936  0.00  0.00    -0.060 I 
ATOM     10  F2  UNL d   1      -1.792   0.784  -0.892  0.00  0.00    -0.096 F 
ATOM     11  F3  UNL d   1      -1.466   2.304  -3.110  0.00  0.00    -0.097 F 
ATOM     12  F4  UNL d   1       1.023   2.706  -4.152  0.00  0.00    -0.092 F 
ENDROOT
TORSDOF 0
ENDMDL
