MODEL 1
REMARK minimizedAffinity 4.16478539
REMARK minimizedRMSD -1
REMARK  0 active torsions:
REMARK  status: ('A' for Active; 'I' for Inactive)
ROOT
ATOM      1  C   UNL d   1       0.344  -1.982   1.460  0.00  0.00     0.124 A 
ATOM      2  C1  UNL d   1      -0.751  -1.537   2.188  0.00  0.00     0.062 A 
ATOM      3  C2  UNL d   1      -1.359  -0.327   1.868  0.00  0.00     0.162 A 
ATOM      4  C3  UNL d   1      -0.874   0.447   0.814  0.00  0.00    -0.034 A 
ATOM      5  C4  UNL d   1       0.228  -0.006   0.087  0.00  0.00     0.162 A 
ATOM      6  C5  UNL d   1       0.832  -1.217   0.411  0.00  0.00     0.062 A 
ATOM      7  F   UNL d   1       1.890  -1.645  -0.293  0.00  0.00    -0.097 F 
ATOM      8  F1  UNL d   1       0.720   0.713  -0.933  0.00  0.00    -0.096 F 
ATOM      9  I   UNL d   1      -1.781   2.258   0.332  0.00  0.00    -0.060 I 
ATOM     10  F2  UNL d   1      -2.416   0.079   2.588  0.00  0.00    -0.096 F 
ATOM     11  F3  UNL d   1      -1.225  -2.274   3.203  0.00  0.00    -0.097 F 
ATOM     12  F4  UNL d   1       0.927  -3.147   1.771  0.00  0.00    -0.092 F 
ENDROOT
TORSDOF 0
ENDMDL
