MODEL 1
REMARK minimizedAffinity -5.13719845
REMARK minimizedRMSD -1
REMARK  0 active torsions:
REMARK  status: ('A' for Active; 'I' for Inactive)
ROOT
ATOM      1  C   UNL d   1      -2.546  -1.556   1.856  0.00  0.00     0.124 A 
ATOM      2  C1  UNL d   1      -1.640  -2.134   0.978  0.00  0.00     0.062 A 
ATOM      3  C2  UNL d   1      -0.769  -1.334   0.245  0.00  0.00     0.162 A 
ATOM      4  C3  UNL d   1      -0.799   0.053   0.387  0.00  0.00    -0.034 A 
ATOM      5  C4  UNL d   1      -1.714   0.627   1.271  0.00  0.00     0.162 A 
ATOM      6  C5  UNL d   1      -2.583  -0.177   2.002  0.00  0.00     0.062 A 
ATOM      7  F   UNL d   1      -3.458   0.384   2.850  0.00  0.00    -0.097 F 
ATOM      8  F1  UNL d   1      -1.769   1.958   1.432  0.00  0.00    -0.096 F 
ATOM      9  I   UNL d   1       0.503   1.253  -0.708  0.00  0.00    -0.060 I 
ATOM     10  F2  UNL d   1       0.097  -1.919  -0.596  0.00  0.00    -0.096 F 
ATOM     11  F3  UNL d   1      -1.604  -3.467   0.835  0.00  0.00    -0.097 F 
ATOM     12  F4  UNL d   1      -3.384  -2.328   2.560  0.00  0.00    -0.092 F 
ENDROOT
TORSDOF 0
ENDMDL
