MODEL 1
REMARK minimizedAffinity -3.79015422
REMARK minimizedRMSD -1
REMARK  1 active torsions:
REMARK  status: ('A' for Active; 'I' for Inactive)
REMARK    1  A    between atoms: C3_4  and  O_7 
ROOT
ATOM      1  C   UNL d   1      -0.759   0.320  -0.009  0.00  0.00    -0.033 A 
ATOM      2  C1  UNL d   1      -0.256  -0.924   0.378  0.00  0.00     0.039 A 
ATOM      3  C2  UNL d   1       1.118  -1.100   0.550  0.00  0.00    -0.080 A 
ATOM      4  C3  UNL d   1       1.978  -0.027   0.334  0.00  0.00     0.150 A 
ATOM      5  C4  UNL d   1       1.483   1.216  -0.048  0.00  0.00    -0.007 A 
ATOM      6  C5  UNL d   1       0.111   1.390  -0.220  0.00  0.00     0.039 A 
ENDROOT
BRANCH   4   7
ATOM      7  O   UNL d   1       3.327  -0.152   0.484  0.00  0.00    -0.526 OA
ATOM      8  H5  UNL d   1       3.526  -1.073   0.722  0.00  0.00     0.418 HD
ENDBRANCH   4   7
TORSDOF 1
ENDMDL
