MODEL 1
REMARK minimizedAffinity -3.91552258
REMARK minimizedRMSD -1
REMARK  1 active torsions:
REMARK  status: ('A' for Active; 'I' for Inactive)
REMARK    1  A    between atoms: C3_4  and  O_7 
ROOT
ATOM      1  C   UNL d   1      -1.017   0.255   0.114  0.00  0.00    -0.033 A 
ATOM      2  C1  UNL d   1      -0.294   1.411  -0.187  0.00  0.00     0.039 A 
ATOM      3  C2  UNL d   1       1.096   1.420  -0.058  0.00  0.00    -0.080 A 
ATOM      4  C3  UNL d   1       1.750   0.269   0.371  0.00  0.00     0.150 A 
ATOM      5  C4  UNL d   1       1.037  -0.887   0.669  0.00  0.00    -0.007 A 
ATOM      6  C5  UNL d   1      -0.352  -0.895   0.540  0.00  0.00     0.039 A 
ENDROOT
BRANCH   4   7
ATOM      7  O   UNL d   1       3.105   0.231   0.516  0.00  0.00    -0.526 OA
ATOM      8  H5  UNL d   1       3.462   1.110   0.303  0.00  0.00     0.418 HD
ENDBRANCH   4   7
TORSDOF 1
ENDMDL
