MODEL 1
REMARK minimizedAffinity -5.00243282
REMARK minimizedRMSD -1
REMARK  1 active torsions:
REMARK  status: ('A' for Active; 'I' for Inactive)
REMARK    1  A    between atoms: C3_4  and  O_7 
ROOT
ATOM      1  C   UNL d   1      -0.202   0.616   0.137  0.00  0.00    -0.033 A 
ATOM      2  C1  UNL d   1       0.126  -0.741   0.136  0.00  0.00     0.039 A 
ATOM      3  C2  UNL d   1       1.464  -1.138   0.171  0.00  0.00    -0.080 A 
ATOM      4  C3  UNL d   1       2.463  -0.169   0.209  0.00  0.00     0.150 A 
ATOM      5  C4  UNL d   1       2.144   1.184   0.214  0.00  0.00    -0.007 A 
ATOM      6  C5  UNL d   1       0.807   1.579   0.178  0.00  0.00     0.039 A 
ENDROOT
BRANCH   4   7
ATOM      7  O   UNL d   1       3.783  -0.508   0.239  0.00  0.00    -0.526 OA
ATOM      8  H5  UNL d   1       3.853  -1.477   0.202  0.00  0.00     0.418 HD
ENDBRANCH   4   7
TORSDOF 1
ENDMDL
