MODEL 1
REMARK minimizedAffinity -5.25994301
REMARK minimizedRMSD -1
REMARK  1 active torsions:
REMARK  status: ('A' for Active; 'I' for Inactive)
REMARK    1  A    between atoms: C3_4  and  O_7 
ROOT
ATOM      1  C   UNL d   1      -0.758  -0.078   0.759  0.00  0.00    -0.033 A 
ATOM      2  C1  UNL d   1      -0.083  -1.299   0.834  0.00  0.00     0.039 A 
ATOM      3  C2  UNL d   1       1.308  -1.336   0.730  0.00  0.00    -0.080 A 
ATOM      4  C3  UNL d   1       2.013  -0.149   0.552  0.00  0.00     0.150 A 
ATOM      5  C4  UNL d   1       1.347   1.071   0.481  0.00  0.00    -0.007 A 
ATOM      6  C5  UNL d   1      -0.042   1.106   0.584  0.00  0.00     0.039 A 
ENDROOT
BRANCH   4   7
ATOM      7  O   UNL d   1       3.371  -0.136   0.441  0.00  0.00    -0.526 OA
ATOM      8  H5  UNL d   1       3.692  -1.053   0.480  0.00  0.00     0.418 HD
ENDBRANCH   4   7
TORSDOF 1
ENDMDL
