MODEL 1
REMARK minimizedAffinity 1.16144884
REMARK minimizedRMSD -1
REMARK  1 active torsions:
REMARK  status: ('A' for Active; 'I' for Inactive)
REMARK    1  A    between atoms: C3_4  and  O_7 
ROOT
ATOM      1  C   UNL d   1      -0.730   0.696   0.214  0.00  0.00    -0.033 A 
ATOM      2  C1  UNL d   1      -0.013  -0.493   0.070  0.00  0.00     0.039 A 
ATOM      3  C2  UNL d   1       1.318  -0.563   0.487  0.00  0.00    -0.080 A 
ATOM      4  C3  UNL d   1       1.919   0.561   1.047  0.00  0.00     0.150 A 
ATOM      5  C4  UNL d   1       1.209   1.748   1.197  0.00  0.00    -0.007 A 
ATOM      6  C5  UNL d   1      -0.119   1.817   0.779  0.00  0.00     0.039 A 
ENDROOT
BRANCH   4   7
ATOM      7  O   UNL d   1       3.216   0.543   1.464  0.00  0.00    -0.526 OA
ATOM      8  H5  UNL d   1       3.589  -0.334   1.272  0.00  0.00     0.418 HD
ENDBRANCH   4   7
TORSDOF 1
ENDMDL
