MODEL 1
REMARK minimizedAffinity -2.84860969
REMARK minimizedRMSD -1
REMARK  1 active torsions:
REMARK  status: ('A' for Active; 'I' for Inactive)
REMARK    1  A    between atoms: C3_4  and  O_7 
ROOT
ATOM      1  C   UNL d   1       2.805  -1.372   2.089  0.00  0.00    -0.033 A 
ATOM      2  C1  UNL d   1       2.784  -0.044   1.661  0.00  0.00     0.039 A 
ATOM      3  C2  UNL d   1       1.690   0.443   0.942  0.00  0.00    -0.080 A 
ATOM      4  C3  UNL d   1       0.625  -0.407   0.659  0.00  0.00     0.150 A 
ATOM      5  C4  UNL d   1       0.637  -1.731   1.086  0.00  0.00    -0.007 A 
ATOM      6  C5  UNL d   1       1.731  -2.216   1.803  0.00  0.00     0.039 A 
ENDROOT
BRANCH   4   7
ATOM      7  O   UNL d   1      -0.462   0.021  -0.043  0.00  0.00    -0.526 OA
ATOM      8  H5  UNL d   1      -0.319   0.948  -0.297  0.00  0.00     0.418 HD
ENDBRANCH   4   7
TORSDOF 1
ENDMDL
