MODEL 1
REMARK minimizedAffinity -4.589674
REMARK minimizedRMSD -1
REMARK  1 active torsions:
REMARK  status: ('A' for Active; 'I' for Inactive)
REMARK    1  A    between atoms: C3_4  and  O_7 
ROOT
ATOM      1  C   UNL d   1       3.292  -0.655   1.343  0.00  0.00    -0.033 A 
ATOM      2  C1  UNL d   1       2.987   0.396   0.476  0.00  0.00     0.039 A 
ATOM      3  C2  UNL d   1       1.657   0.673   0.152  0.00  0.00    -0.080 A 
ATOM      4  C3  UNL d   1       0.644  -0.107   0.701  0.00  0.00     0.150 A 
ATOM      5  C4  UNL d   1       0.940  -1.153   1.568  0.00  0.00    -0.007 A 
ATOM      6  C5  UNL d   1       2.268  -1.428   1.890  0.00  0.00     0.039 A 
ENDROOT
BRANCH   4   7
ATOM      7  O   UNL d   1      -0.669   0.122   0.410  0.00  0.00    -0.526 OA
ATOM      8  H5  UNL d   1      -0.719   0.857  -0.224  0.00  0.00     0.418 HD
ENDBRANCH   4   7
TORSDOF 1
ENDMDL
