MODEL 1
REMARK minimizedAffinity -3.10951567
REMARK minimizedRMSD -1
REMARK  1 active torsions:
REMARK  status: ('A' for Active; 'I' for Inactive)
REMARK    1  A    between atoms: C3_4  and  O_7 
ROOT
ATOM      1  C   UNL d   1      -0.486   0.029   0.002  0.00  0.00    -0.033 A 
ATOM      2  C1  UNL d   1      -0.092  -1.262  -0.357  0.00  0.00     0.039 A 
ATOM      3  C2  UNL d   1       1.252  -1.631  -0.277  0.00  0.00    -0.080 A 
ATOM      4  C3  UNL d   1       2.191  -0.703   0.165  0.00  0.00     0.150 A 
ATOM      5  C4  UNL d   1       1.805   0.583   0.528  0.00  0.00    -0.007 A 
ATOM      6  C5  UNL d   1       0.462   0.951   0.447  0.00  0.00     0.039 A 
ENDROOT
BRANCH   4   7
ATOM      7  O   UNL d   1       3.514  -1.016   0.255  0.00  0.00    -0.526 OA
ATOM      8  H5  UNL d   1       3.637  -1.928  -0.056  0.00  0.00     0.418 HD
ENDBRANCH   4   7
TORSDOF 1
ENDMDL
