MODEL 1
REMARK minimizedAffinity -2.2271452
REMARK minimizedRMSD -1
REMARK  1 active torsions:
REMARK  status: ('A' for Active; 'I' for Inactive)
REMARK    1  A    between atoms: C3_4  and  O_7 
ROOT
ATOM      1  C   UNL d   1      -0.534  -0.216  -0.431  0.00  0.00    -0.033 A 
ATOM      2  C1  UNL d   1       0.228  -1.311  -0.020  0.00  0.00     0.039 A 
ATOM      3  C2  UNL d   1       1.363  -1.118   0.768  0.00  0.00    -0.080 A 
ATOM      4  C3  UNL d   1       1.725   0.174   1.140  0.00  0.00     0.150 A 
ATOM      5  C4  UNL d   1       0.968   1.270   0.738  0.00  0.00    -0.007 A 
ATOM      6  C5  UNL d   1      -0.165   1.075  -0.051  0.00  0.00     0.039 A 
ENDROOT
BRANCH   4   7
ATOM      7  O   UNL d   1       2.828   0.414   1.905  0.00  0.00    -0.526 OA
ATOM      8  H5  UNL d   1       3.268  -0.434   2.084  0.00  0.00     0.418 HD
ENDBRANCH   4   7
TORSDOF 1
ENDMDL
