MODEL 1
REMARK minimizedAffinity -4.16148233
REMARK minimizedRMSD -1
REMARK  1 active torsions:
REMARK  status: ('A' for Active; 'I' for Inactive)
REMARK    1  A    between atoms: C3_4  and  O_7 
ROOT
ATOM      1  C   UNL d   1      -0.333   0.090   0.158  0.00  0.00    -0.033 A 
ATOM      2  C1  UNL d   1       0.303   1.238   0.633  0.00  0.00     0.039 A 
ATOM      3  C2  UNL d   1       1.676   1.223   0.887  0.00  0.00    -0.080 A 
ATOM      4  C3  UNL d   1       2.400   0.056   0.660  0.00  0.00     0.150 A 
ATOM      5  C4  UNL d   1       1.773  -1.091   0.183  0.00  0.00    -0.007 A 
ATOM      6  C5  UNL d   1       0.402  -1.074  -0.069  0.00  0.00     0.039 A 
ENDROOT
BRANCH   4   7
ATOM      7  O   UNL d   1       3.741  -0.008   0.897  0.00  0.00    -0.526 OA
ATOM      8  H5  UNL d   1       4.032   0.849   1.251  0.00  0.00     0.418 HD
ENDBRANCH   4   7
TORSDOF 1
ENDMDL
