MODEL 1
REMARK minimizedAffinity 18.169817
REMARK minimizedRMSD -1
REMARK  0 active torsions:
REMARK  status: ('A' for Active; 'I' for Inactive)
ROOT
ATOM      1  O1  BZF d   1       2.941  -0.613  -1.058  0.00  0.00    -0.204 OA
ATOM      2  C2  BZF d   1       2.276   0.586  -0.892  0.00  0.00     0.174 A 
ATOM      3  C3  BZF d   1       2.934   1.588  -1.510  0.00  0.00    -0.012 A 
ATOM      4  C3A BZF d   1       4.033   0.961  -2.177  0.00  0.00    -0.107 A 
ATOM      5  C4  BZF d   1       5.040   1.429  -2.972  0.00  0.00     0.055 A 
ATOM      6  C5  BZF d   1       5.997   0.566  -3.403  0.00  0.00    -0.016 A 
ATOM      7  C6  BZF d   1       5.981  -0.769  -3.056  0.00  0.00     0.022 A 
ATOM      8  C7  BZF d   1       4.999  -1.281  -2.274  0.00  0.00     0.029 A 
ATOM      9  C7A BZF d   1       4.013  -0.418  -1.863  0.00  0.00     0.058 A 
ENDROOT
TORSDOF 0
ENDMDL
