MODEL 1
REMARK minimizedAffinity 20.3584614
REMARK minimizedRMSD -1
REMARK  0 active torsions:
REMARK  status: ('A' for Active; 'I' for Inactive)
ROOT
ATOM      1  O1  BZF d   1       2.518   5.994   5.763  0.00  0.00    -0.204 OA
ATOM      2  C2  BZF d   1       1.513   5.054   5.642  0.00  0.00     0.174 A 
ATOM      3  C3  BZF d   1       2.028   3.809   5.584  0.00  0.00    -0.012 A 
ATOM      4  C3A BZF d   1       3.437   3.975   5.767  0.00  0.00    -0.107 A 
ATOM      5  C4  BZF d   1       4.486   3.103   5.823  0.00  0.00     0.055 A 
ATOM      6  C5  BZF d   1       5.748   3.593   5.939  0.00  0.00    -0.016 A 
ATOM      7  C6  BZF d   1       5.997   4.949   5.997  0.00  0.00     0.022 A 
ATOM      8  C7  BZF d   1       4.989   5.853   5.951  0.00  0.00     0.029 A 
ATOM      9  C7A BZF d   1       3.710   5.359   5.866  0.00  0.00     0.058 A 
ENDROOT
TORSDOF 0
ENDMDL
