MODEL 1
REMARK minimizedAffinity 14.9696779
REMARK minimizedRMSD -1
REMARK  0 active torsions:
REMARK  status: ('A' for Active; 'I' for Inactive)
ROOT
ATOM      1  O1  BZF d   1       3.334   2.408   5.994  0.00  0.00    -0.204 OA
ATOM      2  C2  BZF d   1       4.376   1.503   5.938  0.00  0.00     0.174 A 
ATOM      3  C3  BZF d   1       5.559   2.141   5.824  0.00  0.00    -0.012 A 
ATOM      4  C3A BZF d   1       5.244   3.534   5.901  0.00  0.00    -0.107 A 
ATOM      5  C4  BZF d   1       5.999   4.671   5.864  0.00  0.00     0.055 A 
ATOM      6  C5  BZF d   1       5.377   5.879   5.889  0.00  0.00    -0.016 A 
ATOM      7  C6  BZF d   1       4.003   5.986   5.946  0.00  0.00     0.022 A 
ATOM      8  C7  BZF d   1       3.212   4.887   5.989  0.00  0.00     0.029 A 
ATOM      9  C7A BZF d   1       3.839   3.665   5.997  0.00  0.00     0.058 A 
ENDROOT
TORSDOF 0
ENDMDL
