MODEL 1
REMARK minimizedAffinity 27.0891132
REMARK minimizedRMSD -1
REMARK  0 active torsions:
REMARK  status: ('A' for Active; 'I' for Inactive)
ROOT
ATOM      1  O1  BZF d   1      -2.675   2.034  -3.283  0.00  0.00    -0.204 OA
ATOM      2  C2  BZF d   1      -1.678   2.680  -3.988  0.00  0.00     0.174 A 
ATOM      3  C3  BZF d   1      -0.566   1.919  -4.052  0.00  0.00    -0.012 A 
ATOM      4  C3A BZF d   1      -0.920   0.684  -3.422  0.00  0.00    -0.107 A 
ATOM      5  C4  BZF d   1      -0.242  -0.479  -3.189  0.00  0.00     0.055 A 
ATOM      6  C5  BZF d   1      -0.851  -1.468  -2.484  0.00  0.00    -0.016 A 
ATOM      7  C6  BZF d   1      -2.132  -1.327  -1.992  0.00  0.00     0.022 A 
ATOM      8  C7  BZF d   1      -2.846  -0.194  -2.202  0.00  0.00     0.029 A 
ATOM      9  C7A BZF d   1      -2.245   0.795  -2.943  0.00  0.00     0.058 A 
ENDROOT
TORSDOF 0
ENDMDL
