MODEL 1
REMARK minimizedAffinity 9.69686508
REMARK minimizedRMSD -1
REMARK  0 active torsions:
REMARK  status: ('A' for Active; 'I' for Inactive)
ROOT
ATOM      1  O1  BZF d   1       2.990   2.473   5.957  0.00  0.00    -0.204 OA
ATOM      2  C2  BZF d   1       3.952   1.482   5.956  0.00  0.00     0.174 A 
ATOM      3  C3  BZF d   1       5.190   2.016   5.915  0.00  0.00    -0.012 A 
ATOM      4  C3A BZF d   1       4.991   3.431   5.983  0.00  0.00    -0.107 A 
ATOM      5  C4  BZF d   1       5.842   4.499   5.999  0.00  0.00     0.055 A 
ATOM      6  C5  BZF d   1       5.325   5.756   5.997  0.00  0.00    -0.016 A 
ATOM      7  C6  BZF d   1       3.964   5.981   5.974  0.00  0.00     0.022 A 
ATOM      8  C7  BZF d   1       3.080   4.953   5.963  0.00  0.00     0.029 A 
ATOM      9  C7A BZF d   1       3.599   3.682   5.998  0.00  0.00     0.058 A 
ENDROOT
TORSDOF 0
ENDMDL
