MODEL 1
REMARK minimizedAffinity 20.1810722
REMARK minimizedRMSD -1
REMARK  0 active torsions:
REMARK  status: ('A' for Active; 'I' for Inactive)
ROOT
ATOM      1  O1  BZF d   1       4.315   2.003   5.839  0.00  0.00    -0.204 OA
ATOM      2  C2  BZF d   1       2.936   1.938   5.898  0.00  0.00     0.174 A 
ATOM      3  C3  BZF d   1       2.400   3.175   5.941  0.00  0.00    -0.012 A 
ATOM      4  C3A BZF d   1       3.509   4.070   5.814  0.00  0.00    -0.107 A 
ATOM      5  C4  BZF d   1       3.617   5.431   5.772  0.00  0.00     0.055 A 
ATOM      6  C5  BZF d   1       4.852   5.994   5.715  0.00  0.00    -0.016 A 
ATOM      7  C6  BZF d   1       6.000   5.227   5.704  0.00  0.00     0.022 A 
ATOM      8  C7  BZF d   1       5.943   3.874   5.738  0.00  0.00     0.029 A 
ATOM      9  C7A BZF d   1       4.695   3.301   5.763  0.00  0.00     0.058 A 
ENDROOT
TORSDOF 0
ENDMDL
