MODEL 1
REMARK minimizedAffinity 19.1355209
REMARK minimizedRMSD -1
REMARK  0 active torsions:
REMARK  status: ('A' for Active; 'I' for Inactive)
ROOT
ATOM      1  O1  BZF d   1       4.280  -0.780  -2.897  0.00  0.00    -0.204 OA
ATOM      2  C2  BZF d   1       5.557  -0.558  -3.375  0.00  0.00     0.174 A 
ATOM      3  C3  BZF d   1       6.000   0.662  -3.009  0.00  0.00    -0.012 A 
ATOM      4  C3A BZF d   1       4.969   1.203  -2.177  0.00  0.00    -0.107 A 
ATOM      5  C4  BZF d   1       4.831   2.379  -1.497  0.00  0.00     0.055 A 
ATOM      6  C5  BZF d   1       3.670   2.629  -0.838  0.00  0.00    -0.016 A 
ATOM      7  C6  BZF d   1       2.625   1.728  -0.841  0.00  0.00     0.022 A 
ATOM      8  C7  BZF d   1       2.717   0.546  -1.497  0.00  0.00     0.029 A 
ATOM      9  C7A BZF d   1       3.902   0.276  -2.137  0.00  0.00     0.058 A 
ENDROOT
TORSDOF 0
ENDMDL
