MODEL 1
REMARK minimizedAffinity 12.7879028
REMARK minimizedRMSD -1
REMARK  0 active torsions:
REMARK  status: ('A' for Active; 'I' for Inactive)
ROOT
ATOM      1  O1  BZF d   1       2.626  -1.138  -2.622  0.00  0.00    -0.204 OA
ATOM      2  C2  BZF d   1       1.952  -0.024  -2.160  0.00  0.00     0.174 A 
ATOM      3  C3  BZF d   1       2.701   1.087  -2.318  0.00  0.00    -0.012 A 
ATOM      4  C3A BZF d   1       3.881   0.652  -2.999  0.00  0.00    -0.107 A 
ATOM      5  C4  BZF d   1       4.996   1.299  -3.450  0.00  0.00     0.055 A 
ATOM      6  C5  BZF d   1       6.000   0.572  -4.010  0.00  0.00    -0.016 A 
ATOM      7  C6  BZF d   1       5.923  -0.800  -4.129  0.00  0.00     0.022 A 
ATOM      8  C7  BZF d   1       4.835  -1.485  -3.700  0.00  0.00     0.029 A 
ATOM      9  C7A BZF d   1       3.805  -0.750  -3.165  0.00  0.00     0.058 A 
ENDROOT
TORSDOF 0
ENDMDL
