MODEL 1
REMARK minimizedAffinity 9.44286251
REMARK minimizedRMSD -1
REMARK  0 active torsions:
REMARK  status: ('A' for Active; 'I' for Inactive)
ROOT
ATOM      1  O1  BZF d   1      -0.102  -3.954   3.050  0.00  0.00    -0.204 OA
ATOM      2  C2  BZF d   1      -0.287  -5.271   3.421  0.00  0.00     0.174 A 
ATOM      3  C3  BZF d   1      -0.750  -6.000   2.385  0.00  0.00    -0.012 A 
ATOM      4  C3A BZF d   1      -0.772  -5.100   1.273  0.00  0.00    -0.107 A 
ATOM      5  C4  BZF d   1      -1.122  -5.238  -0.040  0.00  0.00     0.055 A 
ATOM      6  C5  BZF d   1      -1.099  -4.146  -0.849  0.00  0.00    -0.016 A 
ATOM      7  C6  BZF d   1      -0.739  -2.901  -0.377  0.00  0.00     0.022 A 
ATOM      8  C7  BZF d   1      -0.380  -2.715   0.917  0.00  0.00     0.029 A 
ATOM      9  C7A BZF d   1      -0.369  -3.823   1.728  0.00  0.00     0.058 A 
ENDROOT
TORSDOF 0
ENDMDL
