MODEL 1
REMARK minimizedAffinity 13.7279177
REMARK minimizedRMSD -1
REMARK  0 active torsions:
REMARK  status: ('A' for Active; 'I' for Inactive)
ROOT
ATOM      1  O1  BZF d   1      -2.446   2.170  -4.799  0.00  0.00    -0.204 OA
ATOM      2  C2  BZF d   1      -1.462   2.900  -5.436  0.00  0.00     0.174 A 
ATOM      3  C3  BZF d   1      -0.240   2.405  -5.153  0.00  0.00    -0.012 A 
ATOM      4  C3A BZF d   1      -0.481   1.239  -4.359  0.00  0.00    -0.107 A 
ATOM      5  C4  BZF d   1       0.337   0.308  -3.785  0.00  0.00     0.055 A 
ATOM      6  C5  BZF d   1      -0.212  -0.666  -3.012  0.00  0.00    -0.016 A 
ATOM      7  C6  BZF d   1      -1.571  -0.736  -2.788  0.00  0.00     0.022 A 
ATOM      8  C7  BZF d   1      -2.423   0.162  -3.341  0.00  0.00     0.029 A 
ATOM      9  C7A BZF d   1      -1.875   1.128  -4.149  0.00  0.00     0.058 A 
ENDROOT
TORSDOF 0
ENDMDL
