MODEL 1
REMARK minimizedAffinity 15.9890385
REMARK minimizedRMSD -1
REMARK  0 active torsions:
REMARK  status: ('A' for Active; 'I' for Inactive)
ROOT
ATOM      1  O1  BZF d   1      -2.768  -0.161  -2.769  0.00  0.00    -0.204 OA
ATOM      2  C2  BZF d   1      -1.734  -1.066  -2.622  0.00  0.00     0.174 A 
ATOM      3  C3  BZF d   1      -0.610  -0.607  -3.209  0.00  0.00    -0.012 A 
ATOM      4  C3A BZF d   1      -0.939   0.704  -3.678  0.00  0.00    -0.107 A 
ATOM      5  C4  BZF d   1      -0.231   1.672  -4.332  0.00  0.00     0.055 A 
ATOM      6  C5  BZF d   1      -0.866   2.812  -4.711  0.00  0.00    -0.016 A 
ATOM      7  C6  BZF d   1      -2.207   3.015  -4.458  0.00  0.00     0.022 A 
ATOM      8  C7  BZF d   1      -2.949   2.086  -3.807  0.00  0.00     0.029 A 
ATOM      9  C7A BZF d   1      -2.302   0.947  -3.394  0.00  0.00     0.058 A 
ENDROOT
TORSDOF 0
ENDMDL
