MODEL 1
REMARK minimizedAffinity 15.4338503
REMARK minimizedRMSD -1
REMARK  0 active torsions:
REMARK  status: ('A' for Active; 'I' for Inactive)
ROOT
ATOM      1  O1  BZF d   1       2.733   2.647   5.866  0.00  0.00    -0.204 OA
ATOM      2  C2  BZF d   1       3.554   1.541   5.758  0.00  0.00     0.174 A 
ATOM      3  C3  BZF d   1       4.847   1.913   5.667  0.00  0.00    -0.012 A 
ATOM      4  C3A BZF d   1       4.841   3.336   5.815  0.00  0.00    -0.107 A 
ATOM      5  C4  BZF d   1       5.825   4.283   5.830  0.00  0.00     0.055 A 
ATOM      6  C5  BZF d   1       5.479   5.594   5.920  0.00  0.00    -0.016 A 
ATOM      7  C6  BZF d   1       4.160   5.993   5.992  0.00  0.00     0.022 A 
ATOM      8  C7  BZF d   1       3.150   5.090   5.986  0.00  0.00     0.029 A 
ATOM      9  C7A BZF d   1       3.498   3.763   5.928  0.00  0.00     0.058 A 
ENDROOT
TORSDOF 0
ENDMDL
