MODEL 1
REMARK minimizedAffinity 14.4591856
REMARK minimizedRMSD -1
REMARK  0 active torsions:
REMARK  status: ('A' for Active; 'I' for Inactive)
ROOT
ATOM      1  O1  BZF d   1       5.636   2.598   4.051  0.00  0.00    -0.204 OA
ATOM      2  C2  BZF d   1       4.650   1.678   4.353  0.00  0.00     0.174 A 
ATOM      3  C3  BZF d   1       3.725   2.220   5.171  0.00  0.00    -0.012 A 
ATOM      4  C3A BZF d   1       4.109   3.590   5.319  0.00  0.00    -0.107 A 
ATOM      5  C4  BZF d   1       3.575   4.647   5.999  0.00  0.00     0.055 A 
ATOM      6  C5  BZF d   1       4.235   5.835   5.998  0.00  0.00    -0.016 A 
ATOM      7  C6  BZF d   1       5.432   6.000   5.332  0.00  0.00     0.022 A 
ATOM      8  C7  BZF d   1       5.998   4.982   4.639  0.00  0.00     0.029 A 
ATOM      9  C7A BZF d   1       5.317   3.789   4.611  0.00  0.00     0.058 A 
ENDROOT
TORSDOF 0
ENDMDL
