MODEL 1
REMARK minimizedAffinity 12.0076914
REMARK minimizedRMSD -1
REMARK  0 active torsions:
REMARK  status: ('A' for Active; 'I' for Inactive)
ROOT
ATOM      1  O1  BZF d   1       3.211   4.597   5.983  0.00  0.00    -0.204 OA
ATOM      2  C2  BZF d   1       3.681   5.895   6.000  0.00  0.00     0.174 A 
ATOM      3  C3  BZF d   1       4.824   6.000   5.291  0.00  0.00    -0.012 A 
ATOM      4  C3A BZF d   1       5.035   4.703   4.725  0.00  0.00    -0.107 A 
ATOM      5  C4  BZF d   1       5.997   4.180   3.908  0.00  0.00     0.055 A 
ATOM      6  C5  BZF d   1       5.952   2.858   3.597  0.00  0.00    -0.016 A 
ATOM      7  C6  BZF d   1       4.965   2.029   4.089  0.00  0.00     0.022 A 
ATOM      8  C7  BZF d   1       3.987   2.503   4.899  0.00  0.00     0.029 A 
ATOM      9  C7A BZF d   1       4.010   3.846   5.188  0.00  0.00     0.058 A 
ENDROOT
TORSDOF 0
ENDMDL
