MODEL 1
REMARK minimizedAffinity 16.4078808
REMARK minimizedRMSD -1
REMARK  0 active torsions:
REMARK  status: ('A' for Active; 'I' for Inactive)
ROOT
ATOM      1  O1  BZF d   1      -2.271  -4.461   5.949  0.00  0.00    -0.204 OA
ATOM      2  C2  BZF d   1      -2.450  -3.092   6.000  0.00  0.00     0.174 A 
ATOM      3  C3  BZF d   1      -1.914  -2.499   4.914  0.00  0.00    -0.012 A 
ATOM      4  C3A BZF d   1      -1.448  -3.573   4.091  0.00  0.00    -0.107 A 
ATOM      5  C4  BZF d   1      -0.835  -3.623   2.871  0.00  0.00     0.055 A 
ATOM      6  C5  BZF d   1      -0.443  -4.827   2.378  0.00  0.00    -0.016 A 
ATOM      7  C6  BZF d   1      -0.644  -5.999   3.079  0.00  0.00     0.022 A 
ATOM      8  C7  BZF d   1      -1.252  -6.000   4.290  0.00  0.00     0.029 A 
ATOM      9  C7A BZF d   1      -1.679  -4.788   4.776  0.00  0.00     0.058 A 
ENDROOT
TORSDOF 0
ENDMDL
