MODEL 1
REMARK minimizedAffinity 14.3370028
REMARK minimizedRMSD -1
REMARK  0 active torsions:
REMARK  status: ('A' for Active; 'I' for Inactive)
ROOT
ATOM      1  O1  BZF d   1       3.797   5.489   5.997  0.00  0.00    -0.204 OA
ATOM      2  C2  BZF d   1       5.087   5.977   5.914  0.00  0.00     0.174 A 
ATOM      3  C3  BZF d   1       5.975   4.967   5.816  0.00  0.00    -0.012 A 
ATOM      4  C3A BZF d   1       5.185   3.776   5.746  0.00  0.00    -0.107 A 
ATOM      5  C4  BZF d   1       5.492   2.451   5.624  0.00  0.00     0.055 A 
ATOM      6  C5  BZF d   1       4.489   1.535   5.660  0.00  0.00    -0.016 A 
ATOM      7  C6  BZF d   1       3.171   1.907   5.822  0.00  0.00     0.022 A 
ATOM      8  C7  BZF d   1       2.817   3.210   5.942  0.00  0.00     0.029 A 
ATOM      9  C7A BZF d   1       3.824   4.141   5.873  0.00  0.00     0.058 A 
ENDROOT
TORSDOF 0
ENDMDL
