MODEL 1
REMARK minimizedAffinity 22.6872826
REMARK minimizedRMSD -1
REMARK  0 active torsions:
REMARK  status: ('A' for Active; 'I' for Inactive)
ROOT
ATOM      1  O1  BZF d   1      -2.277   3.733   0.784  0.00  0.00    -0.204 OA
ATOM      2  C2  BZF d   1      -2.470   2.596   1.545  0.00  0.00     0.174 A 
ATOM      3  C3  BZF d   1      -3.742   2.528   1.989  0.00  0.00    -0.012 A 
ATOM      4  C3A BZF d   1      -4.408   3.647   1.398  0.00  0.00    -0.107 A 
ATOM      5  C4  BZF d   1      -5.692   4.110   1.448  0.00  0.00     0.055 A 
ATOM      6  C5  BZF d   1      -6.000   5.273   0.816  0.00  0.00    -0.016 A 
ATOM      7  C6  BZF d   1      -5.050   6.000   0.129  0.00  0.00     0.022 A 
ATOM      8  C7  BZF d   1      -3.764   5.578   0.047  0.00  0.00     0.029 A 
ATOM      9  C7A BZF d   1      -3.457   4.387   0.657  0.00  0.00     0.058 A 
ENDROOT
TORSDOF 0
ENDMDL
