MODEL 1
REMARK minimizedAffinity 17.5036068
REMARK minimizedRMSD -1
REMARK  0 active torsions:
REMARK  status: ('A' for Active; 'I' for Inactive)
ROOT
ATOM      1  O1  BZF d   1      -1.131  -3.756  -2.846  0.00  0.00    -0.204 OA
ATOM      2  C2  BZF d   1      -0.949  -4.724  -1.877  0.00  0.00     0.174 A 
ATOM      3  C3  BZF d   1      -1.403  -4.296  -0.682  0.00  0.00    -0.012 A 
ATOM      4  C3A BZF d   1      -1.984  -3.014  -0.937  0.00  0.00    -0.107 A 
ATOM      5  C4  BZF d   1      -2.615  -2.095  -0.148  0.00  0.00     0.055 A 
ATOM      6  C5  BZF d   1      -2.999  -0.910  -0.692  0.00  0.00    -0.016 A 
ATOM      7  C6  BZF d   1      -2.764  -0.610  -2.018  0.00  0.00     0.022 A 
ATOM      8  C7  BZF d   1      -2.146  -1.491  -2.841  0.00  0.00     0.029 A 
ATOM      9  C7A BZF d   1      -1.786  -2.703  -2.302  0.00  0.00     0.058 A 
ENDROOT
TORSDOF 0
ENDMDL
