MODEL 1
REMARK minimizedAffinity 7.03242874
REMARK minimizedRMSD -1
REMARK  1 active torsions:
REMARK  status: ('A' for Active; 'I' for Inactive)
REMARK    1  A    between atoms: C1_2  and  C2_3 
ROOT
ATOM      1  C2  UNL d   1       4.528  -4.341  -2.053  0.00  0.00    -0.077 A 
ATOM      2  C3  UNL d   1       5.803  -3.896  -2.429  0.00  0.00     0.002 A 
ATOM      3  C4  UNL d   1       5.993  -3.241  -3.647  0.00  0.00     0.002 A 
ATOM      4  C5  UNL d   1       4.911  -3.020  -4.497  0.00  0.00    -0.004 A 
ATOM      5  C6  UNL d   1       3.639  -3.461  -4.133  0.00  0.00     0.002 A 
ATOM      6  C7  UNL d   1       3.448  -4.117  -2.917  0.00  0.00     0.002 A 
ENDROOT
BRANCH   1   7
ATOM      7  C1  UNL d   1       4.313  -5.004  -0.718  0.00  0.00     0.055 C 
ATOM      8  C   UNL d   1       5.251  -4.439   0.339  0.00  0.00     0.019 C 
ENDBRANCH   1   7
TORSDOF 1
ENDMDL
