MODEL 1
REMARK minimizedAffinity 0.358371735
REMARK minimizedRMSD -1
REMARK  1 active torsions:
REMARK  status: ('A' for Active; 'I' for Inactive)
REMARK    1  A    between atoms: C1_2  and  C2_3 
ROOT
ATOM      1  C2  UNL d   1      -0.258   1.420  -1.457  0.00  0.00    -0.077 A 
ATOM      2  C3  UNL d   1       0.686   1.475  -2.492  0.00  0.00     0.002 A 
ATOM      3  C4  UNL d   1       0.566   0.637  -3.602  0.00  0.00     0.002 A 
ATOM      4  C5  UNL d   1      -0.498  -0.258  -3.690  0.00  0.00    -0.004 A 
ATOM      5  C6  UNL d   1      -1.441  -0.321  -2.665  0.00  0.00     0.002 A 
ATOM      6  C7  UNL d   1      -1.322   0.514  -1.554  0.00  0.00     0.002 A 
ENDROOT
BRANCH   1   7
ATOM      7  C1  UNL d   1      -0.158   2.358  -0.282  0.00  0.00     0.055 C 
ATOM      8  C   UNL d   1      -1.223   2.053   0.762  0.00  0.00     0.019 C 
ENDBRANCH   1   7
TORSDOF 1
ENDMDL
