MODEL 1
REMARK minimizedAffinity 0.890183151
REMARK minimizedRMSD -1
REMARK  1 active torsions:
REMARK  status: ('A' for Active; 'I' for Inactive)
REMARK    1  A    between atoms: C1_2  and  C2_3 
ROOT
ATOM      1  C2  UNL d   1      -0.419   1.518  -1.704  0.00  0.00    -0.077 A 
ATOM      2  C3  UNL d   1      -1.573   0.849  -2.135  0.00  0.00     0.002 A 
ATOM      3  C4  UNL d   1      -1.521  -0.009  -3.236  0.00  0.00     0.002 A 
ATOM      4  C5  UNL d   1      -0.319  -0.209  -3.911  0.00  0.00    -0.004 A 
ATOM      5  C6  UNL d   1       0.834   0.454  -3.490  0.00  0.00     0.002 A 
ATOM      6  C7  UNL d   1       0.784   1.313  -2.391  0.00  0.00     0.002 A 
ENDROOT
BRANCH   1   7
ATOM      7  C1  UNL d   1      -0.461   2.406  -0.487  0.00  0.00     0.055 C 
ATOM      8  C   UNL d   1      -1.309   1.791   0.617  0.00  0.00     0.019 C 
ENDBRANCH   1   7
TORSDOF 1
ENDMDL
