MODEL 1
REMARK minimizedAffinity 10.7903509
REMARK minimizedRMSD -1
REMARK  1 active torsions:
REMARK  status: ('A' for Active; 'I' for Inactive)
REMARK    1  A    between atoms: C1_2  and  C2_3 
ROOT
ATOM      1  C2  UNL d   1       1.531  -3.411  -3.335  0.00  0.00    -0.077 A 
ATOM      2  C3  UNL d   1       0.442  -3.139  -4.175  0.00  0.00     0.002 A 
ATOM      3  C4  UNL d   1       0.447  -3.573  -5.502  0.00  0.00     0.002 A 
ATOM      4  C5  UNL d   1       1.537  -4.283  -6.000  0.00  0.00    -0.004 A 
ATOM      5  C6  UNL d   1       2.627  -4.556  -5.174  0.00  0.00     0.002 A 
ATOM      6  C7  UNL d   1       2.624  -4.123  -3.847  0.00  0.00     0.002 A 
ENDROOT
BRANCH   1   7
ATOM      7  C1  UNL d   1       1.506  -2.987  -1.890  0.00  0.00     0.055 C 
ATOM      8  C   UNL d   1       1.615  -4.186  -0.959  0.00  0.00     0.019 C 
ENDBRANCH   1   7
TORSDOF 1
ENDMDL
