MODEL 1
REMARK minimizedAffinity 3.82081842
REMARK minimizedRMSD -1
REMARK  1 active torsions:
REMARK  status: ('A' for Active; 'I' for Inactive)
REMARK    1  A    between atoms: C1_2  and  C2_3 
ROOT
ATOM      1  C2  UNL d   1      -0.873   2.723  -1.827  0.00  0.00    -0.077 A 
ATOM      2  C3  UNL d   1      -1.295   1.698  -0.969  0.00  0.00     0.002 A 
ATOM      3  C4  UNL d   1      -0.808   1.625   0.338  0.00  0.00     0.002 A 
ATOM      4  C5  UNL d   1       0.101   2.575   0.798  0.00  0.00    -0.004 A 
ATOM      5  C6  UNL d   1       0.529   3.597  -0.048  0.00  0.00     0.002 A 
ATOM      6  C7  UNL d   1       0.044   3.671  -1.355  0.00  0.00     0.002 A 
ENDROOT
BRANCH   1   7
ATOM      7  C1  UNL d   1      -1.435   2.832  -3.220  0.00  0.00     0.055 C 
ATOM      8  C   UNL d   1      -2.678   1.969  -3.385  0.00  0.00     0.019 C 
ENDBRANCH   1   7
TORSDOF 1
ENDMDL
