MODEL 1
REMARK minimizedAffinity 3.43374801
REMARK minimizedRMSD -1
REMARK  1 active torsions:
REMARK  status: ('A' for Active; 'I' for Inactive)
REMARK    1  A    between atoms: C1_2  and  C2_3 
ROOT
ATOM      1  C2  UNL d   1      -0.342   3.657   0.182  0.00  0.00    -0.077 A 
ATOM      2  C3  UNL d   1      -1.081   4.723   0.715  0.00  0.00     0.002 A 
ATOM      3  C4  UNL d   1      -1.275   5.889  -0.027  0.00  0.00     0.002 A 
ATOM      4  C5  UNL d   1      -0.736   6.000  -1.307  0.00  0.00    -0.004 A 
ATOM      5  C6  UNL d   1       0.003   4.947  -1.846  0.00  0.00     0.002 A 
ATOM      6  C7  UNL d   1       0.198   3.781  -1.105  0.00  0.00     0.002 A 
ENDROOT
BRANCH   1   7
ATOM      7  C1  UNL d   1      -0.173   2.379   0.962  0.00  0.00     0.055 C 
ATOM      8  C   UNL d   1      -1.506   1.878   1.498  0.00  0.00     0.019 C 
ENDBRANCH   1   7
TORSDOF 1
ENDMDL
