MODEL 1
REMARK minimizedAffinity 11.9943371
REMARK minimizedRMSD -1
REMARK  1 active torsions:
REMARK  status: ('A' for Active; 'I' for Inactive)
REMARK    1  A    between atoms: C1_2  and  C2_3 
ROOT
ATOM      1  C2  UNL d   1       2.068  -4.101  -0.682  0.00  0.00    -0.077 A 
ATOM      2  C3  UNL d   1       1.137  -4.496  -1.652  0.00  0.00     0.002 A 
ATOM      3  C4  UNL d   1       1.484  -5.439  -2.621  0.00  0.00     0.002 A 
ATOM      4  C5  UNL d   1       2.760  -5.999  -2.626  0.00  0.00    -0.004 A 
ATOM      5  C6  UNL d   1       3.694  -5.611  -1.666  0.00  0.00     0.002 A 
ATOM      6  C7  UNL d   1       3.349  -4.667  -0.698  0.00  0.00     0.002 A 
ENDROOT
BRANCH   1   7
ATOM      7  C1  UNL d   1       1.680  -3.120   0.394  0.00  0.00     0.055 C 
ATOM      8  C   UNL d   1       2.841  -2.204   0.752  0.00  0.00     0.019 C 
ENDBRANCH   1   7
TORSDOF 1
ENDMDL
