MODEL 1
REMARK minimizedAffinity 12.7227545
REMARK minimizedRMSD -1
REMARK  1 active torsions:
REMARK  status: ('A' for Active; 'I' for Inactive)
REMARK    1  A    between atoms: C1_2  and  C2_3 
ROOT
ATOM      1  C2  UNL d   1       1.861  -3.947  -1.068  0.00  0.00    -0.077 A 
ATOM      2  C3  UNL d   1       1.240  -4.468  -2.212  0.00  0.00     0.002 A 
ATOM      3  C4  UNL d   1       1.849  -5.488  -2.944  0.00  0.00     0.002 A 
ATOM      4  C5  UNL d   1       3.080  -5.999  -2.539  0.00  0.00    -0.004 A 
ATOM      5  C6  UNL d   1       3.707  -5.486  -1.404  0.00  0.00     0.002 A 
ATOM      6  C7  UNL d   1       3.100  -4.465  -0.671  0.00  0.00     0.002 A 
ENDROOT
BRANCH   1   7
ATOM      7  C1  UNL d   1       1.182  -2.880  -0.249  0.00  0.00     0.055 C 
ATOM      8  C   UNL d   1       2.195  -2.042   0.518  0.00  0.00     0.019 C 
ENDBRANCH   1   7
TORSDOF 1
ENDMDL
