MODEL 1
REMARK minimizedAffinity 14.5849628
REMARK minimizedRMSD -1
REMARK  1 active torsions:
REMARK  status: ('A' for Active; 'I' for Inactive)
REMARK    1  A    between atoms: C1_2  and  C2_3 
ROOT
ATOM      1  C2  UNL d   1      -4.003   4.058   0.362  0.00  0.00    -0.077 A 
ATOM      2  C3  UNL d   1      -4.492   4.795   1.451  0.00  0.00     0.002 A 
ATOM      3  C4  UNL d   1      -5.481   5.762   1.261  0.00  0.00     0.002 A 
ATOM      4  C5  UNL d   1      -5.991   5.999  -0.013  0.00  0.00    -0.004 A 
ATOM      5  C6  UNL d   1      -5.510   5.273  -1.102  0.00  0.00     0.002 A 
ATOM      6  C7  UNL d   1      -4.521   4.307  -0.915  0.00  0.00     0.002 A 
ENDROOT
BRANCH   1   7
ATOM      7  C1  UNL d   1      -2.972   2.980   0.572  0.00  0.00     0.055 C 
ATOM      8  C   UNL d   1      -3.526   1.840   1.413  0.00  0.00     0.019 C 
ENDBRANCH   1   7
TORSDOF 1
ENDMDL
