MODEL 1
REMARK minimizedAffinity 14.9094458
REMARK minimizedRMSD -1
REMARK  1 active torsions:
REMARK  status: ('A' for Active; 'I' for Inactive)
REMARK    1  A    between atoms: C1_2  and  C2_3 
ROOT
ATOM      1  C2  UNL d   1       4.757  -3.624   1.758  0.00  0.00    -0.077 A 
ATOM      2  C3  UNL d   1       3.398  -3.787   1.453  0.00  0.00     0.002 A 
ATOM      3  C4  UNL d   1       2.551  -2.679   1.388  0.00  0.00     0.002 A 
ATOM      4  C5  UNL d   1       3.054  -1.401   1.623  0.00  0.00    -0.004 A 
ATOM      5  C6  UNL d   1       4.403  -1.229   1.929  0.00  0.00     0.002 A 
ATOM      6  C7  UNL d   1       5.251  -2.335   1.996  0.00  0.00     0.002 A 
ENDROOT
BRANCH   1   7
ATOM      7  C1  UNL d   1       5.682  -4.813   1.780  0.00  0.00     0.055 C 
ATOM      8  C   UNL d   1       5.043  -5.999   2.486  0.00  0.00     0.019 C 
ENDBRANCH   1   7
TORSDOF 1
ENDMDL
