MODEL 1
REMARK minimizedAffinity -4.93747997
REMARK minimizedRMSD -1
REMARK  1 active torsions:
REMARK  status: ('A' for Active; 'I' for Inactive)
REMARK    1  A    between atoms: C1_2  and  C2_3 
ROOT
ATOM      1  C2  UNL d   1      -0.803   2.361   1.608  0.00  0.00    -0.077 A 
ATOM      2  C3  UNL d   1      -0.991   1.670   0.403  0.00  0.00     0.002 A 
ATOM      3  C4  UNL d   1      -0.495   2.189  -0.794  0.00  0.00     0.002 A 
ATOM      4  C5  UNL d   1       0.195   3.400  -0.797  0.00  0.00    -0.004 A 
ATOM      5  C6  UNL d   1       0.385   4.096   0.396  0.00  0.00     0.002 A 
ATOM      6  C7  UNL d   1      -0.111   3.579   1.593  0.00  0.00     0.002 A 
ENDROOT
BRANCH   1   7
ATOM      7  C1  UNL d   1      -1.294   1.778   2.908  0.00  0.00     0.055 C 
ATOM      8  C   UNL d   1      -0.429   2.225   4.077  0.00  0.00     0.019 C 
ENDBRANCH   1   7
TORSDOF 1
ENDMDL
