MODEL 1
REMARK minimizedAffinity -0.657933712
REMARK minimizedRMSD -1
REMARK  2 active torsions:
REMARK  status: ('A' for Active; 'I' for Inactive)
REMARK    1  A    between atoms: C2'_3  and  C1'_4 
REMARK    2  A    between atoms: C1'_4  and  C1_5 
ROOT
ATOM      1  C1  I4B d   1      -0.221   0.639  -0.397  0.00  0.00    -0.075 A 
ATOM      2  C2  I4B d   1       0.538   0.257  -1.475  0.00  0.00     0.003 A 
ATOM      3  C3  I4B d   1       1.581  -0.686  -1.314  0.00  0.00     0.002 A 
ATOM      4  C4  I4B d   1       1.862  -1.182  -0.057  0.00  0.00    -0.004 A 
ATOM      5  C5  I4B d   1       1.077  -0.811   1.031  0.00  0.00     0.002 A 
ATOM      6  C6  I4B d   1       0.021   0.096   0.858  0.00  0.00     0.003 A 
ENDROOT
BRANCH   1   7
ATOM      7  C1' I4B d   1      -1.293   1.663  -0.596  0.00  0.00     0.060 C 
BRANCH   7   8
ATOM      8  C2' I4B d   1      -1.732   1.603  -2.045  0.00  0.00    -0.013 C 
ATOM      9  C4' I4B d   1      -3.173   1.181  -2.162  0.00  0.00     0.013 C 
ATOM     10  C3' I4B d   1      -1.513   2.957  -2.651  0.00  0.00     0.013 C 
ENDBRANCH   7   8
ENDBRANCH   1   7
TORSDOF 2
ENDMDL
