MODEL 1
REMARK minimizedAffinity -4.57239962
REMARK minimizedRMSD -1
REMARK  2 active torsions:
REMARK  status: ('A' for Active; 'I' for Inactive)
REMARK    1  A    between atoms: C2'_3  and  C1'_4 
REMARK    2  A    between atoms: C1'_4  and  C1_5 
ROOT
ATOM      1  C1  I4B d   1       0.343   0.008  -1.047  0.00  0.00    -0.075 A 
ATOM      2  C2  I4B d   1      -0.293  -0.031   0.169  0.00  0.00     0.003 A 
ATOM      3  C3  I4B d   1       0.371  -0.554   1.304  0.00  0.00     0.002 A 
ATOM      4  C4  I4B d   1       1.643  -1.071   1.169  0.00  0.00    -0.004 A 
ATOM      5  C5  I4B d   1       2.295  -1.010  -0.059  0.00  0.00     0.002 A 
ATOM      6  C6  I4B d   1       1.646  -0.455  -1.172  0.00  0.00     0.003 A 
ENDROOT
BRANCH   1   7
ATOM      7  C1' I4B d   1      -0.400   0.538  -2.232  0.00  0.00     0.060 C 
BRANCH   7   8
ATOM      8  C2' I4B d   1      -1.468   1.487  -1.728  0.00  0.00    -0.013 C 
ATOM      9  C4' I4B d   1      -1.078   2.922  -1.967  0.00  0.00     0.013 C 
ATOM     10  C3' I4B d   1      -2.752   1.152  -2.426  0.00  0.00     0.013 C 
ENDBRANCH   7   8
ENDBRANCH   1   7
TORSDOF 2
ENDMDL
