MODEL 1
REMARK minimizedAffinity -1.91396534
REMARK minimizedRMSD -1
REMARK  2 active torsions:
REMARK  status: ('A' for Active; 'I' for Inactive)
REMARK    1  A    between atoms: C2'_3  and  C1'_4 
REMARK    2  A    between atoms: C1'_4  and  C1_5 
ROOT
ATOM      1  C1  I4B d   1      -1.388   1.356  -1.104  0.00  0.00    -0.075 A 
ATOM      2  C2  I4B d   1      -0.849   2.217  -2.028  0.00  0.00     0.003 A 
ATOM      3  C3  I4B d   1      -1.641   2.706  -3.094  0.00  0.00     0.002 A 
ATOM      4  C4  I4B d   1      -2.945   2.272  -3.227  0.00  0.00    -0.004 A 
ATOM      5  C5  I4B d   1      -3.496   1.417  -2.277  0.00  0.00     0.002 A 
ATOM      6  C6  I4B d   1      -2.717   0.966  -1.202  0.00  0.00     0.003 A 
ENDROOT
BRANCH   1   7
ATOM      7  C1' I4B d   1      -0.513   0.833  -0.010  0.00  0.00     0.060 C 
BRANCH   7   8
ATOM      8  C2' I4B d   1       0.764   0.317  -0.639  0.00  0.00    -0.013 C 
ATOM      9  C4' I4B d   1       1.833   0.094   0.399  0.00  0.00     0.013 C 
ATOM     10  C3' I4B d   1       0.442  -0.955  -1.366  0.00  0.00     0.013 C 
ENDBRANCH   7   8
ENDBRANCH   1   7
TORSDOF 2
ENDMDL
