MODEL 1
REMARK minimizedAffinity -4.09969187
REMARK minimizedRMSD -1
REMARK  2 active torsions:
REMARK  status: ('A' for Active; 'I' for Inactive)
REMARK    1  A    between atoms: C2'_3  and  C1'_4 
REMARK    2  A    between atoms: C1'_4  and  C1_5 
ROOT
ATOM      1  C1  I4B d   1      -0.509   0.762  -0.694  0.00  0.00    -0.075 A 
ATOM      2  C2  I4B d   1       0.514   0.049  -1.269  0.00  0.00     0.003 A 
ATOM      3  C3  I4B d   1       1.235  -0.903  -0.509  0.00  0.00     0.002 A 
ATOM      4  C4  I4B d   1       0.936  -1.074   0.827  0.00  0.00    -0.004 A 
ATOM      5  C5  I4B d   1      -0.116  -0.367   1.403  0.00  0.00     0.002 A 
ATOM      6  C6  I4B d   1      -0.851   0.547   0.635  0.00  0.00     0.003 A 
ENDROOT
BRANCH   1   7
ATOM      7  C1' I4B d   1      -1.228   1.783  -1.516  0.00  0.00     0.060 C 
BRANCH   7   8
ATOM      8  C2' I4B d   1      -2.156   1.050  -2.463  0.00  0.00    -0.013 C 
ATOM      9  C4' I4B d   1      -3.500   0.806  -1.828  0.00  0.00     0.013 C 
ATOM     10  C3' I4B d   1      -2.288   1.872  -3.711  0.00  0.00     0.013 C 
ENDBRANCH   7   8
ENDBRANCH   1   7
TORSDOF 2
ENDMDL
