MODEL 1
REMARK minimizedAffinity -4.76600218
REMARK minimizedRMSD -1
REMARK  2 active torsions:
REMARK  status: ('A' for Active; 'I' for Inactive)
REMARK    1  A    between atoms: C2'_3  and  C1'_4 
REMARK    2  A    between atoms: C1'_4  and  C1_5 
ROOT
ATOM      1  C1  I4B d   1      -0.743   0.431  -1.964  0.00  0.00    -0.075 A 
ATOM      2  C2  I4B d   1       0.109  -0.630  -2.144  0.00  0.00     0.003 A 
ATOM      3  C3  I4B d   1       1.010  -1.002  -1.117  0.00  0.00     0.002 A 
ATOM      4  C4  I4B d   1       1.060  -0.261   0.046  0.00  0.00    -0.004 A 
ATOM      5  C5  I4B d   1       0.179   0.800   0.236  0.00  0.00     0.002 A 
ATOM      6  C6  I4B d   1      -0.737   1.141  -0.770  0.00  0.00     0.003 A 
ENDROOT
BRANCH   1   7
ATOM      7  C1' I4B d   1      -1.659   0.818  -3.081  0.00  0.00     0.060 C 
BRANCH   7   8
ATOM      8  C2' I4B d   1      -1.894   2.312  -2.997  0.00  0.00    -0.013 C 
ATOM      9  C4' I4B d   1      -1.030   3.056  -3.980  0.00  0.00     0.013 C 
ATOM     10  C3' I4B d   1      -3.349   2.567  -3.254  0.00  0.00     0.013 C 
ENDBRANCH   7   8
ENDBRANCH   1   7
TORSDOF 2
ENDMDL
