MODEL 1
REMARK minimizedAffinity -2.8050704
REMARK minimizedRMSD -1
REMARK  2 active torsions:
REMARK  status: ('A' for Active; 'I' for Inactive)
REMARK    1  A    between atoms: C2'_3  and  C1'_4 
REMARK    2  A    between atoms: C1'_4  and  C1_5 
ROOT
ATOM      1  C1  I4B d   1      -0.058   0.545   0.249  0.00  0.00    -0.075 A 
ATOM      2  C2  I4B d   1       1.129   0.519  -0.441  0.00  0.00     0.003 A 
ATOM      3  C3  I4B d   1       2.138  -0.410  -0.089  0.00  0.00     0.002 A 
ATOM      4  C4  I4B d   1       1.940  -1.255   0.984  0.00  0.00    -0.004 A 
ATOM      5  C5  I4B d   1       0.728  -1.243   1.668  0.00  0.00     0.002 A 
ATOM      6  C6  I4B d   1      -0.283  -0.346   1.290  0.00  0.00     0.003 A 
ENDROOT
BRANCH   1   7
ATOM      7  C1' I4B d   1      -1.088   1.561  -0.128  0.00  0.00     0.060 C 
BRANCH   7   8
ATOM      8  C2' I4B d   1      -1.109   1.667  -1.640  0.00  0.00    -0.013 C 
ATOM      9  C4' I4B d   1      -2.386   1.106  -2.208  0.00  0.00     0.013 C 
ATOM     10  C3' I4B d   1      -0.942   3.111  -2.005  0.00  0.00     0.013 C 
ENDBRANCH   7   8
ENDBRANCH   1   7
TORSDOF 2
ENDMDL
