MODEL 1
REMARK minimizedAffinity -2.17828083
REMARK minimizedRMSD -1
REMARK  2 active torsions:
REMARK  status: ('A' for Active; 'I' for Inactive)
REMARK    1  A    between atoms: C2'_3  and  C1'_4 
REMARK    2  A    between atoms: C1'_4  and  C1_5 
ROOT
ATOM      1  C1  I4B d   1      -0.043   0.042  -0.336  0.00  0.00    -0.075 A 
ATOM      2  C2  I4B d   1       0.665  -0.249  -1.476  0.00  0.00     0.003 A 
ATOM      3  C3  I4B d   1       1.818  -1.068  -1.409  0.00  0.00     0.002 A 
ATOM      4  C4  I4B d   1       2.253  -1.531  -0.184  0.00  0.00    -0.004 A 
ATOM      5  C5  I4B d   1       1.521  -1.254   0.967  0.00  0.00     0.002 A 
ATOM      6  C6  I4B d   1       0.359  -0.473   0.889  0.00  0.00     0.003 A 
ENDROOT
BRANCH   1   7
ATOM      7  C1' I4B d   1      -1.237   0.937  -0.438  0.00  0.00     0.060 C 
BRANCH   7   8
ATOM      8  C2' I4B d   1      -1.815   0.787  -1.831  0.00  0.00    -0.013 C 
ATOM      9  C4' I4B d   1      -3.270   0.401  -1.778  0.00  0.00     0.013 C 
ATOM     10  C3' I4B d   1      -1.626   2.087  -2.553  0.00  0.00     0.013 C 
ENDBRANCH   7   8
ENDBRANCH   1   7
TORSDOF 2
ENDMDL
