MODEL 1
REMARK minimizedAffinity -3.81059194
REMARK minimizedRMSD -1
REMARK  2 active torsions:
REMARK  status: ('A' for Active; 'I' for Inactive)
REMARK    1  A    between atoms: C2'_3  and  C1'_4 
REMARK    2  A    between atoms: C1'_4  and  C1_5 
ROOT
ATOM      1  C1  I4B d   1       0.202  -0.107   1.401  0.00  0.00    -0.075 A 
ATOM      2  C2  I4B d   1       1.439  -0.698   1.340  0.00  0.00     0.003 A 
ATOM      3  C3  I4B d   1       1.767  -1.758   2.221  0.00  0.00     0.002 A 
ATOM      4  C4  I4B d   1       0.852  -2.158   3.173  0.00  0.00    -0.004 A 
ATOM      5  C5  I4B d   1      -0.410  -1.572   3.218  0.00  0.00     0.002 A 
ATOM      6  C6  I4B d   1      -0.742  -0.549   2.319  0.00  0.00     0.003 A 
ENDROOT
BRANCH   1   7
ATOM      7  C1' I4B d   1      -0.099   1.031   0.478  0.00  0.00     0.060 C 
BRANCH   7   8
ATOM      8  C2' I4B d   1      -0.900   0.488  -0.687  0.00  0.00    -0.013 C 
ATOM      9  C4' I4B d   1      -1.524   1.602  -1.486  0.00  0.00     0.013 C 
ATOM     10  C3' I4B d   1       0.020  -0.338  -1.536  0.00  0.00     0.013 C 
ENDBRANCH   7   8
ENDBRANCH   1   7
TORSDOF 2
ENDMDL
