MODEL 1
REMARK minimizedAffinity -1.54154074
REMARK minimizedRMSD -1
REMARK  2 active torsions:
REMARK  status: ('A' for Active; 'I' for Inactive)
REMARK    1  A    between atoms: C2'_3  and  C1'_4 
REMARK    2  A    between atoms: C1'_4  and  C1_5 
ROOT
ATOM      1  C1  I4B d   1      -1.203   1.492  -1.200  0.00  0.00    -0.075 A 
ATOM      2  C2  I4B d   1      -1.088   2.429  -2.197  0.00  0.00     0.003 A 
ATOM      3  C3  I4B d   1      -2.163   2.654  -3.091  0.00  0.00     0.002 A 
ATOM      4  C4  I4B d   1      -3.308   1.890  -2.984  0.00  0.00    -0.004 A 
ATOM      5  C5  I4B d   1      -3.431   0.957  -1.958  0.00  0.00     0.002 A 
ATOM      6  C6  I4B d   1      -2.377   0.765  -1.053  0.00  0.00     0.003 A 
ENDROOT
BRANCH   1   7
ATOM      7  C1' I4B d   1      -0.036   1.257  -0.294  0.00  0.00     0.060 C 
BRANCH   7   8
ATOM      8  C2' I4B d   1       0.381  -0.192  -0.436  0.00  0.00    -0.013 C 
ATOM      9  C4' I4B d   1       1.211  -0.401  -1.675  0.00  0.00     0.013 C 
ATOM     10  C3' I4B d   1       1.141  -0.579   0.797  0.00  0.00     0.013 C 
ENDBRANCH   7   8
ENDBRANCH   1   7
TORSDOF 2
ENDMDL
