MODEL 1
REMARK minimizedAffinity -1.0860976
REMARK minimizedRMSD -1
REMARK  2 active torsions:
REMARK  status: ('A' for Active; 'I' for Inactive)
REMARK    1  A    between atoms: C2'_3  and  C1'_4 
REMARK    2  A    between atoms: C1'_4  and  C1_5 
ROOT
ATOM      1  C1  I4B d   1      -0.039  -0.434   1.483  0.00  0.00    -0.075 A 
ATOM      2  C2  I4B d   1      -0.652  -0.861   2.635  0.00  0.00     0.003 A 
ATOM      3  C3  I4B d   1       0.056  -1.660   3.564  0.00  0.00     0.002 A 
ATOM      4  C4  I4B d   1       1.349  -2.049   3.280  0.00  0.00    -0.004 A 
ATOM      5  C5  I4B d   1       1.976  -1.597   2.123  0.00  0.00     0.002 A 
ATOM      6  C6  I4B d   1       1.282  -0.774   1.224  0.00  0.00     0.003 A 
ENDROOT
BRANCH   1   7
ATOM      7  C1' I4B d   1      -0.827   0.382   0.507  0.00  0.00     0.060 C 
BRANCH   7   8
ATOM      8  C2' I4B d   1       0.083   0.728  -0.654  0.00  0.00    -0.013 C 
ATOM      9  C4' I4B d   1       0.542  -0.512  -1.375  0.00  0.00     0.013 C 
ATOM     10  C3' I4B d   1      -0.669   1.642  -1.575  0.00  0.00     0.013 C 
ENDBRANCH   7   8
ENDBRANCH   1   7
TORSDOF 2
ENDMDL
