MODEL 1
REMARK minimizedAffinity 13.1706381
REMARK minimizedRMSD -1
REMARK  2 active torsions:
REMARK  status: ('A' for Active; 'I' for Inactive)
REMARK    1  A    between atoms: C2'_3  and  C1'_4 
REMARK    2  A    between atoms: C1'_4  and  C1_5 
ROOT
ATOM      1  C1  I4B d   1      -1.651   2.468  -1.720  0.00  0.00    -0.075 A 
ATOM      2  C2  I4B d   1      -1.173   2.248  -0.452  0.00  0.00     0.003 A 
ATOM      3  C3  I4B d   1      -1.717   1.211   0.345  0.00  0.00     0.002 A 
ATOM      4  C4  I4B d   1      -2.763   0.456  -0.144  0.00  0.00    -0.004 A 
ATOM      5  C5  I4B d   1      -3.231   0.665  -1.438  0.00  0.00     0.002 A 
ATOM      6  C6  I4B d   1      -2.663   1.669  -2.236  0.00  0.00     0.003 A 
ENDROOT
BRANCH   1   7
ATOM      7  C1' I4B d   1      -1.077   3.592  -2.522  0.00  0.00     0.060 C 
BRANCH   7   8
ATOM      8  C2' I4B d   1       0.012   3.025  -3.410  0.00  0.00    -0.013 C 
ATOM      9  C4' I4B d   1       0.532   4.065  -4.367  0.00  0.00     0.013 C 
ATOM     10  C3' I4B d   1       1.106   2.506  -2.526  0.00  0.00     0.013 C 
ENDBRANCH   7   8
ENDBRANCH   1   7
TORSDOF 2
ENDMDL
