MODEL 1
REMARK minimizedAffinity 1.72329295
REMARK minimizedRMSD -1
REMARK  2 active torsions:
REMARK  status: ('A' for Active; 'I' for Inactive)
REMARK    1  A    between atoms: C1_2  and  C2_3 
REMARK    2  A    between atoms: C2_3  and  C3_4 
ROOT
ATOM      1  C3  UNL d   1       0.240   0.728  -3.356  0.00  0.00    -0.075 A 
ATOM      2  C4  UNL d   1      -0.476  -0.410  -3.756  0.00  0.00     0.002 A 
ATOM      3  C5  UNL d   1      -1.833  -0.320  -4.068  0.00  0.00     0.002 A 
ATOM      4  C6  UNL d   1      -2.492   0.904  -3.975  0.00  0.00    -0.004 A 
ATOM      5  C7  UNL d   1      -1.795   2.038  -3.563  0.00  0.00     0.002 A 
ATOM      6  C8  UNL d   1      -0.436   1.951  -3.255  0.00  0.00     0.002 A 
ENDROOT
BRANCH   1   7
ATOM      7  C2  UNL d   1       1.715   0.643  -3.046  0.00  0.00     0.056 C 
BRANCH   7   8
ATOM      8  C1  UNL d   1       2.374  -0.663  -3.501  0.00  0.00     0.007 C 
ATOM      9  C   UNL d   1       3.737  -0.455  -4.148  0.00  0.00     0.009 C 
ENDBRANCH   7   8
ENDBRANCH   1   7
TORSDOF 2
ENDMDL
