MODEL 1
REMARK minimizedAffinity 1.63310921
REMARK minimizedRMSD -1
REMARK  2 active torsions:
REMARK  status: ('A' for Active; 'I' for Inactive)
REMARK    1  A    between atoms: C1_2  and  C2_3 
REMARK    2  A    between atoms: C2_3  and  C3_4 
ROOT
ATOM      1  C3  UNL d   1       0.581   1.552   0.310  0.00  0.00    -0.075 A 
ATOM      2  C4  UNL d   1      -0.517   1.479   1.179  0.00  0.00     0.002 A 
ATOM      3  C5  UNL d   1      -1.791   1.190   0.688  0.00  0.00     0.002 A 
ATOM      4  C6  UNL d   1      -1.984   0.980  -0.675  0.00  0.00    -0.004 A 
ATOM      5  C7  UNL d   1      -0.904   1.066  -1.550  0.00  0.00     0.002 A 
ATOM      6  C8  UNL d   1       0.373   1.351  -1.062  0.00  0.00     0.002 A 
ENDROOT
BRANCH   1   7
ATOM      7  C2  UNL d   1       1.967   1.836   0.838  0.00  0.00     0.056 C 
BRANCH   7   8
ATOM      8  C1  UNL d   1       3.081   1.086   0.101  0.00  0.00     0.007 C 
ATOM      9  C   UNL d   1       4.285   0.782   0.982  0.00  0.00     0.009 C 
ENDBRANCH   7   8
ENDBRANCH   1   7
TORSDOF 2
ENDMDL
