MODEL 1
REMARK minimizedAffinity 11.5127878
REMARK minimizedRMSD -1
REMARK  2 active torsions:
REMARK  status: ('A' for Active; 'I' for Inactive)
REMARK    1  A    between atoms: C1_2  and  C2_3 
REMARK    2  A    between atoms: C2_3  and  C3_4 
ROOT
ATOM      1  C3  UNL d   1       0.973  -5.353   1.828  0.00  0.00    -0.075 A 
ATOM      2  C4  UNL d   1       1.847  -5.983   0.930  0.00  0.00     0.002 A 
ATOM      3  C5  UNL d   1       3.068  -5.393   0.598  0.00  0.00     0.002 A 
ATOM      4  C6  UNL d   1       3.425  -4.166   1.152  0.00  0.00    -0.004 A 
ATOM      5  C7  UNL d   1       2.557  -3.524   2.032  0.00  0.00     0.002 A 
ATOM      6  C8  UNL d   1       1.337  -4.113   2.369  0.00  0.00     0.002 A 
ENDROOT
BRANCH   1   7
ATOM      7  C2  UNL d   1      -0.336  -6.000   2.214  0.00  0.00     0.056 C 
BRANCH   7   8
ATOM      8  C1  UNL d   1      -1.385  -5.999   1.096  0.00  0.00     0.007 C 
ATOM      9  C   UNL d   1      -1.878  -4.604   0.737  0.00  0.00     0.009 C 
ENDBRANCH   7   8
ENDBRANCH   1   7
TORSDOF 2
ENDMDL
