MODEL 1
REMARK minimizedAffinity 7.41642952
REMARK minimizedRMSD -1
REMARK  2 active torsions:
REMARK  status: ('A' for Active; 'I' for Inactive)
REMARK    1  A    between atoms: C1_2  and  C2_3 
REMARK    2  A    between atoms: C2_3  and  C3_4 
ROOT
ATOM      1  C3  UNL d   1      -5.062   2.246   5.274  0.00  0.00    -0.075 A 
ATOM      2  C4  UNL d   1      -5.055   2.190   3.873  0.00  0.00     0.002 A 
ATOM      3  C5  UNL d   1      -5.526   1.058   3.207  0.00  0.00     0.002 A 
ATOM      4  C6  UNL d   1      -5.999  -0.034   3.931  0.00  0.00    -0.004 A 
ATOM      5  C7  UNL d   1      -5.995   0.004   5.324  0.00  0.00     0.002 A 
ATOM      6  C8  UNL d   1      -5.528   1.137   5.993  0.00  0.00     0.002 A 
ENDROOT
BRANCH   1   7
ATOM      7  C2  UNL d   1      -4.580   3.479   6.000  0.00  0.00     0.056 C 
BRANCH   7   8
ATOM      8  C1  UNL d   1      -3.755   4.433   5.130  0.00  0.00     0.007 C 
ATOM      9  C   UNL d   1      -3.402   5.736   5.835  0.00  0.00     0.009 C 
ENDBRANCH   7   8
ENDBRANCH   1   7
TORSDOF 2
ENDMDL
