MODEL 1
REMARK minimizedAffinity 10.1887274
REMARK minimizedRMSD -1
REMARK  2 active torsions:
REMARK  status: ('A' for Active; 'I' for Inactive)
REMARK    1  A    between atoms: C1_2  and  C2_3 
REMARK    2  A    between atoms: C2_3  and  C3_4 
ROOT
ATOM      1  C3  UNL d   1       4.197   2.060   0.378  0.00  0.00    -0.075 A 
ATOM      2  C4  UNL d   1       5.352   2.790   0.061  0.00  0.00     0.002 A 
ATOM      3  C5  UNL d   1       5.268   4.144  -0.262  0.00  0.00     0.002 A 
ATOM      4  C6  UNL d   1       4.030   4.783  -0.284  0.00  0.00    -0.004 A 
ATOM      5  C7  UNL d   1       2.874   4.064   0.013  0.00  0.00     0.002 A 
ATOM      6  C8  UNL d   1       2.956   2.709   0.341  0.00  0.00     0.002 A 
ENDROOT
BRANCH   1   7
ATOM      7  C2  UNL d   1       4.284   0.601   0.757  0.00  0.00     0.056 C 
BRANCH   7   8
ATOM      8  C1  UNL d   1       4.507   0.359   2.254  0.00  0.00     0.007 C 
ATOM      9  C   UNL d   1       5.971   0.140   2.615  0.00  0.00     0.009 C 
ENDBRANCH   7   8
ENDBRANCH   1   7
TORSDOF 2
ENDMDL
