MODEL 1
REMARK minimizedAffinity 8.34903145
REMARK minimizedRMSD -1
REMARK  2 active torsions:
REMARK  status: ('A' for Active; 'I' for Inactive)
REMARK    1  A    between atoms: C1_2  and  C2_3 
REMARK    2  A    between atoms: C2_3  and  C3_4 
ROOT
ATOM      1  C3  UNL d   1      -2.421   0.895  -0.111  0.00  0.00    -0.075 A 
ATOM      2  C4  UNL d   1      -3.734   0.959   0.379  0.00  0.00     0.002 A 
ATOM      3  C5  UNL d   1      -3.986   1.434   1.667  0.00  0.00     0.002 A 
ATOM      4  C6  UNL d   1      -2.932   1.841   2.481  0.00  0.00    -0.004 A 
ATOM      5  C7  UNL d   1      -1.623   1.766   2.010  0.00  0.00     0.002 A 
ATOM      6  C8  UNL d   1      -1.368   1.295   0.721  0.00  0.00     0.002 A 
ENDROOT
BRANCH   1   7
ATOM      7  C2  UNL d   1      -2.144   0.409  -1.514  0.00  0.00     0.056 C 
BRANCH   7   8
ATOM      8  C1  UNL d   1      -1.302   1.376  -2.354  0.00  0.00     0.007 C 
ATOM      9  C   UNL d   1      -2.083   2.023  -3.489  0.00  0.00     0.009 C 
ENDBRANCH   7   8
ENDBRANCH   1   7
TORSDOF 2
ENDMDL
