MODEL 1
REMARK minimizedAffinity 7.79143095
REMARK minimizedRMSD -1
REMARK  2 active torsions:
REMARK  status: ('A' for Active; 'I' for Inactive)
REMARK    1  A    between atoms: C1_2  and  C2_3 
REMARK    2  A    between atoms: C2_3  and  C3_4 
ROOT
ATOM      1  C3  UNL d   1       2.699   0.324  -1.631  0.00  0.00    -0.075 A 
ATOM      2  C4  UNL d   1       1.792  -0.667  -2.037  0.00  0.00     0.002 A 
ATOM      3  C5  UNL d   1       1.997  -1.371  -3.224  0.00  0.00     0.002 A 
ATOM      4  C6  UNL d   1       3.103  -1.088  -4.023  0.00  0.00    -0.004 A 
ATOM      5  C7  UNL d   1       4.001  -0.095  -3.638  0.00  0.00     0.002 A 
ATOM      6  C8  UNL d   1       3.800   0.608  -2.449  0.00  0.00     0.002 A 
ENDROOT
BRANCH   1   7
ATOM      7  C2  UNL d   1       2.499   1.069  -0.333  0.00  0.00     0.056 C 
BRANCH   7   8
ATOM      8  C1  UNL d   1       3.763   1.177   0.525  0.00  0.00     0.007 C 
ATOM      9  C   UNL d   1       3.673   0.394   1.828  0.00  0.00     0.009 C 
ENDBRANCH   7   8
ENDBRANCH   1   7
TORSDOF 2
ENDMDL
