MODEL 1
REMARK minimizedAffinity 9.37783813
REMARK minimizedRMSD -1
REMARK  2 active torsions:
REMARK  status: ('A' for Active; 'I' for Inactive)
REMARK    1  A    between atoms: C1_2  and  C2_3 
REMARK    2  A    between atoms: C2_3  and  C3_4 
ROOT
ATOM      1  C3  UNL d   1      -0.876  -6.000   1.422  0.00  0.00    -0.075 A 
ATOM      2  C4  UNL d   1      -0.762  -6.000   2.820  0.00  0.00     0.002 A 
ATOM      3  C5  UNL d   1       0.493  -5.977   3.429  0.00  0.00     0.002 A 
ATOM      4  C6  UNL d   1       1.648  -5.965   2.650  0.00  0.00    -0.004 A 
ATOM      5  C7  UNL d   1       1.548  -5.982   1.261  0.00  0.00     0.002 A 
ATOM      6  C8  UNL d   1       0.293  -6.000   0.649  0.00  0.00     0.002 A 
ENDROOT
BRANCH   1   7
ATOM      7  C2  UNL d   1      -2.231  -5.994   0.757  0.00  0.00     0.056 C 
BRANCH   7   8
ATOM      8  C1  UNL d   1      -3.114  -4.805   1.150  0.00  0.00     0.007 C 
ATOM      9  C   UNL d   1      -3.039  -3.649   0.161  0.00  0.00     0.009 C 
ENDBRANCH   7   8
ENDBRANCH   1   7
TORSDOF 2
ENDMDL
