MODEL 1
REMARK minimizedAffinity 3.60156918
REMARK minimizedRMSD -1
REMARK  2 active torsions:
REMARK  status: ('A' for Active; 'I' for Inactive)
REMARK    1  A    between atoms: C1_2  and  C2_3 
REMARK    2  A    between atoms: C2_3  and  C3_4 
ROOT
ATOM      1  C3  UNL d   1       1.890   3.650  -5.064  0.00  0.00    -0.075 A 
ATOM      2  C4  UNL d   1       1.962   4.706  -5.985  0.00  0.00     0.002 A 
ATOM      3  C5  UNL d   1       1.229   5.875  -5.780  0.00  0.00     0.002 A 
ATOM      4  C6  UNL d   1       0.408   6.000  -4.661  0.00  0.00    -0.004 A 
ATOM      5  C7  UNL d   1       0.316   4.951  -3.749  0.00  0.00     0.002 A 
ATOM      6  C8  UNL d   1       1.052   3.781  -3.949  0.00  0.00     0.002 A 
ENDROOT
BRANCH   1   7
ATOM      7  C2  UNL d   1       2.703   2.394  -5.264  0.00  0.00     0.056 C 
BRANCH   7   8
ATOM      8  C1  UNL d   1       3.375   1.876  -3.988  0.00  0.00     0.007 C 
ATOM      9  C   UNL d   1       3.750   0.402  -4.063  0.00  0.00     0.009 C 
ENDBRANCH   7   8
ENDBRANCH   1   7
TORSDOF 2
ENDMDL
