MODEL 1
REMARK minimizedAffinity 7.26685286
REMARK minimizedRMSD -1
REMARK  2 active torsions:
REMARK  status: ('A' for Active; 'I' for Inactive)
REMARK    1  A    between atoms: C1_2  and  C2_3 
REMARK    2  A    between atoms: C2_3  and  C3_4 
ROOT
ATOM      1  C3  UNL d   1       1.367   1.712  -2.642  0.00  0.00    -0.075 A 
ATOM      2  C4  UNL d   1       1.430   2.637  -3.695  0.00  0.00     0.002 A 
ATOM      3  C5  UNL d   1       2.376   2.491  -4.710  0.00  0.00     0.002 A 
ATOM      4  C6  UNL d   1       3.275   1.427  -4.681  0.00  0.00    -0.004 A 
ATOM      5  C7  UNL d   1       3.233   0.512  -3.631  0.00  0.00     0.002 A 
ATOM      6  C8  UNL d   1       2.284   0.653  -2.616  0.00  0.00     0.002 A 
ENDROOT
BRANCH   1   7
ATOM      7  C2  UNL d   1       0.326   1.847  -1.556  0.00  0.00     0.056 C 
BRANCH   7   8
ATOM      8  C1  UNL d   1      -1.091   1.468  -1.999  0.00  0.00     0.007 C 
ATOM      9  C   UNL d   1      -1.892   0.765  -0.911  0.00  0.00     0.009 C 
ENDBRANCH   7   8
ENDBRANCH   1   7
TORSDOF 2
ENDMDL
