MODEL 1
REMARK minimizedAffinity 7.93588734
REMARK minimizedRMSD -1
REMARK  2 active torsions:
REMARK  status: ('A' for Active; 'I' for Inactive)
REMARK    1  A    between atoms: C1_2  and  C2_3 
REMARK    2  A    between atoms: C2_3  and  C3_4 
ROOT
ATOM      1  C3  UNL d   1      -0.995  -5.946   1.287  0.00  0.00    -0.075 A 
ATOM      2  C4  UNL d   1       0.004  -5.941   0.302  0.00  0.00     0.002 A 
ATOM      3  C5  UNL d   1       1.352  -5.973   0.660  0.00  0.00     0.002 A 
ATOM      4  C6  UNL d   1       1.718  -6.000   2.004  0.00  0.00    -0.004 A 
ATOM      5  C7  UNL d   1       0.735  -5.989   2.991  0.00  0.00     0.002 A 
ATOM      6  C8  UNL d   1      -0.615  -5.961   2.636  0.00  0.00     0.002 A 
ENDROOT
BRANCH   1   7
ATOM      7  C2  UNL d   1      -2.456  -5.942   0.906  0.00  0.00     0.056 C 
BRANCH   7   8
ATOM      8  C1  UNL d   1      -3.125  -4.568   1.015  0.00  0.00     0.007 C 
ATOM      9  C   UNL d   1      -2.197  -3.418   0.647  0.00  0.00     0.009 C 
ENDBRANCH   7   8
ENDBRANCH   1   7
TORSDOF 2
ENDMDL
