MODEL 1
REMARK minimizedAffinity 5.52820492
REMARK minimizedRMSD -1
REMARK  2 active torsions:
REMARK  status: ('A' for Active; 'I' for Inactive)
REMARK    1  A    between atoms: C1_2  and  C2_3 
REMARK    2  A    between atoms: C2_3  and  C3_4 
ROOT
ATOM      1  C3  UNL d   1       2.593   1.913  -2.763  0.00  0.00    -0.075 A 
ATOM      2  C4  UNL d   1       1.669   2.940  -3.003  0.00  0.00     0.002 A 
ATOM      3  C5  UNL d   1       1.717   3.673  -4.189  0.00  0.00     0.002 A 
ATOM      4  C6  UNL d   1       2.693   3.397  -5.144  0.00  0.00    -0.004 A 
ATOM      5  C7  UNL d   1       3.627   2.390  -4.908  0.00  0.00     0.002 A 
ATOM      6  C8  UNL d   1       3.578   1.652  -3.725  0.00  0.00     0.002 A 
ENDROOT
BRANCH   1   7
ATOM      7  C2  UNL d   1       2.529   1.096  -1.494  0.00  0.00     0.056 C 
BRANCH   7   8
ATOM      8  C1  UNL d   1       2.983   1.853  -0.242  0.00  0.00     0.007 C 
ATOM      9  C   UNL d   1       4.185   1.215   0.442  0.00  0.00     0.009 C 
ENDBRANCH   7   8
ENDBRANCH   1   7
TORSDOF 2
ENDMDL
