MODEL 1
REMARK minimizedAffinity 4.57728195
REMARK minimizedRMSD -1
REMARK  0 active torsions:
REMARK  status: ('A' for Active; 'I' for Inactive)
ROOT
ATOM      1  C   UNL d   1       1.551  -0.704   2.633  0.00  0.00     0.020 A 
ATOM      2  C1  UNL d   1       1.163  -1.628   3.602  0.00  0.00     0.020 A 
ATOM      3  C2  UNL d   1      -0.158  -2.079   3.648  0.00  0.00     0.034 A 
ATOM      4  C3  UNL d   1      -1.095  -1.606   2.722  0.00  0.00     0.017 A 
ATOM      5  C4  UNL d   1      -0.705  -0.678   1.750  0.00  0.00     0.017 A 
ATOM      6  C5  UNL d   1       0.619  -0.230   1.709  0.00  0.00     0.034 A 
ATOM      7 Cl   UNL d   1      -1.805  -0.049   0.574  0.00  0.00    -0.070 Cl
ATOM      8 Cl1  UNL d   1      -2.711  -2.207   2.837  0.00  0.00    -0.070 Cl
ENDROOT
TORSDOF 0
ENDMDL
