MODEL 1
REMARK minimizedAffinity 6.55594015
REMARK minimizedRMSD -1
REMARK  0 active torsions:
REMARK  status: ('A' for Active; 'I' for Inactive)
ROOT
ATOM      1  C   UNL d   1       1.694  -2.037   4.329  0.00  0.00     0.020 A 
ATOM      2  C1  UNL d   1       0.370  -2.327   4.002  0.00  0.00     0.020 A 
ATOM      3  C2  UNL d   1      -0.280  -1.596   3.006  0.00  0.00     0.034 A 
ATOM      4  C3  UNL d   1       0.393  -0.570   2.333  0.00  0.00     0.017 A 
ATOM      5  C4  UNL d   1       1.722  -0.279   2.661  0.00  0.00     0.017 A 
ATOM      6  C5  UNL d   1       2.369  -1.015   3.660  0.00  0.00     0.034 A 
ATOM      7 Cl   UNL d   1       2.619   0.972   1.875  0.00  0.00    -0.070 Cl
ATOM      8 Cl1  UNL d   1      -0.472   0.293   1.112  0.00  0.00    -0.070 Cl
ENDROOT
TORSDOF 0
ENDMDL
