MODEL 1
REMARK minimizedAffinity -0.158400029
REMARK minimizedRMSD -1
REMARK  0 active torsions:
REMARK  status: ('A' for Active; 'I' for Inactive)
ROOT
ATOM      1  C   UNL d   1      -0.250  -2.074   4.398  0.00  0.00     0.020 A 
ATOM      2  C1  UNL d   1       1.117  -2.147   4.660  0.00  0.00     0.020 A 
ATOM      3  C2  UNL d   1       2.025  -1.497   3.821  0.00  0.00     0.034 A 
ATOM      4  C3  UNL d   1       1.565  -0.771   2.716  0.00  0.00     0.017 A 
ATOM      5  C4  UNL d   1       0.193  -0.698   2.454  0.00  0.00     0.017 A 
ATOM      6  C5  UNL d   1      -0.711  -1.351   3.297  0.00  0.00     0.034 A 
ATOM      7 Cl   UNL d   1      -0.450   0.178   1.110  0.00  0.00    -0.070 Cl
ATOM      8 Cl1  UNL d   1       2.743   0.009   1.721  0.00  0.00    -0.070 Cl
ENDROOT
TORSDOF 0
ENDMDL
