MODEL 1
REMARK minimizedAffinity -4.44480705
REMARK minimizedRMSD -1
REMARK  0 active torsions:
REMARK  status: ('A' for Active; 'I' for Inactive)
ROOT
ATOM      1  C   UNL d   1       0.986   0.214   2.194  0.00  0.00     0.020 A 
ATOM      2  C1  UNL d   1      -0.218   0.671   1.659  0.00  0.00     0.020 A 
ATOM      3  C2  UNL d   1      -1.423   0.086   2.052  0.00  0.00     0.034 A 
ATOM      4  C3  UNL d   1      -1.428  -0.959   2.983  0.00  0.00     0.017 A 
ATOM      5  C4  UNL d   1      -0.219  -1.417   3.520  0.00  0.00     0.017 A 
ATOM      6  C5  UNL d   1       0.985  -0.828   3.123  0.00  0.00     0.034 A 
ATOM      7 Cl   UNL d   1      -0.145  -2.702   4.673  0.00  0.00    -0.070 Cl
ATOM      8 Cl1  UNL d   1      -2.956  -1.635   3.424  0.00  0.00    -0.070 Cl
ENDROOT
TORSDOF 0
ENDMDL
