MODEL 1
REMARK minimizedAffinity 1.76900434
REMARK minimizedRMSD -1
REMARK  0 active torsions:
REMARK  status: ('A' for Active; 'I' for Inactive)
ROOT
ATOM      1  C   UNL d   1       0.910  -0.595   2.566  0.00  0.00     0.020 A 
ATOM      2  C1  UNL d   1      -0.055  -1.555   2.868  0.00  0.00     0.020 A 
ATOM      3  C2  UNL d   1       0.147  -2.437   3.932  0.00  0.00     0.034 A 
ATOM      4  C3  UNL d   1       1.317  -2.361   4.697  0.00  0.00     0.017 A 
ATOM      5  C4  UNL d   1       2.285  -1.397   4.392  0.00  0.00     0.017 A 
ATOM      6  C5  UNL d   1       2.077  -0.516   3.326  0.00  0.00     0.034 A 
ATOM      7 Cl   UNL d   1       3.753  -1.242   5.291  0.00  0.00    -0.070 Cl
ATOM      8 Cl1  UNL d   1       1.501  -3.483   5.998  0.00  0.00    -0.070 Cl
ENDROOT
TORSDOF 0
ENDMDL
