MODEL 1
REMARK minimizedAffinity 8.65519238
REMARK minimizedRMSD -1
REMARK  0 active torsions:
REMARK  status: ('A' for Active; 'I' for Inactive)
ROOT
ATOM      1  C   UNL d   1       1.980  -0.432   2.401  0.00  0.00     0.020 A 
ATOM      2  C1  UNL d   1       1.598  -1.617   3.028  0.00  0.00     0.020 A 
ATOM      3  C2  UNL d   1       0.265  -2.033   2.983  0.00  0.00     0.034 A 
ATOM      4  C3  UNL d   1      -0.690  -1.262   2.310  0.00  0.00     0.017 A 
ATOM      5  C4  UNL d   1      -0.305  -0.072   1.681  0.00  0.00     0.017 A 
ATOM      6  C5  UNL d   1       1.030   0.339   1.729  0.00  0.00     0.034 A 
ATOM      7 Cl   UNL d   1      -1.426   0.931   0.831  0.00  0.00    -0.070 Cl
ATOM      8 Cl1  UNL d   1      -2.320  -1.836   2.293  0.00  0.00    -0.070 Cl
ENDROOT
TORSDOF 0
ENDMDL
