MODEL 1
REMARK minimizedAffinity 0.595860302
REMARK minimizedRMSD -1
REMARK  0 active torsions:
REMARK  status: ('A' for Active; 'I' for Inactive)
ROOT
ATOM      1  C   UNL d   1       1.729  -1.381   3.212  0.00  0.00     0.020 A 
ATOM      2  C1  UNL d   1       1.126  -2.357   4.004  0.00  0.00     0.020 A 
ATOM      3  C2  UNL d   1      -0.259  -2.533   3.962  0.00  0.00     0.034 A 
ATOM      4  C3  UNL d   1      -1.046  -1.731   3.127  0.00  0.00     0.017 A 
ATOM      5  C4  UNL d   1      -0.439  -0.750   2.333  0.00  0.00     0.017 A 
ATOM      6  C5  UNL d   1       0.948  -0.579   2.379  0.00  0.00     0.034 A 
ATOM      7 Cl   UNL d   1      -1.343   0.278   1.278  0.00  0.00    -0.070 Cl
ATOM      8 Cl1  UNL d   1      -2.752  -2.003   3.125  0.00  0.00    -0.070 Cl
ENDROOT
TORSDOF 0
ENDMDL
