MODEL 1
REMARK minimizedAffinity 2.70069504
REMARK minimizedRMSD -1
REMARK  0 active torsions:
REMARK  status: ('A' for Active; 'I' for Inactive)
ROOT
ATOM      1  C   UNL d   1      -0.762  -0.581  -5.582  0.00  0.00     0.020 A 
ATOM      2  C1  UNL d   1      -0.096   0.443  -4.911  0.00  0.00     0.020 A 
ATOM      3  C2  UNL d   1      -0.825   1.434  -4.250  0.00  0.00     0.034 A 
ATOM      4  C3  UNL d   1      -2.224   1.403  -4.259  0.00  0.00     0.017 A 
ATOM      5  C4  UNL d   1      -2.892   0.374  -4.933  0.00  0.00     0.017 A 
ATOM      6  C5  UNL d   1      -2.157  -0.616  -5.593  0.00  0.00     0.034 A 
ATOM      7 Cl   UNL d   1      -4.616   0.268  -4.989  0.00  0.00    -0.070 Cl
ATOM      8 Cl1  UNL d   1      -3.061   2.660  -3.420  0.00  0.00    -0.070 Cl
ENDROOT
TORSDOF 0
ENDMDL
