MODEL 1
REMARK minimizedAffinity 1.93734288
REMARK minimizedRMSD -1
REMARK  0 active torsions:
REMARK  status: ('A' for Active; 'I' for Inactive)
ROOT
ATOM      1  C   UNL d   1      -1.914  -0.131   1.703  0.00  0.00     0.020 A 
ATOM      2  C1  UNL d   1      -1.366   0.539   0.610  0.00  0.00     0.020 A 
ATOM      3  C2  UNL d   1       0.020   0.596   0.449  0.00  0.00     0.034 A 
ATOM      4  C3  UNL d   1       0.863  -0.019   1.382  0.00  0.00     0.017 A 
ATOM      5  C4  UNL d   1       0.312  -0.691   2.479  0.00  0.00     0.017 A 
ATOM      6  C5  UNL d   1      -1.076  -0.745   2.636  0.00  0.00     0.034 A 
ATOM      7 Cl   UNL d   1       1.288  -1.473   3.673  0.00  0.00    -0.070 Cl
ATOM      8 Cl1  UNL d   1       2.567   0.091   1.120  0.00  0.00    -0.070 Cl
ENDROOT
TORSDOF 0
ENDMDL
