MODEL 1
REMARK minimizedAffinity -0.0720046535
REMARK minimizedRMSD -1
REMARK  0 active torsions:
REMARK  status: ('A' for Active; 'I' for Inactive)
ROOT
ATOM      1  C   UNL d   1      -0.945   1.039   1.193  0.00  0.00     0.020 A 
ATOM      2  C1  UNL d   1       0.407   1.185   1.499  0.00  0.00     0.020 A 
ATOM      3  C2  UNL d   1       1.045   0.247   2.313  0.00  0.00     0.034 A 
ATOM      4  C3  UNL d   1       0.330  -0.842   2.825  0.00  0.00     0.017 A 
ATOM      5  C4  UNL d   1      -1.027  -0.989   2.517  0.00  0.00     0.017 A 
ATOM      6  C5  UNL d   1      -1.661  -0.046   1.701  0.00  0.00     0.034 A 
ATOM      7 Cl   UNL d   1      -1.975  -2.306   3.111  0.00  0.00    -0.070 Cl
ATOM      8 Cl1  UNL d   1       1.182  -1.964   3.825  0.00  0.00    -0.070 Cl
ENDROOT
TORSDOF 0
ENDMDL
