MODEL 1
REMARK minimizedAffinity 12.5009537
REMARK minimizedRMSD -1
REMARK  0 active torsions:
REMARK  status: ('A' for Active; 'I' for Inactive)
ROOT
ATOM      1  C   UNL d   1       1.931  -2.063   5.535  0.00  0.00     0.020 A 
ATOM      2  C1  UNL d   1       1.761  -2.410   4.195  0.00  0.00     0.020 A 
ATOM      3  C2  UNL d   1       1.133  -1.523   3.318  0.00  0.00     0.034 A 
ATOM      4  C3  UNL d   1       0.673  -0.285   3.780  0.00  0.00     0.017 A 
ATOM      5  C4  UNL d   1       0.844   0.063   5.125  0.00  0.00     0.017 A 
ATOM      6  C5  UNL d   1       1.474  -0.829   5.998  0.00  0.00     0.034 A 
ATOM      7 Cl   UNL d   1       0.302   1.573   5.768  0.00  0.00    -0.070 Cl
ATOM      8 Cl1  UNL d   1      -0.095   0.763   2.640  0.00  0.00    -0.070 Cl
ENDROOT
TORSDOF 0
ENDMDL
