MODEL 1
REMARK minimizedAffinity 12.3818188
REMARK minimizedRMSD -1
REMARK  3 active torsions:
REMARK  status: ('A' for Active; 'I' for Inactive)
REMARK    1  A    between atoms: C3'_2  and  C2'_3 
REMARK    2  A    between atoms: C2'_3  and  C1'_4 
REMARK    3  A    between atoms: C1'_4  and  C1_5 
ROOT
ATOM      1  C1  N4B d   1       2.811  -3.335   0.292  0.00  0.00    -0.075 A 
ATOM      2  C2  N4B d   1       1.440  -3.232  -0.031  0.00  0.00     0.002 A 
ATOM      3  C3  N4B d   1       0.692  -4.368  -0.221  0.00  0.00     0.002 A 
ATOM      4  C4  N4B d   1       1.295  -5.612  -0.111  0.00  0.00    -0.004 A 
ATOM      5  C5  N4B d   1       2.614  -5.703   0.226  0.00  0.00     0.002 A 
ATOM      6  C6  N4B d   1       3.376  -4.570   0.424  0.00  0.00     0.002 A 
ENDROOT
BRANCH   1   7
ATOM      7  C1' N4B d   1       3.689  -2.121   0.424  0.00  0.00     0.057 C 
BRANCH   7   8
ATOM      8  C2' N4B d   1       5.110  -2.564   0.757  0.00  0.00     0.009 C 
BRANCH   8   9
ATOM      9  C3' N4B d   1       5.991  -2.628  -0.479  0.00  0.00     0.004 C 
ATOM     10  C4' N4B d   1       5.991  -3.982  -1.123  0.00  0.00     0.003 C 
ENDBRANCH   8   9
ENDBRANCH   7   8
ENDBRANCH   1   7
TORSDOF 3
ENDMDL
