MODEL 1
REMARK minimizedAffinity 5.35035181
REMARK minimizedRMSD -1
REMARK  3 active torsions:
REMARK  status: ('A' for Active; 'I' for Inactive)
REMARK    1  A    between atoms: C3'_2  and  C2'_3 
REMARK    2  A    between atoms: C2'_3  and  C1'_4 
REMARK    3  A    between atoms: C1'_4  and  C1_5 
ROOT
ATOM      1  C1  N4B d   1       2.306  -1.878   2.398  0.00  0.00    -0.075 A 
ATOM      2  C2  N4B d   1       2.896  -2.558   1.310  0.00  0.00     0.002 A 
ATOM      3  C3  N4B d   1       2.213  -2.680   0.125  0.00  0.00     0.002 A 
ATOM      4  C4  N4B d   1       0.937  -2.150   0.011  0.00  0.00    -0.004 A 
ATOM      5  C5  N4B d   1       0.384  -1.472   1.059  0.00  0.00     0.002 A 
ATOM      6  C6  N4B d   1       1.061  -1.338   2.254  0.00  0.00     0.002 A 
ENDROOT
BRANCH   1   7
ATOM      7  C1' N4B d   1       2.979  -1.793   3.741  0.00  0.00     0.057 C 
BRANCH   7   8
ATOM      8  C2' N4B d   1       3.783  -3.069   3.980  0.00  0.00     0.009 C 
BRANCH   8   9
ATOM      9  C3' N4B d   1       4.410  -3.094   5.363  0.00  0.00     0.004 C 
ATOM     10  C4' N4B d   1       4.442  -4.469   5.961  0.00  0.00     0.003 C 
ENDBRANCH   8   9
ENDBRANCH   7   8
ENDBRANCH   1   7
TORSDOF 3
ENDMDL
