MODEL 1
REMARK minimizedAffinity 11.111659
REMARK minimizedRMSD -1
REMARK  3 active torsions:
REMARK  status: ('A' for Active; 'I' for Inactive)
REMARK    1  A    between atoms: C3'_2  and  C2'_3 
REMARK    2  A    between atoms: C2'_3  and  C1'_4 
REMARK    3  A    between atoms: C1'_4  and  C1_5 
ROOT
ATOM      1  C1  N4B d   1      -2.610   2.453  -3.357  0.00  0.00    -0.075 A 
ATOM      2  C2  N4B d   1      -1.869   2.656  -4.542  0.00  0.00     0.002 A 
ATOM      3  C3  N4B d   1      -0.551   2.277  -4.601  0.00  0.00     0.002 A 
ATOM      4  C4  N4B d   1       0.051   1.712  -3.487  0.00  0.00    -0.004 A 
ATOM      5  C5  N4B d   1      -0.678   1.496  -2.355  0.00  0.00     0.002 A 
ATOM      6  C6  N4B d   1      -2.005   1.868  -2.282  0.00  0.00     0.002 A 
ENDROOT
BRANCH   1   7
ATOM      7  C1' N4B d   1      -4.030   2.929  -3.216  0.00  0.00     0.057 C 
BRANCH   7   8
ATOM      8  C2' N4B d   1      -4.380   3.820  -4.404  0.00  0.00     0.009 C 
BRANCH   8   9
ATOM      9  C3' N4B d   1      -5.646   3.360  -5.106  0.00  0.00     0.004 C 
ATOM     10  C4' N4B d   1      -5.998   1.936  -4.794  0.00  0.00     0.003 C 
ENDBRANCH   8   9
ENDBRANCH   7   8
ENDBRANCH   1   7
TORSDOF 3
ENDMDL
