MODEL 1
REMARK minimizedAffinity 8.19780159
REMARK minimizedRMSD -1
REMARK  1 active torsions:
REMARK  status: ('A' for Active; 'I' for Inactive)
REMARK    1  A    between atoms: C1_2  and  C2_3 
ROOT
ATOM      1  C2  UNL d   1      -4.940   3.825  -1.601  0.00  0.00    -0.081 A 
ATOM      2  C3  UNL d   1      -4.564   3.601  -2.931  0.00  0.00     0.006 A 
ATOM      3  C4  UNL d   1      -3.626   2.615  -3.245  0.00  0.00     0.002 A 
ATOM      4  C5  UNL d   1      -3.054   1.833  -2.236  0.00  0.00    -0.080 A 
ATOM      5  C6  UNL d   1      -2.068   0.751  -2.563  0.00  0.00     0.076 C 
ATOM      6  C7  UNL d   1      -3.416   2.068  -0.906  0.00  0.00     0.002 A 
ATOM      7  C8  UNL d   1      -4.354   3.054  -0.591  0.00  0.00     0.006 A 
ENDROOT
BRANCH   1   8
ATOM      8  C1  UNL d   1      -6.000   4.844  -1.266  0.00  0.00     0.054 C 
ATOM      9  C   UNL d   1      -6.000   5.992  -2.264  0.00  0.00     0.018 C 
ENDBRANCH   1   8
TORSDOF 1
ENDMDL
