MODEL 1
REMARK minimizedAffinity 2.40911555
REMARK minimizedRMSD -1
REMARK  1 active torsions:
REMARK  status: ('A' for Active; 'I' for Inactive)
REMARK    1  A    between atoms: C1_2  and  C2_3 
ROOT
ATOM      1  C2  UNL d   1       4.350   3.769  -4.715  0.00  0.00    -0.081 A 
ATOM      2  C3  UNL d   1       3.459   3.764  -3.635  0.00  0.00     0.006 A 
ATOM      3  C4  UNL d   1       3.755   4.474  -2.470  0.00  0.00     0.002 A 
ATOM      4  C5  UNL d   1       4.942   5.207  -2.367  0.00  0.00    -0.080 A 
ATOM      5  C6  UNL d   1       5.258   5.999  -1.133  0.00  0.00     0.076 C 
ATOM      6  C7  UNL d   1       5.841   5.198  -3.440  0.00  0.00     0.002 A 
ATOM      7  C8  UNL d   1       5.545   4.488  -4.605  0.00  0.00     0.006 A 
ENDROOT
BRANCH   1   8
ATOM      8  C1  UNL d   1       4.004   3.057  -5.998  0.00  0.00     0.054 C 
ATOM      9  C   UNL d   1       4.464   1.606  -5.968  0.00  0.00     0.018 C 
ENDBRANCH   1   8
TORSDOF 1
ENDMDL
