MODEL 1
REMARK minimizedAffinity 2.4989419
REMARK minimizedRMSD -1
REMARK  1 active torsions:
REMARK  status: ('A' for Active; 'I' for Inactive)
REMARK    1  A    between atoms: C1_2  and  C2_3 
ROOT
ATOM      1  C2  UNL d   1       3.503   5.226  -2.546  0.00  0.00    -0.081 A 
ATOM      2  C3  UNL d   1       3.030   4.929  -3.830  0.00  0.00     0.006 A 
ATOM      3  C4  UNL d   1       3.830   5.162  -4.951  0.00  0.00     0.002 A 
ATOM      4  C5  UNL d   1       5.119   5.687  -4.807  0.00  0.00    -0.080 A 
ATOM      5  C6  UNL d   1       5.999   5.913  -6.000  0.00  0.00     0.076 C 
ATOM      6  C7  UNL d   1       5.585   5.999  -3.526  0.00  0.00     0.002 A 
ATOM      7  C8  UNL d   1       4.785   5.768  -2.405  0.00  0.00     0.006 A 
ENDROOT
BRANCH   1   8
ATOM      8  C1  UNL d   1       2.667   4.916  -1.331  0.00  0.00     0.054 C 
ATOM      9  C   UNL d   1       1.201   5.245  -1.569  0.00  0.00     0.018 C 
ENDBRANCH   1   8
TORSDOF 1
ENDMDL
