MODEL 1
REMARK minimizedAffinity 3.10027599
REMARK minimizedRMSD -1
REMARK  1 active torsions:
REMARK  status: ('A' for Active; 'I' for Inactive)
REMARK    1  A    between atoms: C1_2  and  C2_3 
ROOT
ATOM      1  C2  UNL d   1       2.182   0.611   2.440  0.00  0.00    -0.081 A 
ATOM      2  C3  UNL d   1       1.959  -0.573   1.727  0.00  0.00     0.006 A 
ATOM      3  C4  UNL d   1       1.297  -1.647   2.328  0.00  0.00     0.002 A 
ATOM      4  C5  UNL d   1       0.841  -1.551   3.647  0.00  0.00    -0.080 A 
ATOM      5  C6  UNL d   1       0.102  -2.685   4.293  0.00  0.00     0.076 C 
ATOM      6  C7  UNL d   1       1.079  -0.375   4.365  0.00  0.00     0.002 A 
ATOM      7  C8  UNL d   1       1.742   0.699   3.765  0.00  0.00     0.006 A 
ENDROOT
BRANCH   1   8
ATOM      8  C1  UNL d   1       2.838   1.794   1.775  0.00  0.00     0.054 C 
ATOM      9  C   UNL d   1       2.914   1.609   0.266  0.00  0.00     0.018 C 
ENDBRANCH   1   8
TORSDOF 1
ENDMDL
