MODEL 1
REMARK minimizedAffinity 9.43836975
REMARK minimizedRMSD -1
REMARK  1 active torsions:
REMARK  status: ('A' for Active; 'I' for Inactive)
REMARK    1  A    between atoms: C1_2  and  C2_3 
ROOT
ATOM      1  C2  UNL d   1       3.925   5.044  -2.332  0.00  0.00    -0.081 A 
ATOM      2  C3  UNL d   1       3.335   4.765  -3.571  0.00  0.00     0.006 A 
ATOM      3  C4  UNL d   1       3.997   5.084  -4.758  0.00  0.00     0.002 A 
ATOM      4  C5  UNL d   1       5.263   5.679  -4.727  0.00  0.00    -0.080 A 
ATOM      5  C6  UNL d   1       5.998   5.999  -5.995  0.00  0.00     0.076 C 
ATOM      6  C7  UNL d   1       5.845   5.973  -3.490  0.00  0.00     0.002 A 
ATOM      7  C8  UNL d   1       5.183   5.655  -2.302  0.00  0.00     0.006 A 
ENDROOT
BRANCH   1   8
ATOM      8  C1  UNL d   1       3.241   4.642  -1.050  0.00  0.00     0.054 C 
ATOM      9  C   UNL d   1       1.803   4.213  -1.301  0.00  0.00     0.018 C 
ENDBRANCH   1   8
TORSDOF 1
ENDMDL
