MODEL 1
REMARK minimizedAffinity -1.6028986
REMARK minimizedRMSD -1
REMARK  2 active torsions:
REMARK  status: ('A' for Active; 'I' for Inactive)
REMARK    1  A    between atoms: C1_2  and  C2_3 
REMARK    2  A    between atoms: C2_3  and  C3_4 
ROOT
ATOM      1  C3  UNL d   1      -0.711  -0.612   1.564  0.00  0.00    -0.075 A 
ATOM      2  C4  UNL d   1      -0.227  -0.349   0.274  0.00  0.00     0.002 A 
ATOM      3  C5  UNL d   1       0.442   0.843  -0.002  0.00  0.00     0.002 A 
ATOM      4  C6  UNL d   1       0.627   1.791   1.002  0.00  0.00    -0.004 A 
ATOM      5  C7  UNL d   1       0.136   1.547   2.283  0.00  0.00     0.002 A 
ATOM      6  C8  UNL d   1      -0.530   0.353   2.564  0.00  0.00     0.002 A 
ENDROOT
BRANCH   1   7
ATOM      7  C2  UNL d   1      -1.410  -1.913   1.877  0.00  0.00     0.056 C 
BRANCH   7   8
ATOM      8  C1  UNL d   1      -1.228  -2.387   3.322  0.00  0.00     0.007 C 
ATOM      9  C   UNL d   1      -2.519  -2.365   4.129  0.00  0.00     0.009 C 
ENDBRANCH   7   8
ENDBRANCH   1   7
TORSDOF 2
ENDMDL
