MODEL 1
REMARK minimizedAffinity -1.91671741
REMARK minimizedRMSD -1
REMARK  2 active torsions:
REMARK  status: ('A' for Active; 'I' for Inactive)
REMARK    1  A    between atoms: C1_2  and  C2_3 
REMARK    2  A    between atoms: C2_3  and  C3_4 
ROOT
ATOM      1  C3  UNL d   1       1.362   1.113   0.064  0.00  0.00    -0.075 A 
ATOM      2  C4  UNL d   1       1.929  -0.113  -0.313  0.00  0.00     0.002 A 
ATOM      3  C5  UNL d   1       1.122  -1.231  -0.526  0.00  0.00     0.002 A 
ATOM      4  C6  UNL d   1      -0.257  -1.141  -0.355  0.00  0.00    -0.004 A 
ATOM      5  C7  UNL d   1      -0.830   0.068   0.037  0.00  0.00     0.002 A 
ATOM      6  C8  UNL d   1      -0.025   1.189   0.246  0.00  0.00     0.002 A 
ENDROOT
BRANCH   1   7
ATOM      7  C2  UNL d   1       2.227   2.334   0.267  0.00  0.00     0.056 C 
BRANCH   7   8
ATOM      8  C1  UNL d   1       2.037   3.014   1.628  0.00  0.00     0.007 C 
ATOM      9  C   UNL d   1       1.843   2.026   2.770  0.00  0.00     0.009 C 
ENDBRANCH   7   8
ENDBRANCH   1   7
TORSDOF 2
ENDMDL
