MODEL 1
REMARK minimizedAffinity -5.48385143
REMARK minimizedRMSD -1
REMARK  2 active torsions:
REMARK  status: ('A' for Active; 'I' for Inactive)
REMARK    1  A    between atoms: C1_2  and  C2_3 
REMARK    2  A    between atoms: C2_3  and  C3_4 
ROOT
ATOM      1  C3  UNL d   1       0.536   0.098   0.727  0.00  0.00    -0.075 A 
ATOM      2  C4  UNL d   1      -0.250   0.796   1.656  0.00  0.00     0.002 A 
ATOM      3  C5  UNL d   1      -0.147   2.183   1.771  0.00  0.00     0.002 A 
ATOM      4  C6  UNL d   1       0.747   2.887   0.968  0.00  0.00    -0.004 A 
ATOM      5  C7  UNL d   1       1.544   2.202   0.053  0.00  0.00     0.002 A 
ATOM      6  C8  UNL d   1       1.440   0.816  -0.068  0.00  0.00     0.002 A 
ENDROOT
BRANCH   1   7
ATOM      7  C2  UNL d   1       0.408  -1.399   0.577  0.00  0.00     0.056 C 
BRANCH   7   8
ATOM      8  C1  UNL d   1      -0.924  -1.965   1.080  0.00  0.00     0.007 C 
ATOM      9  C   UNL d   1      -0.894  -2.353   2.552  0.00  0.00     0.009 C 
ENDBRANCH   7   8
ENDBRANCH   1   7
TORSDOF 2
ENDMDL
