MODEL 1
REMARK minimizedAffinity 4.23412132
REMARK minimizedRMSD -1
REMARK  2 active torsions:
REMARK  status: ('A' for Active; 'I' for Inactive)
REMARK    1  A    between atoms: C1_2  and  C2_3 
REMARK    2  A    between atoms: C2_3  and  C3_4 
ROOT
ATOM      1  C3  UNL d   1       1.445   0.986   0.802  0.00  0.00    -0.075 A 
ATOM      2  C4  UNL d   1       0.315   0.249   0.419  0.00  0.00     0.002 A 
ATOM      3  C5  UNL d   1       0.358  -0.581  -0.702  0.00  0.00     0.002 A 
ATOM      4  C6  UNL d   1       1.524  -0.677  -1.458  0.00  0.00    -0.004 A 
ATOM      5  C7  UNL d   1       2.647   0.064  -1.096  0.00  0.00     0.002 A 
ATOM      6  C8  UNL d   1       2.609   0.891   0.027  0.00  0.00     0.002 A 
ENDROOT
BRANCH   1   7
ATOM      7  C2  UNL d   1       1.415   1.863   2.031  0.00  0.00     0.056 C 
BRANCH   7   8
ATOM      8  C1  UNL d   1       0.911   1.153   3.292  0.00  0.00     0.007 C 
ATOM      9  C   UNL d   1       1.902   1.207   4.448  0.00  0.00     0.009 C 
ENDBRANCH   7   8
ENDBRANCH   1   7
TORSDOF 2
ENDMDL
