MODEL 1
REMARK minimizedAffinity -5.64044571
REMARK minimizedRMSD -1
REMARK  2 active torsions:
REMARK  status: ('A' for Active; 'I' for Inactive)
REMARK    1  A    between atoms: C1_2  and  C2_3 
REMARK    2  A    between atoms: C2_3  and  C3_4 
ROOT
ATOM      1  C3  UNL d   1       0.463   0.196   0.133  0.00  0.00    -0.075 A 
ATOM      2  C4  UNL d   1      -0.093   0.497   1.385  0.00  0.00     0.002 A 
ATOM      3  C5  UNL d   1       0.418   1.544   2.153  0.00  0.00     0.002 A 
ATOM      4  C6  UNL d   1       1.495   2.294   1.686  0.00  0.00    -0.004 A 
ATOM      5  C7  UNL d   1       2.065   1.992   0.451  0.00  0.00     0.002 A 
ATOM      6  C8  UNL d   1       1.553   0.949  -0.322  0.00  0.00     0.002 A 
ENDROOT
BRANCH   1   7
ATOM      7  C2  UNL d   1      -0.105  -0.916  -0.717  0.00  0.00     0.056 C 
BRANCH   7   8
ATOM      8  C1  UNL d   1      -1.403  -0.547  -1.442  0.00  0.00     0.007 C 
ATOM      9  C   UNL d   1      -2.217  -1.760  -1.872  0.00  0.00     0.009 C 
ENDBRANCH   7   8
ENDBRANCH   1   7
TORSDOF 2
ENDMDL
