MODEL 1
REMARK minimizedAffinity -3.90921926
REMARK minimizedRMSD -1
REMARK  2 active torsions:
REMARK  status: ('A' for Active; 'I' for Inactive)
REMARK    1  A    between atoms: C1_2  and  C2_3 
REMARK    2  A    between atoms: C2_3  and  C3_4 
ROOT
ATOM      1  C3  UNL d   1       0.129  -0.009   0.409  0.00  0.00    -0.075 A 
ATOM      2  C4  UNL d   1      -0.719   0.404  -0.629  0.00  0.00     0.002 A 
ATOM      3  C5  UNL d   1      -0.605   1.684  -1.170  0.00  0.00     0.002 A 
ATOM      4  C6  UNL d   1       0.349   2.571  -0.675  0.00  0.00    -0.004 A 
ATOM      5  C7  UNL d   1       1.185   2.178   0.367  0.00  0.00     0.002 A 
ATOM      6  C8  UNL d   1       1.076   0.895   0.908  0.00  0.00     0.002 A 
ENDROOT
BRANCH   1   7
ATOM      7  C2  UNL d   1       0.031  -1.404   0.979  0.00  0.00     0.056 C 
BRANCH   7   8
ATOM      8  C1  UNL d   1      -1.397  -1.959   1.026  0.00  0.00     0.007 C 
ATOM      9  C   UNL d   1      -1.758  -2.572   2.373  0.00  0.00     0.009 C 
ENDBRANCH   7   8
ENDBRANCH   1   7
TORSDOF 2
ENDMDL
