MODEL 1
REMARK minimizedAffinity 7.62239075
REMARK minimizedRMSD -1
REMARK  2 active torsions:
REMARK  status: ('A' for Active; 'I' for Inactive)
REMARK    1  A    between atoms: C1_2  and  C2_3 
REMARK    2  A    between atoms: C2_3  and  C3_4 
ROOT
ATOM      1  C3  UNL d   1       3.266   3.600  -3.588  0.00  0.00    -0.075 A 
ATOM      2  C4  UNL d   1       3.691   3.804  -4.909  0.00  0.00     0.002 A 
ATOM      3  C5  UNL d   1       5.050   3.799  -5.225  0.00  0.00     0.002 A 
ATOM      4  C6  UNL d   1       6.000   3.602  -4.225  0.00  0.00    -0.004 A 
ATOM      5  C7  UNL d   1       5.590   3.414  -2.907  0.00  0.00     0.002 A 
ATOM      6  C8  UNL d   1       4.231   3.414  -2.589  0.00  0.00     0.002 A 
ENDROOT
BRANCH   1   7
ATOM      7  C2  UNL d   1       1.796   3.574  -3.245  0.00  0.00     0.056 C 
BRANCH   7   8
ATOM      8  C1  UNL d   1       1.482   2.922  -1.894  0.00  0.00     0.007 C 
ATOM      9  C   UNL d   1       1.530   1.401  -1.935  0.00  0.00     0.009 C 
ENDBRANCH   7   8
ENDBRANCH   1   7
TORSDOF 2
ENDMDL
