MODEL 1
REMARK minimizedAffinity -3.60112524
REMARK minimizedRMSD -1
REMARK  2 active torsions:
REMARK  status: ('A' for Active; 'I' for Inactive)
REMARK    1  A    between atoms: C1_2  and  C2_3 
REMARK    2  A    between atoms: C2_3  and  C3_4 
ROOT
ATOM      1  C3  UNL d   1       2.413   4.742  -3.824  0.00  0.00    -0.075 A 
ATOM      2  C4  UNL d   1       1.293   5.311  -3.201  0.00  0.00     0.002 A 
ATOM      3  C5  UNL d   1       0.299   5.931  -3.958  0.00  0.00     0.002 A 
ATOM      4  C6  UNL d   1       0.416   5.999  -5.345  0.00  0.00    -0.004 A 
ATOM      5  C7  UNL d   1       1.532   5.452  -5.974  0.00  0.00     0.002 A 
ATOM      6  C8  UNL d   1       2.526   4.827  -5.218  0.00  0.00     0.002 A 
ENDROOT
BRANCH   1   7
ATOM      7  C2  UNL d   1       3.477   4.044  -3.013  0.00  0.00     0.056 C 
BRANCH   7   8
ATOM      8  C1  UNL d   1       4.872   4.086  -3.646  0.00  0.00     0.007 C 
ATOM      9  C   UNL d   1       5.996   4.143  -2.620  0.00  0.00     0.009 C 
ENDBRANCH   7   8
ENDBRANCH   1   7
TORSDOF 2
ENDMDL
