MODEL 1
REMARK minimizedAffinity -2.74591398
REMARK minimizedRMSD -1
REMARK  2 active torsions:
REMARK  status: ('A' for Active; 'I' for Inactive)
REMARK    1  A    between atoms: C1_2  and  C2_3 
REMARK    2  A    between atoms: C2_3  and  C3_4 
ROOT
ATOM      1  C3  UNL d   1       1.450   1.545   2.316  0.00  0.00    -0.075 A 
ATOM      2  C4  UNL d   1       2.841   1.659   2.453  0.00  0.00     0.002 A 
ATOM      3  C5  UNL d   1       3.435   1.612   3.714  0.00  0.00     0.002 A 
ATOM      4  C6  UNL d   1       2.647   1.460   4.853  0.00  0.00    -0.004 A 
ATOM      5  C7  UNL d   1       1.262   1.362   4.730  0.00  0.00     0.002 A 
ATOM      6  C8  UNL d   1       0.666   1.405   3.469  0.00  0.00     0.002 A 
ENDROOT
BRANCH   1   7
ATOM      7  C2  UNL d   1       0.804   1.566   0.951  0.00  0.00     0.056 C 
BRANCH   7   8
ATOM      8  C1  UNL d   1      -0.412   0.641   0.822  0.00  0.00     0.007 C 
ATOM      9  C   UNL d   1      -0.076  -0.709   0.202  0.00  0.00     0.009 C 
ENDBRANCH   7   8
ENDBRANCH   1   7
TORSDOF 2
ENDMDL
