MODEL 1
REMARK minimizedAffinity -3.82527399
REMARK minimizedRMSD -1
REMARK  2 active torsions:
REMARK  status: ('A' for Active; 'I' for Inactive)
REMARK    1  A    between atoms: C1_2  and  C2_3 
REMARK    2  A    between atoms: C2_3  and  C3_4 
ROOT
ATOM      1  C3  UNL d   1      -1.002  -0.876   2.041  0.00  0.00    -0.075 A 
ATOM      2  C4  UNL d   1      -1.863  -0.430   3.054  0.00  0.00     0.002 A 
ATOM      3  C5  UNL d   1      -2.651  -1.336   3.764  0.00  0.00     0.002 A 
ATOM      4  C6  UNL d   1      -2.595  -2.696   3.465  0.00  0.00    -0.004 A 
ATOM      5  C7  UNL d   1      -1.756  -3.148   2.450  0.00  0.00     0.002 A 
ATOM      6  C8  UNL d   1      -0.963  -2.244   1.740  0.00  0.00     0.002 A 
ENDROOT
BRANCH   1   7
ATOM      7  C2  UNL d   1      -0.125   0.096   1.288  0.00  0.00     0.056 C 
BRANCH   7   8
ATOM      8  C1  UNL d   1       1.233   0.353   1.950  0.00  0.00     0.007 C 
ATOM      9  C   UNL d   1       1.190   1.457   2.998  0.00  0.00     0.009 C 
ENDBRANCH   7   8
ENDBRANCH   1   7
TORSDOF 2
ENDMDL
