MODEL 1
REMARK minimizedAffinity 5.59856033
REMARK minimizedRMSD -1
REMARK  2 active torsions:
REMARK  status: ('A' for Active; 'I' for Inactive)
REMARK    1  A    between atoms: C1_2  and  C2_3 
REMARK    2  A    between atoms: C2_3  and  C3_4 
ROOT
ATOM      1  C3  UNL d   1       4.061   3.461   4.449  0.00  0.00    -0.075 A 
ATOM      2  C4  UNL d   1       3.312   4.570   4.030  0.00  0.00     0.002 A 
ATOM      3  C5  UNL d   1       3.905   5.829   3.933  0.00  0.00     0.002 A 
ATOM      4  C6  UNL d   1       5.248   5.997   4.261  0.00  0.00    -0.004 A 
ATOM      5  C7  UNL d   1       5.998   4.905   4.695  0.00  0.00     0.002 A 
ATOM      6  C8  UNL d   1       5.408   3.644   4.789  0.00  0.00     0.002 A 
ENDROOT
BRANCH   1   7
ATOM      7  C2  UNL d   1       3.432   2.090   4.529  0.00  0.00     0.056 C 
BRANCH   7   8
ATOM      8  C1  UNL d   1       1.903   2.099   4.439  0.00  0.00     0.007 C 
ATOM      9  C   UNL d   1       1.226   1.471   5.651  0.00  0.00     0.009 C 
ENDBRANCH   7   8
ENDBRANCH   1   7
TORSDOF 2
ENDMDL
