MODEL 1
REMARK minimizedAffinity 4.57649851
REMARK minimizedRMSD -1
REMARK  1 active torsions:
REMARK  status: ('A' for Active; 'I' for Inactive)
REMARK    1  A    between atoms: N_2  and  C1_3 
ROOT
ATOM      1  C1  UNL d   1       0.851   4.464  -0.129  0.00  0.00     0.143 A 
ATOM      2  C2  UNL d   1       0.368   3.463   0.721  0.00  0.00    -0.057 A 
ATOM      3  C3  UNL d   1       0.993   3.185   1.942  0.00  0.00     0.033 A 
ATOM      4  C4  UNL d   1       2.134   3.884   2.322  0.00  0.00    -0.042 A 
ATOM      5  C5  UNL d   1       2.646   4.866   1.482  0.00  0.00     0.033 A 
ATOM      6  C6  UNL d   1       2.013   5.145   0.266  0.00  0.00    -0.057 A 
ENDROOT
BRANCH   1   7
ATOM      7  N   UNL d   1       0.332   4.721  -1.401  0.00  0.00    -0.732 N 
ATOM      8  C   UNL d   1       1.143   5.364  -2.412  0.00  0.00     0.284 C 
ATOM      9  H3  UNL d   1      -0.238   3.954  -1.750  0.00  0.00     0.395 HD
ENDBRANCH   1   7
TORSDOF 1
ENDMDL
