MODEL 1
REMARK minimizedAffinity -0.69713217
REMARK minimizedRMSD -1
REMARK  1 active torsions:
REMARK  status: ('A' for Active; 'I' for Inactive)
REMARK    1  A    between atoms: N_2  and  C1_3 
ROOT
ATOM      1  C1  UNL d   1      -4.129   2.793  -3.681  0.00  0.00     0.143 A 
ATOM      2  C2  UNL d   1      -3.979   3.383  -4.940  0.00  0.00    -0.057 A 
ATOM      3  C3  UNL d   1      -4.838   3.064  -5.998  0.00  0.00     0.033 A 
ATOM      4  C4  UNL d   1      -5.848   2.123  -5.823  0.00  0.00    -0.042 A 
ATOM      5  C5  UNL d   1      -6.000   1.506  -4.587  0.00  0.00     0.033 A 
ATOM      6  C6  UNL d   1      -5.143   1.834  -3.532  0.00  0.00    -0.057 A 
ENDROOT
BRANCH   1   7
ATOM      7  N   UNL d   1      -3.246   2.995  -2.617  0.00  0.00    -0.732 N 
ATOM      8  C   UNL d   1      -2.620   4.283  -2.413  0.00  0.00     0.284 C 
ATOM      9  H3  UNL d   1      -3.561   2.546  -1.760  0.00  0.00     0.395 HD
ENDBRANCH   1   7
TORSDOF 1
ENDMDL
