MODEL 1
REMARK minimizedAffinity 1.37423527
REMARK minimizedRMSD -1
REMARK  1 active torsions:
REMARK  status: ('A' for Active; 'I' for Inactive)
REMARK    1  A    between atoms: N_2  and  C1_3 
ROOT
ATOM      1  C1  UNL d   1      -0.142  -3.171  -2.197  0.00  0.00     0.143 A 
ATOM      2  C2  UNL d   1       0.585  -2.616  -3.255  0.00  0.00    -0.057 A 
ATOM      3  C3  UNL d   1      -0.004  -2.399  -4.506  0.00  0.00     0.033 A 
ATOM      4  C4  UNL d   1      -1.328  -2.761  -4.730  0.00  0.00    -0.042 A 
ATOM      5  C5  UNL d   1      -2.064  -3.337  -3.700  0.00  0.00     0.033 A 
ATOM      6  C6  UNL d   1      -1.471  -3.545  -2.451  0.00  0.00    -0.057 A 
ENDROOT
BRANCH   1   7
ATOM      7  N   UNL d   1       0.415  -3.503  -0.960  0.00  0.00    -0.732 N 
ATOM      8  C   UNL d   1       0.464  -4.881  -0.519  0.00  0.00     0.284 C 
ATOM      9  H3  UNL d   1       1.259  -2.972  -0.759  0.00  0.00     0.395 HD
ENDBRANCH   1   7
TORSDOF 1
ENDMDL
