MODEL 1
REMARK minimizedAffinity -4.31789303
REMARK minimizedRMSD -1
REMARK  1 active torsions:
REMARK  status: ('A' for Active; 'I' for Inactive)
REMARK    1  A    between atoms: N_2  and  C1_3 
ROOT
ATOM      1  C1  UNL d   1      -4.895   2.267  -4.026  0.00  0.00     0.143 A 
ATOM      2  C2  UNL d   1      -3.761   2.059  -4.819  0.00  0.00    -0.057 A 
ATOM      3  C3  UNL d   1      -3.710   1.016  -5.753  0.00  0.00     0.033 A 
ATOM      4  C4  UNL d   1      -4.784   0.143  -5.889  0.00  0.00    -0.042 A 
ATOM      5  C5  UNL d   1      -5.911   0.316  -5.094  0.00  0.00     0.033 A 
ATOM      6  C6  UNL d   1      -5.959   1.363  -4.168  0.00  0.00    -0.057 A 
ENDROOT
BRANCH   1   7
ATOM      7  N   UNL d   1      -4.969   3.224  -3.011  0.00  0.00    -0.732 N 
ATOM      8  C   UNL d   1      -5.999   4.241  -3.031  0.00  0.00     0.284 C 
ATOM      9  H3  UNL d   1      -4.793   2.829  -2.091  0.00  0.00     0.395 HD
ENDBRANCH   1   7
TORSDOF 1
ENDMDL
