MODEL 1
REMARK minimizedAffinity 5.19708061
REMARK minimizedRMSD -1
REMARK  1 active torsions:
REMARK  status: ('A' for Active; 'I' for Inactive)
REMARK    1  A    between atoms: N_2  and  C1_3 
ROOT
ATOM      1  C1  UNL d   1      -4.956   3.614  -4.506  0.00  0.00     0.143 A 
ATOM      2  C2  UNL d   1      -3.765   3.036  -4.054  0.00  0.00    -0.057 A 
ATOM      3  C3  UNL d   1      -3.624   2.606  -2.729  0.00  0.00     0.033 A 
ATOM      4  C4  UNL d   1      -4.666   2.773  -1.823  0.00  0.00    -0.042 A 
ATOM      5  C5  UNL d   1      -5.849   3.368  -2.244  0.00  0.00     0.033 A 
ATOM      6  C6  UNL d   1      -5.986   3.790  -3.570  0.00  0.00    -0.057 A 
ENDROOT
BRANCH   1   7
ATOM      7  N   UNL d   1      -5.123   4.152  -5.785  0.00  0.00    -0.732 N 
ATOM      8  C   UNL d   1      -5.998   5.285  -6.000  0.00  0.00     0.284 C 
ATOM      9  H3  UNL d   1      -4.249   4.197  -6.305  0.00  0.00     0.395 HD
ENDBRANCH   1   7
TORSDOF 1
ENDMDL
