MODEL 1
REMARK minimizedAffinity -1.33781195
REMARK minimizedRMSD -1
REMARK  0 active torsions:
REMARK  status: ('A' for Active; 'I' for Inactive)
ROOT
ATOM      1  C4' PXY d   1      -4.658  -5.966  -0.798  0.00  0.00     0.077 C 
ATOM      2  C1' PXY d   1      -2.076  -5.854  -5.968  0.00  0.00     0.077 C 
ATOM      3  C1  PXY d   1      -2.764  -5.879  -4.618  0.00  0.00    -0.082 A 
ATOM      4  C2  PXY d   1      -2.039  -5.810  -3.513  0.00  0.00     0.003 A 
ATOM      5  C3  PXY d   1      -2.643  -5.863  -2.283  0.00  0.00     0.003 A 
ATOM      6  C4  PXY d   1      -4.006  -5.934  -2.183  0.00  0.00    -0.082 A 
ATOM      7  C5  PXY d   1      -4.754  -5.995  -3.306  0.00  0.00     0.003 A 
ATOM      8  C6  PXY d   1      -4.119  -5.981  -4.544  0.00  0.00     0.003 A 
ENDROOT
TORSDOF 0
ENDMDL
