MODEL 1
REMARK minimizedAffinity 4.45095491
REMARK minimizedRMSD -1
REMARK  0 active torsions:
REMARK  status: ('A' for Active; 'I' for Inactive)
ROOT
ATOM      1  C4' PXY d   1      -0.345  -5.685  -4.531  0.00  0.00     0.077 C 
ATOM      2  C1' PXY d   1      -5.100  -5.958  -1.255  0.00  0.00     0.077 C 
ATOM      3  C1  PXY d   1      -3.847  -5.881  -2.104  0.00  0.00    -0.082 A 
ATOM      4  C2  PXY d   1      -3.949  -5.886  -3.423  0.00  0.00     0.003 A 
ATOM      5  C3  PXY d   1      -2.824  -5.849  -4.206  0.00  0.00     0.003 A 
ATOM      6  C4  PXY d   1      -1.584  -5.752  -3.634  0.00  0.00    -0.082 A 
ATOM      7  C5  PXY d   1      -1.472  -5.735  -2.289  0.00  0.00     0.003 A 
ATOM      8  C6  PXY d   1      -2.624  -5.816  -1.511  0.00  0.00     0.003 A 
ENDROOT
TORSDOF 0
ENDMDL
