MODEL 1
REMARK minimizedAffinity 3.55078149
REMARK minimizedRMSD -1
REMARK  0 active torsions:
REMARK  status: ('A' for Active; 'I' for Inactive)
ROOT
ATOM      1  C4' PXY d   1      -4.122  -6.000  -3.013  0.00  0.00     0.077 C 
ATOM      2  C1' PXY d   1       1.655  -5.970  -3.207  0.00  0.00     0.077 C 
ATOM      3  C1  PXY d   1       0.139  -5.972  -3.169  0.00  0.00    -0.082 A 
ATOM      4  C2  PXY d   1      -0.485  -5.964  -2.002  0.00  0.00     0.003 A 
ATOM      5  C3  PXY d   1      -1.855  -5.999  -1.948  0.00  0.00     0.003 A 
ATOM      6  C4  PXY d   1      -2.594  -5.988  -3.101  0.00  0.00    -0.082 A 
ATOM      7  C5  PXY d   1      -1.964  -5.986  -4.295  0.00  0.00     0.003 A 
ATOM      8  C6  PXY d   1      -0.573  -5.992  -4.328  0.00  0.00     0.003 A 
ENDROOT
TORSDOF 0
ENDMDL
